ZINC00968263
 OpenBabel08292219463D

 43 45  0  0  0  0  0  0  0  0999 V2000
   -0.0178    1.4648    0.0101 C   0  0  0  0  0  0  0  0  0  0  0  0
    0.0021   -0.0041    0.0020 N   0  3  0  0  0  0  0  0  0  0  0  0
    0.7126   -0.4907    1.1921 C   0  0  0  0  0  0  0  0  0  0  0  0
   -1.3761   -0.5125    0.0124 C   0  0  0  0  0  0  0  0  0  0  0  0
   -2.0780   -0.1101   -1.2861 C   0  0  0  0  0  0  0  0  0  0  0  0
   -3.4918   -0.6317   -1.2754 C   0  0  0  0  0  0  0  0  0  0  0  0
   -4.5191    0.2107   -1.4629 C   0  0  0  0  0  0  0  0  0  0  0  0
   -4.2863    1.6562   -1.6882 C   0  0  0  0  0  0  0  0  0  0  0  0
   -3.5096    2.0780   -2.7624 C   0  0  0  0  0  0  0  0  0  0  0  0
   -3.3334    3.4268   -2.9989 C   0  0  0  0  0  0  0  0  0  0  0  0
   -3.9320    4.3646   -2.1731 C   0  0  0  0  0  0  0  0  0  0  0  0
   -4.6888    3.9659   -1.0933 C   0  0  0  0  0  0  0  0  0  0  0  0
   -4.8594    2.6030   -0.8192 C   0  0  0  0  0  0  0  0  0  0  0  0
   -5.5835    2.1923    0.3795 C   0  0  0  0  0  0  0  0  0  0  0  0
   -6.4239    1.1868    0.5069 C   0  0  0  0  0  0  0  0  0  0  0  0
   -6.8386    0.2390   -0.5240 C   0  0  0  0  0  0  0  0  0  0  0  0
   -5.9163   -0.2803   -1.4562 C   0  0  0  0  0  0  0  0  0  0  0  0
   -6.3177   -1.2436   -2.3772 C   0  0  0  0  0  0  0  0  0  0  0  0
   -7.6336   -1.6594   -2.4118 C   0  0  0  0  0  0  0  0  0  0  0  0
   -8.5606   -1.1188   -1.5353 C   0  0  0  0  0  0  0  0  0  0  0  0
   -8.1743   -0.1768   -0.5876 C   0  0  0  0  0  0  0  0  0  0  0  0
    1.0047    1.8421    0.0024 H   0  0  0  0  0  0  0  0  0  0  0  0
   -0.5450    1.8259   -0.8730 H   0  0  0  0  0  0  0  0  0  0  0  0
   -0.5280    1.8163    0.9069 H   0  0  0  0  0  0  0  0  0  0  0  0
    0.2024   -0.1392    2.0889 H   0  0  0  0  0  0  0  0  0  0  0  0
    0.7273   -1.5806    1.1861 H   0  0  0  0  0  0  0  0  0  0  0  0
    1.7352   -0.1134    1.1844 H   0  0  0  0  0  0  0  0  0  0  0  0
   -1.3618   -1.5992    0.0961 H   0  0  0  0  0  0  0  0  0  0  0  0
   -1.9129   -0.0898    0.8617 H   0  0  0  0  0  0  0  0  0  0  0  0
   -2.0923    0.9766   -1.3697 H   0  0  0  0  0  0  0  0  0  0  0  0
   -1.5412   -0.5328   -2.1354 H   0  0  0  0  0  0  0  0  0  0  0  0
   -3.6781   -1.6837   -1.1169 H   0  0  0  0  0  0  0  0  0  0  0  0
   -3.0442    1.3506   -3.4110 H   0  0  0  0  0  0  0  0  0  0  0  0
   -2.7262    3.7522   -3.8307 H   0  0  0  0  0  0  0  0  0  0  0  0
   -3.8039    5.4173   -2.3776 H   0  0  0  0  0  0  0  0  0  0  0  0
   -5.1516    4.7057   -0.4569 H   0  0  0  0  0  0  0  0  0  0  0  0
   -5.4091    2.7827    1.2669 H   0  0  0  0  0  0  0  0  0  0  0  0
   -6.8561    1.0465    1.4867 H   0  0  0  0  0  0  0  0  0  0  0  0
   -5.5997   -1.6655   -3.0650 H   0  0  0  0  0  0  0  0  0  0  0  0
   -7.9419   -2.4092   -3.1254 H   0  0  0  0  0  0  0  0  0  0  0  0
   -9.5924   -1.4338   -1.5855 H   0  0  0  0  0  0  0  0  0  0  0  0
   -8.9017    0.2396    0.0934 H   0  0  0  0  0  0  0  0  0  0  0  0
    0.4743   -0.3295   -0.8281 H   0  0  0  0  0  0  0  0  0  0  0  0
  1  2  1  0  0  0  0
  1 22  1  0  0  0  0
  1 23  1  0  0  0  0
  1 24  1  0  0  0  0
  2  3  1  0  0  0  0
  2  4  1  0  0  0  0
  2 43  1  0  0  0  0
  3 25  1  0  0  0  0
  3 26  1  0  0  0  0
  3 27  1  0  0  0  0
  4  5  1  0  0  0  0
  4 28  1  0  0  0  0
  4 29  1  0  0  0  0
  5  6  1  0  0  0  0
  5 30  1  0  0  0  0
  5 31  1  0  0  0  0
  6  7  2  0  0  0  0
  6 32  1  0  0  0  0
  7 17  1  0  0  0  0
  7  8  1  0  0  0  0
  8 13  2  0  0  0  0
  8  9  1  0  0  0  0
  9 10  2  0  0  0  0
  9 33  1  0  0  0  0
 10 11  1  0  0  0  0
 10 34  1  0  0  0  0
 11 12  2  0  0  0  0
 11 35  1  0  0  0  0
 12 13  1  0  0  0  0
 12 36  1  0  0  0  0
 13 14  1  0  0  0  0
 14 15  2  0  0  0  0
 14 37  1  0  0  0  0
 15 16  1  0  0  0  0
 15 38  1  0  0  0  0
 16 21  2  0  0  0  0
 16 17  1  0  0  0  0
 17 18  2  0  0  0  0
 18 19  1  0  0  0  0
 18 39  1  0  0  0  0
 19 20  2  0  0  0  0
 19 40  1  0  0  0  0
 20 21  1  0  0  0  0
 20 41  1  0  0  0  0
 21 42  1  0  0  0  0
M  CHG  1   2   1
M  END
$$$$
