ZINC03874496
 OpenBabel08292219463D

 29 30  0  0  0  0  0  0  0  0999 V2000
    0.0648    1.2424   -0.6206 C   0  0  0  0  0  0  0  0  0  0  0  0
    1.2502    1.9519   -0.6188 C   0  0  0  0  0  0  0  0  0  0  0  0
    2.3815    1.4095   -0.0244 C   0  0  0  0  0  0  0  0  0  0  0  0
    2.3172    0.1532    0.5673 C   0  0  0  0  0  0  0  0  0  0  0  0
    1.1283   -0.5509    0.5618 C   0  0  0  0  0  0  0  0  0  0  0  0
    0.0037   -0.0068   -0.0315 C   0  0  0  0  0  0  0  0  0  0  0  0
   -1.2685   -0.7635   -0.0352 N   0  0  0  0  0  4  0  0  0  0  0  0
   -2.2526   -0.2891   -0.5531 O   0  0  0  0  0  0  0  0  0  0  0  0
   -1.3236   -1.8560    0.4796 O   0  5  0  0  0  0  0  0  0  0  0  0
    3.7288   -0.5303    1.3116 Cl  0  0  0  0  0  0  0  0  0  0  0  0
    3.5835    2.1253   -0.0212 N   0  0  0  0  0  0  0  0  0  0  0  0
    3.5675    3.4697   -0.1160 C   0  0  0  0  0  0  0  0  0  0  0  0
    2.5087    4.0676   -0.1029 O   0  0  0  0  0  0  0  0  0  0  0  0
    4.8344    4.2157   -0.2357 C   0  0  0  0  0  0  0  0  0  0  0  0
    6.0529    3.5323   -0.2570 C   0  0  0  0  0  0  0  0  0  0  0  0
    7.2335    4.2358   -0.3691 C   0  0  0  0  0  0  0  0  0  0  0  0
    7.2169    5.6191   -0.4608 C   0  0  0  0  0  0  0  0  0  0  0  0
    6.0194    6.3058   -0.4409 C   0  0  0  0  0  0  0  0  0  0  0  0
    4.8223    5.6136   -0.3345 C   0  0  0  0  0  0  0  0  0  0  0  0
    3.6447    6.2873   -0.3205 O   0  0  0  0  0  0  0  0  0  0  0  0
    8.7470    3.3859   -0.3949 Cl  0  0  0  0  0  0  0  0  0  0  0  0
   -0.8165    1.6661   -1.0791 H   0  0  0  0  0  0  0  0  0  0  0  0
    1.2969    2.9276   -1.0796 H   0  0  0  0  0  0  0  0  0  0  0  0
    1.0772   -1.5270    1.0212 H   0  0  0  0  0  0  0  0  0  0  0  0
    4.4284    1.6541    0.0492 H   0  0  0  0  0  0  0  0  0  0  0  0
    6.0700    2.4548   -0.1854 H   0  0  0  0  0  0  0  0  0  0  0  0
    8.1461    6.1626   -0.5479 H   0  0  0  0  0  0  0  0  0  0  0  0
    6.0146    7.3835   -0.5124 H   0  0  0  0  0  0  0  0  0  0  0  0
    3.3496    6.5452    0.5635 H   0  0  0  0  0  0  0  0  0  0  0  0
  1  6  2  0  0  0  0
  1  2  1  0  0  0  0
  1 22  1  0  0  0  0
  2  3  2  0  0  0  0
  2 23  1  0  0  0  0
  3  4  1  0  0  0  0
  3 11  1  0  0  0  0
  4  5  2  0  0  0  0
  4 10  1  0  0  0  0
  5  6  1  0  0  0  0
  5 24  1  0  0  0  0
  6  7  1  0  0  0  0
  7  8  2  0  0  0  0
  7  9  1  0  0  0  0
 11 12  1  0  0  0  0
 11 25  1  0  0  0  0
 12 13  2  0  0  0  0
 12 14  1  0  0  0  0
 14 19  2  0  0  0  0
 14 15  1  0  0  0  0
 15 16  2  0  0  0  0
 15 26  1  0  0  0  0
 16 17  1  0  0  0  0
 16 21  1  0  0  0  0
 17 18  2  0  0  0  0
 17 27  1  0  0  0  0
 18 19  1  0  0  0  0
 18 28  1  0  0  0  0
 19 20  1  0  0  0  0
 20 29  1  0  0  0  0
M  CHG  1   9  -1
M  END
$$$$
