ZINC00601281
 OpenBabel08292219463D

 63 65  0  0  1  0  0  0  0  0999 V2000
    2.2669   -3.2495    2.2539 C   0  0  0  0  0  0  0  0  0  0  0  0
    2.2073   -2.3527    1.0157 C   0  0  0  0  0  0  0  0  0  0  0  0
    3.4803   -1.5526    0.9132 C   0  0  0  0  0  0  0  0  0  0  0  0
    4.3894   -1.7574    1.6895 O   0  0  0  0  0  0  0  0  0  0  0  0
    3.6085   -0.6096   -0.0410 N   0  0  0  0  0  0  0  0  0  0  0  0
    2.5242   -0.3010   -0.8698 C   0  0  0  0  0  0  0  0  0  0  0  0
    2.0052   -1.2647   -1.7245 C   0  0  0  0  0  0  0  0  0  0  0  0
    0.9346   -0.9571   -2.5410 C   0  0  0  0  0  0  0  0  0  0  0  0
    0.3797    0.3091   -2.5084 C   0  0  0  0  0  0  0  0  0  0  0  0
    0.8942    1.2710   -1.6585 C   0  0  0  0  0  0  0  0  0  0  0  0
    1.9644    0.9696   -0.8392 C   0  0  0  0  0  0  0  0  0  0  0  0
    4.8831    0.0925   -0.2106 C   0  0  2  0  0  0  0  0  0  0  0  0
    4.8346    0.9407   -1.4844 C   0  0  0  0  0  0  0  0  0  0  0  0
    4.6453    0.0216   -2.6950 C   0  0  0  0  0  0  0  0  0  0  0  0
    5.7938   -1.7924   -1.5714 C   0  0  0  0  0  0  0  0  0  0  0  0
    6.0180   -0.9287   -0.3281 C   0  0  0  0  0  0  0  0  0  0  0  0
    5.6813   -1.7427   -3.9891 C   0  0  0  0  0  0  0  0  0  0  0  0
    5.8945   -0.8413   -5.2069 C   0  0  0  0  0  0  0  0  0  0  0  0
    5.8196   -1.6458   -6.4289 N   0  0  0  0  0  0  0  0  0  0  0  0
    4.7063   -1.9031   -7.1488 C   0  0  0  0  0  0  0  0  0  0  0  0
    3.5768   -1.5141   -6.9100 O   0  0  0  0  0  0  0  0  0  0  0  0
    5.0930   -2.6770   -8.1859 N   0  0  0  0  0  0  0  0  0  0  0  0
    6.4737   -2.8781   -8.0686 N   0  0  0  0  0  0  0  0  0  0  0  0
    6.8901   -2.2835   -7.0676 N   0  0  0  0  0  0  0  0  0  0  0  0
    4.2263   -3.2091   -9.2403 C   0  0  0  0  0  0  0  0  0  0  0  0
    4.1635   -2.2130  -10.4000 C   0  0  0  0  0  0  0  0  0  0  0  0
    5.1329    0.9977    0.9973 C   0  0  0  0  0  0  0  0  0  0  0  0
    4.0532    1.9245    1.1293 O   0  0  0  0  0  0  0  0  0  0  0  0
    4.1888    2.8214    2.2335 C   0  0  0  0  0  0  0  0  0  0  0  0
    1.3462   -3.8282    2.3280 H   0  0  0  0  0  0  0  0  0  0  0  0
    3.1164   -3.9274    2.1709 H   0  0  0  0  0  0  0  0  0  0  0  0
    2.3806   -2.6319    3.1448 H   0  0  0  0  0  0  0  0  0  0  0  0
    1.3578   -1.6748    1.0987 H   0  0  0  0  0  0  0  0  0  0  0  0
    2.0936   -2.9703    0.1249 H   0  0  0  0  0  0  0  0  0  0  0  0
    2.4386   -2.2536   -1.7509 H   0  0  0  0  0  0  0  0  0  0  0  0
    0.5305   -1.7061   -3.2059 H   0  0  0  0  0  0  0  0  0  0  0  0
   -0.4543    0.5487   -3.1513 H   0  0  0  0  0  0  0  0  0  0  0  0
    0.4589    2.2591   -1.6356 H   0  0  0  0  0  0  0  0  0  0  0  0
    2.3655    1.7211   -0.1753 H   0  0  0  0  0  0  0  0  0  0  0  0
    4.0018    1.6412   -1.4237 H   0  0  0  0  0  0  0  0  0  0  0  0
    5.7685    1.4929   -1.5897 H   0  0  0  0  0  0  0  0  0  0  0  0
    4.6251    0.6203   -3.6056 H   0  0  0  0  0  0  0  0  0  0  0  0
    3.7047   -0.5201   -2.5956 H   0  0  0  0  0  0  0  0  0  0  0  0
    6.6078   -2.5112   -1.6658 H   0  0  0  0  0  0  0  0  0  0  0  0
    4.8477   -2.3255   -1.4775 H   0  0  0  0  0  0  0  0  0  0  0  0
    6.9704   -0.4058   -0.4151 H   0  0  0  0  0  0  0  0  0  0  0  0
    6.0305   -1.5625    0.5586 H   0  0  0  0  0  0  0  0  0  0  0  0
    6.4539   -2.5112   -3.9661 H   0  0  0  0  0  0  0  0  0  0  0  0
    4.7010   -2.2148   -4.0537 H   0  0  0  0  0  0  0  0  0  0  0  0
    5.1219   -0.0728   -5.2298 H   0  0  0  0  0  0  0  0  0  0  0  0
    6.8748   -0.3692   -5.1422 H   0  0  0  0  0  0  0  0  0  0  0  0
    4.6286   -4.1573   -9.5972 H   0  0  0  0  0  0  0  0  0  0  0  0
    3.2241   -3.3666   -8.8419 H   0  0  0  0  0  0  0  0  0  0  0  0
    3.7612   -1.2649  -10.0431 H   0  0  0  0  0  0  0  0  0  0  0  0
    5.1657   -2.0556  -10.7984 H   0  0  0  0  0  0  0  0  0  0  0  0
    3.5187   -2.6090  -11.1845 H   0  0  0  0  0  0  0  0  0  0  0  0
    5.2019    0.3894    1.8992 H   0  0  0  0  0  0  0  0  0  0  0  0
    6.0653    1.5440    0.8553 H   0  0  0  0  0  0  0  0  0  0  0  0
    3.3299    3.4918    2.2647 H   0  0  0  0  0  0  0  0  0  0  0  0
    4.2382    2.2509    3.1610 H   0  0  0  0  0  0  0  0  0  0  0  0
    5.1017    3.4055    2.1172 H   0  0  0  0  0  0  0  0  0  0  0  0
    5.7823   -0.9209   -2.7654 N   0  3  1  0  0  0  0  0  0  0  0  0
    6.6577   -0.3851   -2.7950 H   0  0  0  0  0  0  0  0  0  0  0  0
  1  2  1  0  0  0  0
  1 30  1  0  0  0  0
  1 31  1  0  0  0  0
  1 32  1  0  0  0  0
  2  3  1  0  0  0  0
  2 33  1  0  0  0  0
  2 34  1  0  0  0  0
  3  4  2  0  0  0  0
  3  5  1  0  0  0  0
  5  6  1  0  0  0  0
  6 11  2  0  0  0  0
  6  7  1  0  0  0  0
  7  8  2  0  0  0  0
  7 35  1  0  0  0  0
  8  9  1  0  0  0  0
  8 36  1  0  0  0  0
  9 10  2  0  0  0  0
  9 37  1  0  0  0  0
 10 11  1  0  0  0  0
 10 38  1  0  0  0  0
 11 39  1  0  0  0  0
 12  5  1  1  0  0  0
 12 16  1  0  0  0  0
 12 13  1  0  0  0  0
 12 27  1  0  0  0  0
 13 14  1  0  0  0  0
 13 40  1  0  0  0  0
 13 41  1  0  0  0  0
 14 42  1  0  0  0  0
 14 43  1  0  0  0  0
 14 62  1  0  0  0  0
 15 16  1  0  0  0  0
 15 44  1  0  0  0  0
 15 45  1  0  0  0  0
 15 62  1  0  0  0  0
 16 46  1  0  0  0  0
 16 47  1  0  0  0  0
 17 18  1  0  0  0  0
 17 48  1  0  0  0  0
 17 49  1  0  0  0  0
 17 62  1  0  0  0  0
 18 19  1  0  0  0  0
 18 50  1  0  0  0  0
 18 51  1  0  0  0  0
 19 24  1  0  0  0  0
 19 20  1  0  0  0  0
 20 21  2  0  0  0  0
 20 22  1  0  0  0  0
 22 23  1  0  0  0  0
 22 25  1  0  0  0  0
 23 24  2  0  0  0  0
 25 26  1  0  0  0  0
 25 52  1  0  0  0  0
 25 53  1  0  0  0  0
 26 54  1  0  0  0  0
 26 55  1  0  0  0  0
 26 56  1  0  0  0  0
 27 28  1  0  0  0  0
 27 57  1  0  0  0  0
 27 58  1  0  0  0  0
 28 29  1  0  0  0  0
 29 59  1  0  0  0  0
 29 60  1  0  0  0  0
 29 61  1  0  0  0  0
 62 63  1  6  0  0  0
M  CHG  1  62   1
M  END
$$$$
