ZINC00001370
 OpenBabel08292219463D

 32 35  0  0  0  0  0  0  0  0999 V2000
   -0.0168    1.3790    0.0114 C   0  0  0  0  0  0  0  0  0  0  0  0
    0.0329    0.0607   -0.4054 C   0  0  0  0  0  0  0  0  0  0  0  0
    1.2356   -0.6152   -0.4235 C   0  0  0  0  0  0  0  0  0  0  0  0
    2.4029    0.0333   -0.0206 C   0  0  0  0  0  0  0  0  0  0  0  0
    2.3463    1.3624    0.3985 C   0  0  0  0  0  0  0  0  0  0  0  0
    1.1376    2.0276    0.4123 C   0  0  0  0  0  0  0  0  0  0  0  0
    3.6974   -0.6868   -0.0373 C   0  0  0  0  0  0  0  0  0  0  0  0
    4.7512    0.0483   -0.1397 N   0  0  0  0  0  0  0  0  0  0  0  0
    6.1001   -0.5274   -0.1499 C   0  0  0  0  0  0  0  0  0  0  0  0
    6.1978   -1.4490   -1.3396 C   0  0  0  0  0  0  0  0  0  0  0  0
    7.0332   -1.3704   -2.3354 N   0  0  0  0  0  0  0  0  0  0  0  0
    6.7883   -2.3110   -3.1803 N   0  0  0  0  0  0  0  0  0  0  0  0
    5.7900   -3.0417   -2.7565 C   0  0  0  0  0  0  0  0  0  0  0  0
    5.4033   -2.5252   -1.5602 N   0  0  0  0  0  0  0  0  0  0  0  0
    4.4182   -3.0058   -0.6974 C   0  0  0  0  0  0  0  0  0  0  0  0
    3.6215   -2.1482    0.0707 C   0  0  0  0  0  0  0  0  0  0  0  0
    2.6990   -2.6976    0.9729 C   0  0  0  0  0  0  0  0  0  0  0  0
    2.5551   -4.0629    1.0821 C   0  0  0  0  0  0  0  0  0  0  0  0
    3.3203   -4.9088    0.2958 C   0  0  0  0  0  0  0  0  0  0  0  0
    4.2459   -4.3825   -0.5963 C   0  0  0  0  0  0  0  0  0  0  0  0
    1.4123   -4.7256    2.2084 Cl  0  0  0  0  0  0  0  0  0  0  0  0
   -0.9599    1.9052    0.0196 H   0  0  0  0  0  0  0  0  0  0  0  0
   -0.8717   -0.4405   -0.7168 H   0  0  0  0  0  0  0  0  0  0  0  0
    1.2731   -1.6444   -0.7487 H   0  0  0  0  0  0  0  0  0  0  0  0
    3.2468    1.8697    0.7119 H   0  0  0  0  0  0  0  0  0  0  0  0
    1.0926    3.0569    0.7363 H   0  0  0  0  0  0  0  0  0  0  0  0
    6.8404    0.2679   -0.2371 H   0  0  0  0  0  0  0  0  0  0  0  0
    6.2683   -1.0904    0.7681 H   0  0  0  0  0  0  0  0  0  0  0  0
    5.3558   -3.8924   -3.2606 H   0  0  0  0  0  0  0  0  0  0  0  0
    2.0968   -2.0446    1.5873 H   0  0  0  0  0  0  0  0  0  0  0  0
    3.1931   -5.9787    0.3714 H   0  0  0  0  0  0  0  0  0  0  0  0
    4.8422   -5.0434   -1.2079 H   0  0  0  0  0  0  0  0  0  0  0  0
  1  6  2  0  0  0  0
  1  2  1  0  0  0  0
  1 22  1  0  0  0  0
  2  3  2  0  0  0  0
  2 23  1  0  0  0  0
  3  4  1  0  0  0  0
  3 24  1  0  0  0  0
  4  5  2  0  0  0  0
  4  7  1  0  0  0  0
  5  6  1  0  0  0  0
  5 25  1  0  0  0  0
  6 26  1  0  0  0  0
  7 16  1  0  0  0  0
  7  8  2  0  0  0  0
  8  9  1  0  0  0  0
  9 10  1  0  0  0  0
  9 27  1  0  0  0  0
  9 28  1  0  0  0  0
 10 14  1  0  0  0  0
 10 11  2  0  0  0  0
 11 12  1  0  0  0  0
 12 13  2  0  0  0  0
 13 14  1  0  0  0  0
 13 29  1  0  0  0  0
 14 15  1  0  0  0  0
 15 20  2  0  0  0  0
 15 16  1  0  0  0  0
 16 17  2  0  0  0  0
 17 18  1  0  0  0  0
 17 30  1  0  0  0  0
 18 19  2  0  0  0  0
 18 21  1  0  0  0  0
 19 20  1  0  0  0  0
 19 31  1  0  0  0  0
 20 32  1  0  0  0  0
M  END
$$$$
