ZINC00000607
 OpenBabel08292219463D

 39 40  0  0  1  0  0  0  0  0999 V2000
    0.1852    1.1661   -0.1095 C   0  0  0  0  0  0  0  0  0  0  0  0
    0.0656   -0.2973   -0.0637 N   0  3  0  0  0  0  0  0  0  0  0  0
    0.7447   -0.8068    1.1351 C   0  0  0  0  0  0  0  0  0  0  0  0
   -1.3543   -0.6713   -0.0183 C   0  0  0  0  0  0  0  0  0  0  0  0
   -2.0346   -0.2502   -1.3225 C   0  0  0  0  0  0  0  0  0  0  0  0
   -3.5134   -0.6397   -1.2752 C   0  0  1  0  0  0  0  0  0  0  0  0
   -3.6019   -1.7052   -1.0633 H   0  0  0  0  0  0  0  0  0  0  0  0
   -4.2057    0.1471   -0.1924 C   0  0  0  0  0  0  0  0  0  0  0  0
   -4.1545    1.5285   -0.2014 C   0  0  0  0  0  0  0  0  0  0  0  0
   -4.7896    2.2502    0.7919 C   0  0  0  0  0  0  0  0  0  0  0  0
   -5.4763    1.5905    1.7940 C   0  0  0  0  0  0  0  0  0  0  0  0
   -5.5283    0.2092    1.8026 C   0  0  0  0  0  0  0  0  0  0  0  0
   -4.8968   -0.5124    0.8068 C   0  0  0  0  0  0  0  0  0  0  0  0
   -4.1553   -0.3370   -2.6047 C   0  0  0  0  0  0  0  0  0  0  0  0
   -3.7542    0.7762   -3.3192 C   0  0  0  0  0  0  0  0  0  0  0  0
   -4.3511    1.0457   -4.5411 C   0  0  0  0  0  0  0  0  0  0  0  0
   -5.3335    0.1815   -5.0006 C   0  0  0  0  0  0  0  0  0  0  0  0
   -5.6824   -0.9117   -4.2309 C   0  0  0  0  0  0  0  0  0  0  0  0
   -5.0892   -1.1400   -3.0752 N   0  0  0  0  0  0  0  0  0  0  0  0
    1.2388    1.4436   -0.1432 H   0  0  0  0  0  0  0  0  0  0  0  0
   -0.3187    1.5442   -0.9990 H   0  0  0  0  0  0  0  0  0  0  0  0
   -0.2756    1.5964    0.7797 H   0  0  0  0  0  0  0  0  0  0  0  0
    0.2839   -0.3766    2.0243 H   0  0  0  0  0  0  0  0  0  0  0  0
    0.6559   -1.8927    1.1691 H   0  0  0  0  0  0  0  0  0  0  0  0
    1.7982   -0.5293    1.1014 H   0  0  0  0  0  0  0  0  0  0  0  0
   -1.4419   -1.7507    0.1051 H   0  0  0  0  0  0  0  0  0  0  0  0
   -1.8356   -0.1694    0.8210 H   0  0  0  0  0  0  0  0  0  0  0  0
   -1.9469    0.8293   -1.4459 H   0  0  0  0  0  0  0  0  0  0  0  0
   -1.5533   -0.7521   -2.1619 H   0  0  0  0  0  0  0  0  0  0  0  0
   -3.6180    2.0438   -0.9843 H   0  0  0  0  0  0  0  0  0  0  0  0
   -4.7489    3.3294    0.7853 H   0  0  0  0  0  0  0  0  0  0  0  0
   -5.9719    2.1544    2.5705 H   0  0  0  0  0  0  0  0  0  0  0  0
   -6.0645   -0.3062    2.5856 H   0  0  0  0  0  0  0  0  0  0  0  0
   -4.9406   -1.5915    0.8114 H   0  0  0  0  0  0  0  0  0  0  0  0
   -2.9859    1.4280   -2.9304 H   0  0  0  0  0  0  0  0  0  0  0  0
   -4.0582    1.9083   -5.1211 H   0  0  0  0  0  0  0  0  0  0  0  0
   -5.8200    0.3609   -5.9480 H   0  0  0  0  0  0  0  0  0  0  0  0
   -6.4465   -1.5895   -4.5817 H   0  0  0  0  0  0  0  0  0  0  0  0
    0.4921   -0.6956   -0.8868 H   0  0  0  0  0  0  0  0  0  0  0  0
  1  2  1  0  0  0  0
  1 20  1  0  0  0  0
  1 21  1  0  0  0  0
  1 22  1  0  0  0  0
  2  3  1  0  0  0  0
  2  4  1  0  0  0  0
  2 39  1  0  0  0  0
  3 23  1  0  0  0  0
  3 24  1  0  0  0  0
  3 25  1  0  0  0  0
  4  5  1  0  0  0  0
  4 26  1  0  0  0  0
  4 27  1  0  0  0  0
  5  6  1  0  0  0  0
  5 28  1  0  0  0  0
  5 29  1  0  0  0  0
  6  7  1  1  0  0  0
  6  8  1  0  0  0  0
  6 14  1  0  0  0  0
  8 13  2  0  0  0  0
  8  9  1  0  0  0  0
  9 10  2  0  0  0  0
  9 30  1  0  0  0  0
 10 11  1  0  0  0  0
 10 31  1  0  0  0  0
 11 12  2  0  0  0  0
 11 32  1  0  0  0  0
 12 13  1  0  0  0  0
 12 33  1  0  0  0  0
 13 34  1  0  0  0  0
 14 19  2  0  0  0  0
 14 15  1  0  0  0  0
 15 16  2  0  0  0  0
 15 35  1  0  0  0  0
 16 17  1  0  0  0  0
 16 36  1  0  0  0  0
 17 18  2  0  0  0  0
 17 37  1  0  0  0  0
 18 19  1  0  0  0  0
 18 38  1  0  0  0  0
M  CHG  1   2   1
M  END
$$$$
