ZINC01846080
 OpenBabel08292219463D

 27 27  0  0  1  0  0  0  0  0999 V2000
   -5.3173    0.4450   -1.2788 C   0  0  0  0  0  0  0  0  0  0  0  0
   -5.3160    1.2326    0.0329 C   0  0  2  0  0  0  0  0  0  0  0  0
   -5.2086    0.5433    0.8705 H   0  0  0  0  0  0  0  0  0  0  0  0
   -6.6133    1.9876    0.1668 C   0  0  0  0  0  0  0  0  0  0  0  0
   -6.6815    3.1444   -0.1912 O   0  0  0  0  0  0  0  0  0  0  0  0
   -7.6978    1.3774    0.6844 N   0  0  0  0  0  0  0  0  0  0  0  0
   -8.9590    2.1113    0.8146 C   0  0  0  0  0  0  0  0  0  0  0  0
  -10.0054    1.2092    1.4164 C   0  0  0  0  0  0  0  0  0  0  0  0
   -9.7263    0.0701    1.7069 O   0  0  0  0  0  0  0  0  0  0  0  0
   -3.9345    2.4021    0.0331 S   0  0  0  0  0  0  0  0  0  0  0  0
   -2.5799    1.2754    0.0207 C   0  0  0  0  0  0  0  0  0  0  0  0
   -2.7860    0.0756    0.0151 O   0  0  0  0  0  0  0  0  0  0  0  0
   -1.2045    1.7828    0.0173 C   0  0  0  0  0  0  0  0  0  0  0  0
   -0.0126    1.0758    0.0080 C   0  0  0  0  0  0  0  0  0  0  0  0
    1.1487    1.8081    0.0008 C   0  0  0  0  0  0  0  0  0  0  0  0
    1.0774    3.1649    0.0083 C   0  0  0  0  0  0  0  0  0  0  0  0
   -0.6288    3.4715    0.0258 S   0  0  0  0  0  0  0  0  0  0  0  0
   -4.3789   -0.1011   -1.3756 H   0  0  0  0  0  0  0  0  0  0  0  0
   -6.1492   -0.2593   -1.2789 H   0  0  0  0  0  0  0  0  0  0  0  0
   -5.4246    1.1343   -2.1163 H   0  0  0  0  0  0  0  0  0  0  0  0
   -7.6433    0.4522    0.9708 H   0  0  0  0  0  0  0  0  0  0  0  0
   -8.8107    2.9770    1.4602 H   0  0  0  0  0  0  0  0  0  0  0  0
   -9.2888    2.4443   -0.1695 H   0  0  0  0  0  0  0  0  0  0  0  0
    0.0021   -0.0041    0.0020 H   0  0  0  0  0  0  0  0  0  0  0  0
    2.1077    1.3115   -0.0110 H   0  0  0  0  0  0  0  0  0  0  0  0
    1.8873    3.8793    0.0038 H   0  0  0  0  0  0  0  0  0  0  0  0
  -11.2475    1.6712    1.6299 O   0  0  0  0  0  1  0  0  0  0  0  0
  1  2  1  0  0  0  0
  1 18  1  0  0  0  0
  1 19  1  0  0  0  0
  1 20  1  0  0  0  0
  2  3  1  1  0  0  0
  2  4  1  0  0  0  0
  2 10  1  0  0  0  0
  4  5  2  0  0  0  0
  4  6  1  0  0  0  0
  6  7  1  0  0  0  0
  6 21  1  0  0  0  0
  7  8  1  0  0  0  0
  7 22  1  0  0  0  0
  7 23  1  0  0  0  0
  8  9  2  0  0  0  0
  8 27  1  0  0  0  0
 10 11  1  0  0  0  0
 11 12  2  0  0  0  0
 11 13  1  0  0  0  0
 13 17  1  0  0  0  0
 13 14  2  0  0  0  0
 14 15  1  0  0  0  0
 14 24  1  0  0  0  0
 15 16  2  0  0  0  0
 15 25  1  0  0  0  0
 16 17  1  0  0  0  0
 16 26  1  0  0  0  0
M  END
$$$$
