ZINC87496429
 OpenBabel08292219463D

112120  0  0  1  0  0  0  0  0999 V2000
    0.7160   -0.7384   -5.0658 C   0  0  0  0  0  0  0  0  0  0  0  0
    0.6831   -2.1695   -4.5257 C   0  0  0  0  0  0  0  0  0  0  0  0
    1.7679   -2.9790   -5.1836 C   0  0  0  0  0  0  0  0  0  0  0  0
    2.9020   -3.1142   -4.5513 C   0  0  0  0  0  0  0  0  0  0  0  0
    3.9758   -3.9268   -5.3131 C   0  0  1  0  0  0  0  0  0  0  0  0
    4.9310   -3.3806   -4.9898 H   0  0  0  0  0  0  0  0  0  0  0  0
    4.1396   -5.2370   -4.6278 C   0  0  0  0  0  0  0  0  0  0  0  0
    2.9700   -6.1850   -4.6330 C   0  0  1  0  0  0  0  0  0  0  0  0
    2.4352   -6.8553   -5.8578 C   0  0  0  0  0  0  0  0  0  0  0  0
    2.3287   -6.4783   -7.1426 C   0  0  0  0  0  0  0  0  0  0  0  0
    1.6669   -7.5778   -7.8605 C   0  0  0  0  0  0  0  0  0  0  0  0
    1.2907   -7.7084   -9.2012 C   0  0  0  0  0  0  0  0  0  0  0  0
    0.6689   -8.8833   -9.5495 C   0  0  0  0  0  0  0  0  0  0  0  0
    0.4305   -9.8917   -8.6311 C   0  0  0  0  0  0  0  0  0  0  0  0
    0.7948   -9.7809   -7.2995 C   0  0  0  0  0  0  0  0  0  0  0  0
    1.4150   -8.5894   -6.9186 C   0  0  0  0  0  0  0  0  0  0  0  0
    1.8630   -8.1216   -5.7283 N   0  0  0  0  0  0  0  0  0  0  0  0
    1.7550   -8.6066   -4.8948 H   0  0  0  0  0  0  0  0  0  0  0  0
    2.7143   -5.2580   -7.9390 C   0  0  0  0  0  0  0  0  0  0  0  0
    2.5896   -3.9642   -7.3113 N   0  3  2  0  0  0  0  0  0  0  0  0
    3.9185   -3.6489   -6.7415 C   0  0  0  0  0  0  0  0  0  0  0  0
    1.4702   -3.6073   -6.5105 C   0  0  0  0  0  0  0  0  0  0  0  0
    3.4884   -7.3102   -3.7749 C   0  0  0  0  0  0  0  0  0  0  0  0
    2.8878   -7.5619   -2.5474 C   0  0  0  0  0  0  0  0  0  0  0  0
    3.3920   -8.6132   -1.8063 C   0  0  0  0  0  0  0  0  0  0  0  0
    4.4356   -9.4171   -2.2677 C   0  0  0  0  0  0  0  0  0  0  0  0
    5.0548   -9.1396   -3.4891 C   0  0  0  0  0  0  0  0  0  0  0  0
    4.5497   -8.0754   -4.2286 C   0  0  0  0  0  0  0  0  0  0  0  0
    5.1167   -7.7750   -5.4266 O   0  0  0  0  0  0  0  0  0  0  0  0
    6.2084   -8.5935   -5.8510 C   0  0  0  0  0  0  0  0  0  0  0  0
    4.6607  -10.4821   -1.4137 N   0  0  0  0  0  0  0  0  0  0  0  0
    3.9171  -10.2588   -0.1528 C   0  0  2  0  0  0  0  0  0  0  0  0
    3.3183  -11.1400    0.0775 H   0  0  0  0  0  0  0  0  0  0  0  0
    3.0019   -9.0810   -0.4238 C   0  0  2  0  0  0  0  0  0  0  0  0
    1.5409   -9.6029   -0.4667 C   0  0  0  0  0  0  0  0  0  0  0  0
    0.8901   -8.9294    0.7707 C   0  0  0  0  0  0  0  0  0  0  0  0
    1.5617   -7.6204    0.7705 N   0  0  2  0  0  0  0  0  0  0  0  0
    2.9901   -7.8520    0.4923 C   0  0  1  0  0  0  0  0  0  0  0  0
    3.3590   -7.0030   -0.0832 H   0  0  0  0  0  0  0  0  0  0  0  0
    3.8455   -7.9555    1.7439 C   0  0  1  0  0  0  0  0  0  0  0  0
    3.2345   -7.3008    2.9520 C   0  0  0  0  0  0  0  0  0  0  0  0
    2.0678   -6.7616    3.0009 C   0  0  0  0  0  0  0  0  0  0  0  0
    1.1816   -6.6961    1.7965 C   0  0  0  0  0  0  0  0  0  0  0  0
    4.1152   -9.4183    2.1362 C   0  0  2  0  0  0  0  0  0  0  0  0
    4.7003   -9.4582    3.0550 H   0  0  0  0  0  0  0  0  0  0  0  0
    4.9097  -10.0091    0.9748 C   0  0  1  0  0  0  0  0  0  0  0  0
    5.5354  -11.3092    1.4098 C   0  0  0  0  0  0  0  0  0  0  0  0
    4.9489  -12.3507    1.2334 O   0  0  0  0  0  0  0  0  0  0  0  0
    6.7442  -11.3101    1.9933 O   0  0  0  0  0  0  0  0  0  0  0  0
    7.2769  -12.5785    2.3802 C   0  0  0  0  0  0  0  0  0  0  0  0
    5.9215   -9.0966    0.5438 O   0  0  0  0  0  0  0  0  0  0  0  0
    2.8804  -10.1161    2.3100 O   0  0  0  0  0  0  0  0  0  0  0  0
    2.8692  -11.1234    3.1970 C   0  0  0  0  0  0  0  0  0  0  0  0
    3.8746  -11.4035    3.8058 O   0  0  0  0  0  0  0  0  0  0  0  0
    1.6027  -11.9051    3.4337 C   0  0  0  0  0  0  0  0  0  0  0  0
    5.1939   -7.2886    1.4647 C   0  0  0  0  0  0  0  0  0  0  0  0
    5.0740   -5.7805    1.6927 C   0  0  0  0  0  0  0  0  0  0  0  0
    5.5005  -11.6454   -1.7099 C   0  0  0  0  0  0  0  0  0  0  0  0
    1.8120   -5.6417   -3.8167 C   0  0  0  0  0  0  0  0  0  0  0  0
    2.0007   -4.7592   -3.0133 O   0  0  0  0  0  0  0  0  0  0  0  0
    0.5780   -6.1415   -3.9872 O   0  0  0  0  0  0  0  0  0  0  0  0
   -0.4647   -5.5829   -3.1853 C   0  0  0  0  0  0  0  0  0  0  0  0
    1.6857   -0.2904   -4.8490 H   0  0  0  0  0  0  0  0  0  0  0  0
    0.5554   -0.7531   -6.1438 H   0  0  0  0  0  0  0  0  0  0  0  0
   -0.0697   -0.1521   -4.5894 H   0  0  0  0  0  0  0  0  0  0  0  0
    0.8437   -2.1548   -3.4477 H   0  0  0  0  0  0  0  0  0  0  0  0
   -0.2866   -2.6175   -4.7425 H   0  0  0  0  0  0  0  0  0  0  0  0
    3.0916   -2.7017   -3.5859 H   0  0  0  0  0  0  0  0  0  0  0  0
    5.0061   -5.7559   -5.0763 H   0  0  0  0  0  0  0  0  0  0  0  0
    4.4212   -5.0425   -3.5775 H   0  0  0  0  0  0  0  0  0  0  0  0
    1.4770   -6.9312   -9.9255 H   0  0  0  0  0  0  0  0  0  0  0  0
    0.3508   -9.0211  -10.5717 H   0  0  0  0  0  0  0  0  0  0  0  0
   -0.0628  -10.7923   -8.9628 H   0  0  0  0  0  0  0  0  0  0  0  0
    0.6126  -10.5741   -6.5931 H   0  0  0  0  0  0  0  0  0  0  0  0
    3.7552   -5.3907   -8.2577 H   0  0  0  0  0  0  0  0  0  0  0  0
    2.1128   -5.2499   -8.8530 H   0  0  0  0  0  0  0  0  0  0  0  0
    4.1252   -2.5823   -6.9306 H   0  0  0  0  0  0  0  0  0  0  0  0
    4.6862   -4.2147   -7.2811 H   0  0  0  0  0  0  0  0  0  0  0  0
    0.8689   -4.5007   -6.3362 H   0  0  0  0  0  0  0  0  0  0  0  0
    0.8495   -2.9082   -7.0786 H   0  0  0  0  0  0  0  0  0  0  0  0
    2.0642   -6.9624   -2.1887 H   0  0  0  0  0  0  0  0  0  0  0  0
    5.8870   -9.7285   -3.8455 H   0  0  0  0  0  0  0  0  0  0  0  0
    7.0153   -8.5301   -5.1210 H   0  0  0  0  0  0  0  0  0  0  0  0
    5.8755   -9.6279   -5.9357 H   0  0  0  0  0  0  0  0  0  0  0  0
    6.5671   -8.2467   -6.8202 H   0  0  0  0  0  0  0  0  0  0  0  0
    1.0451   -9.2847   -1.3837 H   0  0  0  0  0  0  0  0  0  0  0  0
    1.5169  -10.6885   -0.3714 H   0  0  0  0  0  0  0  0  0  0  0  0
   -0.1857   -8.8180    0.6357 H   0  0  0  0  0  0  0  0  0  0  0  0
    1.1136   -9.4844    1.6818 H   0  0  0  0  0  0  0  0  0  0  0  0
    3.8259   -7.2814    3.8555 H   0  0  0  0  0  0  0  0  0  0  0  0
    1.7187   -6.3459    3.9346 H   0  0  0  0  0  0  0  0  0  0  0  0
    1.2176   -5.6857    1.3893 H   0  0  0  0  0  0  0  0  0  0  0  0
    0.1578   -6.9125    2.1019 H   0  0  0  0  0  0  0  0  0  0  0  0
    8.2558  -12.4370    2.8381 H   0  0  0  0  0  0  0  0  0  0  0  0
    6.6053  -13.0512    3.0969 H   0  0  0  0  0  0  0  0  0  0  0  0
    7.3757  -13.2146    1.5006 H   0  0  0  0  0  0  0  0  0  0  0  0
    6.6508   -8.9934    1.1704 H   0  0  0  0  0  0  0  0  0  0  0  0
    1.5643  -12.7511    2.7474 H   0  0  0  0  0  0  0  0  0  0  0  0
    1.5872  -12.2695    4.4608 H   0  0  0  0  0  0  0  0  0  0  0  0
    0.7406  -11.2601    3.2639 H   0  0  0  0  0  0  0  0  0  0  0  0
    5.9481   -7.6988    2.1363 H   0  0  0  0  0  0  0  0  0  0  0  0
    5.4858   -7.4778    0.4316 H   0  0  0  0  0  0  0  0  0  0  0  0
    4.2473   -5.3881    1.1006 H   0  0  0  0  0  0  0  0  0  0  0  0
    4.8885   -5.5864    2.7491 H   0  0  0  0  0  0  0  0  0  0  0  0
    6.0008   -5.2925    1.3909 H   0  0  0  0  0  0  0  0  0  0  0  0
    5.9230  -11.5435   -2.7095 H   0  0  0  0  0  0  0  0  0  0  0  0
    6.3069  -11.7069   -0.9792 H   0  0  0  0  0  0  0  0  0  0  0  0
    4.8964  -12.5514   -1.6615 H   0  0  0  0  0  0  0  0  0  0  0  0
   -0.2315   -5.7317   -2.1310 H   0  0  0  0  0  0  0  0  0  0  0  0
   -0.5497   -4.5160   -3.3916 H   0  0  0  0  0  0  0  0  0  0  0  0
   -1.4081   -6.0750   -3.4217 H   0  0  0  0  0  0  0  0  0  0  0  0
    2.5299   -3.3260   -8.0989 H   0  0  0  0  0  0  0  0  0  0  0  0
  1  2  1  0  0  0  0
  1 63  1  0  0  0  0
  1 64  1  0  0  0  0
  1 65  1  0  0  0  0
  2  3  1  0  0  0  0
  2 66  1  0  0  0  0
  2 67  1  0  0  0  0
  3 22  1  0  0  0  0
  3  4  2  0  0  0  0
  4  5  1  0  0  0  0
  4 68  1  0  0  0  0
  5  6  1  1  0  0  0
  5 21  1  0  0  0  0
  5  7  1  0  0  0  0
  7  8  1  0  0  0  0
  7 69  1  0  0  0  0
  7 70  1  0  0  0  0
  8  9  1  0  0  0  0
  8 23  1  0  0  0  0
  8 59  1  1  0  0  0
  9 17  1  0  0  0  0
  9 10  2  0  0  0  0
 10 11  1  0  0  0  0
 10 19  1  0  0  0  0
 11 16  2  0  0  0  0
 11 12  1  0  0  0  0
 12 13  2  0  0  0  0
 12 71  1  0  0  0  0
 13 14  1  0  0  0  0
 13 72  1  0  0  0  0
 14 15  2  0  0  0  0
 14 73  1  0  0  0  0
 15 16  1  0  0  0  0
 15 74  1  0  0  0  0
 16 17  1  0  0  0  0
 17 18  1  0  0  0  0
 19 20  1  0  0  0  0
 19 75  1  0  0  0  0
 19 76  1  0  0  0  0
 20 21  1  0  0  0  0
 20 22  1  0  0  0  0
 20112  1  6  0  0  0
 21 77  1  0  0  0  0
 21 78  1  0  0  0  0
 22 79  1  0  0  0  0
 22 80  1  0  0  0  0
 23 28  2  0  0  0  0
 23 24  1  0  0  0  0
 24 25  2  0  0  0  0
 24 81  1  0  0  0  0
 25 26  1  0  0  0  0
 26 27  2  0  0  0  0
 26 31  1  0  0  0  0
 27 28  1  0  0  0  0
 27 82  1  0  0  0  0
 28 29  1  0  0  0  0
 29 30  1  0  0  0  0
 30 83  1  0  0  0  0
 30 84  1  0  0  0  0
 30 85  1  0  0  0  0
 31 32  1  0  0  0  0
 31 58  1  0  0  0  0
 32 33  1  1  0  0  0
 32 46  1  0  0  0  0
 32 34  1  0  0  0  0
 34 25  1  6  0  0  0
 34 38  1  0  0  0  0
 34 35  1  0  0  0  0
 35 36  1  0  0  0  0
 35 86  1  0  0  0  0
 35 87  1  0  0  0  0
 36 88  1  0  0  0  0
 36 89  1  0  0  0  0
 37 36  1  1  0  0  0
 37 43  1  0  0  0  0
 37 38  1  0  0  0  0
 38 39  1  6  0  0  0
 38 40  1  0  0  0  0
 40 41  1  0  0  0  0
 40 44  1  0  0  0  0
 40 56  1  6  0  0  0
 41 42  2  0  0  0  0
 41 90  1  0  0  0  0
 42 43  1  0  0  0  0
 42 91  1  0  0  0  0
 43 92  1  0  0  0  0
 43 93  1  0  0  0  0
 44 45  1  1  0  0  0
 44 46  1  0  0  0  0
 44 52  1  0  0  0  0
 46 47  1  1  0  0  0
 46 51  1  0  0  0  0
 47 48  2  0  0  0  0
 47 49  1  0  0  0  0
 49 50  1  0  0  0  0
 50 94  1  0  0  0  0
 50 95  1  0  0  0  0
 50 96  1  0  0  0  0
 51 97  1  0  0  0  0
 52 53  1  0  0  0  0
 53 54  2  0  0  0  0
 53 55  1  0  0  0  0
 55 98  1  0  0  0  0
 55 99  1  0  0  0  0
 55100  1  0  0  0  0
 56 57  1  0  0  0  0
 56101  1  0  0  0  0
 56102  1  0  0  0  0
 57103  1  0  0  0  0
 57104  1  0  0  0  0
 57105  1  0  0  0  0
 58106  1  0  0  0  0
 58107  1  0  0  0  0
 58108  1  0  0  0  0
 59 60  2  0  0  0  0
 59 61  1  0  0  0  0
 61 62  1  0  0  0  0
 62109  1  0  0  0  0
 62110  1  0  0  0  0
 62111  1  0  0  0  0
M  CHG  1  20   1
M  END
$$$$
