ZINC08585133
 OpenBabel08292219463D

 71 74  0  0  1  0  0  0  0  0999 V2000
   -1.9182   -1.2936   -2.7069 C   0  0  0  0  0  0  0  0  0  0  0  0
   -1.9992    0.0461   -1.9724 C   0  0  0  0  0  0  0  0  0  0  0  0
   -0.6231    0.6540   -1.8831 C   0  0  0  0  0  0  0  0  0  0  0  0
    0.3251    0.0750   -2.3581 O   0  0  0  0  0  0  0  0  0  0  0  0
   -0.4508    1.8386   -1.2758 O   0  0  0  0  0  0  0  0  0  0  0  0
    0.9020    2.3637   -1.2269 C   0  0  0  0  0  0  0  0  0  0  0  0
    0.9002    3.6908   -0.5129 C   0  0  0  0  0  0  0  0  0  0  0  0
   -0.1451    4.1978   -0.1834 O   0  0  0  0  0  0  0  0  0  0  0  0
    2.1961    4.3816   -0.2116 C   0  0  2  0  0  0  0  0  0  0  0  0
    2.6689    4.0431    1.2266 C   0  0  0  0  0  0  0  0  0  0  0  0
    2.4333    5.3166    2.0849 C   0  0  0  0  0  0  0  0  0  0  0  0
    1.4866    6.1528    1.2152 C   0  0  2  0  0  0  0  0  0  0  0  0
    0.4785    5.6906    1.2824 H   0  0  0  0  0  0  0  0  0  0  0  0
    2.0496    5.9153   -0.1982 C   0  0  2  0  0  0  0  0  0  0  0  0
    1.1313    6.5204   -1.2204 C   0  0  0  0  0  0  0  0  0  0  0  0
    0.8125    7.9922   -0.9019 C   0  0  1  0  0  0  0  0  0  0  0  0
   -0.2743    8.0854   -0.7783 H   0  0  0  0  0  0  0  0  0  0  0  0
    1.5193    8.5131    0.3324 C   0  0  2  0  0  0  0  0  0  0  0  0
    2.5985    8.6127    0.1143 H   0  0  0  0  0  0  0  0  0  0  0  0
    1.3354    7.6074    1.5507 C   0  0  2  0  0  0  0  0  0  0  0  0
    0.3057    7.7112    1.9381 H   0  0  0  0  0  0  0  0  0  0  0  0
    2.2637    8.0435    2.6850 C   0  0  0  0  0  0  0  0  0  0  0  0
    1.8989    9.4739    3.1198 C   0  0  0  0  0  0  0  0  0  0  0  0
    1.9567   10.3430    1.8773 C   0  0  0  0  0  0  0  0  0  0  0  0
    2.7544   11.3992    1.8543 C   0  0  0  0  0  0  0  0  0  0  0  0
    2.8346   12.2496    0.6545 C   0  0  0  0  0  0  0  0  0  0  0  0
    3.6299   13.1699    0.5948 O   0  0  0  0  0  0  0  0  0  0  0  0
    1.9315   11.9603   -0.4732 C   0  0  0  0  0  0  0  0  0  0  0  0
    1.1344   10.9009   -0.4207 C   0  0  0  0  0  0  0  0  0  0  0  0
    1.1004    9.9354    0.7062 C   0  0  1  0  0  0  0  0  0  0  0  0
   -0.3475    9.9220    1.1841 C   0  0  0  0  0  0  0  0  0  0  0  0
    1.1906    8.7771   -2.0453 O   0  0  0  0  0  0  0  0  0  0  0  0
    3.4804    6.4495   -0.3595 C   0  0  0  0  0  0  0  0  0  0  0  0
    3.2161    4.0013   -1.1727 O   0  0  0  0  0  0  0  0  0  0  0  0
    2.9404    4.2139   -2.4722 C   0  0  0  0  0  0  0  0  0  0  0  0
    1.8396    4.6053   -2.8033 O   0  0  0  0  0  0  0  0  0  0  0  0
    3.8843    3.9928   -3.4050 O   0  0  0  0  0  0  0  0  0  0  0  0
    3.5166    4.2433   -4.7872 C   0  0  0  0  0  0  0  0  0  0  0  0
    4.7094    3.9385   -5.6955 C   0  0  0  0  0  0  0  0  0  0  0  0
   -1.5255   -1.1343   -3.7111 H   0  0  0  0  0  0  0  0  0  0  0  0
   -1.2580   -1.9678   -2.1613 H   0  0  0  0  0  0  0  0  0  0  0  0
   -2.9135   -1.7333   -2.7715 H   0  0  0  0  0  0  0  0  0  0  0  0
   -2.3919   -0.1132   -0.9682 H   0  0  0  0  0  0  0  0  0  0  0  0
   -2.6595    0.7202   -2.5181 H   0  0  0  0  0  0  0  0  0  0  0  0
    1.4911    1.7219   -0.7360 H   0  0  0  0  0  0  0  0  0  0  0  0
    1.2767    2.4976   -2.2417 H   0  0  0  0  0  0  0  0  0  0  0  0
    2.0846    3.2132    1.6229 H   0  0  0  0  0  0  0  0  0  0  0  0
    3.7276    3.7870    1.2206 H   0  0  0  0  0  0  0  0  0  0  0  0
    3.3663    5.8367    2.2808 H   0  0  0  0  0  0  0  0  0  0  0  0
    1.9460    5.0505    3.0268 H   0  0  0  0  0  0  0  0  0  0  0  0
    1.6003    6.4678   -2.2151 H   0  0  0  0  0  0  0  0  0  0  0  0
    0.1811    5.9761   -1.2795 H   0  0  0  0  0  0  0  0  0  0  0  0
    2.1411    7.3684    3.5300 H   0  0  0  0  0  0  0  0  0  0  0  0
    3.2943    8.0219    2.3384 H   0  0  0  0  0  0  0  0  0  0  0  0
    0.9073    9.4934    3.5619 H   0  0  0  0  0  0  0  0  0  0  0  0
    2.6316    9.8297    3.8483 H   0  0  0  0  0  0  0  0  0  0  0  0
    3.3533   11.6362    2.7238 H   0  0  0  0  0  0  0  0  0  0  0  0
    1.9266   12.6030   -1.3434 H   0  0  0  0  0  0  0  0  0  0  0  0
    0.4644   10.7321   -1.2524 H   0  0  0  0  0  0  0  0  0  0  0  0
   -0.4365    9.2734    2.0556 H   0  0  0  0  0  0  0  0  0  0  0  0
   -0.6512   10.9340    1.4518 H   0  0  0  0  0  0  0  0  0  0  0  0
   -0.9900    9.5490    0.3864 H   0  0  0  0  0  0  0  0  0  0  0  0
    0.7257    8.5368   -2.8585 H   0  0  0  0  0  0  0  0  0  0  0  0
    3.9428    5.9915   -1.2339 H   0  0  0  0  0  0  0  0  0  0  0  0
    3.4519    7.5315   -0.4885 H   0  0  0  0  0  0  0  0  0  0  0  0
    4.0620    6.2048    0.5293 H   0  0  0  0  0  0  0  0  0  0  0  0
    2.6780    3.6035   -5.0618 H   0  0  0  0  0  0  0  0  0  0  0  0
    3.2294    5.2884   -4.9031 H   0  0  0  0  0  0  0  0  0  0  0  0
    5.5481    4.5784   -5.4210 H   0  0  0  0  0  0  0  0  0  0  0  0
    4.9966    2.8934   -5.5796 H   0  0  0  0  0  0  0  0  0  0  0  0
    4.4334    4.1265   -6.7331 H   0  0  0  0  0  0  0  0  0  0  0  0
  1  2  1  0  0  0  0
  1 40  1  0  0  0  0
  1 41  1  0  0  0  0
  1 42  1  0  0  0  0
  2  3  1  0  0  0  0
  2 43  1  0  0  0  0
  2 44  1  0  0  0  0
  3  4  2  0  0  0  0
  3  5  1  0  0  0  0
  5  6  1  0  0  0  0
  6  7  1  0  0  0  0
  6 45  1  0  0  0  0
  6 46  1  0  0  0  0
  7  8  2  0  0  0  0
  9  7  1  6  0  0  0
  9 14  1  0  0  0  0
  9 10  1  0  0  0  0
  9 34  1  0  0  0  0
 10 11  1  0  0  0  0
 10 47  1  0  0  0  0
 10 48  1  0  0  0  0
 11 12  1  0  0  0  0
 11 49  1  0  0  0  0
 11 50  1  0  0  0  0
 12 13  1  1  0  0  0
 12 20  1  0  0  0  0
 12 14  1  0  0  0  0
 14 15  1  0  0  0  0
 14 33  1  6  0  0  0
 15 16  1  0  0  0  0
 15 51  1  0  0  0  0
 15 52  1  0  0  0  0
 16 17  1  1  0  0  0
 16 18  1  0  0  0  0
 16 32  1  0  0  0  0
 18 19  1  6  0  0  0
 18 30  1  0  0  0  0
 18 20  1  0  0  0  0
 20 21  1  1  0  0  0
 20 22  1  0  0  0  0
 22 23  1  0  0  0  0
 22 53  1  0  0  0  0
 22 54  1  0  0  0  0
 23 24  1  0  0  0  0
 23 55  1  0  0  0  0
 23 56  1  0  0  0  0
 24 30  1  0  0  0  0
 24 25  2  0  0  0  0
 25 26  1  0  0  0  0
 25 57  1  0  0  0  0
 26 27  2  0  0  0  0
 26 28  1  0  0  0  0
 28 29  2  0  0  0  0
 28 58  1  0  0  0  0
 29 30  1  0  0  0  0
 29 59  1  0  0  0  0
 30 31  1  1  0  0  0
 31 60  1  0  0  0  0
 31 61  1  0  0  0  0
 31 62  1  0  0  0  0
 32 63  1  0  0  0  0
 33 64  1  0  0  0  0
 33 65  1  0  0  0  0
 33 66  1  0  0  0  0
 34 35  1  0  0  0  0
 35 36  2  0  0  0  0
 35 37  1  0  0  0  0
 37 38  1  0  0  0  0
 38 39  1  0  0  0  0
 38 67  1  0  0  0  0
 38 68  1  0  0  0  0
 39 69  1  0  0  0  0
 39 70  1  0  0  0  0
 39 71  1  0  0  0  0
M  END
$$$$
