ZINC60392785
 OpenBabel08292219463D

 92 94  0  0  1  0  0  0  0  0999 V2000
    2.9273    5.2202   -4.3021 C   0  0  0  0  0  0  0  0  0  0  0  0
    2.9605    4.8384   -2.9739 C   0  0  0  0  0  0  0  0  0  0  0  0
    4.0575    4.1600   -2.4770 C   0  0  0  0  0  0  0  0  0  0  0  0
    5.1213    3.8629   -3.3083 C   0  0  0  0  0  0  0  0  0  0  0  0
    5.0878    4.2439   -4.6366 C   0  0  0  0  0  0  0  0  0  0  0  0
    3.9913    4.9236   -5.1333 C   0  0  0  0  0  0  0  0  0  0  0  0
    6.3178    3.1241   -2.7662 C   0  0  0  0  0  0  0  0  0  0  0  0
    7.1567    2.5897   -3.9287 C   0  0  0  0  0  0  0  0  0  0  0  0
    6.3089    1.6369   -4.7738 C   0  0  0  0  0  0  0  0  0  0  0  0
    5.8367    0.4685   -3.9061 C   0  0  0  0  0  0  0  0  0  0  0  0
    4.9977    1.0030   -2.7436 C   0  0  0  0  0  0  0  0  0  0  0  0
    5.8456    1.9558   -1.8986 C   0  0  0  0  0  0  0  0  0  0  0  0
    5.0448   -0.4214   -4.6954 O   0  0  0  0  0  0  0  0  0  0  0  0
    5.4314   -1.9669   -4.9283 P   0  0  1  0  0  0  0  0  0  0  0  0
    6.8635   -2.0589   -5.5006 O   0  0  0  0  0  0  0  0  0  0  0  0
    5.3650   -2.7228   -3.5825 O   0  0  0  0  0  1  0  0  0  0  0  0
    4.3947   -2.6287   -5.9672 O   0  0  0  0  0  0  0  0  0  0  0  0
    4.5314   -3.9632   -6.4597 C   0  0  0  0  0  0  0  0  0  0  0  0
    3.3831   -4.2717   -7.4225 C   0  0  2  0  0  0  0  0  0  0  0  0
    2.4321   -4.0608   -6.9333 H   0  0  0  0  0  0  0  0  0  0  0  0
    3.4349   -5.7477   -7.8219 C   0  0  0  0  0  0  0  0  0  0  0  0
    3.1970   -6.5839   -6.6378 N   0  0  0  0  0  0  0  0  0  0  0  0
    3.6103   -7.9723   -6.8821 C   0  0  0  0  0  0  0  0  0  0  0  0
    3.4872   -8.7766   -5.5864 C   0  0  0  0  0  0  0  0  0  0  0  0
    4.0076  -10.1334   -5.8010 N   0  3  0  0  0  0  0  0  0  0  0  0
    5.4470  -10.0664   -6.0866 C   0  0  0  0  0  0  0  0  0  0  0  0
    5.9562  -11.4432   -6.4273 C   0  0  0  0  0  0  0  0  0  0  0  0
    5.1910  -12.3924   -6.4318 O   0  0  0  0  0  0  0  0  0  0  0  0
    7.1334  -11.6079   -6.6985 O   0  0  0  0  0  1  0  0  0  0  0  0
    3.7850  -10.9399   -4.5935 C   0  0  0  0  0  0  0  0  0  0  0  0
    2.3072  -11.1695   -4.4081 C   0  0  0  0  0  0  0  0  0  0  0  0
    1.5105  -10.6690   -5.1835 O   0  0  0  0  0  0  0  0  0  0  0  0
    1.9083  -11.8557   -3.4826 O   0  0  0  0  0  1  0  0  0  0  0  0
    1.7896   -6.5191   -6.2216 C   0  0  0  0  0  0  0  0  0  0  0  0
    0.9115   -7.0174   -7.3404 C   0  0  0  0  0  0  0  0  0  0  0  0
    1.4098   -7.4480   -8.3535 O   0  0  0  0  0  0  0  0  0  0  0  0
   -0.4241   -6.9828   -7.2115 O   0  0  0  0  0  0  0  0  0  0  0  0
    3.5124   -3.4348   -8.6229 N   0  0  0  0  0  0  0  0  0  0  0  0
    3.2967   -2.0175   -8.3024 C   0  0  0  0  0  0  0  0  0  0  0  0
    1.8782   -1.8187   -7.8340 C   0  0  0  0  0  0  0  0  0  0  0  0
    1.0862   -2.7447   -7.8778 O   0  0  0  0  0  0  0  0  0  0  0  0
    1.5225   -0.7319   -7.4111 O   0  0  0  0  0  1  0  0  0  0  0  0
    4.8172   -3.6362   -9.2670 C   0  0  0  0  0  0  0  0  0  0  0  0
    4.7494   -4.8375  -10.1744 C   0  0  0  0  0  0  0  0  0  0  0  0
    3.6942   -5.3962  -10.3592 O   0  0  0  0  0  0  0  0  0  0  0  0
    5.8614   -5.2869  -10.7772 O   0  0  0  0  0  0  0  0  0  0  0  0
    7.1529    4.0626   -1.9339 C   0  0  0  0  0  0  0  0  0  0  0  0
    7.4698    3.7334   -0.6292 C   0  0  0  0  0  0  0  0  0  0  0  0
    8.2359    4.5942    0.1343 C   0  0  0  0  0  0  0  0  0  0  0  0
    8.6854    5.7841   -0.4069 C   0  0  0  0  0  0  0  0  0  0  0  0
    8.3692    6.1130   -1.7119 C   0  0  0  0  0  0  0  0  0  0  0  0
    7.6067    5.2501   -2.4768 C   0  0  0  0  0  0  0  0  0  0  0  0
    2.0683    5.7464   -4.6914 H   0  0  0  0  0  0  0  0  0  0  0  0
    2.1294    5.0705   -2.3244 H   0  0  0  0  0  0  0  0  0  0  0  0
    4.0837    3.8623   -1.4391 H   0  0  0  0  0  0  0  0  0  0  0  0
    5.9192    4.0125   -5.2859 H   0  0  0  0  0  0  0  0  0  0  0  0
    3.9653    5.2217   -6.1710 H   0  0  0  0  0  0  0  0  0  0  0  0
    7.4931    3.4220   -4.5469 H   0  0  0  0  0  0  0  0  0  0  0  0
    8.0221    2.0553   -3.5367 H   0  0  0  0  0  0  0  0  0  0  0  0
    5.4435    2.1712   -5.1658 H   0  0  0  0  0  0  0  0  0  0  0  0
    6.9066    1.2561   -5.6020 H   0  0  0  0  0  0  0  0  0  0  0  0
    6.7021   -0.0659   -3.5141 H   0  0  0  0  0  0  0  0  0  0  0  0
    4.1324    1.5373   -3.1357 H   0  0  0  0  0  0  0  0  0  0  0  0
    4.6614    0.1706   -2.1255 H   0  0  0  0  0  0  0  0  0  0  0  0
    6.7110    1.4214   -1.5065 H   0  0  0  0  0  0  0  0  0  0  0  0
    5.2479    2.3365   -1.0704 H   0  0  0  0  0  0  0  0  0  0  0  0
    5.4818   -4.0613   -6.9844 H   0  0  0  0  0  0  0  0  0  0  0  0
    4.5034   -4.6632   -5.6247 H   0  0  0  0  0  0  0  0  0  0  0  0
    2.6673   -5.9491   -8.5691 H   0  0  0  0  0  0  0  0  0  0  0  0
    4.4159   -5.9774   -8.2377 H   0  0  0  0  0  0  0  0  0  0  0  0
    2.9694   -8.4131   -7.6457 H   0  0  0  0  0  0  0  0  0  0  0  0
    4.6455   -7.9886   -7.2229 H   0  0  0  0  0  0  0  0  0  0  0  0
    4.0612   -8.2876   -4.7993 H   0  0  0  0  0  0  0  0  0  0  0  0
    2.4394   -8.8318   -5.2911 H   0  0  0  0  0  0  0  0  0  0  0  0
    5.6194   -9.3965   -6.9290 H   0  0  0  0  0  0  0  0  0  0  0  0
    5.9743   -9.6906   -5.2097 H   0  0  0  0  0  0  0  0  0  0  0  0
    4.2914  -11.8994   -4.6990 H   0  0  0  0  0  0  0  0  0  0  0  0
    4.1825  -10.4128   -3.7262 H   0  0  0  0  0  0  0  0  0  0  0  0
    1.6426   -7.1421   -5.3393 H   0  0  0  0  0  0  0  0  0  0  0  0
    1.5276   -5.4877   -5.9859 H   0  0  0  0  0  0  0  0  0  0  0  0
   -0.9024   -7.3231   -7.9800 H   0  0  0  0  0  0  0  0  0  0  0  0
    3.9855   -1.7144   -7.5139 H   0  0  0  0  0  0  0  0  0  0  0  0
    3.4737   -1.4128   -9.1918 H   0  0  0  0  0  0  0  0  0  0  0  0
    5.0738   -2.7530   -9.8521 H   0  0  0  0  0  0  0  0  0  0  0  0
    5.5778   -3.7999   -8.5036 H   0  0  0  0  0  0  0  0  0  0  0  0
    5.7189   -6.0610  -11.3389 H   0  0  0  0  0  0  0  0  0  0  0  0
    7.1186    2.8037   -0.2064 H   0  0  0  0  0  0  0  0  0  0  0  0
    8.4829    4.3373    1.1538 H   0  0  0  0  0  0  0  0  0  0  0  0
    9.2833    6.4570    0.1898 H   0  0  0  0  0  0  0  0  0  0  0  0
    8.7200    7.0428   -2.1346 H   0  0  0  0  0  0  0  0  0  0  0  0
    7.3628    5.5053   -3.4974 H   0  0  0  0  0  0  0  0  0  0  0  0
    3.5292  -10.5576   -6.5816 H   0  0  0  0  0  0  0  0  0  0  0  0
  1  6  2  0  0  0  0
  1  2  1  0  0  0  0
  1 53  1  0  0  0  0
  2  3  2  0  0  0  0
  2 54  1  0  0  0  0
  3  4  1  0  0  0  0
  3 55  1  0  0  0  0
  4  5  2  0  0  0  0
  4  7  1  0  0  0  0
  5  6  1  0  0  0  0
  5 56  1  0  0  0  0
  6 57  1  0  0  0  0
  7 12  1  0  0  0  0
  7  8  1  0  0  0  0
  7 47  1  0  0  0  0
  8  9  1  0  0  0  0
  8 58  1  0  0  0  0
  8 59  1  0  0  0  0
  9 10  1  0  0  0  0
  9 60  1  0  0  0  0
  9 61  1  0  0  0  0
 10 11  1  0  0  0  0
 10 13  1  0  0  0  0
 10 62  1  0  0  0  0
 11 12  1  0  0  0  0
 11 63  1  0  0  0  0
 11 64  1  0  0  0  0
 12 65  1  0  0  0  0
 12 66  1  0  0  0  0
 13 14  1  0  0  0  0
 14 15  2  6  0  0  0
 14 16  1  0  0  0  0
 14 17  1  0  0  0  0
 17 18  1  0  0  0  0
 18 19  1  0  0  0  0
 18 67  1  0  0  0  0
 18 68  1  0  0  0  0
 19 20  1  1  0  0  0
 19 21  1  0  0  0  0
 19 38  1  0  0  0  0
 21 22  1  0  0  0  0
 21 69  1  0  0  0  0
 21 70  1  0  0  0  0
 22 23  1  0  0  0  0
 22 34  1  0  0  0  0
 23 24  1  0  0  0  0
 23 71  1  0  0  0  0
 23 72  1  0  0  0  0
 24 25  1  0  0  0  0
 24 73  1  0  0  0  0
 24 74  1  0  0  0  0
 25 26  1  0  0  0  0
 25 30  1  0  0  0  0
 25 92  1  0  0  0  0
 26 27  1  0  0  0  0
 26 75  1  0  0  0  0
 26 76  1  0  0  0  0
 27 28  2  0  0  0  0
 27 29  1  0  0  0  0
 30 31  1  0  0  0  0
 30 77  1  0  0  0  0
 30 78  1  0  0  0  0
 31 32  2  0  0  0  0
 31 33  1  0  0  0  0
 34 35  1  0  0  0  0
 34 79  1  0  0  0  0
 34 80  1  0  0  0  0
 35 36  2  0  0  0  0
 35 37  1  0  0  0  0
 37 81  1  0  0  0  0
 38 39  1  0  0  0  0
 38 43  1  0  0  0  0
 39 40  1  0  0  0  0
 39 82  1  0  0  0  0
 39 83  1  0  0  0  0
 40 41  2  0  0  0  0
 40 42  1  0  0  0  0
 43 44  1  0  0  0  0
 43 84  1  0  0  0  0
 43 85  1  0  0  0  0
 44 45  2  0  0  0  0
 44 46  1  0  0  0  0
 46 86  1  0  0  0  0
 47 52  2  0  0  0  0
 47 48  1  0  0  0  0
 48 49  2  0  0  0  0
 48 87  1  0  0  0  0
 49 50  1  0  0  0  0
 49 88  1  0  0  0  0
 50 51  2  0  0  0  0
 50 89  1  0  0  0  0
 51 52  1  0  0  0  0
 51 90  1  0  0  0  0
 52 91  1  0  0  0  0
M  CHG  1  25   1
M  END
$$$$
