ZINC00402909
 OpenBabel08292219463D

 31 32  0  0  1  0  0  0  0  0999 V2000
    1.2994    2.5772   -0.4390 C   0  0  0  0  0  0  0  0  0  0  0  0
    0.9663    1.1067   -0.1790 C   0  0  2  0  0  0  0  0  0  0  0  0
    1.5010    0.7641    0.7069 H   0  0  0  0  0  0  0  0  0  0  0  0
    1.3824    0.2795   -1.3680 C   0  0  0  0  0  0  0  0  0  0  0  0
    0.8371    0.5358   -2.6128 C   0  0  0  0  0  0  0  0  0  0  0  0
    1.2170   -0.2208   -3.7057 C   0  0  0  0  0  0  0  0  0  0  0  0
    2.1426   -1.2357   -3.5567 C   0  0  0  0  0  0  0  0  0  0  0  0
    2.6911   -1.4949   -2.3091 C   0  0  0  0  0  0  0  0  0  0  0  0
    2.3123   -0.7301   -1.2147 C   0  0  0  0  0  0  0  0  0  0  0  0
    3.6016   -2.4926   -2.1598 O   0  0  0  0  0  0  0  0  0  0  0  0
    4.1047   -2.7165   -0.9176 C   0  0  0  0  0  0  0  0  0  0  0  0
    3.4731   -3.6082   -0.0623 C   0  0  0  0  0  0  0  0  0  0  0  0
    3.9866   -3.8340    1.2000 C   0  0  0  0  0  0  0  0  0  0  0  0
    5.1286   -3.1721    1.6118 C   0  0  0  0  0  0  0  0  0  0  0  0
    5.7596   -2.2827    0.7617 C   0  0  0  0  0  0  0  0  0  0  0  0
    5.2540   -2.0582   -0.5041 C   0  0  0  0  0  0  0  0  0  0  0  0
   -0.5172    0.9590    0.0412 C   0  0  0  0  0  0  0  0  0  0  0  0
   -1.2410    1.9390   -0.0055 O   0  0  0  0  0  0  0  0  0  0  0  0
   -0.9936   -0.1406    0.2661 O   0  0  0  0  0  1  0  0  0  0  0  0
    2.3724    2.6840   -0.5983 H   0  0  0  0  0  0  0  0  0  0  0  0
    0.7647    2.9197   -1.3250 H   0  0  0  0  0  0  0  0  0  0  0  0
    0.9984    3.1754    0.4210 H   0  0  0  0  0  0  0  0  0  0  0  0
    0.1130    1.3283   -2.7313 H   0  0  0  0  0  0  0  0  0  0  0  0
    0.7897   -0.0186   -4.6767 H   0  0  0  0  0  0  0  0  0  0  0  0
    2.4385   -1.8269   -4.4107 H   0  0  0  0  0  0  0  0  0  0  0  0
    2.7409   -0.9272   -0.2432 H   0  0  0  0  0  0  0  0  0  0  0  0
    2.5807   -4.1249   -0.3832 H   0  0  0  0  0  0  0  0  0  0  0  0
    3.4954   -4.5279    1.8661 H   0  0  0  0  0  0  0  0  0  0  0  0
    5.5282   -3.3498    2.5993 H   0  0  0  0  0  0  0  0  0  0  0  0
    6.6513   -1.7667    1.0858 H   0  0  0  0  0  0  0  0  0  0  0  0
    5.7500   -1.3671   -1.1695 H   0  0  0  0  0  0  0  0  0  0  0  0
  1  2  1  0  0  0  0
  1 20  1  0  0  0  0
  1 21  1  0  0  0  0
  1 22  1  0  0  0  0
  2  3  1  1  0  0  0
  2  4  1  0  0  0  0
  2 17  1  0  0  0  0
  4  9  2  0  0  0  0
  4  5  1  0  0  0  0
  5  6  2  0  0  0  0
  5 23  1  0  0  0  0
  6  7  1  0  0  0  0
  6 24  1  0  0  0  0
  7  8  2  0  0  0  0
  7 25  1  0  0  0  0
  8  9  1  0  0  0  0
  8 10  1  0  0  0  0
  9 26  1  0  0  0  0
 10 11  1  0  0  0  0
 11 16  2  0  0  0  0
 11 12  1  0  0  0  0
 12 13  2  0  0  0  0
 12 27  1  0  0  0  0
 13 14  1  0  0  0  0
 13 28  1  0  0  0  0
 14 15  2  0  0  0  0
 14 29  1  0  0  0  0
 15 16  1  0  0  0  0
 15 30  1  0  0  0  0
 16 31  1  0  0  0  0
 17 18  2  0  0  0  0
 17 19  1  0  0  0  0
M  END
$$$$
