ZINC19227925
 OpenBabel08292219463D

 46 47  0  0  1  0  0  0  0  0999 V2000
    1.1539   -1.9281    2.8628 C   0  0  0  0  0  0  0  0  0  0  0  0
    0.5135   -1.5475    1.5264 C   0  0  0  0  0  0  0  0  0  0  0  0
   -0.7923   -2.1220    1.4432 O   0  0  0  0  0  0  0  0  0  0  0  0
   -1.4975   -1.8801    0.3183 C   0  0  0  0  0  0  0  0  0  0  0  0
   -1.0153   -1.1993   -0.5676 O   0  0  0  0  0  0  0  0  0  0  0  0
   -2.7969   -2.4177    0.1690 C   0  0  0  0  0  0  0  0  0  0  0  0
   -2.9404   -3.7297   -0.0865 C   0  0  0  0  0  0  0  0  0  0  0  0
   -4.1825   -4.2811   -0.2445 N   0  0  0  0  0  0  0  0  0  0  0  0
   -5.2637   -3.4838   -0.5041 C   0  0  0  0  0  0  0  0  0  0  0  0
   -5.2171   -2.1616   -0.2660 C   0  0  0  0  0  0  0  0  0  0  0  0
   -3.9874   -1.5115    0.3055 C   0  0  1  0  0  0  0  0  0  0  0  0
   -3.7940   -0.5818   -0.2296 H   0  0  0  0  0  0  0  0  0  0  0  0
   -4.2137   -1.2058    1.7637 C   0  0  0  0  0  0  0  0  0  0  0  0
   -4.4615   -2.2332    2.6551 C   0  0  0  0  0  0  0  0  0  0  0  0
   -4.6690   -1.9528    3.9925 C   0  0  0  0  0  0  0  0  0  0  0  0
   -4.6283   -0.6450    4.4390 C   0  0  0  0  0  0  0  0  0  0  0  0
   -4.3797    0.3820    3.5481 C   0  0  0  0  0  0  0  0  0  0  0  0
   -4.1678    0.1011    2.2110 C   0  0  0  0  0  0  0  0  0  0  0  0
   -4.3366    1.7822    4.0261 N   0  0  0  0  0  4  0  0  0  0  0  0
   -4.5189    2.0276    5.1958 O   0  0  0  0  0  0  0  0  0  0  0  0
   -4.1191    2.6806    3.2467 O   0  5  0  0  0  0  0  0  0  0  0  0
   -6.3502   -1.3664   -0.5548 C   0  0  0  0  0  0  0  0  0  0  0  0
   -7.3532   -1.8802   -1.0138 O   0  0  0  0  0  0  0  0  0  0  0  0
   -6.3192   -0.0376   -0.3214 O   0  0  0  0  0  0  0  0  0  0  0  0
   -7.4992    0.7042   -0.6366 C   0  0  0  0  0  0  0  0  0  0  0  0
   -6.5220   -4.0953   -1.0642 C   0  0  0  0  0  0  0  0  0  0  0  0
   -1.7180   -4.6037   -0.2009 C   0  0  0  0  0  0  0  0  0  0  0  0
    2.1499   -1.4899    2.9262 H   0  0  0  0  0  0  0  0  0  0  0  0
    0.5388   -1.5524    3.6805 H   0  0  0  0  0  0  0  0  0  0  0  0
    1.2291   -3.0132    2.9336 H   0  0  0  0  0  0  0  0  0  0  0  0
    0.4382   -0.4624    1.4555 H   0  0  0  0  0  0  0  0  0  0  0  0
    1.1285   -1.9232    0.7087 H   0  0  0  0  0  0  0  0  0  0  0  0
   -4.2971   -5.2416   -0.1724 H   0  0  0  0  0  0  0  0  0  0  0  0
   -4.4933   -3.2549    2.3063 H   0  0  0  0  0  0  0  0  0  0  0  0
   -4.8633   -2.7553    4.6886 H   0  0  0  0  0  0  0  0  0  0  0  0
   -4.7911   -0.4258    5.4839 H   0  0  0  0  0  0  0  0  0  0  0  0
   -3.9699    0.9033    1.5155 H   0  0  0  0  0  0  0  0  0  0  0  0
   -7.3404    1.7567   -0.4017 H   0  0  0  0  0  0  0  0  0  0  0  0
   -7.7221    0.5985   -1.6983 H   0  0  0  0  0  0  0  0  0  0  0  0
   -8.3353    0.3233   -0.0501 H   0  0  0  0  0  0  0  0  0  0  0  0
   -6.3789   -5.1682   -1.1920 H   0  0  0  0  0  0  0  0  0  0  0  0
   -7.3492   -3.9184   -0.3767 H   0  0  0  0  0  0  0  0  0  0  0  0
   -6.7482   -3.6414   -2.0291 H   0  0  0  0  0  0  0  0  0  0  0  0
   -1.4391   -4.9693    0.7873 H   0  0  0  0  0  0  0  0  0  0  0  0
   -1.9358   -5.4494   -0.8531 H   0  0  0  0  0  0  0  0  0  0  0  0
   -0.8951   -4.0244   -0.6196 H   0  0  0  0  0  0  0  0  0  0  0  0
  1  2  1  0  0  0  0
  1 28  1  0  0  0  0
  1 29  1  0  0  0  0
  1 30  1  0  0  0  0
  2  3  1  0  0  0  0
  2 31  1  0  0  0  0
  2 32  1  0  0  0  0
  3  4  1  0  0  0  0
  4  5  2  0  0  0  0
  4  6  1  0  0  0  0
  6 11  1  0  0  0  0
  6  7  2  0  0  0  0
  7  8  1  0  0  0  0
  7 27  1  0  0  0  0
  8  9  1  0  0  0  0
  8 33  1  0  0  0  0
  9 10  2  0  0  0  0
  9 26  1  0  0  0  0
 10 11  1  0  0  0  0
 10 22  1  0  0  0  0
 11 12  1  6  0  0  0
 11 13  1  0  0  0  0
 13 18  2  0  0  0  0
 13 14  1  0  0  0  0
 14 15  2  0  0  0  0
 14 34  1  0  0  0  0
 15 16  1  0  0  0  0
 15 35  1  0  0  0  0
 16 17  2  0  0  0  0
 16 36  1  0  0  0  0
 17 18  1  0  0  0  0
 17 19  1  0  0  0  0
 18 37  1  0  0  0  0
 19 20  2  0  0  0  0
 19 21  1  0  0  0  0
 22 23  2  0  0  0  0
 22 24  1  0  0  0  0
 24 25  1  0  0  0  0
 25 38  1  0  0  0  0
 25 39  1  0  0  0  0
 25 40  1  0  0  0  0
 26 41  1  0  0  0  0
 26 42  1  0  0  0  0
 26 43  1  0  0  0  0
 27 44  1  0  0  0  0
 27 45  1  0  0  0  0
 27 46  1  0  0  0  0
M  CHG  1  21  -1
M  END
$$$$
