ZINC07997571
 OpenBabel08292219463D

 23 24  0  0  0  0  0  0  0  0999 V2000
   -0.0230    1.4658    0.1789 C   0  0  0  0  0  0  0  0  0  0  0  0
    1.2793    1.8640    0.1197 C   0  0  0  0  0  0  0  0  0  0  0  0
    2.0677    0.7212   -0.0373 C   0  0  0  0  0  0  0  0  0  0  0  0
    1.2953   -0.3679   -0.0768 O   0  0  0  0  0  0  0  0  0  0  0  0
   -0.0025   -0.0049    0.0487 C   0  0  0  0  0  0  0  0  0  0  0  0
   -1.0961   -0.8471    0.0540 C   0  0  0  0  0  0  0  0  0  0  0  0
   -0.9262   -2.1658   -0.1018 N   0  0  0  0  0  0  0  0  0  0  0  0
    0.2630   -2.6657   -0.1160 N   0  0  0  0  0  0  0  0  0  0  0  0
    0.9371   -3.2756   -1.2792 C   0  0  0  0  0  0  0  0  0  0  0  0
    2.4108   -3.3301   -0.8114 C   0  0  0  0  0  0  0  0  0  0  0  0
    2.2705   -3.3312    0.6227 O   0  0  0  0  0  0  0  0  0  0  0  0
    1.1141   -2.7195    0.9258 C   0  0  0  0  0  0  0  0  0  0  0  0
    0.8614   -2.2665    2.0233 O   0  0  0  0  0  0  0  0  0  0  0  0
    3.5518    0.7178   -0.1453 N   0  0  0  0  0  4  0  0  0  0  0  0
    4.2183    1.8526   -0.0945 O   0  0  0  0  0  0  0  0  0  0  0  0
    4.1988   -0.4199   -0.2915 O   0  5  0  0  0  0  0  0  0  0  0  0
   -0.8914    2.0962    0.3008 H   0  0  0  0  0  0  0  0  0  0  0  0
    1.6375    2.8810    0.1825 H   0  0  0  0  0  0  0  0  0  0  0  0
   -2.0889   -0.4422    0.1838 H   0  0  0  0  0  0  0  0  0  0  0  0
    0.5529   -4.2778   -1.4690 H   0  0  0  0  0  0  0  0  0  0  0  0
    0.8333   -2.6453   -2.1624 H   0  0  0  0  0  0  0  0  0  0  0  0
    2.8950   -4.2438   -1.1559 H   0  0  0  0  0  0  0  0  0  0  0  0
    2.9589   -2.4501   -1.1481 H   0  0  0  0  0  0  0  0  0  0  0  0
  1  5  2  0  0  0  0
  1  2  1  0  0  0  0
  1 17  1  0  0  0  0
  2  3  2  0  0  0  0
  2 18  1  0  0  0  0
  3  4  1  0  0  0  0
  3 14  1  0  0  0  0
  4  5  1  0  0  0  0
  5  6  1  0  0  0  0
  6  7  2  0  0  0  0
  6 19  1  0  0  0  0
  7  8  1  0  0  0  0
  8 12  1  0  0  0  0
  8  9  1  0  0  0  0
  9 10  1  0  0  0  0
  9 20  1  0  0  0  0
  9 21  1  0  0  0  0
 10 11  1  0  0  0  0
 10 22  1  0  0  0  0
 10 23  1  0  0  0  0
 11 12  1  0  0  0  0
 12 13  2  0  0  0  0
 14 15  2  0  0  0  0
 14 16  1  0  0  0  0
M  CHG  1  16  -1
M  END
$$$$
