ZINC14243816
 OpenBabel08292219463D

 84 87  0  0  1  0  0  0  0  0999 V2000
   -5.4031    9.8933   -6.0487 C   0  0  0  0  0  0  0  0  0  0  0  0
   -6.4584    8.8499   -5.6769 C   0  0  1  0  0  0  0  0  0  0  0  0
   -7.0368    8.5795   -6.5603 H   0  0  0  0  0  0  0  0  0  0  0  0
   -5.7778    7.6081   -5.1035 C   0  0  2  0  0  0  0  0  0  0  0  0
   -5.2645    7.8732   -4.1791 H   0  0  0  0  0  0  0  0  0  0  0  0
   -4.7659    7.0061   -6.0714 C   0  0  0  0  0  0  0  0  0  0  0  0
   -3.9507    5.9571   -5.3119 C   0  0  0  0  0  0  0  0  0  0  0  0
   -4.7214    5.4517   -4.0931 C   0  0  1  0  0  0  0  0  0  0  0  0
   -6.2022    5.2397   -4.4213 C   0  0  2  0  0  0  0  0  0  0  0  0
   -6.2633    4.5627   -5.2733 H   0  0  0  0  0  0  0  0  0  0  0  0
   -6.8543    6.5624   -4.8021 C   0  0  1  0  0  0  0  0  0  0  0  0
   -7.7681    7.0977   -3.7045 C   0  0  0  0  0  0  0  0  0  0  0  0
   -8.4433    8.3768   -4.2130 C   0  0  0  0  0  0  0  0  0  0  0  0
   -7.3925    9.4174   -4.5984 C   0  0  1  0  0  0  0  0  0  0  0  0
   -7.8896   10.3070   -4.9851 H   0  0  0  0  0  0  0  0  0  0  0  0
   -6.6262    9.7670   -3.4440 O   0  0  0  0  0  0  0  0  0  0  0  0
   -7.6809    6.3556   -6.0728 C   0  0  0  0  0  0  0  0  0  0  0  0
   -6.9671    4.6244   -3.2517 C   0  0  1  0  0  0  0  0  0  0  0  0
   -7.9804    4.3892   -3.5773 H   0  0  0  0  0  0  0  0  0  0  0  0
   -6.2983    3.3418   -2.7361 C   0  0  0  0  0  0  0  0  0  0  0  0
   -4.8785    3.7066   -2.3475 C   0  0  2  0  0  0  0  0  0  0  0  0
   -4.8912    4.5468   -1.6532 H   0  0  0  0  0  0  0  0  0  0  0  0
   -4.1440    4.1173   -3.6516 C   0  0  2  0  0  0  0  0  0  0  0  0
   -2.6867    4.1545   -3.1731 C   0  0  0  0  0  0  0  0  0  0  0  0
   -2.6008    2.9086   -2.2490 C   0  0  1  0  0  0  0  0  0  0  0  0
   -1.9710    3.1238   -1.3858 H   0  0  0  0  0  0  0  0  0  0  0  0
   -4.0244    2.6046   -1.7941 C   0  0  0  0  0  0  0  0  0  0  0  0
   -4.4261    1.5750   -1.0526 C   0  0  0  0  0  0  0  0  0  0  0  0
   -3.4317    0.5341   -0.6070 C   0  0  0  0  0  0  0  0  0  0  0  0
   -2.9030    0.8955    0.7825 C   0  0  0  0  0  0  0  0  0  0  0  0
   -1.9086   -0.1455    1.2281 C   0  0  0  0  0  0  0  0  0  0  0  0
   -0.7008    0.2135    1.5864 C   0  0  0  0  0  0  0  0  0  0  0  0
    0.2956   -0.8282    2.0261 C   0  0  0  0  0  0  0  0  0  0  0  0
   -0.3077    1.6681    1.5590 C   0  0  0  0  0  0  0  0  0  0  0  0
   -5.8392    1.4533   -0.6684 C   0  0  0  0  0  0  0  0  0  0  0  0
   -6.5638    0.6743   -1.2560 O   0  0  0  0  0  0  0  0  0  0  0  0
   -2.0634    1.7803   -2.9883 O   0  0  0  0  0  0  0  0  0  0  0  0
   -0.7396    1.5738   -2.9078 C   0  0  0  0  0  0  0  0  0  0  0  0
   -0.0657    2.2542   -2.1709 O   0  0  0  0  0  0  0  0  0  0  0  0
   -0.0937    0.4934   -3.7364 C   0  0  0  0  0  0  0  0  0  0  0  0
   -4.3454    3.0605   -4.7395 C   0  0  0  0  0  0  0  0  0  0  0  0
   -7.0309    5.5752   -2.1868 O   0  0  0  0  0  0  0  0  0  0  0  0
   -4.5920    6.4635   -2.9528 C   0  0  0  0  0  0  0  0  0  0  0  0
   -4.8192   10.1506   -5.1650 H   0  0  0  0  0  0  0  0  0  0  0  0
   -4.7430    9.4856   -6.8143 H   0  0  0  0  0  0  0  0  0  0  0  0
   -5.8952   10.7873   -6.4319 H   0  0  0  0  0  0  0  0  0  0  0  0
   -5.2879    6.5349   -6.9041 H   0  0  0  0  0  0  0  0  0  0  0  0
   -4.1039    7.7872   -6.4453 H   0  0  0  0  0  0  0  0  0  0  0  0
   -3.7380    5.1186   -5.9751 H   0  0  0  0  0  0  0  0  0  0  0  0
   -3.0114    6.4016   -4.9829 H   0  0  0  0  0  0  0  0  0  0  0  0
   -8.5274    6.3533   -3.4648 H   0  0  0  0  0  0  0  0  0  0  0  0
   -7.1796    7.3201   -2.8143 H   0  0  0  0  0  0  0  0  0  0  0  0
   -9.0532    8.1403   -5.0849 H   0  0  0  0  0  0  0  0  0  0  0  0
   -9.0825    8.7831   -3.4291 H   0  0  0  0  0  0  0  0  0  0  0  0
   -7.1500   10.1425   -2.7231 H   0  0  0  0  0  0  0  0  0  0  0  0
   -8.4489    5.6044   -5.8884 H   0  0  0  0  0  0  0  0  0  0  0  0
   -8.1533    7.2962   -6.3560 H   0  0  0  0  0  0  0  0  0  0  0  0
   -7.0295    6.0189   -6.8792 H   0  0  0  0  0  0  0  0  0  0  0  0
   -6.2863    2.5869   -3.5224 H   0  0  0  0  0  0  0  0  0  0  0  0
   -6.8364    2.9641   -1.8667 H   0  0  0  0  0  0  0  0  0  0  0  0
   -2.0004    4.0633   -4.0151 H   0  0  0  0  0  0  0  0  0  0  0  0
   -2.4882    5.0649   -2.6075 H   0  0  0  0  0  0  0  0  0  0  0  0
   -2.6023    0.4981   -1.3133 H   0  0  0  0  0  0  0  0  0  0  0  0
   -3.9185   -0.4404   -0.5684 H   0  0  0  0  0  0  0  0  0  0  0  0
   -3.7324    0.9315    1.4888 H   0  0  0  0  0  0  0  0  0  0  0  0
   -2.4162    1.8700    0.7438 H   0  0  0  0  0  0  0  0  0  0  0  0
   -2.1903   -1.1879    1.2477 H   0  0  0  0  0  0  0  0  0  0  0  0
    0.8550   -1.1839    1.1609 H   0  0  0  0  0  0  0  0  0  0  0  0
    0.9840   -0.3903    2.7489 H   0  0  0  0  0  0  0  0  0  0  0  0
   -0.2316   -1.6637    2.4865 H   0  0  0  0  0  0  0  0  0  0  0  0
   -0.9590    2.2331    2.2258 H   0  0  0  0  0  0  0  0  0  0  0  0
    0.7264    1.7712    1.8878 H   0  0  0  0  0  0  0  0  0  0  0  0
   -0.4061    2.0519    0.5436 H   0  0  0  0  0  0  0  0  0  0  0  0
   -0.8540   -0.0099   -4.3336 H   0  0  0  0  0  0  0  0  0  0  0  0
    0.6512    0.9381   -4.3964 H   0  0  0  0  0  0  0  0  0  0  0  0
    0.3889   -0.2294   -3.0786 H   0  0  0  0  0  0  0  0  0  0  0  0
   -5.4084    2.9647   -4.9607 H   0  0  0  0  0  0  0  0  0  0  0  0
   -3.8123    3.3613   -5.6414 H   0  0  0  0  0  0  0  0  0  0  0  0
   -3.9589    2.1025   -4.3915 H   0  0  0  0  0  0  0  0  0  0  0  0
   -7.5360    5.2731   -1.4196 H   0  0  0  0  0  0  0  0  0  0  0  0
   -4.5002    5.9331   -2.0050 H   0  0  0  0  0  0  0  0  0  0  0  0
   -3.7066    7.0790   -3.1120 H   0  0  0  0  0  0  0  0  0  0  0  0
   -5.4770    7.0994   -2.9291 H   0  0  0  0  0  0  0  0  0  0  0  0
   -6.3319    2.2056    0.3357 O   0  0  0  0  0  1  0  0  0  0  0  0
  1  2  1  0  0  0  0
  1 44  1  0  0  0  0
  1 45  1  0  0  0  0
  1 46  1  0  0  0  0
  2  3  1  6  0  0  0
  2 14  1  0  0  0  0
  2  4  1  0  0  0  0
  4  5  1  1  0  0  0
  4 11  1  0  0  0  0
  4  6  1  0  0  0  0
  6  7  1  0  0  0  0
  6 47  1  0  0  0  0
  6 48  1  0  0  0  0
  7  8  1  0  0  0  0
  7 49  1  0  0  0  0
  7 50  1  0  0  0  0
  8 23  1  0  0  0  0
  8  9  1  0  0  0  0
  8 43  1  1  0  0  0
  9 10  1  6  0  0  0
  9 11  1  0  0  0  0
  9 18  1  0  0  0  0
 11 12  1  0  0  0  0
 11 17  1  6  0  0  0
 12 13  1  0  0  0  0
 12 51  1  0  0  0  0
 12 52  1  0  0  0  0
 13 14  1  0  0  0  0
 13 53  1  0  0  0  0
 13 54  1  0  0  0  0
 14 15  1  6  0  0  0
 14 16  1  0  0  0  0
 16 55  1  0  0  0  0
 17 56  1  0  0  0  0
 17 57  1  0  0  0  0
 17 58  1  0  0  0  0
 18 19  1  6  0  0  0
 18 20  1  0  0  0  0
 18 42  1  0  0  0  0
 20 21  1  0  0  0  0
 20 59  1  0  0  0  0
 20 60  1  0  0  0  0
 21 22  1  1  0  0  0
 21 27  1  0  0  0  0
 21 23  1  0  0  0  0
 23 24  1  0  0  0  0
 23 41  1  6  0  0  0
 24 25  1  0  0  0  0
 24 61  1  0  0  0  0
 24 62  1  0  0  0  0
 25 26  1  1  0  0  0
 25 27  1  0  0  0  0
 25 37  1  0  0  0  0
 27 28  2  0  0  0  0
 28 29  1  0  0  0  0
 28 35  1  0  0  0  0
 29 30  1  0  0  0  0
 29 63  1  0  0  0  0
 29 64  1  0  0  0  0
 30 31  1  0  0  0  0
 30 65  1  0  0  0  0
 30 66  1  0  0  0  0
 31 32  2  0  0  0  0
 31 67  1  0  0  0  0
 32 33  1  0  0  0  0
 32 34  1  0  0  0  0
 33 68  1  0  0  0  0
 33 69  1  0  0  0  0
 33 70  1  0  0  0  0
 34 71  1  0  0  0  0
 34 72  1  0  0  0  0
 34 73  1  0  0  0  0
 35 36  2  0  0  0  0
 35 84  1  0  0  0  0
 37 38  1  0  0  0  0
 38 39  2  0  0  0  0
 38 40  1  0  0  0  0
 40 74  1  0  0  0  0
 40 75  1  0  0  0  0
 40 76  1  0  0  0  0
 41 77  1  0  0  0  0
 41 78  1  0  0  0  0
 41 79  1  0  0  0  0
 42 80  1  0  0  0  0
 43 81  1  0  0  0  0
 43 82  1  0  0  0  0
 43 83  1  0  0  0  0
M  END
$$$$
