ZINC01530569
 OpenBabel08292219463D

 55 55  0  0  1  0  0  0  0  0999 V2000
   -0.0187    1.5258    0.0104 C   0  0  0  0  0  0  0  0  0  0  0  0
    0.0021   -0.0041    0.0020 C   0  0  0  0  0  0  0  0  0  0  0  0
    0.7421   -0.5109    1.2415 C   0  0  0  0  0  0  0  0  0  0  0  0
   -1.3761   -0.5125    0.0124 N   0  3  0  0  0  0  0  0  0  0  0  0
   -2.0500   -0.1262   -1.2343 C   0  0  0  0  0  0  0  0  0  0  0  0
   -3.4854   -0.6557   -1.2235 C   0  0  1  0  0  0  0  0  0  0  0  0
   -4.0222   -0.2330   -0.3742 H   0  0  0  0  0  0  0  0  0  0  0  0
   -4.1873   -0.2533   -2.5220 C   0  0  0  0  0  0  0  0  0  0  0  0
   -5.5600   -0.6460   -2.4630 O   0  0  0  0  0  0  0  0  0  0  0  0
   -6.3307   -0.3601   -3.5452 C   0  0  0  0  0  0  0  0  0  0  0  0
   -5.7757    0.2800   -4.6438 C   0  0  0  0  0  0  0  0  0  0  0  0
   -6.5610    0.5691   -5.7429 C   0  0  0  0  0  0  0  0  0  0  0  0
   -7.8993    0.2215   -5.7485 C   0  0  0  0  0  0  0  0  0  0  0  0
   -8.4549   -0.4161   -4.6546 C   0  0  0  0  0  0  0  0  0  0  0  0
   -7.6723   -0.7130   -3.5556 C   0  0  0  0  0  0  0  0  0  0  0  0
   -8.7538    0.5385   -6.9486 C   0  0  0  0  0  0  0  0  0  0  0  0
   -8.7113   -0.5561   -7.8662 O   0  0  0  0  0  0  0  0  0  0  0  0
   -9.4929   -0.3565   -9.0457 C   0  0  0  0  0  0  0  0  0  0  0  0
   -9.3736   -1.5846   -9.9505 C   0  0  0  0  0  0  0  0  0  0  0  0
   -9.9554   -2.7151   -9.2982 O   0  0  0  0  0  0  0  0  0  0  0  0
   -9.8962   -3.9212  -10.0624 C   0  0  0  0  0  0  0  0  0  0  0  0
   -9.8167   -5.1210   -9.1163 C   0  0  0  0  0  0  0  0  0  0  0  0
  -11.1513   -4.0377  -10.9296 C   0  0  0  0  0  0  0  0  0  0  0  0
   -3.4667   -2.0804   -1.1139 O   0  0  0  0  0  0  0  0  0  0  0  0
    1.0039    1.9031    0.0027 H   0  0  0  0  0  0  0  0  0  0  0  0
   -0.5459    1.8868   -0.8726 H   0  0  0  0  0  0  0  0  0  0  0  0
   -0.5289    1.8773    0.9072 H   0  0  0  0  0  0  0  0  0  0  0  0
    0.5123   -0.3556   -0.8948 H   0  0  0  0  0  0  0  0  0  0  0  0
    0.2319   -0.1594    2.1383 H   0  0  0  0  0  0  0  0  0  0  0  0
    0.7568   -1.6008    1.2356 H   0  0  0  0  0  0  0  0  0  0  0  0
    1.7647   -0.1336    1.2338 H   0  0  0  0  0  0  0  0  0  0  0  0
   -1.3629   -1.5185    0.0898 H   0  0  0  0  0  0  0  0  0  0  0  0
   -2.0643    0.9605   -1.3179 H   0  0  0  0  0  0  0  0  0  0  0  0
   -1.5132   -0.5489   -2.0836 H   0  0  0  0  0  0  0  0  0  0  0  0
   -4.1237    0.8273   -2.6496 H   0  0  0  0  0  0  0  0  0  0  0  0
   -3.7039   -0.7477   -3.3646 H   0  0  0  0  0  0  0  0  0  0  0  0
   -4.7306    0.5524   -4.6396 H   0  0  0  0  0  0  0  0  0  0  0  0
   -6.1295    1.0674   -6.5984 H   0  0  0  0  0  0  0  0  0  0  0  0
   -9.5005   -0.6863   -4.6613 H   0  0  0  0  0  0  0  0  0  0  0  0
   -8.1057   -1.2150   -2.7032 H   0  0  0  0  0  0  0  0  0  0  0  0
   -9.7825    0.7046   -6.6285 H   0  0  0  0  0  0  0  0  0  0  0  0
   -8.3757    1.4367   -7.4368 H   0  0  0  0  0  0  0  0  0  0  0  0
  -10.5369   -0.2090   -8.7692 H   0  0  0  0  0  0  0  0  0  0  0  0
   -9.1301    0.5231   -9.5774 H   0  0  0  0  0  0  0  0  0  0  0  0
   -9.8966   -1.3972  -10.8882 H   0  0  0  0  0  0  0  0  0  0  0  0
   -8.3217   -1.7845  -10.1548 H   0  0  0  0  0  0  0  0  0  0  0  0
   -9.0134   -3.9033  -10.7015 H   0  0  0  0  0  0  0  0  0  0  0  0
  -10.6995   -5.1388   -8.4772 H   0  0  0  0  0  0  0  0  0  0  0  0
   -9.7715   -6.0409   -9.6992 H   0  0  0  0  0  0  0  0  0  0  0  0
   -8.9226   -5.0380   -8.4986 H   0  0  0  0  0  0  0  0  0  0  0  0
  -12.0341   -4.0555  -10.2904 H   0  0  0  0  0  0  0  0  0  0  0  0
  -11.2079   -3.1829  -11.6035 H   0  0  0  0  0  0  0  0  0  0  0  0
  -11.1061   -4.9576  -11.5124 H   0  0  0  0  0  0  0  0  0  0  0  0
   -3.0042   -2.5245   -1.8377 H   0  0  0  0  0  0  0  0  0  0  0  0
   -1.8730   -0.1212    0.7986 H   0  0  0  0  0  0  0  0  0  0  0  0
  1  2  1  0  0  0  0
  1 25  1  0  0  0  0
  1 26  1  0  0  0  0
  1 27  1  0  0  0  0
  2  3  1  0  0  0  0
  2  4  1  0  0  0  0
  2 28  1  0  0  0  0
  3 29  1  0  0  0  0
  3 30  1  0  0  0  0
  3 31  1  0  0  0  0
  4  5  1  0  0  0  0
  4 32  1  0  0  0  0
  4 55  1  0  0  0  0
  5  6  1  0  0  0  0
  5 33  1  0  0  0  0
  5 34  1  0  0  0  0
  6  7  1  1  0  0  0
  6  8  1  0  0  0  0
  6 24  1  0  0  0  0
  8  9  1  0  0  0  0
  8 35  1  0  0  0  0
  8 36  1  0  0  0  0
  9 10  1  0  0  0  0
 10 15  2  0  0  0  0
 10 11  1  0  0  0  0
 11 12  2  0  0  0  0
 11 37  1  0  0  0  0
 12 13  1  0  0  0  0
 12 38  1  0  0  0  0
 13 14  2  0  0  0  0
 13 16  1  0  0  0  0
 14 15  1  0  0  0  0
 14 39  1  0  0  0  0
 15 40  1  0  0  0  0
 16 17  1  0  0  0  0
 16 41  1  0  0  0  0
 16 42  1  0  0  0  0
 17 18  1  0  0  0  0
 18 19  1  0  0  0  0
 18 43  1  0  0  0  0
 18 44  1  0  0  0  0
 19 20  1  0  0  0  0
 19 45  1  0  0  0  0
 19 46  1  0  0  0  0
 20 21  1  0  0  0  0
 21 22  1  0  0  0  0
 21 23  1  0  0  0  0
 21 47  1  0  0  0  0
 22 48  1  0  0  0  0
 22 49  1  0  0  0  0
 22 50  1  0  0  0  0
 23 51  1  0  0  0  0
 23 52  1  0  0  0  0
 23 53  1  0  0  0  0
 24 54  1  0  0  0  0
M  CHG  1   4   1
M  END
$$$$
