ZINC22064534
 OpenBabel08292219463D

 47 48  0  0  1  0  0  0  0  0999 V2000
   -0.0184    1.5028    0.0103 C   0  0  0  0  0  0  0  0  0  0  0  0
    0.0021   -0.0041    0.0020 C   0  0  0  0  0  0  0  0  0  0  0  0
   -1.1584   -0.6819    0.0039 C   0  0  0  0  0  0  0  0  0  0  0  0
   -1.1954   -2.1832   -0.0141 C   0  0  2  0  0  0  0  0  0  0  0  0
   -1.9454   -2.5318    0.6959 H   0  0  0  0  0  0  0  0  0  0  0  0
    0.1425   -2.7553    0.3597 C   0  0  0  0  0  0  0  0  0  0  0  0
    1.2638   -1.9927    0.3452 C   0  0  0  0  0  0  0  0  0  0  0  0
    1.2005   -0.6611   -0.0130 N   0  0  0  0  0  0  0  0  0  0  0  0
    2.5233   -2.5746    0.6996 C   0  0  0  0  0  0  0  0  0  0  0  0
    3.5225   -3.0362    0.9807 N   0  0  0  0  0  0  0  0  0  0  0  0
    0.2345   -4.1178    0.7349 C   0  0  0  0  0  0  0  0  0  0  0  0
    1.3120   -4.5933    1.0398 O   0  0  0  0  0  0  0  0  0  0  0  0
   -0.8730   -4.8886    0.7543 O   0  0  0  0  0  0  0  0  0  0  0  0
   -0.7066   -6.2537    1.1427 C   0  0  0  0  0  0  0  0  0  0  0  0
   -1.5657   -2.6534   -1.3971 C   0  0  0  0  0  0  0  0  0  0  0  0
   -0.7650   -2.3268   -2.4758 C   0  0  0  0  0  0  0  0  0  0  0  0
   -1.1046   -2.7580   -3.7442 C   0  0  0  0  0  0  0  0  0  0  0  0
   -2.2449   -3.5164   -3.9343 C   0  0  0  0  0  0  0  0  0  0  0  0
   -3.0449   -3.8437   -2.8558 C   0  0  0  0  0  0  0  0  0  0  0  0
   -2.7028   -3.4159   -1.5864 C   0  0  0  0  0  0  0  0  0  0  0  0
   -4.2660   -4.6552   -3.0594 N   0  0  0  0  0  4  0  0  0  0  0  0
   -4.5635   -5.0317   -4.1691 O   0  0  0  0  0  0  0  0  0  0  0  0
   -4.9658   -4.9414   -2.1160 O   0  5  0  0  0  0  0  0  0  0  0  0
   -2.3758    0.0368    0.0237 C   0  0  0  0  0  0  0  0  0  0  0  0
   -2.3638    1.2535    0.0388 O   0  0  0  0  0  0  0  0  0  0  0  0
   -3.5510   -0.6266    0.0258 O   0  0  0  0  0  0  0  0  0  0  0  0
   -4.7418    0.1632    0.0463 C   0  0  0  0  0  0  0  0  0  0  0  0
   -5.1796    0.4632   -1.3887 C   0  0  0  0  0  0  0  0  0  0  0  0
   -5.8509   -0.6049    0.7679 C   0  0  0  0  0  0  0  0  0  0  0  0
    1.0042    1.8801    0.0026 H   0  0  0  0  0  0  0  0  0  0  0  0
   -0.5455    1.8639   -0.8728 H   0  0  0  0  0  0  0  0  0  0  0  0
   -0.5286    1.8543    0.9071 H   0  0  0  0  0  0  0  0  0  0  0  0
    2.0075   -0.1897   -0.2726 H   0  0  0  0  0  0  0  0  0  0  0  0
   -0.3018   -6.2971    2.1538 H   0  0  0  0  0  0  0  0  0  0  0  0
   -1.6718   -6.7594    1.1157 H   0  0  0  0  0  0  0  0  0  0  0  0
   -0.0192   -6.7460    0.4547 H   0  0  0  0  0  0  0  0  0  0  0  0
    0.1258   -1.7344   -2.3273 H   0  0  0  0  0  0  0  0  0  0  0  0
   -0.4794   -2.5023   -4.5870 H   0  0  0  0  0  0  0  0  0  0  0  0
   -2.5106   -3.8528   -4.9256 H   0  0  0  0  0  0  0  0  0  0  0  0
   -3.3260   -3.6748   -0.7431 H   0  0  0  0  0  0  0  0  0  0  0  0
   -4.5479    1.0992    0.5702 H   0  0  0  0  0  0  0  0  0  0  0  0
   -6.0878    1.0656   -1.3731 H   0  0  0  0  0  0  0  0  0  0  0  0
   -4.3894    1.0104   -1.9028 H   0  0  0  0  0  0  0  0  0  0  0  0
   -5.3734   -0.4728   -1.9126 H   0  0  0  0  0  0  0  0  0  0  0  0
   -5.5390   -0.8185    1.7903 H   0  0  0  0  0  0  0  0  0  0  0  0
   -6.7592   -0.0024    0.7835 H   0  0  0  0  0  0  0  0  0  0  0  0
   -6.0447   -1.5409    0.2441 H   0  0  0  0  0  0  0  0  0  0  0  0
  1  2  1  0  0  0  0
  1 30  1  0  0  0  0
  1 31  1  0  0  0  0
  1 32  1  0  0  0  0
  2  8  1  0  0  0  0
  2  3  2  0  0  0  0
  3  4  1  0  0  0  0
  3 24  1  0  0  0  0
  4  5  1  1  0  0  0
  4  6  1  0  0  0  0
  4 15  1  0  0  0  0
  6  7  2  0  0  0  0
  6 11  1  0  0  0  0
  7  8  1  0  0  0  0
  7  9  1  0  0  0  0
  8 33  1  0  0  0  0
  9 10  3  0  0  0  0
 11 12  2  0  0  0  0
 11 13  1  0  0  0  0
 13 14  1  0  0  0  0
 14 34  1  0  0  0  0
 14 35  1  0  0  0  0
 14 36  1  0  0  0  0
 15 20  2  0  0  0  0
 15 16  1  0  0  0  0
 16 17  2  0  0  0  0
 16 37  1  0  0  0  0
 17 18  1  0  0  0  0
 17 38  1  0  0  0  0
 18 19  2  0  0  0  0
 18 39  1  0  0  0  0
 19 20  1  0  0  0  0
 19 21  1  0  0  0  0
 20 40  1  0  0  0  0
 21 22  2  0  0  0  0
 21 23  1  0  0  0  0
 24 25  2  0  0  0  0
 24 26  1  0  0  0  0
 26 27  1  0  0  0  0
 27 28  1  0  0  0  0
 27 29  1  0  0  0  0
 27 41  1  0  0  0  0
 28 42  1  0  0  0  0
 28 43  1  0  0  0  0
 28 44  1  0  0  0  0
 29 45  1  0  0  0  0
 29 46  1  0  0  0  0
 29 47  1  0  0  0  0
M  CHG  1  23  -1
M  END
$$$$
