ZINC22446634
 OpenBabel08292219463D

 59 62  0  0  0  0  0  0  0  0999 V2000
   -5.7904   -9.4624    0.1488 C   0  0  0  0  0  0  0  0  0  0  0  0
   -4.6728   -8.5276    0.5338 C   0  0  0  0  0  0  0  0  0  0  0  0
   -3.8569   -8.8674    1.3652 O   0  0  0  0  0  0  0  0  0  0  0  0
   -4.5712   -7.2073   -0.0964 C   0  0  0  0  0  0  0  0  0  0  0  0
   -5.5155   -6.8112   -1.0520 C   0  0  0  0  0  0  0  0  0  0  0  0
   -5.4162   -5.5704   -1.6372 C   0  0  0  0  0  0  0  0  0  0  0  0
   -4.3812   -4.7066   -1.2866 C   0  0  0  0  0  0  0  0  0  0  0  0
   -3.4312   -5.0924   -0.3379 C   0  0  0  0  0  0  0  0  0  0  0  0
   -3.5329   -6.3371    0.2603 C   0  0  0  0  0  0  0  0  0  0  0  0
   -2.3765   -4.2583    0.0263 N   0  0  0  0  0  0  0  0  0  0  0  0
   -2.3869   -2.8706   -0.0822 C   0  0  0  0  0  0  0  0  0  0  0  0
   -1.5549   -2.1267    0.7484 C   0  0  0  0  0  0  0  0  0  0  0  0
   -1.5366   -0.7478    0.6637 C   0  0  0  0  0  0  0  0  0  0  0  0
   -2.3451   -0.0960   -0.2485 C   0  0  0  0  0  0  0  0  0  0  0  0
   -3.1773   -0.8250   -1.0776 C   0  0  0  0  0  0  0  0  0  0  0  0
   -3.2040   -2.2101   -0.9952 C   0  0  0  0  0  0  0  0  0  0  0  0
   -4.2823   -3.1208   -2.0482 S   0  0  0  0  0  0  0  0  0  0  0  0
   -1.1674   -4.8881    0.5625 C   0  0  0  0  0  0  0  0  0  0  0  0
   -1.2855   -5.0064    2.0833 C   0  0  0  0  0  0  0  0  0  0  0  0
   -0.0226   -5.6641    2.6433 C   0  0  0  0  0  0  0  0  0  0  0  0
   -0.1361   -5.7778    4.1035 N   0  3  0  0  0  0  0  0  0  0  0  0
   -0.1728   -4.4348    4.6974 C   0  0  0  0  0  0  0  0  0  0  0  0
   -0.3099   -4.5525    6.2170 C   0  0  0  0  0  0  0  0  0  0  0  0
    0.8291   -5.3123    6.7514 N   0  0  0  0  0  0  0  0  0  0  0  0
    0.8934   -6.6505    6.1472 C   0  0  0  0  0  0  0  0  0  0  0  0
    1.0206   -6.5156    4.6282 C   0  0  0  0  0  0  0  0  0  0  0  0
    0.7634   -5.3987    8.2163 C   0  0  0  0  0  0  0  0  0  0  0  0
    2.0768   -5.9715    8.7528 C   0  0  0  0  0  0  0  0  0  0  0  0
    3.1423   -5.0606    8.4752 O   0  0  0  0  0  0  0  0  0  0  0  0
   -5.7020  -10.3881    0.7175 H   0  0  0  0  0  0  0  0  0  0  0  0
   -6.7491   -8.9919    0.3673 H   0  0  0  0  0  0  0  0  0  0  0  0
   -5.7285   -9.6833   -0.9167 H   0  0  0  0  0  0  0  0  0  0  0  0
   -6.3188   -7.4780   -1.3288 H   0  0  0  0  0  0  0  0  0  0  0  0
   -6.1449   -5.2641   -2.3731 H   0  0  0  0  0  0  0  0  0  0  0  0
   -2.8073   -6.6394    1.0009 H   0  0  0  0  0  0  0  0  0  0  0  0
   -0.9204   -2.6295    1.4632 H   0  0  0  0  0  0  0  0  0  0  0  0
   -0.8887   -0.1772    1.3126 H   0  0  0  0  0  0  0  0  0  0  0  0
   -2.3269    0.9819   -0.3134 H   0  0  0  0  0  0  0  0  0  0  0  0
   -3.8086   -0.3154   -1.7905 H   0  0  0  0  0  0  0  0  0  0  0  0
   -1.0521   -5.8813    0.1286 H   0  0  0  0  0  0  0  0  0  0  0  0
   -0.2988   -4.2790    0.3118 H   0  0  0  0  0  0  0  0  0  0  0  0
   -1.4008   -4.0132    2.5172 H   0  0  0  0  0  0  0  0  0  0  0  0
   -2.1540   -5.6155    2.3340 H   0  0  0  0  0  0  0  0  0  0  0  0
    0.0927   -6.6574    2.2094 H   0  0  0  0  0  0  0  0  0  0  0  0
    0.8459   -5.0551    2.3926 H   0  0  0  0  0  0  0  0  0  0  0  0
    0.7487   -3.9053    4.4557 H   0  0  0  0  0  0  0  0  0  0  0  0
   -1.0240   -3.8839    4.2974 H   0  0  0  0  0  0  0  0  0  0  0  0
   -0.3223   -3.5564    6.6593 H   0  0  0  0  0  0  0  0  0  0  0  0
   -1.2381   -5.0700    6.4594 H   0  0  0  0  0  0  0  0  0  0  0  0
    1.7590   -7.1850    6.5385 H   0  0  0  0  0  0  0  0  0  0  0  0
   -0.0150   -7.2026    6.3884 H   0  0  0  0  0  0  0  0  0  0  0  0
    1.0542   -7.5072    4.1769 H   0  0  0  0  0  0  0  0  0  0  0  0
    1.9360   -5.9754    4.3868 H   0  0  0  0  0  0  0  0  0  0  0  0
    0.6042   -4.4038    8.6322 H   0  0  0  0  0  0  0  0  0  0  0  0
   -0.0618   -6.0496    8.5053 H   0  0  0  0  0  0  0  0  0  0  0  0
    1.9959   -6.1187    9.8298 H   0  0  0  0  0  0  0  0  0  0  0  0
    2.2806   -6.9271    8.2698 H   0  0  0  0  0  0  0  0  0  0  0  0
    4.0070   -5.3598    8.7880 H   0  0  0  0  0  0  0  0  0  0  0  0
   -0.9842   -6.2718    4.3373 H   0  0  0  0  0  0  0  0  0  0  0  0
  1  2  1  0  0  0  0
  1 30  1  0  0  0  0
  1 31  1  0  0  0  0
  1 32  1  0  0  0  0
  2  3  2  0  0  0  0
  2  4  1  0  0  0  0
  4  9  2  0  0  0  0
  4  5  1  0  0  0  0
  5  6  2  0  0  0  0
  5 33  1  0  0  0  0
  6  7  1  0  0  0  0
  6 34  1  0  0  0  0
  7 17  1  0  0  0  0
  7  8  2  0  0  0  0
  8  9  1  0  0  0  0
  8 10  1  0  0  0  0
  9 35  1  0  0  0  0
 10 11  1  0  0  0  0
 10 18  1  0  0  0  0
 11 16  2  0  0  0  0
 11 12  1  0  0  0  0
 12 13  2  0  0  0  0
 12 36  1  0  0  0  0
 13 14  1  0  0  0  0
 13 37  1  0  0  0  0
 14 15  2  0  0  0  0
 14 38  1  0  0  0  0
 15 16  1  0  0  0  0
 15 39  1  0  0  0  0
 16 17  1  0  0  0  0
 18 19  1  0  0  0  0
 18 40  1  0  0  0  0
 18 41  1  0  0  0  0
 19 20  1  0  0  0  0
 19 42  1  0  0  0  0
 19 43  1  0  0  0  0
 20 21  1  0  0  0  0
 20 44  1  0  0  0  0
 20 45  1  0  0  0  0
 21 26  1  0  0  0  0
 21 22  1  0  0  0  0
 21 59  1  0  0  0  0
 22 23  1  0  0  0  0
 22 46  1  0  0  0  0
 22 47  1  0  0  0  0
 23 24  1  0  0  0  0
 23 48  1  0  0  0  0
 23 49  1  0  0  0  0
 24 25  1  0  0  0  0
 24 27  1  0  0  0  0
 25 26  1  0  0  0  0
 25 50  1  0  0  0  0
 25 51  1  0  0  0  0
 26 52  1  0  0  0  0
 26 53  1  0  0  0  0
 27 28  1  0  0  0  0
 27 54  1  0  0  0  0
 27 55  1  0  0  0  0
 28 29  1  0  0  0  0
 28 56  1  0  0  0  0
 28 57  1  0  0  0  0
 29 58  1  0  0  0  0
M  CHG  1  21   1
M  END
$$$$
