ZINC01530973
 OpenBabel08292219463D

 42 44  0  0  1  0  0  0  0  0999 V2000
   -0.4564    1.0326    0.5152 C   0  0  0  0  0  0  0  0  0  0  0  0
    0.6242    1.8307    0.1867 C   0  0  0  0  0  0  0  0  0  0  0  0
    1.8799    1.2718    0.0428 C   0  0  0  0  0  0  0  0  0  0  0  0
    2.0560   -0.0946    0.2288 C   0  0  0  0  0  0  0  0  0  0  0  0
    0.9673   -0.8935    0.5589 C   0  0  0  0  0  0  0  0  0  0  0  0
   -0.2853   -0.3271    0.7010 C   0  0  0  0  0  0  0  0  0  0  0  0
    1.1808   -2.6005    0.7919 Cl  0  0  0  0  0  0  0  0  0  0  0  0
    3.6549   -0.8120    0.0459 S   0  0  0  0  0  0  0  0  0  0  0  0
    4.2881   -0.9113    1.7429 C   0  0  1  0  0  0  0  0  0  0  0  0
    3.5520   -1.4054    2.3770 H   0  0  0  0  0  0  0  0  0  0  0  0
    5.5914   -1.7127    1.7548 C   0  0  0  0  0  0  0  0  0  0  0  0
    5.3049   -3.1585    1.3445 C   0  0  0  0  0  0  0  0  0  0  0  0
    6.5887   -3.9478    1.3563 C   0  0  0  0  0  0  0  0  0  0  0  0
    7.3679   -4.0167    0.2165 C   0  0  0  0  0  0  0  0  0  0  0  0
    8.5453   -4.7404    0.2267 C   0  0  0  0  0  0  0  0  0  0  0  0
    8.9441   -5.3960    1.3780 C   0  0  0  0  0  0  0  0  0  0  0  0
    8.1638   -5.3267    2.5184 C   0  0  0  0  0  0  0  0  0  0  0  0
    6.9894   -4.5979    2.5086 C   0  0  0  0  0  0  0  0  0  0  0  0
   10.4226   -6.3057    1.3914 Cl  0  0  0  0  0  0  0  0  0  0  0  0
    4.5521    0.4998    2.2720 C   0  0  0  0  0  0  0  0  0  0  0  0
    4.9360    0.4279    3.6840 N   0  0  0  0  0  0  0  0  0  0  0  0
    4.0894    0.4659    4.7589 C   0  0  0  0  0  0  0  0  0  0  0  0
    4.8558    0.3710    5.8621 C   0  0  0  0  0  0  0  0  0  0  0  0
    6.1355    0.2775    5.4716 N   0  0  0  0  0  0  0  0  0  0  0  0
    6.1908    0.3058    4.1681 C   0  0  0  0  0  0  0  0  0  0  0  0
    3.2355    2.2746   -0.3702 Cl  0  0  0  0  0  0  0  0  0  0  0  0
   -1.4357    1.4730    0.6314 H   0  0  0  0  0  0  0  0  0  0  0  0
    0.4865    2.8921    0.0420 H   0  0  0  0  0  0  0  0  0  0  0  0
   -1.1316   -0.9471    0.9575 H   0  0  0  0  0  0  0  0  0  0  0  0
    6.2973   -1.2688    1.0528 H   0  0  0  0  0  0  0  0  0  0  0  0
    6.0181   -1.6974    2.7577 H   0  0  0  0  0  0  0  0  0  0  0  0
    4.5990   -3.6023    2.0465 H   0  0  0  0  0  0  0  0  0  0  0  0
    4.8782   -3.1738    0.3416 H   0  0  0  0  0  0  0  0  0  0  0  0
    7.0563   -3.5052   -0.6822 H   0  0  0  0  0  0  0  0  0  0  0  0
    9.1538   -4.7945   -0.6639 H   0  0  0  0  0  0  0  0  0  0  0  0
    8.4744   -5.8384    3.4173 H   0  0  0  0  0  0  0  0  0  0  0  0
    6.3827   -4.5398    3.4001 H   0  0  0  0  0  0  0  0  0  0  0  0
    5.3585    0.9577    1.6991 H   0  0  0  0  0  0  0  0  0  0  0  0
    3.6483    1.1006    2.1714 H   0  0  0  0  0  0  0  0  0  0  0  0
    3.0135    0.5553    4.7281 H   0  0  0  0  0  0  0  0  0  0  0  0
    4.5020    0.3702    6.8826 H   0  0  0  0  0  0  0  0  0  0  0  0
    7.0912    0.2445    3.5747 H   0  0  0  0  0  0  0  0  0  0  0  0
  1  6  2  0  0  0  0
  1  2  1  0  0  0  0
  1 27  1  0  0  0  0
  2  3  2  0  0  0  0
  2 28  1  0  0  0  0
  3  4  1  0  0  0  0
  3 26  1  0  0  0  0
  4  5  2  0  0  0  0
  4  8  1  0  0  0  0
  5  6  1  0  0  0  0
  5  7  1  0  0  0  0
  6 29  1  0  0  0  0
  8  9  1  0  0  0  0
  9 10  1  1  0  0  0
  9 11  1  0  0  0  0
  9 20  1  0  0  0  0
 11 12  1  0  0  0  0
 11 30  1  0  0  0  0
 11 31  1  0  0  0  0
 12 13  1  0  0  0  0
 12 32  1  0  0  0  0
 12 33  1  0  0  0  0
 13 18  2  0  0  0  0
 13 14  1  0  0  0  0
 14 15  2  0  0  0  0
 14 34  1  0  0  0  0
 15 16  1  0  0  0  0
 15 35  1  0  0  0  0
 16 17  2  0  0  0  0
 16 19  1  0  0  0  0
 17 18  1  0  0  0  0
 17 36  1  0  0  0  0
 18 37  1  0  0  0  0
 20 21  1  0  0  0  0
 20 38  1  0  0  0  0
 20 39  1  0  0  0  0
 21 25  1  0  0  0  0
 21 22  1  0  0  0  0
 22 23  2  0  0  0  0
 22 40  1  0  0  0  0
 23 24  1  0  0  0  0
 23 41  1  0  0  0  0
 24 25  2  0  0  0  0
 25 42  1  0  0  0  0
M  END
$$$$
