ZINC00001028
 OpenBabel08292219463D

 18 18  0  0  0  0  0  0  0  0999 V2000
   -0.0169    1.3945    0.0097 C   0  0  0  0  0  0  0  0  0  0  0  0
    1.2648    1.8283   -0.0002 C   0  0  0  0  0  0  0  0  0  0  0  0
    2.0664    0.7428   -0.0137 N   0  0  0  0  0  0  0  0  0  0  0  0
    3.0363    0.7497   -0.0226 H   0  0  0  0  0  0  0  0  0  0  0  0
    1.2503   -0.3958   -0.0120 N   0  0  0  0  0  0  0  0  0  0  0  0
    0.0021   -0.0041    0.0020 C   0  0  0  0  0  0  0  0  0  0  0  0
   -1.2065   -0.9042    0.0083 C   0  0  0  0  0  0  0  0  0  0  0  0
   -1.1322   -1.8661   -1.1793 C   0  0  0  0  0  0  0  0  0  0  0  0
   -2.3104   -2.7435   -1.1732 N   0  3  0  0  0  0  0  0  0  0  0  0
   -0.8986    2.0179    0.0255 H   0  0  0  0  0  0  0  0  0  0  0  0
    1.5883    2.8587    0.0022 H   0  0  0  0  0  0  0  0  0  0  0  0
   -1.2300   -1.4746    0.9369 H   0  0  0  0  0  0  0  0  0  0  0  0
   -2.1102   -0.2997   -0.0697 H   0  0  0  0  0  0  0  0  0  0  0  0
   -1.1088   -1.2957   -2.1078 H   0  0  0  0  0  0  0  0  0  0  0  0
   -0.2286   -2.4705   -1.1012 H   0  0  0  0  0  0  0  0  0  0  0  0
   -2.2614   -3.3778   -1.9563 H   0  0  0  0  0  0  0  0  0  0  0  0
   -2.3321   -3.2715   -0.3136 H   0  0  0  0  0  0  0  0  0  0  0  0
   -3.1469   -2.1839   -1.2454 H   0  0  0  0  0  0  0  0  0  0  0  0
  1  6  1  0  0  0  0
  1  2  2  0  0  0  0
  1 10  1  0  0  0  0
  2  3  1  0  0  0  0
  2 11  1  0  0  0  0
  3  4  1  0  0  0  0
  3  5  1  0  0  0  0
  5  6  2  0  0  0  0
  6  7  1  0  0  0  0
  7  8  1  0  0  0  0
  7 12  1  0  0  0  0
  7 13  1  0  0  0  0
  8  9  1  0  0  0  0
  8 14  1  0  0  0  0
  8 15  1  0  0  0  0
  9 16  1  0  0  0  0
  9 17  1  0  0  0  0
  9 18  1  0  0  0  0
M  CHG  1   9   1
M  END
$$$$
