ZINC00054567
 OpenBabel08292219463D

 30 32  0  0  0  0  0  0  0  0999 V2000
   -0.0173    1.4248    0.0099 C   0  0  0  0  0  0  0  0  0  0  0  0
    0.0021   -0.0041    0.0020 O   0  0  0  0  0  0  0  0  0  0  0  0
    0.6261   -0.6187    1.0420 C   0  0  0  0  0  0  0  0  0  0  0  0
    1.2019    0.1413    2.0505 C   0  0  0  0  0  0  0  0  0  0  0  0
    1.8358   -0.4786    3.1072 C   0  0  0  0  0  0  0  0  0  0  0  0
    1.8978   -1.8711    3.1613 C   0  0  0  0  0  0  0  0  0  0  0  0
    1.3179   -2.6315    2.1457 C   0  0  0  0  0  0  0  0  0  0  0  0
    0.6808   -2.0044    1.0951 C   0  0  0  0  0  0  0  0  0  0  0  0
    2.5780   -2.5405    4.2938 C   0  0  0  0  0  0  0  0  0  0  0  0
    3.7394   -3.3186    4.1982 C   0  0  0  0  0  0  0  0  0  0  0  0
    4.0895   -3.8021    5.5597 C   0  0  0  0  0  0  0  0  0  0  0  0
    5.1147   -4.5914    6.0447 C   0  0  0  0  0  0  0  0  0  0  0  0
    5.1824   -4.8821    7.4065 C   0  0  0  0  0  0  0  0  0  0  0  0
    4.2324   -4.3863    8.2701 C   0  0  0  0  0  0  0  0  0  0  0  0
    3.1938   -3.5894    7.7906 C   0  0  0  0  0  0  0  0  0  0  0  0
    3.1183   -3.2953    6.4426 C   0  0  0  0  0  0  0  0  0  0  0  0
    2.1658   -2.4915    5.6322 C   0  0  0  0  0  0  0  0  0  0  0  0
    1.1879   -1.8920    6.0601 O   0  5  0  0  0  0  0  0  0  0  0  0
    4.3591   -3.5593    3.1701 O   0  0  0  0  0  0  0  0  0  0  0  0
    1.0053    1.8021    0.0021 H   0  0  0  0  0  0  0  0  0  0  0  0
   -0.5445    1.7859   -0.8732 H   0  0  0  0  0  0  0  0  0  0  0  0
   -0.5275    1.7763    0.9067 H   0  0  0  0  0  0  0  0  0  0  0  0
    1.1538    1.2194    2.0078 H   0  0  0  0  0  0  0  0  0  0  0  0
    2.2840    0.1134    3.8915 H   0  0  0  0  0  0  0  0  0  0  0  0
    1.3643   -3.7098    2.1839 H   0  0  0  0  0  0  0  0  0  0  0  0
    0.2274   -2.5925    0.3109 H   0  0  0  0  0  0  0  0  0  0  0  0
    5.8619   -4.9826    5.3701 H   0  0  0  0  0  0  0  0  0  0  0  0
    5.9835   -5.4993    7.7854 H   0  0  0  0  0  0  0  0  0  0  0  0
    4.2915   -4.6159    9.3237 H   0  0  0  0  0  0  0  0  0  0  0  0
    2.4502   -3.2023    8.4714 H   0  0  0  0  0  0  0  0  0  0  0  0
  1  2  1  0  0  0  0
  1 20  1  0  0  0  0
  1 21  1  0  0  0  0
  1 22  1  0  0  0  0
  2  3  1  0  0  0  0
  3  8  2  0  0  0  0
  3  4  1  0  0  0  0
  4  5  2  0  0  0  0
  4 23  1  0  0  0  0
  5  6  1  0  0  0  0
  5 24  1  0  0  0  0
  6  7  2  0  0  0  0
  6  9  1  0  0  0  0
  7  8  1  0  0  0  0
  7 25  1  0  0  0  0
  8 26  1  0  0  0  0
  9 10  1  0  0  0  0
  9 17  2  0  0  0  0
 10 11  1  0  0  0  0
 10 19  2  0  0  0  0
 11 16  2  0  0  0  0
 11 12  1  0  0  0  0
 12 13  2  0  0  0  0
 12 27  1  0  0  0  0
 13 14  1  0  0  0  0
 13 28  1  0  0  0  0
 14 15  2  0  0  0  0
 14 29  1  0  0  0  0
 15 16  1  0  0  0  0
 15 30  1  0  0  0  0
 16 17  1  0  0  0  0
 17 18  1  0  0  0  0
M  CHG  1  18  -1
M  END
$$$$
