ZINC00056544
 OpenBabel08292219463D

 40 41  0  0  0  0  0  0  0  0999 V2000
   -0.0187    1.5258    0.0104 C   0  0  0  0  0  0  0  0  0  0  0  0
    0.0021   -0.0041    0.0020 C   0  0  0  0  0  0  0  0  0  0  0  0
    0.7074   -0.4901   -1.2379 C   0  0  0  0  0  0  0  0  0  0  0  0
    2.0152   -0.7920   -1.1917 C   0  0  0  0  0  0  0  0  0  0  0  0
    2.7774   -0.6448    0.1001 C   0  0  0  0  0  0  0  0  0  0  0  0
    2.8146   -1.9909    0.8265 C   0  0  0  0  0  0  0  0  0  0  0  0
    2.7049   -1.2672   -2.4039 C   0  0  0  0  0  0  0  0  0  0  0  0
    2.3445   -2.4874   -2.9829 C   0  0  0  0  0  0  0  0  0  0  0  0
    2.9924   -2.9276   -4.1166 C   0  0  0  0  0  0  0  0  0  0  0  0
    4.0021   -2.1610   -4.6840 C   0  0  0  0  0  0  0  0  0  0  0  0
    4.3638   -0.9479   -4.1124 C   0  0  0  0  0  0  0  0  0  0  0  0
    3.7177   -0.4966   -2.9820 C   0  0  0  0  0  0  0  0  0  0  0  0
    4.6384   -2.5994   -5.8016 O   0  0  0  0  0  0  0  0  0  0  0  0
   -0.0377   -0.6340   -2.5008 C   0  0  0  0  0  0  0  0  0  0  0  0
    0.2851    0.1664   -3.6004 C   0  0  0  0  0  0  0  0  0  0  0  0
   -0.4147    0.0282   -4.7795 C   0  0  0  0  0  0  0  0  0  0  0  0
   -1.4393   -0.9045   -4.8763 C   0  0  0  0  0  0  0  0  0  0  0  0
   -1.7637   -1.7021   -3.7864 C   0  0  0  0  0  0  0  0  0  0  0  0
   -1.0658   -1.5752   -2.6049 C   0  0  0  0  0  0  0  0  0  0  0  0
   -2.1267   -1.0369   -6.0407 O   0  0  0  0  0  0  0  0  0  0  0  0
    1.0039    1.9031    0.0027 H   0  0  0  0  0  0  0  0  0  0  0  0
   -0.5459    1.8868   -0.8726 H   0  0  0  0  0  0  0  0  0  0  0  0
   -0.5289    1.8773    0.9072 H   0  0  0  0  0  0  0  0  0  0  0  0
    0.5293   -0.3651    0.8851 H   0  0  0  0  0  0  0  0  0  0  0  0
   -1.0205   -0.3814    0.0098 H   0  0  0  0  0  0  0  0  0  0  0  0
    3.7953   -0.3191   -0.1138 H   0  0  0  0  0  0  0  0  0  0  0  0
    2.2841    0.0948    0.7307 H   0  0  0  0  0  0  0  0  0  0  0  0
    3.3658   -1.8845    1.7608 H   0  0  0  0  0  0  0  0  0  0  0  0
    1.7966   -2.3166    1.0403 H   0  0  0  0  0  0  0  0  0  0  0  0
    3.3078   -2.7306    0.1958 H   0  0  0  0  0  0  0  0  0  0  0  0
    1.5597   -3.0843   -2.5422 H   0  0  0  0  0  0  0  0  0  0  0  0
    2.7149   -3.8704   -4.5644 H   0  0  0  0  0  0  0  0  0  0  0  0
    5.1498   -0.3555   -4.5570 H   0  0  0  0  0  0  0  0  0  0  0  0
    3.9966    0.4490   -2.5408 H   0  0  0  0  0  0  0  0  0  0  0  0
    4.2257   -2.3120   -6.6275 H   0  0  0  0  0  0  0  0  0  0  0  0
    1.0814    0.8921   -3.5260 H   0  0  0  0  0  0  0  0  0  0  0  0
   -0.1663    0.6463   -5.6295 H   0  0  0  0  0  0  0  0  0  0  0  0
   -2.5615   -2.4257   -3.8663 H   0  0  0  0  0  0  0  0  0  0  0  0
   -1.3158   -2.1989   -1.7594 H   0  0  0  0  0  0  0  0  0  0  0  0
   -1.7462   -1.6835   -6.6508 H   0  0  0  0  0  0  0  0  0  0  0  0
  1  2  1  0  0  0  0
  1 21  1  0  0  0  0
  1 22  1  0  0  0  0
  1 23  1  0  0  0  0
  2  3  1  0  0  0  0
  2 24  1  0  0  0  0
  2 25  1  0  0  0  0
  3  4  2  0  0  0  0
  3 14  1  0  0  0  0
  4  5  1  0  0  0  0
  4  7  1  0  0  0  0
  5  6  1  0  0  0  0
  5 26  1  0  0  0  0
  5 27  1  0  0  0  0
  6 28  1  0  0  0  0
  6 29  1  0  0  0  0
  6 30  1  0  0  0  0
  7 12  2  0  0  0  0
  7  8  1  0  0  0  0
  8  9  2  0  0  0  0
  8 31  1  0  0  0  0
  9 10  1  0  0  0  0
  9 32  1  0  0  0  0
 10 11  2  0  0  0  0
 10 13  1  0  0  0  0
 11 12  1  0  0  0  0
 11 33  1  0  0  0  0
 12 34  1  0  0  0  0
 13 35  1  0  0  0  0
 14 19  2  0  0  0  0
 14 15  1  0  0  0  0
 15 16  2  0  0  0  0
 15 36  1  0  0  0  0
 16 17  1  0  0  0  0
 16 37  1  0  0  0  0
 17 18  2  0  0  0  0
 17 20  1  0  0  0  0
 18 19  1  0  0  0  0
 18 38  1  0  0  0  0
 19 39  1  0  0  0  0
 20 40  1  0  0  0  0
M  END
$$$$
