ZINC85534336
 OpenBabel08292219463D

119121  0  0  1  0  0  0  0  0999 V2000
   -0.2745    2.0475   -2.1828 C   0  0  0  0  0  0  0  0  0  0  0  0
   -0.0469    0.6966   -1.5017 C   0  0  0  0  0  0  0  0  0  0  0  0
   -1.3864    0.1374   -1.0171 C   0  0  2  0  0  0  0  0  0  0  0  0
   -1.8798    0.8662   -0.3756 H   0  0  0  0  0  0  0  0  0  0  0  0
   -1.1280   -1.1485   -0.2112 C   0  0  1  0  0  0  0  0  0  0  0  0
   -2.2006   -1.2832    0.8544 C   0  0  1  0  0  0  0  0  0  0  0  0
   -3.0301   -0.6004    0.6093 H   0  0  0  0  0  0  0  0  0  0  0  0
   -2.7787   -2.6798    1.0542 C   0  0  2  0  0  0  0  0  0  0  0  0
   -2.7985   -3.2709    0.1571 H   0  0  0  0  0  0  0  0  0  0  0  0
   -4.1887   -2.5153    1.5808 C   0  0  0  0  0  0  0  0  0  0  0  0
   -4.3748   -1.6680    2.4369 O   0  0  0  0  0  0  0  0  0  0  0  0
   -5.3598   -3.3212    1.1099 C   0  0  1  0  0  0  0  0  0  0  0  0
   -5.8935   -3.6384    2.0458 H   0  0  0  0  0  0  0  0  0  0  0  0
   -6.3584   -2.4818    0.3389 C   0  0  0  0  0  0  0  0  0  0  0  0
   -6.0964   -2.3195   -1.1515 C   0  0  1  0  0  0  0  0  0  0  0  0
   -6.8920   -1.1002   -1.6465 C   0  0  1  0  0  0  0  0  0  0  0  0
   -6.7506   -0.2807   -0.9400 H   0  0  0  0  0  0  0  0  0  0  0  0
   -6.4353   -0.6635   -3.0364 C   0  0  2  0  0  0  0  0  0  0  0  0
   -5.8698   -1.4484   -3.5297 H   0  0  0  0  0  0  0  0  0  0  0  0
   -5.5951    0.6116   -2.9301 C   0  0  1  0  0  0  0  0  0  0  0  0
   -5.5116    0.9102   -1.8838 H   0  0  0  0  0  0  0  0  0  0  0  0
   -4.1998    0.3815   -3.5094 C   0  0  2  0  0  0  0  0  0  0  0  0
   -4.0821   -0.6613   -3.8047 H   0  0  0  0  0  0  0  0  0  0  0  0
   -3.1597    0.7355   -2.4758 C   0  0  0  0  0  0  0  0  0  0  0  0
   -3.1734    1.8237   -1.9535 O   0  0  0  0  0  0  0  0  0  0  0  0
   -2.2165   -0.1593   -2.1395 O   0  0  0  0  0  0  0  0  0  0  0  0
   -4.0060    1.2716   -4.7411 C   0  0  0  0  0  0  0  0  0  0  0  0
   -6.2436    1.6545   -3.6640 O   0  0  0  0  0  0  0  0  0  0  0  0
   -6.0056    2.9684   -3.1435 C   0  0  1  0  0  0  0  0  0  0  0  0
   -4.9331    3.1323   -3.0848 H   0  0  0  0  0  0  0  0  0  0  0  0
   -6.6520    3.9968   -4.0737 C   0  0  0  0  0  0  0  0  0  0  0  0
   -6.4380    5.4044   -3.5200 C   0  0  1  0  0  0  0  0  0  0  0  0
   -6.8937    5.5055   -2.0703 C   0  0  2  0  0  0  0  0  0  0  0  0
   -6.4693    6.4255   -1.6359 H   0  0  0  0  0  0  0  0  0  0  0  0
   -6.4876    4.3277   -1.2013 C   0  0  1  0  0  0  0  0  0  0  0  0
   -7.1802    4.3046   -0.3325 H   0  0  0  0  0  0  0  0  0  0  0  0
   -6.6023    3.0761   -1.8556 O   0  0  0  0  0  0  0  0  0  0  0  0
   -5.0805    4.5171   -0.6327 C   0  0  0  0  0  0  0  0  0  0  0  0
   -8.3234    5.6426   -2.0388 O   0  0  0  0  0  0  0  0  0  0  0  0
   -4.9730    5.8169   -3.6684 C   0  0  0  0  0  0  0  0  0  0  0  0
   -7.2328    6.3159   -4.3055 O   0  0  0  0  0  0  0  0  0  0  0  0
   -6.8970    6.3312   -5.6944 C   0  0  0  0  0  0  0  0  0  0  0  0
   -7.6766   -0.3643   -3.8916 C   0  0  0  0  0  0  0  0  0  0  0  0
   -8.2818   -1.4398   -1.6912 O   0  0  0  0  0  0  0  0  0  0  0  0
   -9.1148   -0.5838   -0.9067 C   0  0  1  0  0  0  0  0  0  0  0  0
   -8.9246    0.4550   -1.1762 H   0  0  0  0  0  0  0  0  0  0  0  0
  -10.5849   -0.9192   -1.1719 C   0  0  1  0  0  0  0  0  0  0  0  0
  -10.7664   -1.9689   -0.9412 H   0  0  0  0  0  0  0  0  0  0  0  0
  -11.4695   -0.0393   -0.2834 C   0  0  2  0  0  0  0  0  0  0  0  0
  -11.3248    1.0082   -0.5480 H   0  0  0  0  0  0  0  0  0  0  0  0
  -11.0789   -0.2564    1.1817 C   0  0  0  0  0  0  0  0  0  0  0  0
   -9.5898    0.0534    1.3560 C   0  0  2  0  0  0  0  0  0  0  0  0
   -9.4059    1.1007    1.1164 H   0  0  0  0  0  0  0  0  0  0  0  0
   -8.8259   -0.7772    0.4793 O   0  0  0  0  0  0  0  0  0  0  0  0
   -9.1782   -0.2185    2.8043 C   0  0  0  0  0  0  0  0  0  0  0  0
  -12.8790   -0.4050   -0.4774 N   0  3  0  0  0  0  0  0  0  0  0  0
  -13.1058   -1.7657    0.0274 C   0  0  0  0  0  0  0  0  0  0  0  0
  -13.7348    0.5380    0.2549 C   0  0  0  0  0  0  0  0  0  0  0  0
  -10.8906   -0.6725   -2.5459 O   0  0  0  0  0  0  0  0  0  0  0  0
   -4.6171   -2.0991   -1.4461 C   0  0  0  0  0  0  0  0  0  0  0  0
   -6.5650   -3.4702   -1.8632 O   0  0  0  0  0  0  0  0  0  0  0  0
   -4.9727   -4.6156    0.4172 C   0  0  0  0  0  0  0  0  0  0  0  0
   -1.9562   -3.4132    2.1267 C   0  0  0  0  0  0  0  0  0  0  0  0
   -1.6552   -0.8393    2.1119 O   0  0  0  0  0  0  0  0  0  0  0  0
   -1.0534   -2.3251   -1.1755 C   0  0  0  0  0  0  0  0  0  0  0  0
    0.1508   -1.0072    0.4341 O   0  0  0  0  0  0  0  0  0  0  0  0
    0.6796    2.4458   -2.5279 H   0  0  0  0  0  0  0  0  0  0  0  0
   -0.9430    1.9173   -3.0338 H   0  0  0  0  0  0  0  0  0  0  0  0
   -0.7223    2.7420   -1.4720 H   0  0  0  0  0  0  0  0  0  0  0  0
    0.4009    0.0021   -2.2125 H   0  0  0  0  0  0  0  0  0  0  0  0
    0.6216    0.8268   -0.6506 H   0  0  0  0  0  0  0  0  0  0  0  0
   -7.3625   -2.9174    0.4710 H   0  0  0  0  0  0  0  0  0  0  0  0
   -6.3992   -1.4782    0.7932 H   0  0  0  0  0  0  0  0  0  0  0  0
   -4.1125    2.3177   -4.4538 H   0  0  0  0  0  0  0  0  0  0  0  0
   -3.0110    1.1079   -5.1547 H   0  0  0  0  0  0  0  0  0  0  0  0
   -4.7568    1.0226   -5.4911 H   0  0  0  0  0  0  0  0  0  0  0  0
   -6.2004    3.9217   -5.0651 H   0  0  0  0  0  0  0  0  0  0  0  0
   -7.7211    3.7926   -4.1533 H   0  0  0  0  0  0  0  0  0  0  0  0
   -5.0526    5.4221   -0.0259 H   0  0  0  0  0  0  0  0  0  0  0  0
   -4.8193    3.6575   -0.0154 H   0  0  0  0  0  0  0  0  0  0  0  0
   -4.3667    4.6066   -1.4516 H   0  0  0  0  0  0  0  0  0  0  0  0
   -8.6922    5.7131   -1.1477 H   0  0  0  0  0  0  0  0  0  0  0  0
   -4.6968    5.8039   -4.7227 H   0  0  0  0  0  0  0  0  0  0  0  0
   -4.8364    6.8221   -3.2694 H   0  0  0  0  0  0  0  0  0  0  0  0
   -4.3415    5.1189   -3.1187 H   0  0  0  0  0  0  0  0  0  0  0  0
   -7.5392    7.0412   -6.2156 H   0  0  0  0  0  0  0  0  0  0  0  0
   -5.8551    6.6287   -5.8131 H   0  0  0  0  0  0  0  0  0  0  0  0
   -7.0407    5.3355   -6.1140 H   0  0  0  0  0  0  0  0  0  0  0  0
   -8.2289    0.4663   -3.4522 H   0  0  0  0  0  0  0  0  0  0  0  0
   -7.3662   -0.0998   -4.9025 H   0  0  0  0  0  0  0  0  0  0  0  0
   -8.3150   -1.2470   -3.9268 H   0  0  0  0  0  0  0  0  0  0  0  0
  -11.6657    0.4069    1.8173 H   0  0  0  0  0  0  0  0  0  0  0  0
  -11.2704   -1.2927    1.4601 H   0  0  0  0  0  0  0  0  0  0  0  0
   -9.3619   -1.2659    3.0437 H   0  0  0  0  0  0  0  0  0  0  0  0
   -8.1180    0.0021    2.9283 H   0  0  0  0  0  0  0  0  0  0  0  0
   -9.7616    0.4147    3.4728 H   0  0  0  0  0  0  0  0  0  0  0  0
  -14.1516   -2.0371   -0.1165 H   0  0  0  0  0  0  0  0  0  0  0  0
  -12.4708   -2.4654   -0.5159 H   0  0  0  0  0  0  0  0  0  0  0  0
  -12.8633   -1.8044    1.0894 H   0  0  0  0  0  0  0  0  0  0  0  0
  -13.6094    1.5388   -0.1584 H   0  0  0  0  0  0  0  0  0  0  0  0
  -14.7768    0.2331    0.1586 H   0  0  0  0  0  0  0  0  0  0  0  0
  -13.4532    0.5419    1.3079 H   0  0  0  0  0  0  0  0  0  0  0  0
  -10.3630   -1.1943   -3.1660 H   0  0  0  0  0  0  0  0  0  0  0  0
   -4.0508   -2.9790   -1.1408 H   0  0  0  0  0  0  0  0  0  0  0  0
   -4.4804   -1.9318   -2.5145 H   0  0  0  0  0  0  0  0  0  0  0  0
   -4.2623   -1.2290   -0.8938 H   0  0  0  0  0  0  0  0  0  0  0  0
   -6.1431   -4.2977   -1.5942 H   0  0  0  0  0  0  0  0  0  0  0  0
   -4.3360   -5.2046    1.0773 H   0  0  0  0  0  0  0  0  0  0  0  0
   -5.8722   -5.1830    0.1785 H   0  0  0  0  0  0  0  0  0  0  0  0
   -4.4319   -4.3883   -0.5015 H   0  0  0  0  0  0  0  0  0  0  0  0
   -2.0038   -2.8582    3.0636 H   0  0  0  0  0  0  0  0  0  0  0  0
   -2.3631   -4.4133    2.2758 H   0  0  0  0  0  0  0  0  0  0  0  0
   -0.9187   -3.4879    1.8009 H   0  0  0  0  0  0  0  0  0  0  0  0
   -2.2768   -0.8921    2.8508 H   0  0  0  0  0  0  0  0  0  0  0  0
   -0.2408   -2.1635   -1.8838 H   0  0  0  0  0  0  0  0  0  0  0  0
   -0.8705   -3.2425   -0.6159 H   0  0  0  0  0  0  0  0  0  0  0  0
   -1.9955   -2.4115   -1.7169 H   0  0  0  0  0  0  0  0  0  0  0  0
    0.8885   -0.8807   -0.1782 H   0  0  0  0  0  0  0  0  0  0  0  0
  -13.1035   -0.3692   -1.4605 H   0  0  0  0  0  0  0  0  0  0  0  0
  1  2  1  0  0  0  0
  1 67  1  0  0  0  0
  1 68  1  0  0  0  0
  1 69  1  0  0  0  0
  2  3  1  0  0  0  0
  2 70  1  0  0  0  0
  2 71  1  0  0  0  0
  3  4  1  1  0  0  0
  3 26  1  0  0  0  0
  3  5  1  0  0  0  0
  5  6  1  0  0  0  0
  5 65  1  0  0  0  0
  5 66  1  1  0  0  0
  6  7  1  6  0  0  0
  6  8  1  0  0  0  0
  6 64  1  0  0  0  0
  8  9  1  6  0  0  0
  8 10  1  0  0  0  0
  8 63  1  0  0  0  0
 10 11  2  0  0  0  0
 10 12  1  0  0  0  0
 12 13  1  1  0  0  0
 12 14  1  0  0  0  0
 12 62  1  0  0  0  0
 14 15  1  0  0  0  0
 14 72  1  0  0  0  0
 14 73  1  0  0  0  0
 15 16  1  0  0  0  0
 15 60  1  0  0  0  0
 15 61  1  6  0  0  0
 16 17  1  1  0  0  0
 16 18  1  0  0  0  0
 16 44  1  0  0  0  0
 18 19  1  6  0  0  0
 18 20  1  0  0  0  0
 18 43  1  0  0  0  0
 20 21  1  1  0  0  0
 20 22  1  0  0  0  0
 20 28  1  0  0  0  0
 22 23  1  6  0  0  0
 22 24  1  0  0  0  0
 22 27  1  0  0  0  0
 24 25  2  0  0  0  0
 24 26  1  0  0  0  0
 27 74  1  0  0  0  0
 27 75  1  0  0  0  0
 27 76  1  0  0  0  0
 28 29  1  0  0  0  0
 29 30  1  1  0  0  0
 29 37  1  0  0  0  0
 29 31  1  0  0  0  0
 31 32  1  0  0  0  0
 31 77  1  0  0  0  0
 31 78  1  0  0  0  0
 32 33  1  0  0  0  0
 32 40  1  0  0  0  0
 32 41  1  6  0  0  0
 33 34  1  1  0  0  0
 33 35  1  0  0  0  0
 33 39  1  0  0  0  0
 35 36  1  1  0  0  0
 35 37  1  0  0  0  0
 35 38  1  0  0  0  0
 38 79  1  0  0  0  0
 38 80  1  0  0  0  0
 38 81  1  0  0  0  0
 39 82  1  0  0  0  0
 40 83  1  0  0  0  0
 40 84  1  0  0  0  0
 40 85  1  0  0  0  0
 41 42  1  0  0  0  0
 42 86  1  0  0  0  0
 42 87  1  0  0  0  0
 42 88  1  0  0  0  0
 43 89  1  0  0  0  0
 43 90  1  0  0  0  0
 43 91  1  0  0  0  0
 44 45  1  0  0  0  0
 45 46  1  6  0  0  0
 45 54  1  0  0  0  0
 45 47  1  0  0  0  0
 47 48  1  1  0  0  0
 47 49  1  0  0  0  0
 47 59  1  0  0  0  0
 49 50  1  6  0  0  0
 49 51  1  0  0  0  0
 49 56  1  0  0  0  0
 51 52  1  0  0  0  0
 51 92  1  0  0  0  0
 51 93  1  0  0  0  0
 52 53  1  6  0  0  0
 52 54  1  0  0  0  0
 52 55  1  0  0  0  0
 55 94  1  0  0  0  0
 55 95  1  0  0  0  0
 55 96  1  0  0  0  0
 56 57  1  0  0  0  0
 56 58  1  0  0  0  0
 56119  1  0  0  0  0
 57 97  1  0  0  0  0
 57 98  1  0  0  0  0
 57 99  1  0  0  0  0
 58100  1  0  0  0  0
 58101  1  0  0  0  0
 58102  1  0  0  0  0
 59103  1  0  0  0  0
 60104  1  0  0  0  0
 60105  1  0  0  0  0
 60106  1  0  0  0  0
 61107  1  0  0  0  0
 62108  1  0  0  0  0
 62109  1  0  0  0  0
 62110  1  0  0  0  0
 63111  1  0  0  0  0
 63112  1  0  0  0  0
 63113  1  0  0  0  0
 64114  1  0  0  0  0
 65115  1  0  0  0  0
 65116  1  0  0  0  0
 65117  1  0  0  0  0
 66118  1  0  0  0  0
M  CHG  1  56   1
M  END
$$$$
