ZINC08214587
 OpenBabel08292219463D

 25 24  0  0  0  0  0  0  0  0999 V2000
   -1.0941    1.3223   -3.5258 C   0  0  0  0  0  0  0  0  0  0  0  0
   -0.2274    2.1810   -2.6026 C   0  0  0  0  0  0  0  0  0  0  0  0
   -0.1593    3.6085   -3.1491 C   0  0  0  0  0  0  0  0  0  0  0  0
   -0.7993    2.1991   -1.2931 O   0  0  0  0  0  0  0  0  0  0  0  0
   -0.0206    1.6658    0.0112 P   0  0  0  0  0  0  0  0  0  0  0  0
    1.3679    2.1780    0.0007 O   0  0  0  0  0  0  0  0  0  0  0  0
   -0.7742    2.1850    1.3358 O   0  0  0  0  0  0  0  0  0  0  0  0
   -0.5286    1.6416    2.6345 C   0  0  0  0  0  0  0  0  0  0  0  0
   -0.0214    2.7472    3.5624 C   0  0  0  0  0  0  0  0  0  0  0  0
   -1.8266    1.0589    3.1972 C   0  0  0  0  0  0  0  0  0  0  0  0
    0.0021   -0.0041    0.0020 F   0  0  0  0  0  0  0  0  0  0  0  0
   -0.6579    1.3085   -4.5246 H   0  0  0  0  0  0  0  0  0  0  0  0
   -1.1426    0.3054   -3.1365 H   0  0  0  0  0  0  0  0  0  0  0  0
   -2.0992    1.7412   -3.5741 H   0  0  0  0  0  0  0  0  0  0  0  0
    0.7777    1.7621   -2.5544 H   0  0  0  0  0  0  0  0  0  0  0  0
    0.4582    4.2203   -2.4914 H   0  0  0  0  0  0  0  0  0  0  0  0
    0.2769    3.5947   -4.1479 H   0  0  0  0  0  0  0  0  0  0  0  0
   -1.1644    4.0274   -3.1973 H   0  0  0  0  0  0  0  0  0  0  0  0
    0.2220    0.8545    2.5630 H   0  0  0  0  0  0  0  0  0  0  0  0
    0.1658    2.3328    4.5530 H   0  0  0  0  0  0  0  0  0  0  0  0
    0.9033    3.1623    3.1615 H   0  0  0  0  0  0  0  0  0  0  0  0
   -0.7721    3.5344    3.6339 H   0  0  0  0  0  0  0  0  0  0  0  0
   -2.1879    0.2712    2.5362 H   0  0  0  0  0  0  0  0  0  0  0  0
   -1.6393    0.6444    4.1878 H   0  0  0  0  0  0  0  0  0  0  0  0
   -2.5772    1.8460    3.2687 H   0  0  0  0  0  0  0  0  0  0  0  0
  1  2  1  0  0  0  0
  1 12  1  0  0  0  0
  1 13  1  0  0  0  0
  1 14  1  0  0  0  0
  2  3  1  0  0  0  0
  2  4  1  0  0  0  0
  2 15  1  0  0  0  0
  3 16  1  0  0  0  0
  3 17  1  0  0  0  0
  3 18  1  0  0  0  0
  4  5  1  0  0  0  0
  5  6  2  0  0  0  0
  5  7  1  0  0  0  0
  5 11  1  0  0  0  0
  7  8  1  0  0  0  0
  8  9  1  0  0  0  0
  8 10  1  0  0  0  0
  8 19  1  0  0  0  0
  9 20  1  0  0  0  0
  9 21  1  0  0  0  0
  9 22  1  0  0  0  0
 10 23  1  0  0  0  0
 10 24  1  0  0  0  0
 10 25  1  0  0  0  0
M  END
$$$$
