ZINC04097404
 OpenBabel08292219463D

 98103  0  0  1  0  0  0  0  0999 V2000
   -4.7984   -0.9023   -2.1644 C   0  0  0  0  0  0  0  0  0  0  0  0
   -3.3194   -0.6560   -2.0126 C   0  0  0  0  0  0  0  0  0  0  0  0
   -2.5698   -0.8967   -2.9291 O   0  0  0  0  0  0  0  0  0  0  0  0
   -2.8349   -0.1693   -0.8593 O   0  0  0  0  0  0  0  0  0  0  0  0
   -1.4005    0.0430   -0.7843 C   0  0  1  0  0  0  0  0  0  0  0  0
   -0.8922   -0.6781   -1.4244 H   0  0  0  0  0  0  0  0  0  0  0  0
   -1.0648    1.4612   -1.2506 C   0  0  0  0  0  0  0  0  0  0  0  0
   -1.7817    2.4727   -0.3544 C   0  0  2  0  0  0  0  0  0  0  0  0
   -2.8580    2.3114   -0.4141 H   0  0  0  0  0  0  0  0  0  0  0  0
   -1.4547    3.8920   -0.8222 C   0  0  0  0  0  0  0  0  0  0  0  0
   -2.1733    4.9034    0.0733 C   0  0  0  0  0  0  0  0  0  0  0  0
   -1.7070    4.7256    1.5189 C   0  0  2  0  0  0  0  0  0  0  0  0
   -0.6313    4.8900    1.5816 H   0  0  0  0  0  0  0  0  0  0  0  0
   -2.0405    3.3008    1.9878 C   0  0  1  0  0  0  0  0  0  0  0  0
   -3.1155    3.1450    1.8979 H   0  0  0  0  0  0  0  0  0  0  0  0
   -1.3190    2.2923    1.0930 C   0  0  1  0  0  0  0  0  0  0  0  0
   -1.6470    0.8723    1.5595 C   0  0  0  0  0  0  0  0  0  0  0  0
   -0.9327   -0.1391    0.6611 C   0  0  2  0  0  0  0  0  0  0  0  0
   -1.1670   -1.1501    0.9942 H   0  0  0  0  0  0  0  0  0  0  0  0
    1.2165   -0.6575   -0.3253 C   0  0  0  0  0  0  0  0  0  0  0  0
    2.7032   -0.2950   -0.3060 C   0  0  0  0  0  0  0  0  0  0  0  0
    3.2932   -0.6532    1.0608 C   0  0  0  0  0  0  0  0  0  0  0  0
    2.5172    0.0880    2.1530 C   0  0  0  0  0  0  0  0  0  0  0  0
    1.0359   -0.2856    2.0625 C   0  0  0  0  0  0  0  0  0  0  0  0
    0.1912    2.5221    1.1789 C   0  0  0  0  0  0  0  0  0  0  0  0
   -1.6469    3.0823    3.4447 C   0  0  0  0  0  0  0  0  0  0  0  0
   -2.2882    4.1371    4.3622 C   0  0  0  0  0  0  0  0  0  0  0  0
   -1.8498    5.4988    3.8600 C   0  0  1  0  0  0  0  0  0  0  0  0
   -2.4288    5.7009    2.4297 C   0  0  1  0  0  0  0  0  0  0  0  0
   -3.4994    5.4961    2.4316 H   0  0  0  0  0  0  0  0  0  0  0  0
   -2.1548    7.1864    2.1716 C   0  0  0  0  0  0  0  0  0  0  0  0
   -2.5036    7.8456    3.5341 C   0  0  1  0  0  0  0  0  0  0  0  0
   -3.5298    8.2128    3.5202 H   0  0  0  0  0  0  0  0  0  0  0  0
   -2.3817    6.7091    4.6206 C   0  0  2  0  0  0  0  0  0  0  0  0
   -3.3418    6.4743    5.0802 H   0  0  0  0  0  0  0  0  0  0  0  0
   -1.4274    7.1268    5.6321 O   0  0  0  0  0  0  0  0  0  0  0  0
   -1.8738    7.2053    6.8956 C   0  0  0  0  0  0  0  0  0  0  0  0
   -3.0066    6.8769    7.1576 O   0  0  0  0  0  0  0  0  0  0  0  0
   -0.9619    7.7030    7.9873 C   0  0  0  0  0  0  0  0  0  0  0  0
   -1.5767    8.9510    3.8114 N   0  3  0  0  0  0  0  0  0  0  0  0
   -0.1995    8.4432    3.8161 C   0  0  0  0  0  0  0  0  0  0  0  0
    0.7755    9.6041    4.0240 C   0  0  0  0  0  0  0  0  0  0  0  0
    0.4751   10.2821    5.3639 C   0  0  0  0  0  0  0  0  0  0  0  0
   -0.9856   10.7417    5.3761 C   0  0  0  0  0  0  0  0  0  0  0  0
   -1.8953    9.5386    5.1181 C   0  0  0  0  0  0  0  0  0  0  0  0
   -1.7138    9.9764    2.7684 C   0  0  0  0  0  0  0  0  0  0  0  0
   -0.3224    5.5590    3.7954 C   0  0  0  0  0  0  0  0  0  0  0  0
   -5.3387    0.0343   -2.0262 H   0  0  0  0  0  0  0  0  0  0  0  0
   -5.0010   -1.2950   -3.1608 H   0  0  0  0  0  0  0  0  0  0  0  0
   -5.1252   -1.6242   -1.4159 H   0  0  0  0  0  0  0  0  0  0  0  0
   -1.3949    1.5908   -2.2812 H   0  0  0  0  0  0  0  0  0  0  0  0
    0.0117    1.6217   -1.1909 H   0  0  0  0  0  0  0  0  0  0  0  0
   -0.3785    4.0550   -0.7633 H   0  0  0  0  0  0  0  0  0  0  0  0
   -1.7854    4.0200   -1.8529 H   0  0  0  0  0  0  0  0  0  0  0  0
   -1.9415    5.9144   -0.2616 H   0  0  0  0  0  0  0  0  0  0  0  0
   -3.2494    4.7393    0.0158 H   0  0  0  0  0  0  0  0  0  0  0  0
   -2.7235    0.7112    1.5033 H   0  0  0  0  0  0  0  0  0  0  0  0
   -1.3136    0.7424    2.5891 H   0  0  0  0  0  0  0  0  0  0  0  0
    1.1018   -1.7290   -0.1613 H   0  0  0  0  0  0  0  0  0  0  0  0
    0.7901   -0.3906   -1.2922 H   0  0  0  0  0  0  0  0  0  0  0  0
    2.8194    0.7741   -0.4837 H   0  0  0  0  0  0  0  0  0  0  0  0
    3.2238   -0.8526   -1.0845 H   0  0  0  0  0  0  0  0  0  0  0  0
    4.3416   -0.3569    1.0939 H   0  0  0  0  0  0  0  0  0  0  0  0
    3.2132   -1.7281    1.2228 H   0  0  0  0  0  0  0  0  0  0  0  0
    2.6305    1.1632    2.0140 H   0  0  0  0  0  0  0  0  0  0  0  0
    2.9048   -0.1953    3.1316 H   0  0  0  0  0  0  0  0  0  0  0  0
    0.4783    0.2515    2.8298 H   0  0  0  0  0  0  0  0  0  0  0  0
    0.9222   -1.3588    2.2152 H   0  0  0  0  0  0  0  0  0  0  0  0
    0.6921    1.9384    0.4065 H   0  0  0  0  0  0  0  0  0  0  0  0
    0.4067    3.5804    1.0315 H   0  0  0  0  0  0  0  0  0  0  0  0
    0.5509    2.2113    2.1598 H   0  0  0  0  0  0  0  0  0  0  0  0
   -1.9742    2.0909    3.7578 H   0  0  0  0  0  0  0  0  0  0  0  0
   -0.5624    3.1447    3.5345 H   0  0  0  0  0  0  0  0  0  0  0  0
   -3.3743    4.0572    4.3165 H   0  0  0  0  0  0  0  0  0  0  0  0
   -1.9478    3.9928    5.3875 H   0  0  0  0  0  0  0  0  0  0  0  0
   -1.1060    7.3476    1.9223 H   0  0  0  0  0  0  0  0  0  0  0  0
   -2.8007    7.5659    1.3798 H   0  0  0  0  0  0  0  0  0  0  0  0
    0.0115    7.9495    7.5634 H   0  0  0  0  0  0  0  0  0  0  0  0
   -1.3948    8.5925    8.4449 H   0  0  0  0  0  0  0  0  0  0  0  0
   -0.8429    6.9268    8.7433 H   0  0  0  0  0  0  0  0  0  0  0  0
   -0.0817    7.7212    4.6241 H   0  0  0  0  0  0  0  0  0  0  0  0
    0.0117    7.9582    2.8630 H   0  0  0  0  0  0  0  0  0  0  0  0
    0.6586   10.3266    3.2162 H   0  0  0  0  0  0  0  0  0  0  0  0
    1.7973    9.2248    4.0289 H   0  0  0  0  0  0  0  0  0  0  0  0
    1.1296   11.1444    5.4908 H   0  0  0  0  0  0  0  0  0  0  0  0
    0.6413    9.5742    6.1759 H   0  0  0  0  0  0  0  0  0  0  0  0
   -1.1390   11.4878    4.5964 H   0  0  0  0  0  0  0  0  0  0  0  0
   -1.2226   11.1755    6.3476 H   0  0  0  0  0  0  0  0  0  0  0  0
   -2.9361    9.8623    5.1264 H   0  0  0  0  0  0  0  0  0  0  0  0
   -1.7409    8.7935    5.8985 H   0  0  0  0  0  0  0  0  0  0  0  0
   -2.7276   10.3767    2.7836 H   0  0  0  0  0  0  0  0  0  0  0  0
   -1.0026   10.7811    2.9544 H   0  0  0  0  0  0  0  0  0  0  0  0
   -1.5131    9.5322    1.7935 H   0  0  0  0  0  0  0  0  0  0  0  0
    0.0558    4.6651    3.2995 H   0  0  0  0  0  0  0  0  0  0  0  0
   -0.0170    6.4424    3.2346 H   0  0  0  0  0  0  0  0  0  0  0  0
    0.0822    5.6125    4.8061 H   0  0  0  0  0  0  0  0  0  0  0  0
    0.5224    0.1070    0.7330 N   0  3  0  0  0  0  0  0  0  0  0  0
    0.6986    1.1084    0.5904 H   0  0  0  0  0  0  0  0  0  0  0  0
  1  2  1  0  0  0  0
  1 48  1  0  0  0  0
  1 49  1  0  0  0  0
  1 50  1  0  0  0  0
  2  3  2  0  0  0  0
  2  4  1  0  0  0  0
  4  5  1  0  0  0  0
  5  6  1  6  0  0  0
  5 18  1  0  0  0  0
  5  7  1  0  0  0  0
  7  8  1  0  0  0  0
  7 51  1  0  0  0  0
  7 52  1  0  0  0  0
  8  9  1  6  0  0  0
  8 16  1  0  0  0  0
  8 10  1  0  0  0  0
 10 11  1  0  0  0  0
 10 53  1  0  0  0  0
 10 54  1  0  0  0  0
 11 12  1  0  0  0  0
 11 55  1  0  0  0  0
 11 56  1  0  0  0  0
 12 13  1  1  0  0  0
 12 29  1  0  0  0  0
 12 14  1  0  0  0  0
 14 15  1  6  0  0  0
 14 16  1  0  0  0  0
 14 26  1  0  0  0  0
 16 17  1  0  0  0  0
 16 25  1  1  0  0  0
 17 18  1  0  0  0  0
 17 57  1  0  0  0  0
 17 58  1  0  0  0  0
 18 19  1  1  0  0  0
 18 97  1  0  0  0  0
 20 21  1  0  0  0  0
 20 59  1  0  0  0  0
 20 60  1  0  0  0  0
 20 97  1  0  0  0  0
 21 22  1  0  0  0  0
 21 61  1  0  0  0  0
 21 62  1  0  0  0  0
 22 23  1  0  0  0  0
 22 63  1  0  0  0  0
 22 64  1  0  0  0  0
 23 24  1  0  0  0  0
 23 65  1  0  0  0  0
 23 66  1  0  0  0  0
 24 67  1  0  0  0  0
 24 68  1  0  0  0  0
 24 97  1  0  0  0  0
 25 69  1  0  0  0  0
 25 70  1  0  0  0  0
 25 71  1  0  0  0  0
 26 27  1  0  0  0  0
 26 72  1  0  0  0  0
 26 73  1  0  0  0  0
 27 28  1  0  0  0  0
 27 74  1  0  0  0  0
 27 75  1  0  0  0  0
 28 34  1  0  0  0  0
 28 29  1  0  0  0  0
 28 47  1  6  0  0  0
 29 30  1  6  0  0  0
 29 31  1  0  0  0  0
 31 32  1  0  0  0  0
 31 76  1  0  0  0  0
 31 77  1  0  0  0  0
 32 33  1  6  0  0  0
 32 34  1  0  0  0  0
 32 40  1  0  0  0  0
 34 35  1  1  0  0  0
 34 36  1  0  0  0  0
 36 37  1  0  0  0  0
 37 38  2  0  0  0  0
 37 39  1  0  0  0  0
 39 78  1  0  0  0  0
 39 79  1  0  0  0  0
 39 80  1  0  0  0  0
 40 45  1  0  0  0  0
 40 41  1  0  0  0  0
 40 46  1  0  0  0  0
 41 42  1  0  0  0  0
 41 81  1  0  0  0  0
 41 82  1  0  0  0  0
 42 43  1  0  0  0  0
 42 83  1  0  0  0  0
 42 84  1  0  0  0  0
 43 44  1  0  0  0  0
 43 85  1  0  0  0  0
 43 86  1  0  0  0  0
 44 45  1  0  0  0  0
 44 87  1  0  0  0  0
 44 88  1  0  0  0  0
 45 89  1  0  0  0  0
 45 90  1  0  0  0  0
 46 91  1  0  0  0  0
 46 92  1  0  0  0  0
 46 93  1  0  0  0  0
 47 94  1  0  0  0  0
 47 95  1  0  0  0  0
 47 96  1  0  0  0  0
 97 98  1  0  0  0  0
M  CHG  2  40   1  97   1
M  END
$$$$
