ZINC00597013
 OpenBabel08292219463D

 58 61  0  0  1  0  0  0  0  0999 V2000
   -0.0173    1.4248    0.0099 C   0  0  0  0  0  0  0  0  0  0  0  0
    0.0021   -0.0041    0.0020 O   0  0  0  0  0  0  0  0  0  0  0  0
    0.6051   -0.6064   -1.0545 C   0  0  0  0  0  0  0  0  0  0  0  0
    1.1721    0.1632   -2.0609 C   0  0  0  0  0  0  0  0  0  0  0  0
    1.7866   -0.4410   -3.1387 C   0  0  0  0  0  0  0  0  0  0  0  0
    1.8416   -1.8340   -3.2219 C   0  0  0  0  0  0  0  0  0  0  0  0
    1.2663   -2.6106   -2.2012 C   0  0  0  0  0  0  0  0  0  0  0  0
    0.6597   -1.9984   -1.1254 C   0  0  0  0  0  0  0  0  0  0  0  0
    0.1088   -2.7516   -0.1361 O   0  0  0  0  0  0  0  0  0  0  0  0
    0.2013   -4.1710   -0.2735 C   0  0  0  0  0  0  0  0  0  0  0  0
    2.5389   -2.2531   -4.4456 C   0  0  0  0  0  0  0  0  0  0  0  0
    2.7420   -3.3976   -4.7923 O   0  0  0  0  0  0  0  0  0  0  0  0
    2.9584   -1.0129   -5.1966 C   0  0  2  0  0  0  0  0  0  0  0  0
    4.0434   -0.9806   -5.2959 H   0  0  0  0  0  0  0  0  0  0  0  0
    2.4673    0.1645   -4.3432 C   0  0  0  0  0  0  0  0  0  0  0  0
    2.2994   -0.9808   -6.5770 C   0  0  0  0  0  0  0  0  0  0  0  0
    2.8476   -2.1260   -7.4307 C   0  0  2  0  0  0  0  0  0  0  0  0
    4.3380   -1.8972   -7.6982 C   0  0  0  0  0  0  0  0  0  0  0  0
    4.8612   -3.0029   -8.6175 C   0  0  0  0  0  0  0  0  0  0  0  0
    4.1252   -2.9777   -9.8872 N   0  3  2  0  0  0  0  0  0  0  0  0
    2.7066   -3.2675   -9.6464 C   0  0  0  0  0  0  0  0  0  0  0  0
    2.1004   -2.1720   -8.7666 C   0  0  0  0  0  0  0  0  0  0  0  0
    4.6828   -3.9891  -10.7949 C   0  0  0  0  0  0  0  0  0  0  0  0
    4.0113   -3.8820  -12.1398 C   0  0  0  0  0  0  0  0  0  0  0  0
    2.8641   -4.6083  -12.3993 C   0  0  0  0  0  0  0  0  0  0  0  0
    2.2481   -4.5101  -13.6329 C   0  0  0  0  0  0  0  0  0  0  0  0
    2.7790   -3.6851  -14.6068 C   0  0  0  0  0  0  0  0  0  0  0  0
    3.9256   -2.9580  -14.3470 C   0  0  0  0  0  0  0  0  0  0  0  0
    4.5392   -3.0530  -13.1119 C   0  0  0  0  0  0  0  0  0  0  0  0
    1.0053    1.8021    0.0021 H   0  0  0  0  0  0  0  0  0  0  0  0
   -0.5445    1.7859   -0.8732 H   0  0  0  0  0  0  0  0  0  0  0  0
   -0.5275    1.7763    0.9067 H   0  0  0  0  0  0  0  0  0  0  0  0
    1.1317    1.2407   -2.0004 H   0  0  0  0  0  0  0  0  0  0  0  0
    1.3038   -3.6885   -2.2575 H   0  0  0  0  0  0  0  0  0  0  0  0
   -0.2763   -4.6506    0.5809 H   0  0  0  0  0  0  0  0  0  0  0  0
   -0.2996   -4.4806   -1.1908 H   0  0  0  0  0  0  0  0  0  0  0  0
    1.2502   -4.4644   -0.3155 H   0  0  0  0  0  0  0  0  0  0  0  0
    1.7583    0.7678   -4.9101 H   0  0  0  0  0  0  0  0  0  0  0  0
    3.3123    0.7764   -4.0277 H   0  0  0  0  0  0  0  0  0  0  0  0
    1.2208   -1.0934   -6.4674 H   0  0  0  0  0  0  0  0  0  0  0  0
    2.5179   -0.0293   -7.0618 H   0  0  0  0  0  0  0  0  0  0  0  0
    2.7114   -3.0706   -6.9042 H   0  0  0  0  0  0  0  0  0  0  0  0
    4.4772   -0.9286   -8.1782 H   0  0  0  0  0  0  0  0  0  0  0  0
    4.8846   -1.9188   -6.7553 H   0  0  0  0  0  0  0  0  0  0  0  0
    5.9222   -2.8432   -8.8098 H   0  0  0  0  0  0  0  0  0  0  0  0
    4.7218   -3.9711   -8.1364 H   0  0  0  0  0  0  0  0  0  0  0  0
    2.1768   -3.3031  -10.5983 H   0  0  0  0  0  0  0  0  0  0  0  0
    2.6131   -4.2300   -9.1434 H   0  0  0  0  0  0  0  0  0  0  0  0
    1.0476   -2.3899   -8.5875 H   0  0  0  0  0  0  0  0  0  0  0  0
    2.1932   -1.2090   -9.2688 H   0  0  0  0  0  0  0  0  0  0  0  0
    5.7540   -3.8234  -10.9095 H   0  0  0  0  0  0  0  0  0  0  0  0
    4.5111   -4.9828  -10.3812 H   0  0  0  0  0  0  0  0  0  0  0  0
    2.4494   -5.2529  -11.6384 H   0  0  0  0  0  0  0  0  0  0  0  0
    1.3522   -5.0781  -13.8359 H   0  0  0  0  0  0  0  0  0  0  0  0
    2.2981   -3.6088  -15.5708 H   0  0  0  0  0  0  0  0  0  0  0  0
    4.3405   -2.3138  -15.1080 H   0  0  0  0  0  0  0  0  0  0  0  0
    5.4329   -2.4822  -12.9076 H   0  0  0  0  0  0  0  0  0  0  0  0
    4.2142   -2.0651  -10.3083 H   0  0  0  0  0  0  0  0  0  0  0  0
  1  2  1  0  0  0  0
  1 30  1  0  0  0  0
  1 31  1  0  0  0  0
  1 32  1  0  0  0  0
  2  3  1  0  0  0  0
  3  8  2  0  0  0  0
  3  4  1  0  0  0  0
  4  5  2  0  0  0  0
  4 33  1  0  0  0  0
  5 15  1  0  0  0  0
  5  6  1  0  0  0  0
  6  7  2  0  0  0  0
  6 11  1  0  0  0  0
  7  8  1  0  0  0  0
  7 34  1  0  0  0  0
  8  9  1  0  0  0  0
  9 10  1  0  0  0  0
 10 35  1  0  0  0  0
 10 36  1  0  0  0  0
 10 37  1  0  0  0  0
 11 12  2  0  0  0  0
 11 13  1  0  0  0  0
 13 14  1  6  0  0  0
 13 15  1  0  0  0  0
 13 16  1  0  0  0  0
 15 38  1  0  0  0  0
 15 39  1  0  0  0  0
 16 17  1  0  0  0  0
 16 40  1  0  0  0  0
 16 41  1  0  0  0  0
 17 22  1  0  0  0  0
 17 18  1  0  0  0  0
 17 42  1  1  0  0  0
 18 19  1  0  0  0  0
 18 43  1  0  0  0  0
 18 44  1  0  0  0  0
 19 20  1  0  0  0  0
 19 45  1  0  0  0  0
 19 46  1  0  0  0  0
 20 21  1  0  0  0  0
 20 23  1  0  0  0  0
 20 58  1  6  0  0  0
 21 22  1  0  0  0  0
 21 47  1  0  0  0  0
 21 48  1  0  0  0  0
 22 49  1  0  0  0  0
 22 50  1  0  0  0  0
 23 24  1  0  0  0  0
 23 51  1  0  0  0  0
 23 52  1  0  0  0  0
 24 29  2  0  0  0  0
 24 25  1  0  0  0  0
 25 26  2  0  0  0  0
 25 53  1  0  0  0  0
 26 27  1  0  0  0  0
 26 54  1  0  0  0  0
 27 28  2  0  0  0  0
 27 55  1  0  0  0  0
 28 29  1  0  0  0  0
 28 56  1  0  0  0  0
 29 57  1  0  0  0  0
M  CHG  1  20   1
M  END
$$$$
