ZINC01530975
 OpenBabel08292219463D

 52 54  0  0  1  0  0  0  0  0999 V2000
    0.5025    1.8167    0.0631 C   0  0  0  0  0  0  0  0  0  0  0  0
    0.3583    0.2935    0.0511 C   0  0  0  0  0  0  0  0  0  0  0  0
    1.0684   -0.2956    1.2716 C   0  0  0  0  0  0  0  0  0  0  0  0
   -1.1250   -0.0787    0.0950 C   0  0  0  0  0  0  0  0  0  0  0  0
    0.9781   -0.2598   -1.2062 C   0  0  0  0  0  0  0  0  0  0  0  0
    0.2040   -0.9730   -2.1023 C   0  0  0  0  0  0  0  0  0  0  0  0
    0.7724   -1.4806   -3.2556 C   0  0  0  0  0  0  0  0  0  0  0  0
    2.1149   -1.2745   -3.5131 C   0  0  0  0  0  0  0  0  0  0  0  0
    2.8887   -0.5604   -2.6175 C   0  0  0  0  0  0  0  0  0  0  0  0
    2.3193   -0.0492   -1.4662 C   0  0  0  0  0  0  0  0  0  0  0  0
    2.7348   -1.8286   -4.7699 C   0  0  0  0  0  0  0  0  0  0  0  0
    2.6278   -0.8360   -5.8475 N   0  3  1  0  0  0  0  0  0  0  0  0
    3.4312    0.3456   -5.5063 C   0  0  0  0  0  0  0  0  0  0  0  0
    3.1230   -1.4192   -7.1015 C   0  0  0  0  0  0  0  0  0  0  0  0
    2.8849   -0.4531   -8.2333 C   0  0  0  0  0  0  0  0  0  0  0  0
    3.9224    0.2549   -8.7582 C   0  0  0  0  0  0  0  0  0  0  0  0
    3.7216    1.1526   -9.8047 C   0  0  0  0  0  0  0  0  0  0  0  0
    2.4821    1.3480  -10.3324 C   0  0  0  0  0  0  0  0  0  0  0  0
    1.3867    0.6351   -9.8166 C   0  0  0  0  0  0  0  0  0  0  0  0
    1.5920   -0.2827   -8.7562 C   0  0  0  0  0  0  0  0  0  0  0  0
    0.4971   -1.0002   -8.2443 C   0  0  0  0  0  0  0  0  0  0  0  0
   -0.7410   -0.8091   -8.7759 C   0  0  0  0  0  0  0  0  0  0  0  0
   -0.9417    0.0887   -9.8230 C   0  0  0  0  0  0  0  0  0  0  0  0
    0.0922    0.8105  -10.3351 C   0  0  0  0  0  0  0  0  0  0  0  0
    1.5593    2.0818    0.0318 H   0  0  0  0  0  0  0  0  0  0  0  0
   -0.0033    2.2364   -0.8064 H   0  0  0  0  0  0  0  0  0  0  0  0
    0.0543    2.2169    0.9726 H   0  0  0  0  0  0  0  0  0  0  0  0
    0.6201    0.1046    2.1810 H   0  0  0  0  0  0  0  0  0  0  0  0
    0.9656   -1.3808    1.2630 H   0  0  0  0  0  0  0  0  0  0  0  0
    2.1251   -0.0305    1.2403 H   0  0  0  0  0  0  0  0  0  0  0  0
   -1.6309    0.3410   -0.7745 H   0  0  0  0  0  0  0  0  0  0  0  0
   -1.2278   -1.1638    0.0864 H   0  0  0  0  0  0  0  0  0  0  0  0
   -1.5733    0.3215    1.0044 H   0  0  0  0  0  0  0  0  0  0  0  0
   -0.8448   -1.1341   -1.9012 H   0  0  0  0  0  0  0  0  0  0  0  0
    0.1678   -2.0384   -3.9554 H   0  0  0  0  0  0  0  0  0  0  0  0
    3.9376   -0.3997   -2.8184 H   0  0  0  0  0  0  0  0  0  0  0  0
    2.9231    0.5118   -0.7683 H   0  0  0  0  0  0  0  0  0  0  0  0
    3.7853   -2.0551   -4.5876 H   0  0  0  0  0  0  0  0  0  0  0  0
    2.2121   -2.7395   -5.0618 H   0  0  0  0  0  0  0  0  0  0  0  0
    3.4270    1.0423   -6.3446 H   0  0  0  0  0  0  0  0  0  0  0  0
    3.0072    0.8319   -4.6277 H   0  0  0  0  0  0  0  0  0  0  0  0
    4.4554    0.0395   -5.2934 H   0  0  0  0  0  0  0  0  0  0  0  0
    4.1909   -1.6187   -7.0127 H   0  0  0  0  0  0  0  0  0  0  0  0
    2.5947   -2.3513   -7.3022 H   0  0  0  0  0  0  0  0  0  0  0  0
    4.9159    0.1190   -8.3572 H   0  0  0  0  0  0  0  0  0  0  0  0
    4.5619    1.7018  -10.2029 H   0  0  0  0  0  0  0  0  0  0  0  0
    2.3413    2.0477  -11.1430 H   0  0  0  0  0  0  0  0  0  0  0  0
    0.6377   -1.6997   -7.4336 H   0  0  0  0  0  0  0  0  0  0  0  0
   -1.5805   -1.3616   -8.3807 H   0  0  0  0  0  0  0  0  0  0  0  0
   -1.9345    0.2213  -10.2270 H   0  0  0  0  0  0  0  0  0  0  0  0
   -0.0785    1.5032  -11.1460 H   0  0  0  0  0  0  0  0  0  0  0  0
    1.6625   -0.5651   -5.9607 H   0  0  0  0  0  0  0  0  0  0  0  0
  1  2  1  0  0  0  0
  1 25  1  0  0  0  0
  1 26  1  0  0  0  0
  1 27  1  0  0  0  0
  2  3  1  0  0  0  0
  2  4  1  0  0  0  0
  2  5  1  0  0  0  0
  3 28  1  0  0  0  0
  3 29  1  0  0  0  0
  3 30  1  0  0  0  0
  4 31  1  0  0  0  0
  4 32  1  0  0  0  0
  4 33  1  0  0  0  0
  5 10  2  0  0  0  0
  5  6  1  0  0  0  0
  6  7  2  0  0  0  0
  6 34  1  0  0  0  0
  7  8  1  0  0  0  0
  7 35  1  0  0  0  0
  8  9  2  0  0  0  0
  8 11  1  0  0  0  0
  9 10  1  0  0  0  0
  9 36  1  0  0  0  0
 10 37  1  0  0  0  0
 11 12  1  0  0  0  0
 11 38  1  0  0  0  0
 11 39  1  0  0  0  0
 12 13  1  0  0  0  0
 12 14  1  0  0  0  0
 12 52  1  6  0  0  0
 13 40  1  0  0  0  0
 13 41  1  0  0  0  0
 13 42  1  0  0  0  0
 14 15  1  0  0  0  0
 14 43  1  0  0  0  0
 14 44  1  0  0  0  0
 15 20  2  0  0  0  0
 15 16  1  0  0  0  0
 16 17  2  0  0  0  0
 16 45  1  0  0  0  0
 17 18  1  0  0  0  0
 17 46  1  0  0  0  0
 18 19  2  0  0  0  0
 18 47  1  0  0  0  0
 19 24  1  0  0  0  0
 19 20  1  0  0  0  0
 20 21  1  0  0  0  0
 21 22  2  0  0  0  0
 21 48  1  0  0  0  0
 22 23  1  0  0  0  0
 22 49  1  0  0  0  0
 23 24  2  0  0  0  0
 23 50  1  0  0  0  0
 24 51  1  0  0  0  0
M  CHG  1  12   1
M  END
$$$$
