ZINC03871832
 OpenBabel08292219463D

 72 73  0  0  1  0  0  0  0  0999 V2000
    0.9796   -0.7261   -0.7860 C   0  0  0  0  0  0  0  0  0  0  0  0
   -0.0152    0.0025    0.1197 C   0  0  0  0  0  0  0  0  0  0  0  0
    0.1403    1.5135   -0.0635 C   0  0  0  0  0  0  0  0  0  0  0  0
   -1.4406   -0.4121   -0.2508 C   0  0  2  0  0  0  0  0  0  0  0  0
   -2.4297    0.2428    0.7155 C   0  0  0  0  0  0  0  0  0  0  0  0
   -2.1497   -0.2432    2.1390 C   0  0  0  0  0  0  0  0  0  0  0  0
   -3.2174    0.3089    3.0856 C   0  0  0  0  0  0  0  0  0  0  0  0
   -2.9486   -0.1577    4.4523 N   0  3  1  0  0  0  0  0  0  0  0  0
   -1.6792    0.4121    4.9235 C   0  0  0  0  0  0  0  0  0  0  0  0
   -4.0376    0.2722    5.3396 C   0  0  0  0  0  0  0  0  0  0  0  0
   -3.8220   -0.3181    6.7346 C   0  0  0  0  0  0  0  0  0  0  0  0
   -4.9392    0.1229    7.6448 C   0  0  0  0  0  0  0  0  0  0  0  0
   -4.8176    1.2949    8.3681 C   0  0  0  0  0  0  0  0  0  0  0  0
   -5.8396    1.7037    9.2044 C   0  0  0  0  0  0  0  0  0  0  0  0
   -6.9892    0.9387    9.3188 C   0  0  0  0  0  0  0  0  0  0  0  0
   -7.1118   -0.2407    8.5904 C   0  0  0  0  0  0  0  0  0  0  0  0
   -6.0857   -0.6423    7.7503 C   0  0  0  0  0  0  0  0  0  0  0  0
   -8.2381   -0.9950    8.6993 O   0  0  0  0  0  0  0  0  0  0  0  0
   -8.2944   -2.1928    7.9221 C   0  0  0  0  0  0  0  0  0  0  0  0
   -7.9954    1.3392   10.1414 O   0  0  0  0  0  0  0  0  0  0  0  0
   -7.8001    2.5598   10.8584 C   0  0  0  0  0  0  0  0  0  0  0  0
   -1.5644   -1.8762   -0.1622 C   0  0  0  0  0  0  0  0  0  0  0  0
   -1.6600   -3.0061   -0.0938 N   0  0  0  0  0  0  0  0  0  0  0  0
   -1.7435    0.0334   -1.6582 C   0  0  0  0  0  0  0  0  0  0  0  0
   -0.7344    0.5473   -2.4513 C   0  0  0  0  0  0  0  0  0  0  0  0
   -1.0072    0.9574   -3.7430 C   0  0  0  0  0  0  0  0  0  0  0  0
   -2.2943    0.8533   -4.2457 C   0  0  0  0  0  0  0  0  0  0  0  0
   -3.3099    0.3356   -3.4476 C   0  0  0  0  0  0  0  0  0  0  0  0
   -3.0286   -0.0780   -2.1554 C   0  0  0  0  0  0  0  0  0  0  0  0
   -4.5746    0.2315   -3.9364 O   0  0  0  0  0  0  0  0  0  0  0  0
   -5.5661   -0.3091   -3.0608 C   0  0  0  0  0  0  0  0  0  0  0  0
   -2.5644    1.2567   -5.5160 O   0  0  0  0  0  0  0  0  0  0  0  0
   -1.4731    1.7782   -6.2770 C   0  0  0  0  0  0  0  0  0  0  0  0
    1.9192   -0.1742   -0.8118 H   0  0  0  0  0  0  0  0  0  0  0  0
    1.1578   -1.7288   -0.3974 H   0  0  0  0  0  0  0  0  0  0  0  0
    0.5706   -0.7945   -1.7940 H   0  0  0  0  0  0  0  0  0  0  0  0
    0.1807   -0.2595    1.1595 H   0  0  0  0  0  0  0  0  0  0  0  0
    1.1980    1.7758   -0.0365 H   0  0  0  0  0  0  0  0  0  0  0  0
   -0.2827    1.8085   -1.0238 H   0  0  0  0  0  0  0  0  0  0  0  0
   -0.3834    2.0327    0.7392 H   0  0  0  0  0  0  0  0  0  0  0  0
   -2.3165    1.3261    0.6725 H   0  0  0  0  0  0  0  0  0  0  0  0
   -3.4470   -0.0277    0.4327 H   0  0  0  0  0  0  0  0  0  0  0  0
   -2.1722   -1.3327    2.1619 H   0  0  0  0  0  0  0  0  0  0  0  0
   -1.1672    0.1067    2.4557 H   0  0  0  0  0  0  0  0  0  0  0  0
   -3.1950    1.3985    3.0627 H   0  0  0  0  0  0  0  0  0  0  0  0
   -4.1999   -0.0410    2.7689 H   0  0  0  0  0  0  0  0  0  0  0  0
   -1.7449    1.5001    4.9174 H   0  0  0  0  0  0  0  0  0  0  0  0
   -1.4798    0.0659    5.9377 H   0  0  0  0  0  0  0  0  0  0  0  0
   -0.8712    0.0931    4.2652 H   0  0  0  0  0  0  0  0  0  0  0  0
   -4.0466    1.3603    5.4029 H   0  0  0  0  0  0  0  0  0  0  0  0
   -4.9902   -0.0764    4.9408 H   0  0  0  0  0  0  0  0  0  0  0  0
   -3.8131   -1.4062    6.6713 H   0  0  0  0  0  0  0  0  0  0  0  0
   -2.8694    0.0305    7.1334 H   0  0  0  0  0  0  0  0  0  0  0  0
   -3.9221    1.8921    8.2799 H   0  0  0  0  0  0  0  0  0  0  0  0
   -5.7419    2.6193    9.7689 H   0  0  0  0  0  0  0  0  0  0  0  0
   -6.1798   -1.5552    7.1810 H   0  0  0  0  0  0  0  0  0  0  0  0
   -9.2433   -2.6982    8.1016 H   0  0  0  0  0  0  0  0  0  0  0  0
   -8.2097   -1.9439    6.8643 H   0  0  0  0  0  0  0  0  0  0  0  0
   -7.4730   -2.8501    8.2075 H   0  0  0  0  0  0  0  0  0  0  0  0
   -6.9196    2.4706   11.4946 H   0  0  0  0  0  0  0  0  0  0  0  0
   -7.6565    3.3773   10.1518 H   0  0  0  0  0  0  0  0  0  0  0  0
   -8.6753    2.7626   11.4756 H   0  0  0  0  0  0  0  0  0  0  0  0
    0.2692    0.6290   -2.0607 H   0  0  0  0  0  0  0  0  0  0  0  0
   -0.2172    1.3591   -4.3602 H   0  0  0  0  0  0  0  0  0  0  0  0
   -3.8143   -0.4836   -1.5352 H   0  0  0  0  0  0  0  0  0  0  0  0
   -6.5276   -0.3368   -3.5736 H   0  0  0  0  0  0  0  0  0  0  0  0
   -5.2809   -1.3198   -2.7688 H   0  0  0  0  0  0  0  0  0  0  0  0
   -5.6462    0.3169   -2.1721 H   0  0  0  0  0  0  0  0  0  0  0  0
   -1.0639    2.6536   -5.7725 H   0  0  0  0  0  0  0  0  0  0  0  0
   -0.6983    1.0171   -6.3698 H   0  0  0  0  0  0  0  0  0  0  0  0
   -1.8246    2.0618   -7.2690 H   0  0  0  0  0  0  0  0  0  0  0  0
   -2.8878   -1.1648    4.4580 H   0  0  0  0  0  0  0  0  0  0  0  0
  1  2  1  0  0  0  0
  1 34  1  0  0  0  0
  1 35  1  0  0  0  0
  1 36  1  0  0  0  0
  2  3  1  0  0  0  0
  2  4  1  0  0  0  0
  2 37  1  0  0  0  0
  3 38  1  0  0  0  0
  3 39  1  0  0  0  0
  3 40  1  0  0  0  0
  4  5  1  0  0  0  0
  4 22  1  1  0  0  0
  4 24  1  0  0  0  0
  5  6  1  0  0  0  0
  5 41  1  0  0  0  0
  5 42  1  0  0  0  0
  6  7  1  0  0  0  0
  6 43  1  0  0  0  0
  6 44  1  0  0  0  0
  7  8  1  0  0  0  0
  7 45  1  0  0  0  0
  7 46  1  0  0  0  0
  8  9  1  0  0  0  0
  8 10  1  0  0  0  0
  8 72  1  1  0  0  0
  9 47  1  0  0  0  0
  9 48  1  0  0  0  0
  9 49  1  0  0  0  0
 10 11  1  0  0  0  0
 10 50  1  0  0  0  0
 10 51  1  0  0  0  0
 11 12  1  0  0  0  0
 11 52  1  0  0  0  0
 11 53  1  0  0  0  0
 12 17  2  0  0  0  0
 12 13  1  0  0  0  0
 13 14  2  0  0  0  0
 13 54  1  0  0  0  0
 14 15  1  0  0  0  0
 14 55  1  0  0  0  0
 15 16  2  0  0  0  0
 15 20  1  0  0  0  0
 16 17  1  0  0  0  0
 16 18  1  0  0  0  0
 17 56  1  0  0  0  0
 18 19  1  0  0  0  0
 19 57  1  0  0  0  0
 19 58  1  0  0  0  0
 19 59  1  0  0  0  0
 20 21  1  0  0  0  0
 21 60  1  0  0  0  0
 21 61  1  0  0  0  0
 21 62  1  0  0  0  0
 22 23  3  0  0  0  0
 24 29  2  0  0  0  0
 24 25  1  0  0  0  0
 25 26  2  0  0  0  0
 25 63  1  0  0  0  0
 26 27  1  0  0  0  0
 26 64  1  0  0  0  0
 27 28  2  0  0  0  0
 27 32  1  0  0  0  0
 28 29  1  0  0  0  0
 28 30  1  0  0  0  0
 29 65  1  0  0  0  0
 30 31  1  0  0  0  0
 31 66  1  0  0  0  0
 31 67  1  0  0  0  0
 31 68  1  0  0  0  0
 32 33  1  0  0  0  0
 33 69  1  0  0  0  0
 33 70  1  0  0  0  0
 33 71  1  0  0  0  0
M  CHG  1   8   1
M  END
$$$$
