ZINC00012346
 OpenBabel08292219463D

 26 27  0  0  1  0  0  0  0  0999 V2000
   -0.0170    1.4058    0.0098 C   0  0  0  0  0  0  0  0  0  0  0  0
    1.1585    2.0778    0.0022 C   0  0  0  0  0  0  0  0  0  0  0  0
    2.3268    1.3767   -0.0128 N   0  0  0  0  0  0  0  0  0  0  0  0
    2.3121    0.0311   -0.0199 C   0  0  0  0  0  0  0  0  0  0  0  0
    3.3676   -0.5804   -0.0328 O   0  0  0  0  0  0  0  0  0  0  0  0
    1.1640   -0.6440   -0.0125 N   0  0  0  0  0  0  0  0  0  0  0  0
    0.0021   -0.0041    0.0020 C   0  0  0  0  0  0  0  0  0  0  0  0
   -1.1774   -0.7119    0.0095 N   0  0  0  0  0  0  0  0  0  0  0  0
    3.6056    2.0915   -0.0216 C   0  0  2  0  0  0  0  0  0  0  0  0
    4.1614    1.8359   -0.9238 H   0  0  0  0  0  0  0  0  0  0  0  0
    4.4374    1.6928    1.2367 C   0  0  0  0  0  0  0  0  0  0  0  0
    5.5741    3.1480    1.2841 S   0  0  0  0  0  0  0  0  0  0  0  0
    4.5621    4.2850    0.2459 C   0  0  1  0  0  0  0  0  0  0  0  0
    5.0706    4.5098   -0.6917 H   0  0  0  0  0  0  0  0  0  0  0  0
    3.3674    3.5045    0.0129 O   0  0  0  0  0  0  0  0  0  0  0  0
    4.2354    5.5713    1.0071 C   0  0  0  0  0  0  0  0  0  0  0  0
    3.5294    5.2485    2.2069 O   0  0  0  0  0  0  0  0  0  0  0  0
   -0.9547    1.9414    0.0261 H   0  0  0  0  0  0  0  0  0  0  0  0
    1.1700    3.1577    0.0075 H   0  0  0  0  0  0  0  0  0  0  0  0
   -2.0255   -0.2412    0.0201 H   0  0  0  0  0  0  0  0  0  0  0  0
   -1.1611   -1.6818    0.0041 H   0  0  0  0  0  0  0  0  0  0  0  0
    3.8142    1.6414    2.1296 H   0  0  0  0  0  0  0  0  0  0  0  0
    4.9831    0.7626    1.0785 H   0  0  0  0  0  0  0  0  0  0  0  0
    5.1606    6.0899    1.2583 H   0  0  0  0  0  0  0  0  0  0  0  0
    3.6158    6.2154    0.3831 H   0  0  0  0  0  0  0  0  0  0  0  0
    3.2893    6.0180    2.7411 H   0  0  0  0  0  0  0  0  0  0  0  0
  1  7  1  0  0  0  0
  1  2  2  0  0  0  0
  1 18  1  0  0  0  0
  2  3  1  0  0  0  0
  2 19  1  0  0  0  0
  3  4  1  0  0  0  0
  3  9  1  0  0  0  0
  4  5  2  0  0  0  0
  4  6  1  0  0  0  0
  6  7  2  0  0  0  0
  7  8  1  0  0  0  0
  8 20  1  0  0  0  0
  8 21  1  0  0  0  0
  9 10  1  6  0  0  0
  9 15  1  0  0  0  0
  9 11  1  0  0  0  0
 11 12  1  0  0  0  0
 11 22  1  0  0  0  0
 11 23  1  0  0  0  0
 12 13  1  0  0  0  0
 13 14  1  6  0  0  0
 13 15  1  0  0  0  0
 13 16  1  0  0  0  0
 16 17  1  0  0  0  0
 16 24  1  0  0  0  0
 16 25  1  0  0  0  0
 17 26  1  0  0  0  0
M  END
$$$$
