ZINC08437287
 OpenBabel08292219463D

 46 45  0  0  0  0  0  0  0  0999 V2000
   -8.5065  -10.8307    0.0251 C   0  0  0  0  0  0  0  0  0  0  0  0
   -7.0711  -10.3012    0.0143 C   0  0  0  0  0  0  0  0  0  0  0  0
   -7.0918   -8.7713    0.0227 C   0  0  0  0  0  0  0  0  0  0  0  0
   -5.6565   -8.2417    0.0118 C   0  0  0  0  0  0  0  0  0  0  0  0
   -5.6772   -6.7119    0.0202 C   0  0  0  0  0  0  0  0  0  0  0  0
   -4.2418   -6.1823    0.0094 C   0  0  0  0  0  0  0  0  0  0  0  0
   -4.2626   -4.6525    0.0178 C   0  0  0  0  0  0  0  0  0  0  0  0
   -2.8272   -4.1229    0.0069 C   0  0  0  0  0  0  0  0  0  0  0  0
   -2.8479   -2.5931    0.0153 C   0  0  0  0  0  0  0  0  0  0  0  0
   -1.4126   -2.0635    0.0045 C   0  0  0  0  0  0  0  0  0  0  0  0
   -1.4333   -0.5336    0.0129 C   0  0  0  0  0  0  0  0  0  0  0  0
    0.0021   -0.0041    0.0020 C   0  0  0  0  0  0  0  0  0  0  0  0
   -0.0173    1.4248    0.0099 O   0  0  0  0  0  0  0  0  0  0  0  0
    1.2801    2.0237    0.0007 C   0  0  0  0  0  0  0  0  0  0  0  0
    1.1386    3.5471    0.0102 C   0  0  0  0  0  0  0  0  0  0  0  0
    0.5393    3.9622    1.2393 O   0  0  0  0  0  0  0  0  0  0  0  0
   -9.0167  -10.4792    0.9219 H   0  0  0  0  0  0  0  0  0  0  0  0
   -9.0337  -10.4697   -0.8579 H   0  0  0  0  0  0  0  0  0  0  0  0
   -8.4917  -11.9206    0.0191 H   0  0  0  0  0  0  0  0  0  0  0  0
   -6.5609  -10.6527   -0.8825 H   0  0  0  0  0  0  0  0  0  0  0  0
   -6.5439  -10.6622    0.8973 H   0  0  0  0  0  0  0  0  0  0  0  0
   -7.6020   -8.4198    0.9195 H   0  0  0  0  0  0  0  0  0  0  0  0
   -7.6190   -8.4102   -0.8604 H   0  0  0  0  0  0  0  0  0  0  0  0
   -5.1463   -8.5933   -0.8850 H   0  0  0  0  0  0  0  0  0  0  0  0
   -5.1293   -8.6028    0.8949 H   0  0  0  0  0  0  0  0  0  0  0  0
   -6.1874   -6.3604    0.9170 H   0  0  0  0  0  0  0  0  0  0  0  0
   -6.2044   -6.3508   -0.8628 H   0  0  0  0  0  0  0  0  0  0  0  0
   -3.7316   -6.5338   -0.8874 H   0  0  0  0  0  0  0  0  0  0  0  0
   -3.7146   -6.5434    0.8924 H   0  0  0  0  0  0  0  0  0  0  0  0
   -4.7728   -4.3010    0.9146 H   0  0  0  0  0  0  0  0  0  0  0  0
   -4.7898   -4.2914   -0.8653 H   0  0  0  0  0  0  0  0  0  0  0  0
   -2.3170   -4.4744   -0.8899 H   0  0  0  0  0  0  0  0  0  0  0  0
   -2.3000   -4.4840    0.8900 H   0  0  0  0  0  0  0  0  0  0  0  0
   -3.3581   -2.2415    0.9121 H   0  0  0  0  0  0  0  0  0  0  0  0
   -3.3751   -2.2320   -0.8677 H   0  0  0  0  0  0  0  0  0  0  0  0
   -0.9024   -2.4150   -0.8923 H   0  0  0  0  0  0  0  0  0  0  0  0
   -0.8854   -2.4246    0.8875 H   0  0  0  0  0  0  0  0  0  0  0  0
   -1.9435   -0.1821    0.9097 H   0  0  0  0  0  0  0  0  0  0  0  0
   -1.9605   -0.1726   -0.8702 H   0  0  0  0  0  0  0  0  0  0  0  0
    0.5123   -0.3556   -0.8948 H   0  0  0  0  0  0  0  0  0  0  0  0
    0.5293   -0.3651    0.8851 H   0  0  0  0  0  0  0  0  0  0  0  0
    1.8338    1.7047    0.8837 H   0  0  0  0  0  0  0  0  0  0  0  0
    1.8168    1.7143   -0.8961 H   0  0  0  0  0  0  0  0  0  0  0  0
    2.1235    4.0041   -0.0863 H   0  0  0  0  0  0  0  0  0  0  0  0
    0.5101    3.8589   -0.8239 H   0  0  0  0  0  0  0  0  0  0  0  0
    0.4187    4.9187    1.3148 H   0  0  0  0  0  0  0  0  0  0  0  0
  1  2  1  0  0  0  0
  1 17  1  0  0  0  0
  1 18  1  0  0  0  0
  1 19  1  0  0  0  0
  2  3  1  0  0  0  0
  2 20  1  0  0  0  0
  2 21  1  0  0  0  0
  3  4  1  0  0  0  0
  3 22  1  0  0  0  0
  3 23  1  0  0  0  0
  4  5  1  0  0  0  0
  4 24  1  0  0  0  0
  4 25  1  0  0  0  0
  5  6  1  0  0  0  0
  5 26  1  0  0  0  0
  5 27  1  0  0  0  0
  6  7  1  0  0  0  0
  6 28  1  0  0  0  0
  6 29  1  0  0  0  0
  7  8  1  0  0  0  0
  7 30  1  0  0  0  0
  7 31  1  0  0  0  0
  8  9  1  0  0  0  0
  8 32  1  0  0  0  0
  8 33  1  0  0  0  0
  9 10  1  0  0  0  0
  9 34  1  0  0  0  0
  9 35  1  0  0  0  0
 10 11  1  0  0  0  0
 10 36  1  0  0  0  0
 10 37  1  0  0  0  0
 11 12  1  0  0  0  0
 11 38  1  0  0  0  0
 11 39  1  0  0  0  0
 12 13  1  0  0  0  0
 12 40  1  0  0  0  0
 12 41  1  0  0  0  0
 13 14  1  0  0  0  0
 14 15  1  0  0  0  0
 14 42  1  0  0  0  0
 14 43  1  0  0  0  0
 15 16  1  0  0  0  0
 15 44  1  0  0  0  0
 15 45  1  0  0  0  0
 16 46  1  0  0  0  0
M  END
$$$$
