ZINC00601316
 OpenBabel08292219463D

 52 55  0  0  1  0  0  0  0  0999 V2000
    1.8065    1.8535    1.2546 C   0  0  0  0  0  0  0  0  0  0  0  0
    1.5774    0.4030    1.2164 N   0  3  2  0  0  0  0  0  0  0  0  0
    0.2045    0.1390    1.6535 C   0  0  0  0  0  0  0  0  0  0  0  0
   -0.0758   -1.3651    1.6210 C   0  0  0  0  0  0  0  0  0  0  0  0
    1.1856   -2.0933    1.1383 C   0  0  2  0  0  0  0  0  0  0  0  0
    2.3348   -1.7584    2.0981 C   0  0  0  0  0  0  0  0  0  0  0  0
    2.5377   -0.2417    2.1153 C   0  0  0  0  0  0  0  0  0  0  0  0
    1.5479   -1.5613   -0.2546 C   0  0  1  0  0  0  0  0  0  0  0  0
    0.7314   -1.7654   -0.9473 H   0  0  0  0  0  0  0  0  0  0  0  0
    1.7682   -0.0604   -0.1600 C   0  0  0  0  0  0  0  0  0  0  0  0
    2.7392   -2.2010   -0.7167 O   0  0  0  0  0  0  0  0  0  0  0  0
    2.8705   -2.3596   -2.0431 C   0  0  0  0  0  0  0  0  0  0  0  0
    2.0027   -1.9682   -2.7871 O   0  0  0  0  0  0  0  0  0  0  0  0
    4.1003   -3.0259   -2.6042 C   0  0  0  0  0  0  0  0  0  0  0  0
    3.9125   -4.5210   -2.5896 C   0  0  0  0  0  0  0  0  0  0  0  0
    2.6878   -5.0671   -2.9258 C   0  0  0  0  0  0  0  0  0  0  0  0
    2.5156   -6.4386   -2.9125 C   0  0  0  0  0  0  0  0  0  0  0  0
    3.5680   -7.2641   -2.5634 C   0  0  0  0  0  0  0  0  0  0  0  0
    4.7929   -6.7180   -2.2281 C   0  0  0  0  0  0  0  0  0  0  0  0
    4.9664   -5.3467   -2.2456 C   0  0  0  0  0  0  0  0  0  0  0  0
    4.3214   -2.5611   -4.0205 C   0  0  0  0  0  0  0  0  0  0  0  0
    5.4427   -1.8170   -4.3367 C   0  0  0  0  0  0  0  0  0  0  0  0
    5.6455   -1.3907   -5.6360 C   0  0  0  0  0  0  0  0  0  0  0  0
    4.7273   -1.7088   -6.6191 C   0  0  0  0  0  0  0  0  0  0  0  0
    3.6065   -2.4536   -6.3031 C   0  0  0  0  0  0  0  0  0  0  0  0
    3.4058   -2.8836   -5.0047 C   0  0  0  0  0  0  0  0  0  0  0  0
    5.2348   -2.6805   -1.8069 O   0  0  0  0  0  0  0  0  0  0  0  0
    2.8242    2.0693    0.9291 H   0  0  0  0  0  0  0  0  0  0  0  0
    1.0996    2.3506    0.5903 H   0  0  0  0  0  0  0  0  0  0  0  0
    1.6658    2.2169    2.2725 H   0  0  0  0  0  0  0  0  0  0  0  0
    0.0708    0.5099    2.6697 H   0  0  0  0  0  0  0  0  0  0  0  0
   -0.4914    0.6510    0.9890 H   0  0  0  0  0  0  0  0  0  0  0  0
   -0.3362   -1.7099    2.6217 H   0  0  0  0  0  0  0  0  0  0  0  0
   -0.8994   -1.5685    0.9366 H   0  0  0  0  0  0  0  0  0  0  0  0
    1.0147   -3.1695    1.1147 H   0  0  0  0  0  0  0  0  0  0  0  0
    2.0858   -2.1050    3.1011 H   0  0  0  0  0  0  0  0  0  0  0  0
    3.2487   -2.2453    1.7577 H   0  0  0  0  0  0  0  0  0  0  0  0
    3.5513   -0.0086    1.7890 H   0  0  0  0  0  0  0  0  0  0  0  0
    2.3911    0.1314    3.1289 H   0  0  0  0  0  0  0  0  0  0  0  0
    1.0643    0.4528   -0.8152 H   0  0  0  0  0  0  0  0  0  0  0  0
    2.7861    0.1636   -0.4792 H   0  0  0  0  0  0  0  0  0  0  0  0
    1.8656   -4.4222   -3.1985 H   0  0  0  0  0  0  0  0  0  0  0  0
    1.5586   -6.8652   -3.1745 H   0  0  0  0  0  0  0  0  0  0  0  0
    3.4332   -8.3356   -2.5524 H   0  0  0  0  0  0  0  0  0  0  0  0
    5.6150   -7.3629   -1.9551 H   0  0  0  0  0  0  0  0  0  0  0  0
    5.9244   -4.9203   -1.9872 H   0  0  0  0  0  0  0  0  0  0  0  0
    6.1601   -1.5685   -3.5686 H   0  0  0  0  0  0  0  0  0  0  0  0
    6.5212   -0.8088   -5.8828 H   0  0  0  0  0  0  0  0  0  0  0  0
    4.8854   -1.3751   -7.6340 H   0  0  0  0  0  0  0  0  0  0  0  0
    2.8889   -2.7018   -7.0711 H   0  0  0  0  0  0  0  0  0  0  0  0
    2.5320   -3.4687   -4.7586 H   0  0  0  0  0  0  0  0  0  0  0  0
    5.4159   -1.7313   -1.7708 H   0  0  0  0  0  0  0  0  0  0  0  0
  1 28  1  0  0  0  0
  1 29  1  0  0  0  0
  1 30  1  0  0  0  0
  2  1  1  1  0  0  0
  2  7  1  0  0  0  0
  2 10  1  0  0  0  0
  2  3  1  0  0  0  0
  3  4  1  0  0  0  0
  3 31  1  0  0  0  0
  3 32  1  0  0  0  0
  4  5  1  0  0  0  0
  4 33  1  0  0  0  0
  4 34  1  0  0  0  0
  5  6  1  0  0  0  0
  5  8  1  0  0  0  0
  5 35  1  6  0  0  0
  6  7  1  0  0  0  0
  6 36  1  0  0  0  0
  6 37  1  0  0  0  0
  7 38  1  0  0  0  0
  7 39  1  0  0  0  0
  8  9  1  6  0  0  0
  8 10  1  0  0  0  0
  8 11  1  0  0  0  0
 10 40  1  0  0  0  0
 10 41  1  0  0  0  0
 11 12  1  0  0  0  0
 12 13  2  0  0  0  0
 12 14  1  0  0  0  0
 14 15  1  0  0  0  0
 14 21  1  0  0  0  0
 14 27  1  0  0  0  0
 15 20  2  0  0  0  0
 15 16  1  0  0  0  0
 16 17  2  0  0  0  0
 16 42  1  0  0  0  0
 17 18  1  0  0  0  0
 17 43  1  0  0  0  0
 18 19  2  0  0  0  0
 18 44  1  0  0  0  0
 19 20  1  0  0  0  0
 19 45  1  0  0  0  0
 20 46  1  0  0  0  0
 21 26  2  0  0  0  0
 21 22  1  0  0  0  0
 22 23  2  0  0  0  0
 22 47  1  0  0  0  0
 23 24  1  0  0  0  0
 23 48  1  0  0  0  0
 24 25  2  0  0  0  0
 24 49  1  0  0  0  0
 25 26  1  0  0  0  0
 25 50  1  0  0  0  0
 26 51  1  0  0  0  0
 27 52  1  0  0  0  0
M  CHG  1   2   1
M  END
$$$$
