ZINC01530718
 OpenBabel08292219463D

 45 45  0  0  1  0  0  0  0  0999 V2000
   -0.0187    1.5258    0.0104 C   0  0  0  0  0  0  0  0  0  0  0  0
    0.0021   -0.0041    0.0020 C   0  0  0  0  0  0  0  0  0  0  0  0
    0.7182   -0.4975   -1.2568 C   0  0  0  0  0  0  0  0  0  0  0  0
    0.7126   -0.4907    1.1921 N   0  3  0  0  0  0  0  0  0  0  0  0
   -0.0398   -0.1189    2.3978 C   0  0  0  0  0  0  0  0  0  0  0  0
    0.7001   -0.6257    3.6373 C   0  0  2  0  0  0  0  0  0  0  0  0
    0.8710   -1.6983    3.5452 H   0  0  0  0  0  0  0  0  0  0  0  0
   -0.1432   -0.3488    4.8835 C   0  0  0  0  0  0  0  0  0  0  0  0
    0.4925   -0.9247    6.0264 O   0  0  0  0  0  0  0  0  0  0  0  0
   -0.1315   -0.7684    7.2236 C   0  0  0  0  0  0  0  0  0  0  0  0
   -1.3337   -0.0799    7.2959 C   0  0  0  0  0  0  0  0  0  0  0  0
   -1.9662    0.0772    8.5139 C   0  0  0  0  0  0  0  0  0  0  0  0
   -1.4018   -0.4507    9.6605 C   0  0  0  0  0  0  0  0  0  0  0  0
   -0.2034   -1.1369    9.5912 C   0  0  0  0  0  0  0  0  0  0  0  0
    0.4299   -1.3020    8.3746 C   0  0  0  0  0  0  0  0  0  0  0  0
   -2.0937   -0.2773   10.9880 C   0  0  0  0  0  0  0  0  0  0  0  0
   -3.0464   -1.4511   11.2236 C   0  0  0  0  0  0  0  0  0  0  0  0
   -3.7025   -1.2867   12.4825 O   0  0  0  0  0  0  0  0  0  0  0  0
   -4.6196   -2.3352   12.8011 C   0  0  0  0  0  0  0  0  0  0  0  0
    1.9549    0.0485    3.7518 O   0  0  0  0  0  0  0  0  0  0  0  0
    1.0039    1.9031    0.0027 H   0  0  0  0  0  0  0  0  0  0  0  0
   -0.5459    1.8868   -0.8726 H   0  0  0  0  0  0  0  0  0  0  0  0
   -0.5289    1.8773    0.9072 H   0  0  0  0  0  0  0  0  0  0  0  0
   -1.0205   -0.3814    0.0098 H   0  0  0  0  0  0  0  0  0  0  0  0
    1.7408   -0.1202   -1.2645 H   0  0  0  0  0  0  0  0  0  0  0  0
    0.7330   -1.5874   -1.2628 H   0  0  0  0  0  0  0  0  0  0  0  0
    0.1910   -0.1364   -2.1398 H   0  0  0  0  0  0  0  0  0  0  0  0
    0.7982   -1.4950    1.1455 H   0  0  0  0  0  0  0  0  0  0  0  0
   -0.1324    0.9660    2.4481 H   0  0  0  0  0  0  0  0  0  0  0  0
   -1.0328   -0.5668    2.3589 H   0  0  0  0  0  0  0  0  0  0  0  0
   -0.2395    0.7276    5.0252 H   0  0  0  0  0  0  0  0  0  0  0  0
   -1.1325   -0.7887    4.7578 H   0  0  0  0  0  0  0  0  0  0  0  0
   -1.7746    0.3332    6.4007 H   0  0  0  0  0  0  0  0  0  0  0  0
   -2.9021    0.6131    8.5707 H   0  0  0  0  0  0  0  0  0  0  0  0
    0.2356   -1.5479   10.4882 H   0  0  0  0  0  0  0  0  0  0  0  0
    1.3637   -1.8419    8.3203 H   0  0  0  0  0  0  0  0  0  0  0  0
   -1.3499   -0.2476   11.7842 H   0  0  0  0  0  0  0  0  0  0  0  0
   -2.6591    0.6545   10.9841 H   0  0  0  0  0  0  0  0  0  0  0  0
   -3.7902   -1.4808   10.4274 H   0  0  0  0  0  0  0  0  0  0  0  0
   -2.4809   -2.3829   11.2276 H   0  0  0  0  0  0  0  0  0  0  0  0
   -5.3961   -2.3833   12.0376 H   0  0  0  0  0  0  0  0  0  0  0  0
   -4.0868   -3.2854   12.8378 H   0  0  0  0  0  0  0  0  0  0  0  0
   -5.0756   -2.1367   13.7711 H   0  0  0  0  0  0  0  0  0  0  0  0
    1.8791    1.0087    3.8375 H   0  0  0  0  0  0  0  0  0  0  0  0
    1.6317   -0.0761    1.2281 H   0  0  0  0  0  0  0  0  0  0  0  0
  1  2  1  0  0  0  0
  1 21  1  0  0  0  0
  1 22  1  0  0  0  0
  1 23  1  0  0  0  0
  2  3  1  0  0  0  0
  2  4  1  0  0  0  0
  2 24  1  0  0  0  0
  3 25  1  0  0  0  0
  3 26  1  0  0  0  0
  3 27  1  0  0  0  0
  4  5  1  0  0  0  0
  4 28  1  0  0  0  0
  4 45  1  0  0  0  0
  5  6  1  0  0  0  0
  5 29  1  0  0  0  0
  5 30  1  0  0  0  0
  6  7  1  6  0  0  0
  6  8  1  0  0  0  0
  6 20  1  0  0  0  0
  8  9  1  0  0  0  0
  8 31  1  0  0  0  0
  8 32  1  0  0  0  0
  9 10  1  0  0  0  0
 10 15  2  0  0  0  0
 10 11  1  0  0  0  0
 11 12  2  0  0  0  0
 11 33  1  0  0  0  0
 12 13  1  0  0  0  0
 12 34  1  0  0  0  0
 13 14  2  0  0  0  0
 13 16  1  0  0  0  0
 14 15  1  0  0  0  0
 14 35  1  0  0  0  0
 15 36  1  0  0  0  0
 16 17  1  0  0  0  0
 16 37  1  0  0  0  0
 16 38  1  0  0  0  0
 17 18  1  0  0  0  0
 17 39  1  0  0  0  0
 17 40  1  0  0  0  0
 18 19  1  0  0  0  0
 19 41  1  0  0  0  0
 19 42  1  0  0  0  0
 19 43  1  0  0  0  0
 20 44  1  0  0  0  0
M  CHG  1   4   1
M  END
$$$$
