ZINC19632692
 OpenBabel08292219463D

 43 44  0  0  1  0  0  0  0  0999 V2000
    0.4780   -0.4103   -1.3922 C   0  0  0  0  0  0  0  0  0  0  0  0
   -0.1259   -0.4129    0.0135 C   0  0  0  0  0  0  0  0  0  0  0  0
   -1.6261   -0.7001   -0.0764 C   0  0  1  0  0  0  0  0  0  0  0  0
   -2.0406   -0.1970   -0.9500 H   0  0  0  0  0  0  0  0  0  0  0  0
   -1.8499   -2.2084   -0.2025 C   0  0  1  0  0  0  0  0  0  0  0  0
   -2.9197   -2.4172   -0.2136 H   0  0  0  0  0  0  0  0  0  0  0  0
   -1.2282   -2.7032   -1.4830 C   0  0  0  0  0  0  0  0  0  0  0  0
   -0.0244   -3.3484   -1.4551 C   0  0  0  0  0  0  0  0  0  0  0  0
    0.5586   -3.8089   -2.6272 C   0  0  0  0  0  0  0  0  0  0  0  0
   -0.0678   -3.6233   -3.8455 C   0  0  0  0  0  0  0  0  0  0  0  0
   -1.2984   -2.9670   -3.8962 C   0  0  0  0  0  0  0  0  0  0  0  0
   -1.8851   -2.5080   -2.7030 C   0  0  0  0  0  0  0  0  0  0  0  0
   -3.1786   -1.8247   -2.7656 C   0  0  0  0  0  0  0  0  0  0  0  0
   -3.7685   -1.6635   -3.9757 C   0  0  0  0  0  0  0  0  0  0  0  0
   -3.1407   -2.1484   -5.1431 C   0  0  0  0  0  0  0  0  0  0  0  0
   -3.6887   -1.9933   -6.2208 O   0  0  0  0  0  0  0  0  0  0  0  0
   -1.9474   -2.7665   -5.0971 N   0  0  0  0  0  0  0  0  0  0  0  0
   -1.5428   -3.0867   -5.9185 H   0  0  0  0  0  0  0  0  0  0  0  0
    0.5122   -4.0774   -4.9884 O   0  5  0  0  0  0  0  0  0  0  0  0
   -1.2462   -2.8741    0.9085 O   0  0  0  0  0  0  0  0  0  0  0  0
   -2.2928   -0.2058    1.1357 N   0  3  0  0  0  0  0  0  0  0  0  0
   -2.2214    1.2611    1.1701 C   0  0  0  0  0  0  0  0  0  0  0  0
   -3.0305    1.8385    0.0070 C   0  0  0  0  0  0  0  0  0  0  0  0
   -2.7973    1.7688    2.4936 C   0  0  0  0  0  0  0  0  0  0  0  0
    1.5132   -0.0729   -1.3423 H   0  0  0  0  0  0  0  0  0  0  0  0
    0.4440   -1.4189   -1.8042 H   0  0  0  0  0  0  0  0  0  0  0  0
   -0.0931    0.2628   -2.0317 H   0  0  0  0  0  0  0  0  0  0  0  0
    0.3562   -1.1839    0.6146 H   0  0  0  0  0  0  0  0  0  0  0  0
    0.0304    0.5607    0.4780 H   0  0  0  0  0  0  0  0  0  0  0  0
    0.4785   -3.5014   -0.5117 H   0  0  0  0  0  0  0  0  0  0  0  0
    1.5110   -4.3167   -2.5872 H   0  0  0  0  0  0  0  0  0  0  0  0
   -3.6525   -1.4573   -1.8674 H   0  0  0  0  0  0  0  0  0  0  0  0
   -4.7227   -1.1626   -4.0465 H   0  0  0  0  0  0  0  0  0  0  0  0
   -0.2924   -2.7323    0.9811 H   0  0  0  0  0  0  0  0  0  0  0  0
   -3.2593   -0.4955    1.1298 H   0  0  0  0  0  0  0  0  0  0  0  0
   -1.1818    1.5765    1.0815 H   0  0  0  0  0  0  0  0  0  0  0  0
   -4.0701    1.5231    0.0956 H   0  0  0  0  0  0  0  0  0  0  0  0
   -2.9776    2.9269    0.0325 H   0  0  0  0  0  0  0  0  0  0  0  0
   -2.6202    1.4768   -0.9359 H   0  0  0  0  0  0  0  0  0  0  0  0
   -2.2210    1.3574    3.3222 H   0  0  0  0  0  0  0  0  0  0  0  0
   -2.7444    2.8572    2.5191 H   0  0  0  0  0  0  0  0  0  0  0  0
   -3.8369    1.4534    2.5822 H   0  0  0  0  0  0  0  0  0  0  0  0
   -1.8332   -0.5841    1.9504 H   0  0  0  0  0  0  0  0  0  0  0  0
  1  2  1  0  0  0  0
  1 25  1  0  0  0  0
  1 26  1  0  0  0  0
  1 27  1  0  0  0  0
  2  3  1  0  0  0  0
  2 28  1  0  0  0  0
  2 29  1  0  0  0  0
  3  4  1  6  0  0  0
  3  5  1  0  0  0  0
  3 21  1  0  0  0  0
  5  6  1  6  0  0  0
  5  7  1  0  0  0  0
  5 20  1  0  0  0  0
  7 12  2  0  0  0  0
  7  8  1  0  0  0  0
  8  9  2  0  0  0  0
  8 30  1  0  0  0  0
  9 10  1  0  0  0  0
  9 31  1  0  0  0  0
 10 11  2  0  0  0  0
 10 19  1  0  0  0  0
 11 17  1  0  0  0  0
 11 12  1  0  0  0  0
 12 13  1  0  0  0  0
 13 14  2  0  0  0  0
 13 32  1  0  0  0  0
 14 15  1  0  0  0  0
 14 33  1  0  0  0  0
 15 16  2  0  0  0  0
 15 17  1  0  0  0  0
 17 18  1  0  0  0  0
 20 34  1  0  0  0  0
 21 22  1  0  0  0  0
 21 35  1  0  0  0  0
 21 43  1  0  0  0  0
 22 23  1  0  0  0  0
 22 24  1  0  0  0  0
 22 36  1  0  0  0  0
 23 37  1  0  0  0  0
 23 38  1  0  0  0  0
 23 39  1  0  0  0  0
 24 40  1  0  0  0  0
 24 41  1  0  0  0  0
 24 42  1  0  0  0  0
M  CHG  2  19  -1  21   1
M  END
$$$$
