ZINC36294079
 OpenBabel08292219463D

 32 33  0  0  1  0  0  0  0  0999 V2000
    0.0294    1.4732   -0.0087 C   0  0  0  0  0  0  0  0  0  0  0  0
    0.0072    0.0044    0.0023 N   0  0  0  0  0  0  0  0  0  0  0  0
    0.8065   -0.5258    1.1150 C   0  0  1  0  0  0  0  0  0  0  0  0
    0.9199   -2.0485    0.9874 C   0  0  0  0  0  0  0  0  0  0  0  0
    1.7100   -2.3952   -0.2756 C   0  0  0  0  0  0  0  0  0  0  0  0
    3.1396   -1.8648   -0.1549 C   0  0  0  0  0  0  0  0  0  0  0  0
    3.1097   -0.3352   -0.0703 C   0  0  0  0  0  0  0  0  0  0  0  0
    2.1979    0.0657    1.0682 C   0  0  0  0  0  0  0  0  0  0  0  0
    2.5711    0.8385    1.9178 O   0  0  0  0  0  0  0  0  0  0  0  0
    0.1495   -0.1712    2.4241 C   0  0  0  0  0  0  0  0  0  0  0  0
   -1.0871    0.4468    2.4319 C   0  0  0  0  0  0  0  0  0  0  0  0
   -1.6898    0.7721    3.6325 C   0  0  0  0  0  0  0  0  0  0  0  0
   -1.0564    0.4797    4.8262 C   0  0  0  0  0  0  0  0  0  0  0  0
    0.1797   -0.1381    4.8197 C   0  0  0  0  0  0  0  0  0  0  0  0
    0.7810   -0.4691    3.6182 C   0  0  0  0  0  0  0  0  0  0  0  0
    2.3309   -1.2511    3.6092 Cl  0  0  0  0  0  0  0  0  0  0  0  0
    1.0621    1.8208   -0.0342 H   0  0  0  0  0  0  0  0  0  0  0  0
   -0.4986    1.8379   -0.8898 H   0  0  0  0  0  0  0  0  0  0  0  0
   -0.4590    1.8507    0.8896 H   0  0  0  0  0  0  0  0  0  0  0  0
   -0.9395   -0.3427    0.0395 H   0  0  0  0  0  0  0  0  0  0  0  0
    1.4356   -2.4491    1.8602 H   0  0  0  0  0  0  0  0  0  0  0  0
   -0.0776   -2.4833    0.9230 H   0  0  0  0  0  0  0  0  0  0  0  0
    1.7346   -3.4775   -0.4020 H   0  0  0  0  0  0  0  0  0  0  0  0
    1.2271   -1.9413   -1.1410 H   0  0  0  0  0  0  0  0  0  0  0  0
    3.6028   -2.2697    0.7449 H   0  0  0  0  0  0  0  0  0  0  0  0
    3.7154   -2.1694   -1.0289 H   0  0  0  0  0  0  0  0  0  0  0  0
    4.1156    0.0409    0.1164 H   0  0  0  0  0  0  0  0  0  0  0  0
    2.7299    0.0759   -1.0056 H   0  0  0  0  0  0  0  0  0  0  0  0
   -1.5821    0.6757    1.4998 H   0  0  0  0  0  0  0  0  0  0  0  0
   -2.6557    1.2552    3.6381 H   0  0  0  0  0  0  0  0  0  0  0  0
   -1.5277    0.7344    5.7640 H   0  0  0  0  0  0  0  0  0  0  0  0
    0.6745   -0.3661    5.7522 H   0  0  0  0  0  0  0  0  0  0  0  0
  1  2  1  0  0  0  0
  1 17  1  0  0  0  0
  1 18  1  0  0  0  0
  1 19  1  0  0  0  0
  2 20  1  0  0  0  0
  3  2  1  6  0  0  0
  3  8  1  0  0  0  0
  3  4  1  0  0  0  0
  3 10  1  0  0  0  0
  4  5  1  0  0  0  0
  4 21  1  0  0  0  0
  4 22  1  0  0  0  0
  5  6  1  0  0  0  0
  5 23  1  0  0  0  0
  5 24  1  0  0  0  0
  6  7  1  0  0  0  0
  6 25  1  0  0  0  0
  6 26  1  0  0  0  0
  7  8  1  0  0  0  0
  7 27  1  0  0  0  0
  7 28  1  0  0  0  0
  8  9  2  0  0  0  0
 10 15  2  0  0  0  0
 10 11  1  0  0  0  0
 11 12  2  0  0  0  0
 11 29  1  0  0  0  0
 12 13  1  0  0  0  0
 12 30  1  0  0  0  0
 13 14  2  0  0  0  0
 13 31  1  0  0  0  0
 14 15  1  0  0  0  0
 14 32  1  0  0  0  0
 15 16  1  0  0  0  0
M  END
$$$$
