ZINC12358661
 OpenBabel08292219463D

 45 47  0  0  1  0  0  0  0  0999 V2000
   -0.0178    1.4648    0.0101 C   0  0  0  0  0  0  0  0  0  0  0  0
    0.0021   -0.0041    0.0020 N   0  3  2  0  0  0  0  0  0  0  0  0
   -1.3736   -0.5473    0.1574 C   0  0  2  0  0  0  0  0  0  0  0  0
   -2.0955   -0.0286   -0.4735 H   0  0  0  0  0  0  0  0  0  0  0  0
   -1.6823   -0.3750    1.6625 C   0  0  0  0  0  0  0  0  0  0  0  0
   -0.3012   -0.3601    2.3500 C   0  0  0  0  0  0  0  0  0  0  0  0
    0.7165   -0.5247    1.1979 C   0  0  1  0  0  0  0  0  0  0  0  0
    1.6459    0.0118    1.3892 H   0  0  0  0  0  0  0  0  0  0  0  0
    0.9375   -2.0297    0.9772 C   0  0  0  0  0  0  0  0  0  0  0  0
   -0.4245   -2.7273    0.9179 C   0  0  2  0  0  0  0  0  0  0  0  0
   -1.3075   -2.0510   -0.1543 C   0  0  0  0  0  0  0  0  0  0  0  0
   -1.0609   -2.6367    2.1942 O   0  0  0  0  0  0  0  0  0  0  0  0
   -1.8899   -3.6361    2.5341 C   0  0  0  0  0  0  0  0  0  0  0  0
   -2.0694   -4.5574    1.7731 O   0  0  0  0  0  0  0  0  0  0  0  0
   -2.5969   -3.6092    3.8647 C   0  0  1  0  0  0  0  0  0  0  0  0
   -1.8598   -3.5940    4.6675 H   0  0  0  0  0  0  0  0  0  0  0  0
   -3.4720   -2.3572    3.9520 C   0  0  0  0  0  0  0  0  0  0  0  0
   -4.0510   -2.2707    5.2556 O   0  0  0  0  0  0  0  0  0  0  0  0
   -3.4611   -4.8364    3.9993 C   0  0  0  0  0  0  0  0  0  0  0  0
   -4.4698   -5.0752    3.0847 C   0  0  0  0  0  0  0  0  0  0  0  0
   -5.2625   -6.2009    3.2082 C   0  0  0  0  0  0  0  0  0  0  0  0
   -5.0462   -7.0881    4.2460 C   0  0  0  0  0  0  0  0  0  0  0  0
   -4.0369   -6.8498    5.1601 C   0  0  0  0  0  0  0  0  0  0  0  0
   -3.2415   -5.7263    5.0341 C   0  0  0  0  0  0  0  0  0  0  0  0
    1.0047    1.8421    0.0024 H   0  0  0  0  0  0  0  0  0  0  0  0
   -0.5450    1.8259   -0.8730 H   0  0  0  0  0  0  0  0  0  0  0  0
   -0.5280    1.8163    0.9069 H   0  0  0  0  0  0  0  0  0  0  0  0
   -2.2034    0.5662    1.8375 H   0  0  0  0  0  0  0  0  0  0  0  0
   -2.2779   -1.2126    2.0258 H   0  0  0  0  0  0  0  0  0  0  0  0
   -0.1432    0.5886    2.8631 H   0  0  0  0  0  0  0  0  0  0  0  0
   -0.2177   -1.1902    3.0515 H   0  0  0  0  0  0  0  0  0  0  0  0
    1.4693   -2.1869    0.0388 H   0  0  0  0  0  0  0  0  0  0  0  0
    1.5211   -2.4379    1.8024 H   0  0  0  0  0  0  0  0  0  0  0  0
   -0.2835   -3.7763    0.6576 H   0  0  0  0  0  0  0  0  0  0  0  0
   -2.3108   -2.4756   -0.1193 H   0  0  0  0  0  0  0  0  0  0  0  0
   -0.8806   -2.1999   -1.1461 H   0  0  0  0  0  0  0  0  0  0  0  0
   -2.8615   -1.4735    3.7662 H   0  0  0  0  0  0  0  0  0  0  0  0
   -4.2643   -2.4148    3.2056 H   0  0  0  0  0  0  0  0  0  0  0  0
   -4.6197   -1.4990    5.3829 H   0  0  0  0  0  0  0  0  0  0  0  0
   -4.6387   -4.3821    2.2739 H   0  0  0  0  0  0  0  0  0  0  0  0
   -6.0510   -6.3871    2.4940 H   0  0  0  0  0  0  0  0  0  0  0  0
   -5.6660   -7.9673    4.3429 H   0  0  0  0  0  0  0  0  0  0  0  0
   -3.8682   -7.5428    5.9711 H   0  0  0  0  0  0  0  0  0  0  0  0
   -2.4506   -5.5420    5.7461 H   0  0  0  0  0  0  0  0  0  0  0  0
    0.4289   -0.3487   -0.8448 H   0  0  0  0  0  0  0  0  0  0  0  0
  1  2  1  0  0  0  0
  1 25  1  0  0  0  0
  1 26  1  0  0  0  0
  1 27  1  0  0  0  0
  2  7  1  0  0  0  0
  2  3  1  0  0  0  0
  2 45  1  6  0  0  0
  3  4  1  6  0  0  0
  3 11  1  0  0  0  0
  3  5  1  0  0  0  0
  5  6  1  0  0  0  0
  5 28  1  0  0  0  0
  5 29  1  0  0  0  0
  6  7  1  0  0  0  0
  6 30  1  0  0  0  0
  6 31  1  0  0  0  0
  7  8  1  1  0  0  0
  7  9  1  0  0  0  0
  9 10  1  0  0  0  0
  9 32  1  0  0  0  0
  9 33  1  0  0  0  0
 10 11  1  0  0  0  0
 10 12  1  0  0  0  0
 10 34  1  6  0  0  0
 11 35  1  0  0  0  0
 11 36  1  0  0  0  0
 12 13  1  0  0  0  0
 13 14  2  0  0  0  0
 13 15  1  0  0  0  0
 15 16  1  1  0  0  0
 15 17  1  0  0  0  0
 15 19  1  0  0  0  0
 17 18  1  0  0  0  0
 17 37  1  0  0  0  0
 17 38  1  0  0  0  0
 18 39  1  0  0  0  0
 19 24  2  0  0  0  0
 19 20  1  0  0  0  0
 20 21  2  0  0  0  0
 20 40  1  0  0  0  0
 21 22  1  0  0  0  0
 21 41  1  0  0  0  0
 22 23  2  0  0  0  0
 22 42  1  0  0  0  0
 23 24  1  0  0  0  0
 23 43  1  0  0  0  0
 24 44  1  0  0  0  0
M  CHG  1   2   1
M  END
$$$$
