ZINC19166991
 OpenBabel08292219463D

 23 23  0  0  0  0  0  0  0  0999 V2000
   -0.0167    1.3781    0.0096 C   0  0  0  0  0  0  0  0  0  0  0  0
    1.1709    2.0855    0.0021 C   0  0  0  0  0  0  0  0  0  0  0  0
    2.3773    1.4107   -0.0130 C   0  0  0  0  0  0  0  0  0  0  0  0
    2.3960    0.0285   -0.0201 C   0  0  0  0  0  0  0  0  0  0  0  0
    1.2084   -0.6789   -0.0117 C   0  0  0  0  0  0  0  0  0  0  0  0
    0.0021   -0.0041    0.0020 C   0  0  0  0  0  0  0  0  0  0  0  0
    3.7112   -0.7071   -0.0376 C   0  0  0  0  0  0  0  0  0  0  0  0
    4.1714   -0.9633    1.3989 C   0  0  0  0  0  0  0  0  0  0  0  0
    5.4533   -1.6804    1.3819 N   0  0  0  0  0  0  0  0  0  0  0  0
    5.9223   -1.9415    2.7332 N   0  3  0  0  0  0  0  0  0  0  0  0
   -0.9591    1.9053    0.0259 H   0  0  0  0  0  0  0  0  0  0  0  0
    1.1563    3.1654    0.0076 H   0  0  0  0  0  0  0  0  0  0  0  0
    3.3051    1.9634   -0.0196 H   0  0  0  0  0  0  0  0  0  0  0  0
    1.2231   -1.7588   -0.0176 H   0  0  0  0  0  0  0  0  0  0  0  0
   -0.9258   -0.5567    0.0082 H   0  0  0  0  0  0  0  0  0  0  0  0
    3.5884   -1.6586   -0.5549 H   0  0  0  0  0  0  0  0  0  0  0  0
    4.4573   -0.1052   -0.5563 H   0  0  0  0  0  0  0  0  0  0  0  0
    4.2941   -0.0118    1.9163 H   0  0  0  0  0  0  0  0  0  0  0  0
    3.4252   -1.5652    1.9176 H   0  0  0  0  0  0  0  0  0  0  0  0
    5.3819   -2.5362    0.8522 H   0  0  0  0  0  0  0  0  0  0  0  0
    6.0472   -1.0670    3.2207 H   0  0  0  0  0  0  0  0  0  0  0  0
    5.2428   -2.5050    3.2220 H   0  0  0  0  0  0  0  0  0  0  0  0
    6.8022   -2.4338    2.6946 H   0  0  0  0  0  0  0  0  0  0  0  0
  1  6  2  0  0  0  0
  1  2  1  0  0  0  0
  1 11  1  0  0  0  0
  2  3  2  0  0  0  0
  2 12  1  0  0  0  0
  3  4  1  0  0  0  0
  3 13  1  0  0  0  0
  4  5  2  0  0  0  0
  4  7  1  0  0  0  0
  5  6  1  0  0  0  0
  5 14  1  0  0  0  0
  6 15  1  0  0  0  0
  7  8  1  0  0  0  0
  7 16  1  0  0  0  0
  7 17  1  0  0  0  0
  8  9  1  0  0  0  0
  8 18  1  0  0  0  0
  8 19  1  0  0  0  0
  9 10  1  0  0  0  0
  9 20  1  0  0  0  0
 10 21  1  0  0  0  0
 10 22  1  0  0  0  0
 10 23  1  0  0  0  0
M  CHG  1  10   1
M  END
$$$$
