ZINC00020250
 OpenBabel08292219463D

 41 43  0  0  1  0  0  0  0  0999 V2000
    0.1540   -0.6010   -1.4119 C   0  0  0  0  0  0  0  0  0  0  0  0
   -0.2746   -0.0046   -0.0697 C   0  0  1  0  0  0  0  0  0  0  0  0
   -1.3528   -0.1127    0.0482 H   0  0  0  0  0  0  0  0  0  0  0  0
    0.4390   -0.7403    1.0663 C   0  0  0  0  0  0  0  0  0  0  0  0
    0.0014   -2.1381    1.0937 N   0  0  0  0  0  0  0  0  0  0  0  0
   -1.1802   -2.4673    1.7666 C   0  0  0  0  0  0  0  0  0  0  0  0
   -1.5122   -1.8279    2.9508 C   0  0  0  0  0  0  0  0  0  0  0  0
   -2.6819   -2.1602    3.6116 C   0  0  0  0  0  0  0  0  0  0  0  0
   -3.5249   -3.1278    3.0994 C   0  0  0  0  0  0  0  0  0  0  0  0
   -3.2030   -3.7732    1.9165 C   0  0  0  0  0  0  0  0  0  0  0  0
   -2.0364   -3.4448    1.2528 C   0  0  0  0  0  0  0  0  0  0  0  0
   -1.5985   -4.2499   -0.2565 S   0  0  0  0  0  0  0  0  0  0  0  0
    0.1650   -4.1630   -0.2323 C   0  0  0  0  0  0  0  0  0  0  0  0
    0.7740   -3.1051    0.4415 C   0  0  0  0  0  0  0  0  0  0  0  0
    2.1576   -3.0253    0.4618 C   0  0  0  0  0  0  0  0  0  0  0  0
    2.9153   -3.9869   -0.1839 C   0  0  0  0  0  0  0  0  0  0  0  0
    2.3018   -5.0298   -0.8513 C   0  0  0  0  0  0  0  0  0  0  0  0
    0.9287   -5.1212   -0.8709 C   0  0  0  0  0  0  0  0  0  0  0  0
    0.0819    1.4199   -0.0307 N   0  3  0  0  0  0  0  0  0  0  0  0
   -0.5772    2.1202   -1.1411 C   0  0  0  0  0  0  0  0  0  0  0  0
   -0.3589    2.0002    1.2448 C   0  0  0  0  0  0  0  0  0  0  0  0
   -0.1105   -1.6581   -1.4409 H   0  0  0  0  0  0  0  0  0  0  0  0
   -0.3544   -0.0770   -2.2213 H   0  0  0  0  0  0  0  0  0  0  0  0
    1.2322   -0.4930   -1.5299 H   0  0  0  0  0  0  0  0  0  0  0  0
    1.5163   -0.6999    0.9052 H   0  0  0  0  0  0  0  0  0  0  0  0
    0.1957   -0.2647    2.0164 H   0  0  0  0  0  0  0  0  0  0  0  0
   -0.8582   -1.0709    3.3577 H   0  0  0  0  0  0  0  0  0  0  0  0
   -2.9374   -1.6601    4.5341 H   0  0  0  0  0  0  0  0  0  0  0  0
   -4.4354   -3.3815    3.6218 H   0  0  0  0  0  0  0  0  0  0  0  0
   -3.8608   -4.5298    1.5150 H   0  0  0  0  0  0  0  0  0  0  0  0
    2.6443   -2.2130    0.9810 H   0  0  0  0  0  0  0  0  0  0  0  0
    3.9931   -3.9214   -0.1664 H   0  0  0  0  0  0  0  0  0  0  0  0
    2.9006   -5.7760   -1.3523 H   0  0  0  0  0  0  0  0  0  0  0  0
    0.4503   -5.9366   -1.3930 H   0  0  0  0  0  0  0  0  0  0  0  0
   -1.6579    2.0134   -1.0476 H   0  0  0  0  0  0  0  0  0  0  0  0
   -0.3127    3.1772   -1.1122 H   0  0  0  0  0  0  0  0  0  0  0  0
   -0.2501    1.6896   -2.0875 H   0  0  0  0  0  0  0  0  0  0  0  0
    0.2194    1.5665    2.0605 H   0  0  0  0  0  0  0  0  0  0  0  0
   -0.2065    3.0793    1.2250 H   0  0  0  0  0  0  0  0  0  0  0  0
   -1.4169    1.7855    1.3952 H   0  0  0  0  0  0  0  0  0  0  0  0
    1.0823    1.5188   -0.1172 H   0  0  0  0  0  0  0  0  0  0  0  0
  1  2  1  0  0  0  0
  1 22  1  0  0  0  0
  1 23  1  0  0  0  0
  1 24  1  0  0  0  0
  2  3  1  1  0  0  0
  2  4  1  0  0  0  0
  2 19  1  0  0  0  0
  4  5  1  0  0  0  0
  4 25  1  0  0  0  0
  4 26  1  0  0  0  0
  5 14  1  0  0  0  0
  5  6  1  0  0  0  0
  6 11  2  0  0  0  0
  6  7  1  0  0  0  0
  7  8  2  0  0  0  0
  7 27  1  0  0  0  0
  8  9  1  0  0  0  0
  8 28  1  0  0  0  0
  9 10  2  0  0  0  0
  9 29  1  0  0  0  0
 10 11  1  0  0  0  0
 10 30  1  0  0  0  0
 11 12  1  0  0  0  0
 12 13  1  0  0  0  0
 13 18  2  0  0  0  0
 13 14  1  0  0  0  0
 14 15  2  0  0  0  0
 15 16  1  0  0  0  0
 15 31  1  0  0  0  0
 16 17  2  0  0  0  0
 16 32  1  0  0  0  0
 17 18  1  0  0  0  0
 17 33  1  0  0  0  0
 18 34  1  0  0  0  0
 19 20  1  0  0  0  0
 19 21  1  0  0  0  0
 19 41  1  0  0  0  0
 20 35  1  0  0  0  0
 20 36  1  0  0  0  0
 20 37  1  0  0  0  0
 21 38  1  0  0  0  0
 21 39  1  0  0  0  0
 21 40  1  0  0  0  0
M  CHG  1  19   1
M  END
$$$$
