ZINC00509440
 OpenBabel08292219463D

 31 33  0  0  1  0  0  0  0  0999 V2000
   -0.0165    1.3795    0.0097 C   0  0  0  0  0  0  0  0  0  0  0  0
    1.1414    2.0349    0.3888 C   0  0  0  0  0  0  0  0  0  0  0  0
    2.3500    1.3694    0.3757 C   0  0  0  0  0  0  0  0  0  0  0  0
    2.4028    0.0333   -0.0207 C   0  0  0  0  0  0  0  0  0  0  0  0
    1.2321   -0.6220   -0.4018 C   0  0  0  0  0  0  0  0  0  0  0  0
    0.0295    0.0542   -0.3846 C   0  0  0  0  0  0  0  0  0  0  0  0
    3.6974   -0.6869   -0.0375 C   0  0  0  0  0  0  0  0  0  0  0  0
    4.7685    0.0173   -0.1385 N   0  0  0  0  0  0  0  0  0  0  0  0
    6.0957   -0.5958   -0.1703 C   0  0  1  0  0  0  0  0  0  0  0  0
    6.2337   -1.2138    0.7169 H   0  0  0  0  0  0  0  0  0  0  0  0
    6.2077   -1.4514   -1.4026 C   0  0  0  0  0  0  0  0  0  0  0  0
    7.0273   -1.1638   -2.2490 O   0  0  0  0  0  0  0  0  0  0  0  0
    5.4306   -2.5163   -1.5879 N   0  0  0  0  0  0  0  0  0  0  0  0
    4.4944   -2.9884   -0.6804 C   0  0  0  0  0  0  0  0  0  0  0  0
    3.6615   -2.1539    0.0687 C   0  0  0  0  0  0  0  0  0  0  0  0
    2.7413   -2.7188    0.9645 C   0  0  0  0  0  0  0  0  0  0  0  0
    2.6586   -4.0851    1.1131 C   0  0  0  0  0  0  0  0  0  0  0  0
    3.4887   -4.9141    0.3755 C   0  0  0  0  0  0  0  0  0  0  0  0
    4.3980   -4.3719   -0.5201 C   0  0  0  0  0  0  0  0  0  0  0  0
    1.5147   -4.7695    2.2252 Cl  0  0  0  0  0  0  0  0  0  0  0  0
    7.0943    0.4258   -0.2020 O   0  0  0  0  0  0  0  0  0  0  0  0
   -0.9609    1.9033    0.0258 H   0  0  0  0  0  0  0  0  0  0  0  0
    1.0992    3.0697    0.6953 H   0  0  0  0  0  0  0  0  0  0  0  0
    3.2533    1.8822    0.6715 H   0  0  0  0  0  0  0  0  0  0  0  0
    1.2669   -1.6565   -0.7101 H   0  0  0  0  0  0  0  0  0  0  0  0
   -0.8777   -0.4522   -0.6794 H   0  0  0  0  0  0  0  0  0  0  0  0
    5.5266   -2.9997   -2.4234 H   0  0  0  0  0  0  0  0  0  0  0  0
    2.0923   -2.0769    1.5417 H   0  0  0  0  0  0  0  0  0  0  0  0
    3.4242   -5.9856    0.4941 H   0  0  0  0  0  0  0  0  0  0  0  0
    5.0429   -5.0224   -1.0923 H   0  0  0  0  0  0  0  0  0  0  0  0
    7.0736    1.0198    0.5608 H   0  0  0  0  0  0  0  0  0  0  0  0
  1  6  2  0  0  0  0
  1  2  1  0  0  0  0
  1 22  1  0  0  0  0
  2  3  2  0  0  0  0
  2 23  1  0  0  0  0
  3  4  1  0  0  0  0
  3 24  1  0  0  0  0
  4  5  2  0  0  0  0
  4  7  1  0  0  0  0
  5  6  1  0  0  0  0
  5 25  1  0  0  0  0
  6 26  1  0  0  0  0
  7 15  1  0  0  0  0
  7  8  2  0  0  0  0
  8  9  1  0  0  0  0
  9 10  1  1  0  0  0
  9 11  1  0  0  0  0
  9 21  1  0  0  0  0
 11 12  2  0  0  0  0
 11 13  1  0  0  0  0
 13 14  1  0  0  0  0
 13 27  1  0  0  0  0
 14 19  2  0  0  0  0
 14 15  1  0  0  0  0
 15 16  2  0  0  0  0
 16 17  1  0  0  0  0
 16 28  1  0  0  0  0
 17 18  2  0  0  0  0
 17 20  1  0  0  0  0
 18 19  1  0  0  0  0
 18 29  1  0  0  0  0
 19 30  1  0  0  0  0
 21 31  1  0  0  0  0
M  END
$$$$
