ZINC00000686
 OpenBabel08292219463D

 30 31  0  0  1  0  0  0  0  0999 V2000
   -0.0187    1.5258    0.0104 C   0  0  0  0  0  0  0  0  0  0  0  0
    0.0021   -0.0041    0.0020 C   0  0  0  0  0  0  0  0  0  0  0  0
   -1.4333   -0.5336    0.0129 C   0  0  2  0  0  0  0  0  0  0  0  0
   -1.9680   -0.1096    0.8628 H   0  0  0  0  0  0  0  0  0  0  0  0
   -1.4108   -1.9965    0.1336 N   0  0  0  0  0  0  0  0  0  0  0  0
   -1.0767   -2.7500   -0.9860 C   0  0  0  0  0  0  0  0  0  0  0  0
   -0.4564   -3.9822   -0.8812 C   0  0  0  0  0  0  0  0  0  0  0  0
   -0.1404   -4.6888   -2.0277 C   0  0  0  0  0  0  0  0  0  0  0  0
   -0.4403   -4.1712   -3.2798 C   0  0  0  0  0  0  0  0  0  0  0  0
   -1.0603   -2.9454   -3.4004 C   0  0  0  0  0  0  0  0  0  0  0  0
   -1.3863   -2.2249   -2.2538 C   0  0  0  0  0  0  0  0  0  0  0  0
   -2.0584   -0.9155   -2.3256 C   0  0  0  0  0  0  0  0  0  0  0  0
   -2.5648   -0.5404   -3.3657 O   0  0  0  0  0  0  0  0  0  0  0  0
   -2.1040   -0.1405   -1.2262 N   0  0  0  0  0  0  0  0  0  0  0  0
   -0.0252   -5.0871   -4.7267 S   0  0  0  0  0  0  0  0  0  0  0  0
   -0.5017   -6.4099   -4.5207 O   0  0  0  0  0  0  0  0  0  0  0  0
   -0.4275   -4.2968   -5.8370 O   0  0  0  0  0  0  0  0  0  0  0  0
    1.6269   -5.1833   -4.7881 N   0  0  0  0  0  0  0  0  0  0  0  0
    0.6380   -6.2352   -1.8991 Cl  0  0  0  0  0  0  0  0  0  0  0  0
    1.0039    1.9031    0.0027 H   0  0  0  0  0  0  0  0  0  0  0  0
   -0.5459    1.8868   -0.8726 H   0  0  0  0  0  0  0  0  0  0  0  0
   -0.5289    1.8773    0.9072 H   0  0  0  0  0  0  0  0  0  0  0  0
    0.5123   -0.3556   -0.8948 H   0  0  0  0  0  0  0  0  0  0  0  0
    0.5293   -0.3651    0.8851 H   0  0  0  0  0  0  0  0  0  0  0  0
   -1.6239   -2.4278    0.9758 H   0  0  0  0  0  0  0  0  0  0  0  0
   -0.2204   -4.3904    0.0904 H   0  0  0  0  0  0  0  0  0  0  0  0
   -1.2911   -2.5466   -4.3772 H   0  0  0  0  0  0  0  0  0  0  0  0
   -2.5920    0.6971   -1.2584 H   0  0  0  0  0  0  0  0  0  0  0  0
    2.1629   -4.7695   -4.0936 H   0  0  0  0  0  0  0  0  0  0  0  0
    2.0585   -5.6535   -5.5185 H   0  0  0  0  0  0  0  0  0  0  0  0
  1  2  1  0  0  0  0
  1 20  1  0  0  0  0
  1 21  1  0  0  0  0
  1 22  1  0  0  0  0
  2  3  1  0  0  0  0
  2 23  1  0  0  0  0
  2 24  1  0  0  0  0
  3  4  1  1  0  0  0
  3 14  1  0  0  0  0
  3  5  1  0  0  0  0
  5  6  1  0  0  0  0
  5 25  1  0  0  0  0
  6 11  2  0  0  0  0
  6  7  1  0  0  0  0
  7  8  2  0  0  0  0
  7 26  1  0  0  0  0
  8  9  1  0  0  0  0
  8 19  1  0  0  0  0
  9 10  2  0  0  0  0
  9 15  1  0  0  0  0
 10 11  1  0  0  0  0
 10 27  1  0  0  0  0
 11 12  1  0  0  0  0
 12 13  2  0  0  0  0
 12 14  1  0  0  0  0
 14 28  1  0  0  0  0
 15 16  2  0  0  0  0
 15 17  2  0  0  0  0
 15 18  1  0  0  0  0
 18 29  1  0  0  0  0
 18 30  1  0  0  0  0
M  END
$$$$
