ZINC19300304
 OpenBabel08292219463D

 22 21  0  0  1  0  0  0  0  0999 V2000
   -0.0187    1.5258    0.0104 C   0  0  0  0  0  0  0  0  0  0  0  0
    0.0021   -0.0041    0.0020 C   0  0  0  0  0  0  0  0  0  0  0  0
   -1.3761   -0.5125    0.0124 N   0  3  0  0  0  0  0  0  0  0  0  0
    1.4167    2.0553   -0.0004 C   0  0  1  0  0  0  0  0  0  0  0  0
    2.1079    1.5820    1.1573 O   0  0  0  0  0  0  0  0  0  0  0  0
    2.2700    1.4674   -1.5003 P   0  0  0  0  0  0  0  0  0  0  0  0
    2.4042   -0.0926   -1.4472 O   0  0  0  0  0  0  0  0  0  0  0  0
    1.4432    1.8777   -2.7662 O   0  0  0  0  0  1  0  0  0  0  0  0
    3.6959    2.1119   -1.5764 O   0  0  0  0  0  1  0  0  0  0  0  0
    1.3920    3.8782    0.0096 P   0  0  1  0  0  0  0  0  0  0  0  0
    0.6448    4.3900   -1.2421 O   0  0  0  0  0  0  0  0  0  0  0  0
    0.6688    4.3764    1.2807 O   0  0  0  0  0  1  0  0  0  0  0  0
    2.9024    4.4354   -0.0018 O   0  0  0  0  0  0  0  0  0  0  0  0
   -0.5459    1.8868   -0.8726 H   0  0  0  0  0  0  0  0  0  0  0  0
   -0.5289    1.8773    0.9072 H   0  0  0  0  0  0  0  0  0  0  0  0
    0.5123   -0.3556   -0.8948 H   0  0  0  0  0  0  0  0  0  0  0  0
    0.5293   -0.3651    0.8851 H   0  0  0  0  0  0  0  0  0  0  0  0
   -1.8484   -0.1871    0.8426 H   0  0  0  0  0  0  0  0  0  0  0  0
   -1.8641   -0.1783   -0.8050 H   0  0  0  0  0  0  0  0  0  0  0  0
    1.7085    1.8573    1.9938 H   0  0  0  0  0  0  0  0  0  0  0  0
    2.9657    5.4003    0.0028 H   0  0  0  0  0  0  0  0  0  0  0  0
   -1.3624   -1.5214    0.0069 H   0  0  0  0  0  0  0  0  0  0  0  0
  1  2  1  0  0  0  0
  1  4  1  0  0  0  0
  1 14  1  0  0  0  0
  1 15  1  0  0  0  0
  2  3  1  0  0  0  0
  2 16  1  0  0  0  0
  2 17  1  0  0  0  0
  3 18  1  0  0  0  0
  3 19  1  0  0  0  0
  3 22  1  0  0  0  0
  4  5  1  1  0  0  0
  4  6  1  0  0  0  0
  4 10  1  0  0  0  0
  5 20  1  0  0  0  0
  6  7  2  0  0  0  0
  6  8  1  0  0  0  0
  6  9  1  0  0  0  0
 10 11  2  6  0  0  0
 10 12  1  0  0  0  0
 10 13  1  0  0  0  0
 13 21  1  0  0  0  0
M  CHG  1   3   1
M  END
$$$$
