ZINC00643055
 OpenBabel08292219463D

 40 42  0  0  1  0  0  0  0  0999 V2000
   -0.0167    1.3782    0.0096 C   0  0  0  0  0  0  0  0  0  0  0  0
    1.1706    2.0858    0.0021 C   0  0  0  0  0  0  0  0  0  0  0  0
    2.3780    1.4104   -0.0130 C   0  0  0  0  0  0  0  0  0  0  0  0
    2.3961    0.0270   -0.0206 C   0  0  0  0  0  0  0  0  0  0  0  0
    1.2082   -0.6795   -0.0130 C   0  0  0  0  0  0  0  0  0  0  0  0
    0.0021   -0.0041    0.0020 C   0  0  0  0  0  0  0  0  0  0  0  0
   -1.2928   -0.7750    0.0107 C   0  0  0  0  0  0  0  0  0  0  0  0
   -1.7154   -1.0114   -1.3338 O   0  0  0  0  0  0  0  0  0  0  0  0
   -2.9406   -1.7395   -1.4384 C   0  0  1  0  0  0  0  0  0  0  0  0
   -3.0408   -2.4068   -0.5824 H   0  0  0  0  0  0  0  0  0  0  0  0
   -4.1156   -0.7599   -1.4618 C   0  0  0  0  0  0  0  0  0  0  0  0
   -4.1909   -0.0569   -0.1787 N   0  0  0  0  0  0  0  0  0  0  0  0
   -4.8918   -0.4572    0.9269 C   0  0  0  0  0  0  0  0  0  0  0  0
   -4.6864    0.4749    1.8770 C   0  0  0  0  0  0  0  0  0  0  0  0
   -3.8820    1.4185    1.3655 N   0  0  0  0  0  4  0  0  0  0  0  0
   -3.5771    1.1041    0.1362 C   0  0  0  0  0  0  0  0  0  0  0  0
   -2.9365   -2.5496   -2.7091 C   0  0  0  0  0  0  0  0  0  0  0  0
   -2.1520   -2.1559   -3.7771 C   0  0  0  0  0  0  0  0  0  0  0  0
   -2.1478   -2.8983   -4.9428 C   0  0  0  0  0  0  0  0  0  0  0  0
   -2.9286   -4.0365   -5.0414 C   0  0  0  0  0  0  0  0  0  0  0  0
   -3.7134   -4.4311   -3.9731 C   0  0  0  0  0  0  0  0  0  0  0  0
   -3.7135   -3.6901   -2.8046 C   0  0  0  0  0  0  0  0  0  0  0  0
   -4.6936   -4.1880   -1.4610 Cl  0  0  0  0  0  0  0  0  0  0  0  0
   -2.9236   -4.9686   -6.5059 Cl  0  0  0  0  0  0  0  0  0  0  0  0
    3.8696    2.2984   -0.0231 Cl  0  0  0  0  0  0  0  0  0  0  0  0
   -0.9592    1.9053    0.0259 H   0  0  0  0  0  0  0  0  0  0  0  0
    1.1558    3.1656    0.0076 H   0  0  0  0  0  0  0  0  0  0  0  0
    3.3383   -0.5007   -0.0327 H   0  0  0  0  0  0  0  0  0  0  0  0
    1.2222   -1.7594   -0.0193 H   0  0  0  0  0  0  0  0  0  0  0  0
   -1.1447   -1.7283    0.5180 H   0  0  0  0  0  0  0  0  0  0  0  0
   -2.0551   -0.1989    0.5352 H   0  0  0  0  0  0  0  0  0  0  0  0
   -3.9699   -0.0368   -2.2643 H   0  0  0  0  0  0  0  0  0  0  0  0
   -5.0424   -1.3082   -1.6306 H   0  0  0  0  0  0  0  0  0  0  0  0
   -5.4940   -1.3489    1.0193 H   0  0  0  0  0  0  0  0  0  0  0  0
   -5.0973    0.4644    2.8757 H   0  0  0  0  0  0  0  0  0  0  0  0
   -2.9414    1.6785   -0.5213 H   0  0  0  0  0  0  0  0  0  0  0  0
   -1.5424   -1.2677   -3.7007 H   0  0  0  0  0  0  0  0  0  0  0  0
   -1.5352   -2.5899   -5.7771 H   0  0  0  0  0  0  0  0  0  0  0  0
   -4.3230   -5.3193   -4.0495 H   0  0  0  0  0  0  0  0  0  0  0  0
   -3.5728    2.2082    1.8363 H   0  0  0  0  0  0  0  0  0  0  0  0
  1  6  2  0  0  0  0
  1  2  1  0  0  0  0
  1 26  1  0  0  0  0
  2  3  2  0  0  0  0
  2 27  1  0  0  0  0
  3  4  1  0  0  0  0
  3 25  1  0  0  0  0
  4  5  2  0  0  0  0
  4 28  1  0  0  0  0
  5  6  1  0  0  0  0
  5 29  1  0  0  0  0
  6  7  1  0  0  0  0
  7  8  1  0  0  0  0
  7 30  1  0  0  0  0
  7 31  1  0  0  0  0
  8  9  1  0  0  0  0
  9 10  1  1  0  0  0
  9 11  1  0  0  0  0
  9 17  1  0  0  0  0
 11 12  1  0  0  0  0
 11 32  1  0  0  0  0
 11 33  1  0  0  0  0
 12 16  1  0  0  0  0
 12 13  1  0  0  0  0
 13 14  2  0  0  0  0
 13 34  1  0  0  0  0
 14 15  1  0  0  0  0
 14 35  1  0  0  0  0
 15 16  2  0  0  0  0
 15 40  1  0  0  0  0
 16 36  1  0  0  0  0
 17 22  2  0  0  0  0
 17 18  1  0  0  0  0
 18 19  2  0  0  0  0
 18 37  1  0  0  0  0
 19 20  1  0  0  0  0
 19 38  1  0  0  0  0
 20 21  2  0  0  0  0
 20 24  1  0  0  0  0
 21 22  1  0  0  0  0
 21 39  1  0  0  0  0
 22 23  1  0  0  0  0
M  END
$$$$
