ZINC03920027
 OpenBabel08292219463D

 65 68  0  0  1  0  0  0  0  0999 V2000
    2.0762   -2.0680   -3.0529 C   0  0  0  0  0  0  0  0  0  0  0  0
    1.4995   -2.9513   -1.9448 C   0  0  0  0  0  0  0  0  0  0  0  0
   -0.0052   -2.9451   -2.0293 C   0  0  0  0  0  0  0  0  0  0  0  0
   -0.5593   -2.3003   -2.8879 O   0  0  0  0  0  0  0  0  0  0  0  0
   -0.7297   -3.6559   -1.1509 O   0  0  0  0  0  0  0  0  0  0  0  0
   -2.1513   -3.5408   -1.2391 C   0  0  2  0  0  0  0  0  0  0  0  0
   -2.6055   -2.1335   -0.7777 C   0  0  1  0  0  0  0  0  0  0  0  0
   -3.2065   -1.6609   -1.5546 H   0  0  0  0  0  0  0  0  0  0  0  0
   -3.4601   -2.3466    0.5016 C   0  0  0  0  0  0  0  0  0  0  0  0
   -2.9539   -3.6925    1.0321 C   0  0  2  0  0  0  0  0  0  0  0  0
   -1.9799   -3.5713    1.5060 H   0  0  0  0  0  0  0  0  0  0  0  0
   -2.8212   -4.5164   -0.2768 C   0  0  2  0  0  0  0  0  0  0  0  0
   -2.0428   -5.7732    0.0621 C   0  0  0  0  0  0  0  0  0  0  0  0
   -2.9031   -6.5899    1.0394 C   0  0  1  0  0  0  0  0  0  0  0  0
   -2.3560   -7.4864    1.3310 H   0  0  0  0  0  0  0  0  0  0  0  0
   -3.2485   -5.7885    2.2909 C   0  0  1  0  0  0  0  0  0  0  0  0
   -3.9008   -4.4364    1.9562 C   0  0  1  0  0  0  0  0  0  0  0  0
   -4.8492   -4.6111    1.4480 H   0  0  0  0  0  0  0  0  0  0  0  0
   -4.1210   -3.6270    3.2357 C   0  0  0  0  0  0  0  0  0  0  0  0
   -5.1070   -4.3626    4.1488 C   0  0  1  0  0  0  0  0  0  0  0  0
   -6.0834   -4.4177    3.6674 H   0  0  0  0  0  0  0  0  0  0  0  0
   -4.5744   -5.7629    4.3883 C   0  0  0  0  0  0  0  0  0  0  0  0
   -4.4660   -6.2051    5.6334 C   0  0  0  0  0  0  0  0  0  0  0  0
   -3.9346   -7.5495    5.9061 C   0  0  0  0  0  0  0  0  0  0  0  0
   -3.8702   -7.9740    7.0448 O   0  0  0  0  0  0  0  0  0  0  0  0
   -3.4828   -8.3702    4.7698 C   0  0  0  0  0  0  0  0  0  0  0  0
   -3.6070   -7.9111    3.5344 C   0  0  0  0  0  0  0  0  0  0  0  0
   -4.2086   -6.6015    3.1642 C   0  0  2  0  0  0  0  0  0  0  0  0
   -5.4708   -6.8712    2.3426 C   0  0  0  0  0  0  0  0  0  0  0  0
   -5.2187   -3.6841    5.3671 F   0  0  0  0  0  0  0  0  0  0  0  0
   -2.0770   -5.5317    3.0110 F   0  0  0  0  0  0  0  0  0  0  0  0
   -4.1137   -6.9750    0.3851 O   0  0  0  0  0  0  0  0  0  0  0  0
   -4.2105   -4.8881   -0.7989 C   0  0  0  0  0  0  0  0  0  0  0  0
   -1.3860   -1.2667   -0.4576 C   0  0  0  0  0  0  0  0  0  0  0  0
   -2.6091   -3.8025   -2.6508 C   0  0  0  0  0  0  0  0  0  0  0  0
   -3.5278   -3.1633   -3.1190 O   0  0  0  0  0  0  0  0  0  0  0  0
   -1.8562   -4.9655   -3.5653 S   0  0  0  0  0  0  0  0  0  0  0  0
   -2.7353   -4.9140   -5.1512 C   0  0  0  0  0  0  0  0  0  0  0  0
   -2.3374   -3.7807   -5.8684 F   0  0  0  0  0  0  0  0  0  0  0  0
    3.1645   -2.0725   -2.9917 H   0  0  0  0  0  0  0  0  0  0  0  0
    1.7653   -2.4537   -4.0238 H   0  0  0  0  0  0  0  0  0  0  0  0
    1.7098   -1.0485   -2.9326 H   0  0  0  0  0  0  0  0  0  0  0  0
    1.8659   -3.9708   -2.0650 H   0  0  0  0  0  0  0  0  0  0  0  0
    1.8104   -2.5657   -0.9738 H   0  0  0  0  0  0  0  0  0  0  0  0
   -3.2755   -1.5528    1.2253 H   0  0  0  0  0  0  0  0  0  0  0  0
   -4.5197   -2.4041    0.2524 H   0  0  0  0  0  0  0  0  0  0  0  0
   -1.8589   -6.3516   -0.8433 H   0  0  0  0  0  0  0  0  0  0  0  0
   -1.0963   -5.5080    0.5331 H   0  0  0  0  0  0  0  0  0  0  0  0
   -3.1703   -3.5025    3.7542 H   0  0  0  0  0  0  0  0  0  0  0  0
   -4.5250   -2.6474    2.9802 H   0  0  0  0  0  0  0  0  0  0  0  0
   -4.7700   -5.5728    6.4545 H   0  0  0  0  0  0  0  0  0  0  0  0
   -3.0508   -9.3445    4.9440 H   0  0  0  0  0  0  0  0  0  0  0  0
   -3.2592   -8.5353    2.7245 H   0  0  0  0  0  0  0  0  0  0  0  0
   -5.2851   -7.6922    1.6501 H   0  0  0  0  0  0  0  0  0  0  0  0
   -6.2894   -7.1379    3.0111 H   0  0  0  0  0  0  0  0  0  0  0  0
   -5.7372   -5.9756    1.7813 H   0  0  0  0  0  0  0  0  0  0  0  0
   -3.9789   -7.5172   -0.4042 H   0  0  0  0  0  0  0  0  0  0  0  0
   -4.1133   -5.6177   -1.6029 H   0  0  0  0  0  0  0  0  0  0  0  0
   -4.8005   -5.3166    0.0113 H   0  0  0  0  0  0  0  0  0  0  0  0
   -4.7075   -3.9948   -1.1772 H   0  0  0  0  0  0  0  0  0  0  0  0
   -0.8503   -1.0388   -1.3792 H   0  0  0  0  0  0  0  0  0  0  0  0
   -1.7128   -0.3388    0.0116 H   0  0  0  0  0  0  0  0  0  0  0  0
   -0.7261   -1.8051    0.2226 H   0  0  0  0  0  0  0  0  0  0  0  0
   -2.4997   -5.8093   -5.7265 H   0  0  0  0  0  0  0  0  0  0  0  0
   -3.8093   -4.8708   -4.9700 H   0  0  0  0  0  0  0  0  0  0  0  0
  1  2  1  0  0  0  0
  1 40  1  0  0  0  0
  1 41  1  0  0  0  0
  1 42  1  0  0  0  0
  2  3  1  0  0  0  0
  2 43  1  0  0  0  0
  2 44  1  0  0  0  0
  3  4  2  0  0  0  0
  3  5  1  0  0  0  0
  6  5  1  1  0  0  0
  6 12  1  0  0  0  0
  6  7  1  0  0  0  0
  6 35  1  0  0  0  0
  7  8  1  6  0  0  0
  7  9  1  0  0  0  0
  7 34  1  0  0  0  0
  9 10  1  0  0  0  0
  9 45  1  0  0  0  0
  9 46  1  0  0  0  0
 10 11  1  1  0  0  0
 10 17  1  0  0  0  0
 10 12  1  0  0  0  0
 12 13  1  0  0  0  0
 12 33  1  6  0  0  0
 13 14  1  0  0  0  0
 13 47  1  0  0  0  0
 13 48  1  0  0  0  0
 14 15  1  1  0  0  0
 14 16  1  0  0  0  0
 14 32  1  0  0  0  0
 16 28  1  0  0  0  0
 16 17  1  0  0  0  0
 16 31  1  1  0  0  0
 17 18  1  6  0  0  0
 17 19  1  0  0  0  0
 19 20  1  0  0  0  0
 19 49  1  0  0  0  0
 19 50  1  0  0  0  0
 20 21  1  6  0  0  0
 20 22  1  0  0  0  0
 20 30  1  0  0  0  0
 22 28  1  0  0  0  0
 22 23  2  0  0  0  0
 23 24  1  0  0  0  0
 23 51  1  0  0  0  0
 24 25  2  0  0  0  0
 24 26  1  0  0  0  0
 26 27  2  0  0  0  0
 26 52  1  0  0  0  0
 27 28  1  0  0  0  0
 27 53  1  0  0  0  0
 28 29  1  6  0  0  0
 29 54  1  0  0  0  0
 29 55  1  0  0  0  0
 29 56  1  0  0  0  0
 32 57  1  0  0  0  0
 33 58  1  0  0  0  0
 33 59  1  0  0  0  0
 33 60  1  0  0  0  0
 34 61  1  0  0  0  0
 34 62  1  0  0  0  0
 34 63  1  0  0  0  0
 35 36  2  0  0  0  0
 35 37  1  0  0  0  0
 37 38  1  0  0  0  0
 38 39  1  0  0  0  0
 38 64  1  0  0  0  0
 38 65  1  0  0  0  0
M  END
$$$$
