ZINC01531006
 OpenBabel08292219463D

 28 27  0  0  1  0  0  0  0  0999 V2000
    3.5350    1.7566   -1.3297 C   0  0  0  0  0  0  0  0  0  0  0  0
    2.0996    1.2270   -1.3188 C   0  0  2  0  0  0  0  0  0  0  0  0
    1.5467    1.6588   -2.1531 H   0  0  0  0  0  0  0  0  0  0  0  0
    1.4227    1.6154   -0.0028 C   0  0  2  0  0  0  0  0  0  0  0  0
    1.9756    1.1836    0.8314 H   0  0  0  0  0  0  0  0  0  0  0  0
   -0.0127    1.0858    0.0080 C   0  0  1  0  0  0  0  0  0  0  0  0
    0.0021   -0.0041    0.0020 H   0  0  0  0  0  0  0  0  0  0  0  0
   -0.7288    1.5792    1.2668 C   0  0  2  0  0  0  0  0  0  0  0  0
   -0.2550    1.1461    2.1477 H   0  0  0  0  0  0  0  0  0  0  0  0
   -2.1980    1.1548    1.2173 C   0  0  1  0  0  0  0  0  0  0  0  0
   -2.2635    0.0674    1.2557 H   0  0  0  0  0  0  0  0  0  0  0  0
   -2.9311    1.7442    2.3947 C   0  0  0  0  0  0  0  0  0  0  0  0
   -3.8046    2.5596    2.2158 O   0  0  0  0  0  0  0  0  0  0  0  0
   -2.7890    1.6250    0.0042 O   0  0  0  0  0  0  0  0  0  0  0  0
   -0.6468    3.0043    1.3339 O   0  0  0  0  0  0  0  0  0  0  0  0
   -0.7038    1.5592   -1.1497 O   0  0  0  0  0  0  0  0  0  0  0  0
    1.4062    3.0388    0.1224 O   0  0  0  0  0  0  0  0  0  0  0  0
    2.1161   -0.1964   -1.4441 O   0  0  0  0  0  0  0  0  0  0  0  0
    4.1293    1.4960   -2.6029 O   0  0  0  0  0  0  0  0  0  0  0  0
    3.5273    2.8309   -1.1454 H   0  0  0  0  0  0  0  0  0  0  0  0
    4.1120    1.2584   -0.5506 H   0  0  0  0  0  0  0  0  0  0  0  0
   -2.7661    2.5864   -0.0976 H   0  0  0  0  0  0  0  0  0  0  0  0
   -1.0494    3.4573    0.5804 H   0  0  0  0  0  0  0  0  0  0  0  0
   -0.7557    2.5229   -1.2101 H   0  0  0  0  0  0  0  0  0  0  0  0
    0.9300    3.4906   -0.5877 H   0  0  0  0  0  0  0  0  0  0  0  0
    2.5923   -0.6482   -0.7340 H   0  0  0  0  0  0  0  0  0  0  0  0
    5.0420    1.8055   -2.6817 H   0  0  0  0  0  0  0  0  0  0  0  0
   -2.6137    1.3632    3.6420 O   0  0  0  0  0  1  0  0  0  0  0  0
  1  2  1  0  0  0  0
  1 19  1  0  0  0  0
  1 20  1  0  0  0  0
  1 21  1  0  0  0  0
  2  3  1  6  0  0  0
  2  4  1  0  0  0  0
  2 18  1  0  0  0  0
  4  5  1  1  0  0  0
  4  6  1  0  0  0  0
  4 17  1  0  0  0  0
  6  7  1  6  0  0  0
  6  8  1  0  0  0  0
  6 16  1  0  0  0  0
  8  9  1  1  0  0  0
  8 10  1  0  0  0  0
  8 15  1  0  0  0  0
 10 11  1  1  0  0  0
 10 12  1  0  0  0  0
 10 14  1  0  0  0  0
 12 13  2  0  0  0  0
 12 28  1  0  0  0  0
 14 22  1  0  0  0  0
 15 23  1  0  0  0  0
 16 24  1  0  0  0  0
 17 25  1  0  0  0  0
 18 26  1  0  0  0  0
 19 27  1  0  0  0  0
M  END
$$$$
