ZINC00020229
 OpenBabel08292219463D

 47 48  0  0  1  0  0  0  0  0999 V2000
   -1.2761   -4.3639   -3.1085 C   0  0  0  0  0  0  0  0  0  0  0  0
   -0.7301   -3.6161   -1.8905 C   0  0  0  0  0  0  0  0  0  0  0  0
    0.2843   -2.6466   -2.3253 N   0  3  2  0  0  0  0  0  0  0  0  0
    1.4464   -3.3632   -2.8927 C   0  0  0  0  0  0  0  0  0  0  0  0
    2.6766   -2.5276   -2.4593 C   0  0  0  0  0  0  0  0  0  0  0  0
    2.2619   -2.0751   -1.0345 C   0  0  0  0  0  0  0  0  0  0  0  0
    0.7406   -1.8536   -1.1692 C   0  0  2  0  0  0  0  0  0  0  0  0
    0.5334   -0.7970   -1.3392 H   0  0  0  0  0  0  0  0  0  0  0  0
    0.0311   -2.3285    0.1004 C   0  0  0  0  0  0  0  0  0  0  0  0
    0.4414   -1.4922    1.2311 N   0  0  0  0  0  0  0  0  0  0  0  0
    0.0201   -1.7888    2.4765 C   0  0  0  0  0  0  0  0  0  0  0  0
   -0.7005   -2.7505    2.6616 O   0  0  0  0  0  0  0  0  0  0  0  0
    0.4333   -0.9466    3.6152 C   0  0  0  0  0  0  0  0  0  0  0  0
    1.2564    0.1627    3.4063 C   0  0  0  0  0  0  0  0  0  0  0  0
    1.6384    0.9456    4.4739 C   0  0  0  0  0  0  0  0  0  0  0  0
    1.2099    0.6379    5.7550 C   0  0  0  0  0  0  0  0  0  0  0  0
    0.3962   -0.4554    5.9756 C   0  0  0  0  0  0  0  0  0  0  0  0
   -0.0024   -1.2513    4.9118 C   0  0  0  0  0  0  0  0  0  0  0  0
   -0.8061   -2.3229    5.1263 O   0  0  0  0  0  0  0  0  0  0  0  0
   -1.2100   -2.5714    6.4743 C   0  0  0  0  0  0  0  0  0  0  0  0
    2.6771    2.3440    4.2087 S   0  0  0  0  0  0  0  0  0  0  0  0
    3.3381    2.5983    5.4406 O   0  0  0  0  0  0  0  0  0  0  0  0
    3.3846    2.1011    3.0005 O   0  0  0  0  0  0  0  0  0  0  0  0
    1.6882    3.6417    3.9255 N   0  0  0  0  0  0  0  0  0  0  0  0
   -1.7267   -3.6520   -3.8000 H   0  0  0  0  0  0  0  0  0  0  0  0
   -0.4617   -4.8893   -3.6074 H   0  0  0  0  0  0  0  0  0  0  0  0
   -2.0288   -5.0832   -2.7858 H   0  0  0  0  0  0  0  0  0  0  0  0
   -1.5444   -3.0907   -1.3916 H   0  0  0  0  0  0  0  0  0  0  0  0
   -0.2794   -4.3280   -1.1990 H   0  0  0  0  0  0  0  0  0  0  0  0
    1.5084   -4.3710   -2.4820 H   0  0  0  0  0  0  0  0  0  0  0  0
    1.3761   -3.3993   -3.9799 H   0  0  0  0  0  0  0  0  0  0  0  0
    3.5754   -3.1435   -2.4272 H   0  0  0  0  0  0  0  0  0  0  0  0
    2.8167   -1.6692   -3.1163 H   0  0  0  0  0  0  0  0  0  0  0  0
    2.4744   -2.8565   -0.3048 H   0  0  0  0  0  0  0  0  0  0  0  0
    2.7641   -1.1464   -0.7636 H   0  0  0  0  0  0  0  0  0  0  0  0
   -1.0477   -2.2516   -0.0358 H   0  0  0  0  0  0  0  0  0  0  0  0
    0.2990   -3.3661    0.2999 H   0  0  0  0  0  0  0  0  0  0  0  0
    1.0162   -0.7250    1.0834 H   0  0  0  0  0  0  0  0  0  0  0  0
    1.5932    0.4061    2.4094 H   0  0  0  0  0  0  0  0  0  0  0  0
    1.5144    1.2568    6.5860 H   0  0  0  0  0  0  0  0  0  0  0  0
    0.0663   -0.6888    6.9771 H   0  0  0  0  0  0  0  0  0  0  0  0
   -0.3283   -2.7381    7.0930 H   0  0  0  0  0  0  0  0  0  0  0  0
   -1.7619   -1.7109    6.8527 H   0  0  0  0  0  0  0  0  0  0  0  0
   -1.8481   -3.4546    6.5055 H   0  0  0  0  0  0  0  0  0  0  0  0
    0.7249    3.5276    3.9304 H   0  0  0  0  0  0  0  0  0  0  0  0
    2.0722    4.5159    3.7546 H   0  0  0  0  0  0  0  0  0  0  0  0
   -0.1083   -2.0336   -3.0240 H   0  0  0  0  0  0  0  0  0  0  0  0
  1  2  1  0  0  0  0
  1 25  1  0  0  0  0
  1 26  1  0  0  0  0
  1 27  1  0  0  0  0
  2  3  1  0  0  0  0
  2 28  1  0  0  0  0
  2 29  1  0  0  0  0
  3  7  1  0  0  0  0
  3  4  1  0  0  0  0
  3 47  1  6  0  0  0
  4  5  1  0  0  0  0
  4 30  1  0  0  0  0
  4 31  1  0  0  0  0
  5  6  1  0  0  0  0
  5 32  1  0  0  0  0
  5 33  1  0  0  0  0
  6  7  1  0  0  0  0
  6 34  1  0  0  0  0
  6 35  1  0  0  0  0
  7  8  1  6  0  0  0
  7  9  1  0  0  0  0
  9 10  1  0  0  0  0
  9 36  1  0  0  0  0
  9 37  1  0  0  0  0
 10 11  1  0  0  0  0
 10 38  1  0  0  0  0
 11 12  2  0  0  0  0
 11 13  1  0  0  0  0
 13 18  2  0  0  0  0
 13 14  1  0  0  0  0
 14 15  2  0  0  0  0
 14 39  1  0  0  0  0
 15 16  1  0  0  0  0
 15 21  1  0  0  0  0
 16 17  2  0  0  0  0
 16 40  1  0  0  0  0
 17 18  1  0  0  0  0
 17 41  1  0  0  0  0
 18 19  1  0  0  0  0
 19 20  1  0  0  0  0
 20 42  1  0  0  0  0
 20 43  1  0  0  0  0
 20 44  1  0  0  0  0
 21 22  2  0  0  0  0
 21 23  2  0  0  0  0
 21 24  1  0  0  0  0
 24 45  1  0  0  0  0
 24 46  1  0  0  0  0
M  CHG  1   3   1
M  END
$$$$
