ZINC15880092
 OpenBabel08292219463D

 23 23  0  0  0  0  0  0  0  0999 V2000
   -0.0178    1.4648    0.0101 C   0  0  0  0  0  0  0  0  0  0  0  0
    0.0021   -0.0041    0.0020 N   0  3  0  0  0  0  0  0  0  0  0  0
    0.6897   -0.4778   -1.2066 C   0  0  0  0  0  0  0  0  0  0  0  0
    0.7104   -2.0077   -1.2150 C   0  0  0  0  0  0  0  0  0  0  0  0
    1.4158   -2.4937   -2.4549 C   0  0  0  0  0  0  0  0  0  0  0  0
    2.4849   -3.3618   -2.3367 C   0  0  0  0  0  0  0  0  0  0  0  0
    3.1268   -3.8029   -3.4835 C   0  0  0  0  0  0  0  0  0  0  0  0
    2.6674   -3.3523   -4.7118 C   0  0  0  0  0  0  0  0  0  0  0  0
    1.5926   -2.4847   -4.7517 C   0  0  0  0  0  0  0  0  0  0  0  0
    1.0026   -2.0900   -3.6402 N   0  0  0  0  0  0  0  0  0  0  0  0
    1.0047    1.8421    0.0024 H   0  0  0  0  0  0  0  0  0  0  0  0
   -0.5450    1.8259   -0.8730 H   0  0  0  0  0  0  0  0  0  0  0  0
   -0.5280    1.8163    0.9069 H   0  0  0  0  0  0  0  0  0  0  0  0
    0.4901   -0.3383    0.8195 H   0  0  0  0  0  0  0  0  0  0  0  0
    0.1625   -0.1167   -2.0897 H   0  0  0  0  0  0  0  0  0  0  0  0
    1.7123   -0.1005   -1.2143 H   0  0  0  0  0  0  0  0  0  0  0  0
    1.2376   -2.3687   -0.3319 H   0  0  0  0  0  0  0  0  0  0  0  0
   -0.3122   -2.3849   -1.2073 H   0  0  0  0  0  0  0  0  0  0  0  0
    2.8161   -3.6920   -1.3632 H   0  0  0  0  0  0  0  0  0  0  0  0
    3.9651   -4.4811   -3.4217 H   0  0  0  0  0  0  0  0  0  0  0  0
    3.1438   -3.6750   -5.6257 H   0  0  0  0  0  0  0  0  0  0  0  0
    1.2288   -2.1292   -5.7044 H   0  0  0  0  0  0  0  0  0  0  0  0
   -0.9445   -0.3533    0.0092 H   0  0  0  0  0  0  0  0  0  0  0  0
  1  2  1  0  0  0  0
  1 11  1  0  0  0  0
  1 12  1  0  0  0  0
  1 13  1  0  0  0  0
  2  3  1  0  0  0  0
  2 14  1  0  0  0  0
  2 23  1  0  0  0  0
  3  4  1  0  0  0  0
  3 15  1  0  0  0  0
  3 16  1  0  0  0  0
  4  5  1  0  0  0  0
  4 17  1  0  0  0  0
  4 18  1  0  0  0  0
  5 10  2  0  0  0  0
  5  6  1  0  0  0  0
  6  7  2  0  0  0  0
  6 19  1  0  0  0  0
  7  8  1  0  0  0  0
  7 20  1  0  0  0  0
  8  9  2  0  0  0  0
  8 21  1  0  0  0  0
  9 10  1  0  0  0  0
  9 22  1  0  0  0  0
M  CHG  1   2   1
M  END
$$$$
