ZINC34806477
 OpenBabel08292219463D

 48 50  0  0  0  0  0  0  0  0999 V2000
    0.0213    1.5792    1.5794 C   0  0  0  0  0  0  0  0  0  0  0  0
   -0.0645    0.4077    0.5991 C   0  0  0  0  0  0  0  0  0  0  0  0
   -1.4715   -0.1551    0.5625 C   0  0  0  0  0  0  0  0  0  0  0  0
   -2.4835    0.4241    0.2303 O   0  0  0  0  0  0  0  0  0  0  0  0
   -1.3634   -1.4334    0.9753 N   0  0  0  0  0  0  0  0  0  0  0  0
   -0.0969   -1.7532    1.2646 C   0  0  0  0  0  0  0  0  0  0  0  0
    0.3922   -3.2981    1.8168 S   0  0  0  0  0  0  0  0  0  0  0  0
    0.7493   -0.7252    1.0727 N   0  0  0  0  0  0  0  0  0  0  0  0
    2.1272   -0.7310    1.2809 C   0  0  0  0  0  0  0  0  0  0  0  0
    2.9889   -0.9861    0.2173 C   0  0  0  0  0  0  0  0  0  0  0  0
    4.3405   -0.9932    0.4128 C   0  0  0  0  0  0  0  0  0  0  0  0
    4.8660   -0.7438    1.6843 C   0  0  0  0  0  0  0  0  0  0  0  0
    4.0024   -0.4868    2.7563 C   0  0  0  0  0  0  0  0  0  0  0  0
    2.6377   -0.4763    2.5487 C   0  0  0  0  0  0  0  0  0  0  0  0
    4.5030   -0.2454    3.9876 F   0  0  0  0  0  0  0  0  0  0  0  0
    6.3249   -0.7518    1.8958 C   0  0  0  0  0  0  0  0  0  0  0  0
    6.7801   -0.5347    3.0024 O   0  0  0  0  0  0  0  0  0  0  0  0
    7.1543   -0.9998    0.8628 N   0  0  0  0  0  0  0  0  0  0  0  0
    8.6041   -1.0078    1.0730 C   0  0  0  0  0  0  0  0  0  0  0  0
   -2.4419   -2.3163    1.0881 C   0  0  0  0  0  0  0  0  0  0  0  0
   -2.8493   -2.7568    2.3428 C   0  0  0  0  0  0  0  0  0  0  0  0
   -3.9108   -3.6262    2.4579 C   0  0  0  0  0  0  0  0  0  0  0  0
   -4.5792   -4.0660    1.3117 C   0  0  0  0  0  0  0  0  0  0  0  0
   -4.1669   -3.6211    0.0529 C   0  0  0  0  0  0  0  0  0  0  0  0
   -3.1078   -2.7470   -0.0538 C   0  0  0  0  0  0  0  0  0  0  0  0
   -4.8841   -4.0922   -1.1860 C   0  0  0  0  0  0  0  0  0  0  0  0
   -4.2935   -3.5144   -2.3149 F   0  0  0  0  0  0  0  0  0  0  0  0
   -4.7954   -5.4855   -1.2748 F   0  0  0  0  0  0  0  0  0  0  0  0
   -6.2293   -3.7140   -1.1183 F   0  0  0  0  0  0  0  0  0  0  0  0
   -5.6834   -4.9705    1.4273 C   0  0  0  0  0  0  0  0  0  0  0  0
   -6.5593   -5.6880    1.5189 N   0  0  0  0  0  0  0  0  0  0  0  0
    0.3810    0.8435   -0.7983 C   0  0  0  0  0  0  0  0  0  0  0  0
    1.0584    1.9025    1.6693 H   0  0  0  0  0  0  0  0  0  0  0  0
   -0.5865    2.4059    1.2118 H   0  0  0  0  0  0  0  0  0  0  0  0
   -0.3468    1.2637    2.5557 H   0  0  0  0  0  0  0  0  0  0  0  0
    2.5867   -1.1796   -0.7661 H   0  0  0  0  0  0  0  0  0  0  0  0
    5.0042   -1.1920   -0.4157 H   0  0  0  0  0  0  0  0  0  0  0  0
    1.9672   -0.2746    3.3710 H   0  0  0  0  0  0  0  0  0  0  0  0
    6.7912   -1.1730   -0.0199 H   0  0  0  0  0  0  0  0  0  0  0  0
    8.8607   -1.7724    1.8061 H   0  0  0  0  0  0  0  0  0  0  0  0
    9.1067   -1.2249    0.1304 H   0  0  0  0  0  0  0  0  0  0  0  0
    8.9236   -0.0319    1.4387 H   0  0  0  0  0  0  0  0  0  0  0  0
   -2.3321   -2.4169    3.2279 H   0  0  0  0  0  0  0  0  0  0  0  0
   -4.2264   -3.9682    3.4325 H   0  0  0  0  0  0  0  0  0  0  0  0
   -2.7913   -2.3992   -1.0261 H   0  0  0  0  0  0  0  0  0  0  0  0
    1.4156    1.1842   -0.7600 H   0  0  0  0  0  0  0  0  0  0  0  0
    0.3013    0.0003   -1.4844 H   0  0  0  0  0  0  0  0  0  0  0  0
   -0.2566    1.6563   -1.1459 H   0  0  0  0  0  0  0  0  0  0  0  0
  1  2  1  0  0  0  0
  1 33  1  0  0  0  0
  1 34  1  0  0  0  0
  1 35  1  0  0  0  0
  2  8  1  0  0  0  0
  2  3  1  0  0  0  0
  2 32  1  0  0  0  0
  3  4  2  0  0  0  0
  3  5  1  0  0  0  0
  5  6  1  0  0  0  0
  5 20  1  0  0  0  0
  6  7  2  0  0  0  0
  6  8  1  0  0  0  0
  8  9  1  0  0  0  0
  9 14  2  0  0  0  0
  9 10  1  0  0  0  0
 10 11  2  0  0  0  0
 10 36  1  0  0  0  0
 11 12  1  0  0  0  0
 11 37  1  0  0  0  0
 12 13  2  0  0  0  0
 12 16  1  0  0  0  0
 13 14  1  0  0  0  0
 13 15  1  0  0  0  0
 14 38  1  0  0  0  0
 16 17  2  0  0  0  0
 16 18  1  0  0  0  0
 18 19  1  0  0  0  0
 18 39  1  0  0  0  0
 19 40  1  0  0  0  0
 19 41  1  0  0  0  0
 19 42  1  0  0  0  0
 20 25  2  0  0  0  0
 20 21  1  0  0  0  0
 21 22  2  0  0  0  0
 21 43  1  0  0  0  0
 22 23  1  0  0  0  0
 22 44  1  0  0  0  0
 23 24  2  0  0  0  0
 23 30  1  0  0  0  0
 24 25  1  0  0  0  0
 24 26  1  0  0  0  0
 25 45  1  0  0  0  0
 26 27  1  0  0  0  0
 26 28  1  0  0  0  0
 26 29  1  0  0  0  0
 30 31  3  0  0  0  0
 32 46  1  0  0  0  0
 32 47  1  0  0  0  0
 32 48  1  0  0  0  0
M  END
$$$$
