ZINC00586239
 OpenBabel08292219463D

 60 63  0  0  1  0  0  0  0  0999 V2000
    0.3179    1.5895   -0.0746 C   0  0  0  0  0  0  0  0  0  0  0  0
    0.2065    0.0637   -0.0923 C   0  0  2  0  0  0  0  0  0  0  0  0
    0.7209   -0.3287   -0.9696 H   0  0  0  0  0  0  0  0  0  0  0  0
   -1.2685   -0.3404   -0.1416 C   0  0  0  0  0  0  0  0  0  0  0  0
   -1.9634    0.1856    1.0395 N   0  3  2  0  0  0  0  0  0  0  0  0
   -1.4033   -0.4156    2.2558 C   0  0  0  0  0  0  0  0  0  0  0  0
    0.0666   -0.0144    2.3973 C   0  0  0  0  0  0  0  0  0  0  0  0
    0.8463   -0.5105    1.1750 C   0  0  2  0  0  0  0  0  0  0  0  0
    2.2786   -0.0514    1.2688 C   0  0  0  0  0  0  0  0  0  0  0  0
    3.1465   -0.2752    0.2164 C   0  0  0  0  0  0  0  0  0  0  0  0
    4.4603    0.1459    0.3024 C   0  0  0  0  0  0  0  0  0  0  0  0
    4.9062    0.7911    1.4407 C   0  0  0  0  0  0  0  0  0  0  0  0
    4.0381    1.0156    2.4928 C   0  0  0  0  0  0  0  0  0  0  0  0
    2.7232    0.5984    2.4051 C   0  0  0  0  0  0  0  0  0  0  0  0
    0.8002   -2.0160    1.1252 C   0  0  0  0  0  0  0  0  0  0  0  0
    0.8001   -2.5906    0.0499 O   0  0  0  0  0  0  0  0  0  0  0  0
    0.7630   -2.6593    2.1602 O   0  0  0  0  0  1  0  0  0  0  0  0
   -3.3935   -0.1379    0.9490 C   0  0  2  0  0  0  0  0  0  0  0  0
   -3.9808    0.4959   -0.3136 C   0  0  0  0  0  0  0  0  0  0  0  0
   -5.4703    0.1589   -0.4079 C   0  0  0  0  0  0  0  0  0  0  0  0
   -6.1960    0.7066    0.8227 C   0  0  1  0  0  0  0  0  0  0  0  0
   -5.6086    0.0728    2.0853 C   0  0  0  0  0  0  0  0  0  0  0  0
   -4.1192    0.4098    2.1796 C   0  0  0  0  0  0  0  0  0  0  0  0
   -6.0263    2.1675    0.8826 C   0  0  0  0  0  0  0  0  0  0  0  0
   -5.8953    3.2950    0.9288 N   0  0  0  0  0  0  0  0  0  0  0  0
   -7.6630    0.3747    0.7298 C   0  0  0  0  0  0  0  0  0  0  0  0
   -8.1442   -0.3304   -0.3576 C   0  0  0  0  0  0  0  0  0  0  0  0
   -9.4892   -0.6358   -0.4436 C   0  0  0  0  0  0  0  0  0  0  0  0
  -10.3551   -0.2353    0.5599 C   0  0  0  0  0  0  0  0  0  0  0  0
   -9.8720    0.4708    1.6485 C   0  0  0  0  0  0  0  0  0  0  0  0
   -8.5257    0.7705    1.7350 C   0  0  0  0  0  0  0  0  0  0  0  0
  -11.6703   -0.5328    0.4766 F   0  0  0  0  0  0  0  0  0  0  0  0
    1.3672    1.8780   -0.1376 H   0  0  0  0  0  0  0  0  0  0  0  0
   -0.2243    2.0033   -0.9249 H   0  0  0  0  0  0  0  0  0  0  0  0
   -0.1098    1.9743    0.8512 H   0  0  0  0  0  0  0  0  0  0  0  0
   -1.7264    0.0666   -1.0431 H   0  0  0  0  0  0  0  0  0  0  0  0
   -1.3467   -1.4275   -0.1544 H   0  0  0  0  0  0  0  0  0  0  0  0
   -1.9606   -0.0641    3.1241 H   0  0  0  0  0  0  0  0  0  0  0  0
   -1.4786   -1.5011    2.1919 H   0  0  0  0  0  0  0  0  0  0  0  0
    0.1431    1.0710    2.4616 H   0  0  0  0  0  0  0  0  0  0  0  0
    0.4811   -0.4632    3.3000 H   0  0  0  0  0  0  0  0  0  0  0  0
    2.7981   -0.7792   -0.6730 H   0  0  0  0  0  0  0  0  0  0  0  0
    5.1385   -0.0295   -0.5196 H   0  0  0  0  0  0  0  0  0  0  0  0
    5.9329    1.1195    1.5082 H   0  0  0  0  0  0  0  0  0  0  0  0
    4.3866    1.5194    3.3823 H   0  0  0  0  0  0  0  0  0  0  0  0
    2.0440    0.7771    3.2255 H   0  0  0  0  0  0  0  0  0  0  0  0
   -3.5191   -1.2198    0.9047 H   0  0  0  0  0  0  0  0  0  0  0  0
   -3.8552    1.5777   -0.2693 H   0  0  0  0  0  0  0  0  0  0  0  0
   -3.4638    0.1057   -1.1903 H   0  0  0  0  0  0  0  0  0  0  0  0
   -5.8887    0.6104   -1.3074 H   0  0  0  0  0  0  0  0  0  0  0  0
   -5.5959   -0.9230   -0.4522 H   0  0  0  0  0  0  0  0  0  0  0  0
   -6.1256    0.4630    2.9620 H   0  0  0  0  0  0  0  0  0  0  0  0
   -5.7342   -1.0091    2.0410 H   0  0  0  0  0  0  0  0  0  0  0  0
   -3.7007   -0.0418    3.0791 H   0  0  0  0  0  0  0  0  0  0  0  0
   -3.9935    1.4916    2.2239 H   0  0  0  0  0  0  0  0  0  0  0  0
   -7.4687   -0.6424   -1.1404 H   0  0  0  0  0  0  0  0  0  0  0  0
   -9.8649   -1.1863   -1.2934 H   0  0  0  0  0  0  0  0  0  0  0  0
  -10.5465    0.7840    2.4317 H   0  0  0  0  0  0  0  0  0  0  0  0
   -8.1480    1.3174    2.5862 H   0  0  0  0  0  0  0  0  0  0  0  0
   -1.8490    1.1874    1.0774 H   0  0  0  0  0  0  0  0  0  0  0  0
  1  2  1  0  0  0  0
  1 33  1  0  0  0  0
  1 34  1  0  0  0  0
  1 35  1  0  0  0  0
  2  3  1  6  0  0  0
  2  8  1  0  0  0  0
  2  4  1  0  0  0  0
  4  5  1  0  0  0  0
  4 36  1  0  0  0  0
  4 37  1  0  0  0  0
  5  6  1  0  0  0  0
  5 18  1  0  0  0  0
  5 60  1  1  0  0  0
  6  7  1  0  0  0  0
  6 38  1  0  0  0  0
  6 39  1  0  0  0  0
  7  8  1  0  0  0  0
  7 40  1  0  0  0  0
  7 41  1  0  0  0  0
  8  9  1  0  0  0  0
  8 15  1  6  0  0  0
  9 14  2  0  0  0  0
  9 10  1  0  0  0  0
 10 11  2  0  0  0  0
 10 42  1  0  0  0  0
 11 12  1  0  0  0  0
 11 43  1  0  0  0  0
 12 13  2  0  0  0  0
 12 44  1  0  0  0  0
 13 14  1  0  0  0  0
 13 45  1  0  0  0  0
 14 46  1  0  0  0  0
 15 16  2  0  0  0  0
 15 17  1  0  0  0  0
 18 23  1  0  0  0  0
 18 19  1  0  0  0  0
 18 47  1  6  0  0  0
 19 20  1  0  0  0  0
 19 48  1  0  0  0  0
 19 49  1  0  0  0  0
 20 21  1  0  0  0  0
 20 50  1  0  0  0  0
 20 51  1  0  0  0  0
 21 22  1  0  0  0  0
 21 24  1  1  0  0  0
 21 26  1  0  0  0  0
 22 23  1  0  0  0  0
 22 52  1  0  0  0  0
 22 53  1  0  0  0  0
 23 54  1  0  0  0  0
 23 55  1  0  0  0  0
 24 25  3  0  0  0  0
 26 31  2  0  0  0  0
 26 27  1  0  0  0  0
 27 28  2  0  0  0  0
 27 56  1  0  0  0  0
 28 29  1  0  0  0  0
 28 57  1  0  0  0  0
 29 30  2  0  0  0  0
 29 32  1  0  0  0  0
 30 31  1  0  0  0  0
 30 58  1  0  0  0  0
 31 59  1  0  0  0  0
M  CHG  1   5   1
M  END
$$$$
