ZINC29319828
 OpenBabel08292219463D

 53 55  0  0  0  0  0  0  0  0999 V2000
    1.9590    1.1917   -0.6016 C   0  0  0  0  0  0  0  0  0  0  0  0
    1.3921   -0.2274   -0.5264 C   0  0  0  0  0  0  0  0  0  0  0  0
    2.0028   -1.0802   -1.6402 C   0  0  0  0  0  0  0  0  0  0  0  0
    1.4359   -2.4993   -1.5650 C   0  0  0  0  0  0  0  0  0  0  0  0
    2.0375   -3.3394   -2.6620 C   0  0  0  0  0  0  0  0  0  0  0  0
    3.1795   -3.9743   -2.5876 N   0  0  0  0  0  4  0  0  0  0  0  0
    3.4127   -4.6198   -3.7296 C   0  0  0  0  0  0  0  0  0  0  0  0
    2.3463   -4.3722   -4.5736 C   0  0  0  0  0  0  0  0  0  0  0  0
    1.4807   -3.5574   -3.8677 N   0  0  0  0  0  0  0  0  0  0  0  0
    0.2001   -3.0284   -4.3437 C   0  0  0  0  0  0  0  0  0  0  0  0
    0.4390   -1.7627   -5.1259 C   0  0  0  0  0  0  0  0  0  0  0  0
    0.3256   -0.5342   -4.4991 C   0  0  0  0  0  0  0  0  0  0  0  0
    0.5424    0.6284   -5.2088 C   0  0  0  0  0  0  0  0  0  0  0  0
    0.8777    0.5636   -6.5636 C   0  0  0  0  0  0  0  0  0  0  0  0
    0.9908   -0.6804   -7.1896 C   0  0  0  0  0  0  0  0  0  0  0  0
    0.7763   -1.8348   -6.4661 C   0  0  0  0  0  0  0  0  0  0  0  0
    1.1106    1.8028   -7.3296 C   0  0  0  0  0  0  0  0  0  0  0  0
    0.9199    2.8909   -6.8051 O   0  0  0  0  0  0  0  0  0  0  0  0
    1.4945    1.7419   -8.4892 O   0  0  0  0  0  1  0  0  0  0  0  0
    2.1733   -4.8582   -5.8917 C   0  0  0  0  0  0  0  0  0  0  0  0
    3.1938   -5.5017   -6.5182 C   0  0  0  0  0  0  0  0  0  0  0  0
    4.5691   -5.5123   -5.9021 C   0  0  0  0  0  0  0  0  0  0  0  0
    4.7677   -6.7962   -5.1385 C   0  0  0  0  0  0  0  0  0  0  0  0
    5.3874   -7.9359   -5.5313 C   0  0  0  0  0  0  0  0  0  0  0  0
    5.4515   -9.0011   -4.6528 C   0  0  0  0  0  0  0  0  0  0  0  0
    4.8927   -8.8745   -3.4244 C   0  0  0  0  0  0  0  0  0  0  0  0
    4.2545   -7.2081   -3.4789 S   0  0  0  0  0  0  0  0  0  0  0  0
    2.9657   -6.1586   -7.7430 C   0  0  0  0  0  0  0  0  0  0  0  0
    1.7498   -6.1493   -8.2876 O   0  0  0  0  0  0  0  0  0  0  0  0
    3.9660   -6.7893   -8.3571 O   0  0  0  0  0  1  0  0  0  0  0  0
    3.0417    1.1574   -0.4806 H   0  0  0  0  0  0  0  0  0  0  0  0
    1.7152    1.6295   -1.5696 H   0  0  0  0  0  0  0  0  0  0  0  0
    1.5239    1.7993    0.1919 H   0  0  0  0  0  0  0  0  0  0  0  0
    1.6359   -0.6652    0.4416 H   0  0  0  0  0  0  0  0  0  0  0  0
    0.3094   -0.1930   -0.6473 H   0  0  0  0  0  0  0  0  0  0  0  0
    1.7591   -0.6424   -2.6082 H   0  0  0  0  0  0  0  0  0  0  0  0
    3.0856   -1.1146   -1.5192 H   0  0  0  0  0  0  0  0  0  0  0  0
    1.6797   -2.9371   -0.5970 H   0  0  0  0  0  0  0  0  0  0  0  0
    0.3532   -2.4650   -1.6859 H   0  0  0  0  0  0  0  0  0  0  0  0
    4.2776   -5.2259   -3.9550 H   0  0  0  0  0  0  0  0  0  0  0  0
   -0.2820   -3.7663   -4.9849 H   0  0  0  0  0  0  0  0  0  0  0  0
   -0.4433   -2.8125   -3.4908 H   0  0  0  0  0  0  0  0  0  0  0  0
    0.0664   -0.4856   -3.4518 H   0  0  0  0  0  0  0  0  0  0  0  0
    0.4529    1.5865   -4.7185 H   0  0  0  0  0  0  0  0  0  0  0  0
    1.2497   -0.7379   -8.2366 H   0  0  0  0  0  0  0  0  0  0  0  0
    0.8677   -2.7972   -6.9476 H   0  0  0  0  0  0  0  0  0  0  0  0
    1.2307   -4.7178   -6.3996 H   0  0  0  0  0  0  0  0  0  0  0  0
    5.3201   -5.4374   -6.6886 H   0  0  0  0  0  0  0  0  0  0  0  0
    4.6693   -4.6661   -5.2224 H   0  0  0  0  0  0  0  0  0  0  0  0
    5.8243   -8.0107   -6.5162 H   0  0  0  0  0  0  0  0  0  0  0  0
    5.9392   -9.9206   -4.9409 H   0  0  0  0  0  0  0  0  0  0  0  0
    4.8486   -9.5937   -2.6199 H   0  0  0  0  0  0  0  0  0  0  0  0
    3.7682   -3.9746   -1.8166 H   0  0  0  0  0  0  0  0  0  0  0  0
  1  2  1  0  0  0  0
  1 31  1  0  0  0  0
  1 32  1  0  0  0  0
  1 33  1  0  0  0  0
  2  3  1  0  0  0  0
  2 34  1  0  0  0  0
  2 35  1  0  0  0  0
  3  4  1  0  0  0  0
  3 36  1  0  0  0  0
  3 37  1  0  0  0  0
  4  5  1  0  0  0  0
  4 38  1  0  0  0  0
  4 39  1  0  0  0  0
  5  9  1  0  0  0  0
  5  6  2  0  0  0  0
  6  7  1  0  0  0  0
  6 53  1  0  0  0  0
  7  8  2  0  0  0  0
  7 40  1  0  0  0  0
  8  9  1  0  0  0  0
  8 20  1  0  0  0  0
  9 10  1  0  0  0  0
 10 11  1  0  0  0  0
 10 41  1  0  0  0  0
 10 42  1  0  0  0  0
 11 16  2  0  0  0  0
 11 12  1  0  0  0  0
 12 13  2  0  0  0  0
 12 43  1  0  0  0  0
 13 14  1  0  0  0  0
 13 44  1  0  0  0  0
 14 15  2  0  0  0  0
 14 17  1  0  0  0  0
 15 16  1  0  0  0  0
 15 45  1  0  0  0  0
 16 46  1  0  0  0  0
 17 18  2  0  0  0  0
 17 19  1  0  0  0  0
 20 21  2  0  0  0  0
 20 47  1  0  0  0  0
 21 22  1  0  0  0  0
 21 28  1  0  0  0  0
 22 23  1  0  0  0  0
 22 48  1  0  0  0  0
 22 49  1  0  0  0  0
 23 27  1  0  0  0  0
 23 24  2  0  0  0  0
 24 25  1  0  0  0  0
 24 50  1  0  0  0  0
 25 26  2  0  0  0  0
 25 51  1  0  0  0  0
 26 27  1  0  0  0  0
 26 52  1  0  0  0  0
 28 29  2  0  0  0  0
 28 30  1  0  0  0  0
M  END
$$$$
