ZINC19632633
 OpenBabel08292219463D

 31 31  0  0  1  0  0  0  0  0999 V2000
   -0.3225    1.5773   -0.7015 C   0  0  0  0  0  0  0  0  0  0  0  0
   -0.4264    0.0862   -0.3749 C   0  0  2  0  0  0  0  0  0  0  0  0
   -1.4763   -0.1965   -0.2978 H   0  0  0  0  0  0  0  0  0  0  0  0
    0.2765   -0.1948    0.9547 C   0  0  0  0  0  0  0  0  0  0  0  0
   -0.4442    0.5245    2.0657 C   0  0  0  0  0  0  0  0  0  0  0  0
    0.0023    1.7612    2.4923 C   0  0  0  0  0  0  0  0  0  0  0  0
   -0.6588    2.4210    3.5114 C   0  0  0  0  0  0  0  0  0  0  0  0
   -1.7666    1.8442    4.1037 C   0  0  0  0  0  0  0  0  0  0  0  0
   -2.2137    0.6078    3.6765 C   0  0  0  0  0  0  0  0  0  0  0  0
   -1.5552   -0.0500    2.6545 C   0  0  0  0  0  0  0  0  0  0  0  0
    0.2139   -0.6946   -1.4418 N   0  0  0  0  0  0  0  0  0  0  0  0
    0.2869   -2.1169   -1.0820 C   0  0  0  0  0  0  0  0  0  0  0  0
   -0.4849   -0.5103   -2.7208 C   0  0  0  0  0  0  0  0  0  0  0  0
    0.3124   -1.1055   -3.8057 C   0  0  0  0  0  0  0  0  0  0  0  0
    0.9482   -1.5803   -4.6709 C   0  0  0  0  0  0  0  0  0  0  0  0
    0.7274    1.8601   -0.7787 H   0  0  0  0  0  0  0  0  0  0  0  0
   -0.8232    1.7775   -1.6488 H   0  0  0  0  0  0  0  0  0  0  0  0
   -0.7976    2.1567    0.0901 H   0  0  0  0  0  0  0  0  0  0  0  0
    0.2681   -1.2670    1.1506 H   0  0  0  0  0  0  0  0  0  0  0  0
    1.3068    0.1570    0.9025 H   0  0  0  0  0  0  0  0  0  0  0  0
    0.8679    2.2119    2.0295 H   0  0  0  0  0  0  0  0  0  0  0  0
   -0.3095    3.3869    3.8451 H   0  0  0  0  0  0  0  0  0  0  0  0
   -2.2827    2.3593    4.9004 H   0  0  0  0  0  0  0  0  0  0  0  0
   -3.0791    0.1570    4.1395 H   0  0  0  0  0  0  0  0  0  0  0  0
   -1.9067   -1.0143    2.3183 H   0  0  0  0  0  0  0  0  0  0  0  0
   -0.7040   -2.4712   -0.7979 H   0  0  0  0  0  0  0  0  0  0  0  0
    0.6464   -2.6900   -1.9367 H   0  0  0  0  0  0  0  0  0  0  0  0
    0.9725   -2.2451   -0.2443 H   0  0  0  0  0  0  0  0  0  0  0  0
   -1.4588   -0.9976   -2.6762 H   0  0  0  0  0  0  0  0  0  0  0  0
   -0.6197    0.5545   -2.9111 H   0  0  0  0  0  0  0  0  0  0  0  0
    1.5169   -2.0049   -5.4448 H   0  0  0  0  0  0  0  0  0  0  0  0
  1  2  1  0  0  0  0
  1 16  1  0  0  0  0
  1 17  1  0  0  0  0
  1 18  1  0  0  0  0
  2  3  1  1  0  0  0
  2  4  1  0  0  0  0
  2 11  1  0  0  0  0
  4  5  1  0  0  0  0
  4 19  1  0  0  0  0
  4 20  1  0  0  0  0
  5 10  2  0  0  0  0
  5  6  1  0  0  0  0
  6  7  2  0  0  0  0
  6 21  1  0  0  0  0
  7  8  1  0  0  0  0
  7 22  1  0  0  0  0
  8  9  2  0  0  0  0
  8 23  1  0  0  0  0
  9 10  1  0  0  0  0
  9 24  1  0  0  0  0
 10 25  1  0  0  0  0
 11 12  1  0  0  0  0
 11 13  1  0  0  0  0
 12 26  1  0  0  0  0
 12 27  1  0  0  0  0
 12 28  1  0  0  0  0
 13 14  1  0  0  0  0
 13 29  1  0  0  0  0
 13 30  1  0  0  0  0
 14 15  3  0  0  0  0
 15 31  1  0  0  0  0
M  END
$$$$
