ZINC13916432
 OpenBabel08292219463D

 73 76  0  0  1  0  0  0  0  0999 V2000
    2.6631   -4.2104    0.2778 C   0  0  0  0  0  0  0  0  0  0  0  0
    1.7182   -3.0071    0.2635 C   0  0  0  0  0  0  0  0  0  0  0  0
    1.5527   -2.5058   -1.1725 C   0  0  0  0  0  0  0  0  0  0  0  0
    0.6221   -1.3205   -1.1866 C   0  0  0  0  0  0  0  0  0  0  0  0
    1.0078    0.0273   -1.0519 C   0  0  0  0  0  0  0  0  0  0  0  0
   -0.1617    0.7956   -1.1197 C   0  0  0  0  0  0  0  0  0  0  0  0
   -0.0607    2.2018   -1.0098 C   0  0  0  0  0  0  0  0  0  0  0  0
   -1.0542    2.9055   -1.0688 O   0  0  0  0  0  0  0  0  0  0  0  0
    1.1647    2.7470   -0.8434 N   0  0  0  0  0  0  0  0  0  0  0  0
    1.2584    3.7094   -0.7659 H   0  0  0  0  0  0  0  0  0  0  0  0
    2.2740    1.9477   -0.7846 C   0  0  0  0  0  0  0  0  0  0  0  0
    2.1957    0.6429   -0.8847 N   0  0  0  0  0  0  0  0  0  0  0  0
    3.5988    2.5737   -0.6029 C   0  0  0  0  0  0  0  0  0  0  0  0
    3.7106    3.9612   -0.4935 C   0  0  0  0  0  0  0  0  0  0  0  0
    4.9503    4.5397   -0.3235 C   0  0  0  0  0  0  0  0  0  0  0  0
    6.0866    3.7505   -0.2611 C   0  0  0  0  0  0  0  0  0  0  0  0
    5.9896    2.3768   -0.3684 C   0  0  0  0  0  0  0  0  0  0  0  0
    4.7500    1.7785   -0.5335 C   0  0  0  0  0  0  0  0  0  0  0  0
    4.6527    0.4283   -0.6331 O   0  0  0  0  0  0  0  0  0  0  0  0
    5.8691   -0.3174   -0.5535 C   0  0  0  0  0  0  0  0  0  0  0  0
    5.5615   -1.8104   -0.6848 C   0  0  0  0  0  0  0  0  0  0  0  0
    6.8639   -2.6088   -0.5995 C   0  0  0  0  0  0  0  0  0  0  0  0
    5.0897    6.2907   -0.1856 S   0  0  0  0  0  0  0  0  0  0  0  0
    6.4136    6.6250   -0.5792 O   0  0  0  0  0  0  0  0  0  0  0  0
    3.9441    6.8407   -0.8215 O   0  0  0  0  0  0  0  0  0  0  0  0
    4.9649    6.6668    1.4223 N   0  0  0  0  0  0  0  0  0  0  0  0
    5.9927    6.2133    2.3626 C   0  0  0  0  0  0  0  0  0  0  0  0
    5.8572    6.9843    3.6771 C   0  0  0  0  0  0  0  0  0  0  0  0
    7.0146    6.6145    4.6070 C   0  0  1  0  0  0  0  0  0  0  0  0
    7.9695    6.8181    4.1225 H   0  0  0  0  0  0  0  0  0  0  0  0
    6.9076    7.3979    5.9390 C   0  0  0  0  0  0  0  0  0  0  0  0
    7.6988    6.4772    6.9070 C   0  0  0  0  0  0  0  0  0  0  0  0
    7.3554    5.0605    6.4005 C   0  0  0  0  0  0  0  0  0  0  0  0
    7.7528    4.3533    4.1144 C   0  0  0  0  0  0  0  0  0  0  0  0
   -1.2016   -0.0757   -1.2890 N   0  0  0  0  0  0  0  0  0  0  0  0
   -0.6751   -1.3735   -1.3253 N   0  0  0  0  0  0  0  0  0  0  0  0
   -2.6165    0.2841   -1.4106 C   0  0  0  0  0  0  0  0  0  0  0  0
    2.2468   -5.0067   -0.3393 H   0  0  0  0  0  0  0  0  0  0  0  0
    3.6346   -3.9143   -0.1178 H   0  0  0  0  0  0  0  0  0  0  0  0
    2.7810   -4.5676    1.3009 H   0  0  0  0  0  0  0  0  0  0  0  0
    2.1345   -2.2109    0.8806 H   0  0  0  0  0  0  0  0  0  0  0  0
    0.7467   -3.3033    0.6592 H   0  0  0  0  0  0  0  0  0  0  0  0
    1.1364   -3.3020   -1.7896 H   0  0  0  0  0  0  0  0  0  0  0  0
    2.5242   -2.2096   -1.5682 H   0  0  0  0  0  0  0  0  0  0  0  0
    2.8269    4.5803   -0.5417 H   0  0  0  0  0  0  0  0  0  0  0  0
    7.0541    4.2117   -0.1281 H   0  0  0  0  0  0  0  0  0  0  0  0
    6.8802    1.7679   -0.3196 H   0  0  0  0  0  0  0  0  0  0  0  0
    6.5361   -0.0116   -1.3595 H   0  0  0  0  0  0  0  0  0  0  0  0
    6.3490   -0.1283    0.4068 H   0  0  0  0  0  0  0  0  0  0  0  0
    4.8945   -2.1162    0.1212 H   0  0  0  0  0  0  0  0  0  0  0  0
    5.0816   -1.9994   -1.6450 H   0  0  0  0  0  0  0  0  0  0  0  0
    6.6448   -3.6724   -0.6931 H   0  0  0  0  0  0  0  0  0  0  0  0
    7.5309   -2.3030   -1.4055 H   0  0  0  0  0  0  0  0  0  0  0  0
    7.3438   -2.4198    0.3607 H   0  0  0  0  0  0  0  0  0  0  0  0
    4.2111    7.1872    1.7415 H   0  0  0  0  0  0  0  0  0  0  0  0
    5.8671    5.1473    2.5520 H   0  0  0  0  0  0  0  0  0  0  0  0
    6.9797    6.3928    1.9362 H   0  0  0  0  0  0  0  0  0  0  0  0
    5.8818    8.0551    3.4746 H   0  0  0  0  0  0  0  0  0  0  0  0
    4.9115    6.7264    4.1538 H   0  0  0  0  0  0  0  0  0  0  0  0
    7.3797    8.3768    5.8553 H   0  0  0  0  0  0  0  0  0  0  0  0
    5.8684    7.4929    6.2538 H   0  0  0  0  0  0  0  0  0  0  0  0
    7.3580    6.6126    7.9335 H   0  0  0  0  0  0  0  0  0  0  0  0
    8.7697    6.6650    6.8300 H   0  0  0  0  0  0  0  0  0  0  0  0
    6.5461    4.6395    6.9970 H   0  0  0  0  0  0  0  0  0  0  0  0
    8.2343    4.4187    6.4628 H   0  0  0  0  0  0  0  0  0  0  0  0
    8.8049    4.5966    4.2626 H   0  0  0  0  0  0  0  0  0  0  0  0
    7.5860    3.3025    4.3512 H   0  0  0  0  0  0  0  0  0  0  0  0
    7.4796    4.5396    3.0758 H   0  0  0  0  0  0  0  0  0  0  0  0
   -2.8616    0.4452   -2.4604 H   0  0  0  0  0  0  0  0  0  0  0  0
   -3.2321   -0.5230   -1.0135 H   0  0  0  0  0  0  0  0  0  0  0  0
   -2.8087    1.1979   -0.8483 H   0  0  0  0  0  0  0  0  0  0  0  0
    6.9115    5.1960    5.0037 N   0  3  2  0  0  0  0  0  0  0  0  0
    5.9338    4.8920    4.9270 H   0  0  0  0  0  0  0  0  0  0  0  0
  1  2  1  0  0  0  0
  1 38  1  0  0  0  0
  1 39  1  0  0  0  0
  1 40  1  0  0  0  0
  2  3  1  0  0  0  0
  2 41  1  0  0  0  0
  2 42  1  0  0  0  0
  3  4  1  0  0  0  0
  3 43  1  0  0  0  0
  3 44  1  0  0  0  0
  4 36  2  0  0  0  0
  4  5  1  0  0  0  0
  5 12  1  0  0  0  0
  5  6  2  0  0  0  0
  6  7  1  0  0  0  0
  6 35  1  0  0  0  0
  7  8  2  0  0  0  0
  7  9  1  0  0  0  0
  9 10  1  0  0  0  0
  9 11  1  0  0  0  0
 11 12  2  0  0  0  0
 11 13  1  0  0  0  0
 13 18  2  0  0  0  0
 13 14  1  0  0  0  0
 14 15  2  0  0  0  0
 14 45  1  0  0  0  0
 15 16  1  0  0  0  0
 15 23  1  0  0  0  0
 16 17  2  0  0  0  0
 16 46  1  0  0  0  0
 17 18  1  0  0  0  0
 17 47  1  0  0  0  0
 18 19  1  0  0  0  0
 19 20  1  0  0  0  0
 20 21  1  0  0  0  0
 20 48  1  0  0  0  0
 20 49  1  0  0  0  0
 21 22  1  0  0  0  0
 21 50  1  0  0  0  0
 21 51  1  0  0  0  0
 22 52  1  0  0  0  0
 22 53  1  0  0  0  0
 22 54  1  0  0  0  0
 23 24  2  0  0  0  0
 23 25  2  0  0  0  0
 23 26  1  0  0  0  0
 26 27  1  0  0  0  0
 26 55  1  0  0  0  0
 27 28  1  0  0  0  0
 27 56  1  0  0  0  0
 27 57  1  0  0  0  0
 28 29  1  0  0  0  0
 28 58  1  0  0  0  0
 28 59  1  0  0  0  0
 29 30  1  6  0  0  0
 29 31  1  0  0  0  0
 29 72  1  0  0  0  0
 31 32  1  0  0  0  0
 31 60  1  0  0  0  0
 31 61  1  0  0  0  0
 32 33  1  0  0  0  0
 32 62  1  0  0  0  0
 32 63  1  0  0  0  0
 33 64  1  0  0  0  0
 33 65  1  0  0  0  0
 33 72  1  0  0  0  0
 34 66  1  0  0  0  0
 34 67  1  0  0  0  0
 34 68  1  0  0  0  0
 34 72  1  0  0  0  0
 35 36  1  0  0  0  0
 35 37  1  0  0  0  0
 37 69  1  0  0  0  0
 37 70  1  0  0  0  0
 37 71  1  0  0  0  0
 72 73  1  6  0  0  0
M  CHG  1  72   1
M  END
$$$$
