ZINC85205448
 OpenBabel08292219463D

 43 44  0  0  1  0  0  0  0  0999 V2000
   -0.4974    1.6827   -0.2113 C   0  0  0  0  0  0  0  0  0  0  0  0
   -0.3439    0.1845   -0.1583 C   0  0  0  0  0  0  0  0  0  0  0  0
   -1.4269   -0.5992   -0.2992 C   0  0  0  0  0  0  0  0  0  0  0  0
   -1.3198   -2.0974   -0.2627 C   0  0  2  0  0  0  0  0  0  0  0  0
   -0.0031   -2.5225    0.3228 C   0  0  0  0  0  0  0  0  0  0  0  0
    1.0226   -1.6616    0.4396 C   0  0  0  0  0  0  0  0  0  0  0  0
    0.8969   -0.3615    0.0270 N   0  0  0  0  0  0  0  0  0  0  0  0
    2.3279   -2.1342    1.0260 C   0  0  0  0  0  0  0  0  0  0  0  0
    0.1605   -3.8570    0.7609 C   0  0  0  0  0  0  0  0  0  0  0  0
   -0.3351   -4.2174    1.8122 O   0  0  0  0  0  0  0  0  0  0  0  0
    0.8664   -4.7310    0.0131 O   0  0  0  0  0  0  0  0  0  0  0  0
    0.9913   -6.0625    0.5165 C   0  0  0  0  0  0  0  0  0  0  0  0
   -1.4369   -2.6375   -1.6647 C   0  0  0  0  0  0  0  0  0  0  0  0
   -0.5842   -2.1836   -2.6538 C   0  0  0  0  0  0  0  0  0  0  0  0
   -0.6916   -2.6790   -3.9397 C   0  0  0  0  0  0  0  0  0  0  0  0
   -1.6515   -3.6287   -4.2367 C   0  0  0  0  0  0  0  0  0  0  0  0
   -2.5033   -4.0831   -3.2476 C   0  0  0  0  0  0  0  0  0  0  0  0
   -2.3930   -3.5907   -1.9604 C   0  0  0  0  0  0  0  0  0  0  0  0
   -3.3020   -4.0811   -0.9001 N   0  0  0  0  0  4  0  0  0  0  0  0
   -2.8768   -4.2878    0.2126 O   0  0  0  0  0  0  0  0  0  0  0  0
   -4.4696   -4.2748   -1.1467 O   0  5  0  0  0  0  0  0  0  0  0  0
   -2.6944   -0.0007   -0.4863 C   0  0  0  0  0  0  0  0  0  0  0  0
   -2.7960    1.2115   -0.5183 O   0  0  0  0  0  0  0  0  0  0  0  0
   -3.7912   -0.7738   -0.6293 O   0  0  0  0  0  0  0  0  0  0  0  0
   -5.0388   -0.1020   -0.8146 C   0  0  0  0  0  0  0  0  0  0  0  0
    0.4779    2.1526   -0.0846 H   0  0  0  0  0  0  0  0  0  0  0  0
   -0.9171    1.9711   -1.1751 H   0  0  0  0  0  0  0  0  0  0  0  0
   -1.1640    2.0081    0.5873 H   0  0  0  0  0  0  0  0  0  0  0  0
   -2.1298   -2.5004    0.3452 H   0  0  0  0  0  0  0  0  0  0  0  0
    1.6891    0.1754   -0.1309 H   0  0  0  0  0  0  0  0  0  0  0  0
    2.9951   -2.4468    0.2227 H   0  0  0  0  0  0  0  0  0  0  0  0
    2.7899   -1.3214    1.5864 H   0  0  0  0  0  0  0  0  0  0  0  0
    2.1429   -2.9762    1.6930 H   0  0  0  0  0  0  0  0  0  0  0  0
    1.4880   -6.0392    1.4865 H   0  0  0  0  0  0  0  0  0  0  0  0
    0.0008   -6.5040    0.6260 H   0  0  0  0  0  0  0  0  0  0  0  0
    1.5806   -6.6601   -0.1791 H   0  0  0  0  0  0  0  0  0  0  0  0
    0.1656   -1.4418   -2.4218 H   0  0  0  0  0  0  0  0  0  0  0  0
   -0.0260   -2.3240   -4.7125 H   0  0  0  0  0  0  0  0  0  0  0  0
   -1.7358   -4.0153   -5.2416 H   0  0  0  0  0  0  0  0  0  0  0  0
   -3.2534   -4.8247   -3.4797 H   0  0  0  0  0  0  0  0  0  0  0  0
   -5.8362   -0.8381   -0.9161 H   0  0  0  0  0  0  0  0  0  0  0  0
   -5.2398    0.5352    0.0466 H   0  0  0  0  0  0  0  0  0  0  0  0
   -4.9918    0.5094   -1.7158 H   0  0  0  0  0  0  0  0  0  0  0  0
  1  2  1  0  0  0  0
  1 26  1  0  0  0  0
  1 27  1  0  0  0  0
  1 28  1  0  0  0  0
  2  7  1  0  0  0  0
  2  3  2  0  0  0  0
  3  4  1  0  0  0  0
  3 22  1  0  0  0  0
  4  5  1  0  0  0  0
  4 13  1  0  0  0  0
  4 29  1  1  0  0  0
  5  6  2  0  0  0  0
  5  9  1  0  0  0  0
  6  7  1  0  0  0  0
  6  8  1  0  0  0  0
  7 30  1  0  0  0  0
  8 31  1  0  0  0  0
  8 32  1  0  0  0  0
  8 33  1  0  0  0  0
  9 10  2  0  0  0  0
  9 11  1  0  0  0  0
 11 12  1  0  0  0  0
 12 34  1  0  0  0  0
 12 35  1  0  0  0  0
 12 36  1  0  0  0  0
 13 18  2  0  0  0  0
 13 14  1  0  0  0  0
 14 15  2  0  0  0  0
 14 37  1  0  0  0  0
 15 16  1  0  0  0  0
 15 38  1  0  0  0  0
 16 17  2  0  0  0  0
 16 39  1  0  0  0  0
 17 18  1  0  0  0  0
 17 40  1  0  0  0  0
 18 19  1  0  0  0  0
 19 20  2  0  0  0  0
 19 21  1  0  0  0  0
 22 23  2  0  0  0  0
 22 24  1  0  0  0  0
 24 25  1  0  0  0  0
 25 41  1  0  0  0  0
 25 42  1  0  0  0  0
 25 43  1  0  0  0  0
M  CHG  1  21  -1
M  END
$$$$
