ZINC27428713
 OpenBabel08292219463D

 58 61  0  0  1  0  0  0  0  0999 V2000
   -0.0187    1.5258    0.0104 C   0  0  0  0  0  0  0  0  0  0  0  0
    0.0021   -0.0041    0.0020 C   0  0  2  0  0  0  0  0  0  0  0  0
    0.5293   -0.3651    0.8851 H   0  0  0  0  0  0  0  0  0  0  0  0
    0.7074   -0.4901   -1.2379 C   0  0  0  0  0  0  0  0  0  0  0  0
    0.0376   -0.5216   -2.4467 C   0  0  0  0  0  0  0  0  0  0  0  0
    0.6846   -0.9674   -3.5840 C   0  0  0  0  0  0  0  0  0  0  0  0
    2.0016   -1.3812   -3.5126 C   0  0  0  0  0  0  0  0  0  0  0  0
    2.6718   -1.3488   -2.3040 C   0  0  0  0  0  0  0  0  0  0  0  0
    2.0261   -0.8990   -1.1675 C   0  0  0  0  0  0  0  0  0  0  0  0
    4.1074   -1.8004   -2.2261 C   0  0  0  0  0  0  0  0  0  0  0  0
    4.5388   -2.2041   -3.4942 F   0  0  0  0  0  0  0  0  0  0  0  0
    4.9053   -0.7427   -1.7769 F   0  0  0  0  0  0  0  0  0  0  0  0
    4.2109   -2.8738   -1.3348 F   0  0  0  0  0  0  0  0  0  0  0  0
   -0.0460   -1.0027   -4.9016 C   0  0  0  0  0  0  0  0  0  0  0  0
    0.1281    0.2171   -5.5641 F   0  0  0  0  0  0  0  0  0  0  0  0
    0.4650   -2.0389   -5.6905 F   0  0  0  0  0  0  0  0  0  0  0  0
   -1.4091   -1.2191   -4.6733 F   0  0  0  0  0  0  0  0  0  0  0  0
   -1.3386   -0.4987    0.0122 O   0  0  0  0  0  0  0  0  0  0  0  0
   -1.8714   -0.7069    1.3217 C   0  0  2  0  0  0  0  0  0  0  0  0
   -1.1661   -1.2909    1.9129 H   0  0  0  0  0  0  0  0  0  0  0  0
   -3.1999   -1.4608    1.2191 C   0  0  1  0  0  0  0  0  0  0  0  0
   -3.5797   -1.6668    2.2198 H   0  0  0  0  0  0  0  0  0  0  0  0
   -4.1706   -0.6353    0.4859 N   0  0  0  0  0  0  0  0  0  0  0  0
   -4.3737    0.6541    1.1621 C   0  0  0  0  0  0  0  0  0  0  0  0
   -3.0334    1.3869    1.2652 C   0  0  0  0  0  0  0  0  0  0  0  0
   -2.0928    0.5568    1.9536 O   0  0  0  0  0  0  0  0  0  0  0  0
   -5.4444   -1.3469    0.3156 C   0  0  0  0  0  0  0  0  0  0  0  0
   -6.3228   -0.5825   -0.6411 C   0  0  0  0  0  0  0  0  0  0  0  0
   -7.5859   -0.9513   -1.0351 N   0  0  0  0  0  0  0  0  0  0  0  0
   -8.0510   -0.0212   -1.8930 C   0  0  0  0  0  0  0  0  0  0  0  0
   -7.0899    0.9158   -2.0322 N   0  0  0  0  0  0  0  0  0  0  0  0
   -7.1374    1.7100   -2.5870 H   0  0  0  0  0  0  0  0  0  0  0  0
   -6.0128    0.5316   -1.2216 N   0  0  0  0  0  0  0  0  0  0  0  0
   -9.1384   -0.0261   -2.4421 O   0  0  0  0  0  0  0  0  0  0  0  0
   -2.9861   -2.7594    0.4849 C   0  0  0  0  0  0  0  0  0  0  0  0
   -2.9086   -2.7678   -0.8954 C   0  0  0  0  0  0  0  0  0  0  0  0
   -2.7121   -3.9579   -1.5697 C   0  0  0  0  0  0  0  0  0  0  0  0
   -2.5930   -5.1423   -0.8625 C   0  0  0  0  0  0  0  0  0  0  0  0
   -2.6709   -5.1327    0.5199 C   0  0  0  0  0  0  0  0  0  0  0  0
   -2.8621   -3.9406    1.1924 C   0  0  0  0  0  0  0  0  0  0  0  0
   -2.4014   -6.3064   -1.5207 F   0  0  0  0  0  0  0  0  0  0  0  0
    1.0039    1.9031    0.0027 H   0  0  0  0  0  0  0  0  0  0  0  0
   -0.5459    1.8868   -0.8726 H   0  0  0  0  0  0  0  0  0  0  0  0
   -0.5289    1.8773    0.9072 H   0  0  0  0  0  0  0  0  0  0  0  0
   -0.9914   -0.1983   -2.5024 H   0  0  0  0  0  0  0  0  0  0  0  0
    2.5069   -1.7302   -4.4010 H   0  0  0  0  0  0  0  0  0  0  0  0
    2.5507   -0.8702   -0.2240 H   0  0  0  0  0  0  0  0  0  0  0  0
   -5.0761    1.2591    0.5888 H   0  0  0  0  0  0  0  0  0  0  0  0
   -4.7723    0.4820    2.1619 H   0  0  0  0  0  0  0  0  0  0  0  0
   -2.6608    1.6066    0.2647 H   0  0  0  0  0  0  0  0  0  0  0  0
   -3.1688    2.3175    1.8164 H   0  0  0  0  0  0  0  0  0  0  0  0
   -5.2535   -2.3432   -0.0833 H   0  0  0  0  0  0  0  0  0  0  0  0
   -5.9451   -1.4315    1.2801 H   0  0  0  0  0  0  0  0  0  0  0  0
   -8.0617   -1.7456   -0.7459 H   0  0  0  0  0  0  0  0  0  0  0  0
   -3.0019   -1.8439   -1.4469 H   0  0  0  0  0  0  0  0  0  0  0  0
   -2.6519   -3.9643   -2.6480 H   0  0  0  0  0  0  0  0  0  0  0  0
   -2.5784   -6.0559    1.0726 H   0  0  0  0  0  0  0  0  0  0  0  0
   -2.9184   -3.9322    2.2709 H   0  0  0  0  0  0  0  0  0  0  0  0
  1  2  1  0  0  0  0
  1 42  1  0  0  0  0
  1 43  1  0  0  0  0
  1 44  1  0  0  0  0
  2  3  1  1  0  0  0
  2  4  1  0  0  0  0
  2 18  1  0  0  0  0
  4  9  2  0  0  0  0
  4  5  1  0  0  0  0
  5  6  2  0  0  0  0
  5 45  1  0  0  0  0
  6  7  1  0  0  0  0
  6 14  1  0  0  0  0
  7  8  2  0  0  0  0
  7 46  1  0  0  0  0
  8  9  1  0  0  0  0
  8 10  1  0  0  0  0
  9 47  1  0  0  0  0
 10 11  1  0  0  0  0
 10 12  1  0  0  0  0
 10 13  1  0  0  0  0
 14 15  1  0  0  0  0
 14 16  1  0  0  0  0
 14 17  1  0  0  0  0
 18 19  1  0  0  0  0
 19 20  1  1  0  0  0
 19 26  1  0  0  0  0
 19 21  1  0  0  0  0
 21 22  1  1  0  0  0
 21 23  1  0  0  0  0
 21 35  1  0  0  0  0
 23 24  1  0  0  0  0
 23 27  1  0  0  0  0
 24 25  1  0  0  0  0
 24 48  1  0  0  0  0
 24 49  1  0  0  0  0
 25 26  1  0  0  0  0
 25 50  1  0  0  0  0
 25 51  1  0  0  0  0
 27 52  1  0  0  0  0
 27 53  1  0  0  0  0
 27 28  1  0  0  0  0
 28 29  1  0  0  0  0
 28 33  2  0  0  0  0
 29 30  1  0  0  0  0
 29 54  1  0  0  0  0
 30 34  2  0  0  0  0
 30 31  1  0  0  0  0
 31 33  1  0  0  0  0
 31 32  1  0  0  0  0
 35 40  2  0  0  0  0
 35 36  1  0  0  0  0
 36 37  2  0  0  0  0
 36 55  1  0  0  0  0
 37 38  1  0  0  0  0
 37 56  1  0  0  0  0
 38 39  2  0  0  0  0
 38 41  1  0  0  0  0
 39 40  1  0  0  0  0
 39 57  1  0  0  0  0
 40 58  1  0  0  0  0
M  END
$$$$
