ZINC19361042
 OpenBabel08292219463D

 56 59  0  0  1  0  0  0  0  0999 V2000
    1.2897    1.6847   -0.9623 C   0  0  0  0  0  0  0  0  0  0  0  0
    1.1187    0.1908   -0.8615 C   0  0  0  0  0  0  0  0  0  0  0  0
    1.1539   -0.5876   -2.0036 C   0  0  0  0  0  0  0  0  0  0  0  0
    0.9970   -1.9577   -1.9112 C   0  0  0  0  0  0  0  0  0  0  0  0
    0.8054   -2.5498   -0.6766 C   0  0  0  0  0  0  0  0  0  0  0  0
    0.7712   -1.7718    0.4652 C   0  0  0  0  0  0  0  0  0  0  0  0
    0.9323   -0.4017    0.3732 C   0  0  0  0  0  0  0  0  0  0  0  0
    0.5618   -2.4171    1.8108 C   0  0  0  0  0  0  0  0  0  0  0  0
    1.8635   -2.7750    2.3901 N   0  3  2  0  0  0  0  0  0  0  0  0
    2.5027   -3.8037    1.5591 C   0  0  0  0  0  0  0  0  0  0  0  0
    3.8670   -4.1632    2.1517 C   0  0  0  0  0  0  0  0  0  0  0  0
    3.6868   -4.6593    3.5234 N   0  0  0  0  0  0  0  0  0  0  0  0
    3.0252   -3.6490    4.3611 C   0  0  0  0  0  0  0  0  0  0  0  0
    1.6678   -3.2937    3.7503 C   0  0  0  0  0  0  0  0  0  0  0  0
    4.9707   -5.0691    4.1079 C   0  0  2  0  0  0  0  0  0  0  0  0
    5.6384   -4.2090    4.1575 H   0  0  0  0  0  0  0  0  0  0  0  0
    5.5940   -6.1402    3.2504 C   0  0  0  0  0  0  0  0  0  0  0  0
    4.8211   -7.1845    2.7783 C   0  0  0  0  0  0  0  0  0  0  0  0
    5.3929   -8.1670    1.9917 C   0  0  0  0  0  0  0  0  0  0  0  0
    6.7375   -8.1049    1.6769 C   0  0  0  0  0  0  0  0  0  0  0  0
    7.5102   -7.0601    2.1483 C   0  0  0  0  0  0  0  0  0  0  0  0
    6.9375   -6.0753    2.9313 C   0  0  0  0  0  0  0  0  0  0  0  0
    4.7413   -5.6076    5.4966 C   0  0  0  0  0  0  0  0  0  0  0  0
    3.6872   -6.4687    5.7384 C   0  0  0  0  0  0  0  0  0  0  0  0
    3.4763   -6.9629    7.0118 C   0  0  0  0  0  0  0  0  0  0  0  0
    4.3204   -6.5957    8.0446 C   0  0  0  0  0  0  0  0  0  0  0  0
    5.3751   -5.7339    7.8021 C   0  0  0  0  0  0  0  0  0  0  0  0
    5.5884   -5.2447    6.5270 C   0  0  0  0  0  0  0  0  0  0  0  0
    4.0557   -7.2156    9.6444 Cl  0  0  0  0  0  0  0  0  0  0  0  0
    2.3478    1.9352   -0.8858 H   0  0  0  0  0  0  0  0  0  0  0  0
    0.9028    2.0308   -1.9208 H   0  0  0  0  0  0  0  0  0  0  0  0
    0.7423    2.1684   -0.1534 H   0  0  0  0  0  0  0  0  0  0  0  0
    1.3035   -0.1251   -2.9680 H   0  0  0  0  0  0  0  0  0  0  0  0
    1.0238   -2.5657   -2.8034 H   0  0  0  0  0  0  0  0  0  0  0  0
    0.6821   -3.6204   -0.6044 H   0  0  0  0  0  0  0  0  0  0  0  0
    0.9093    0.2059    1.2658 H   0  0  0  0  0  0  0  0  0  0  0  0
    0.0491   -1.7192    2.4727 H   0  0  0  0  0  0  0  0  0  0  0  0
   -0.0427   -3.3164    1.6924 H   0  0  0  0  0  0  0  0  0  0  0  0
    1.8725   -4.6927    1.5326 H   0  0  0  0  0  0  0  0  0  0  0  0
    2.6355   -3.4222    0.5467 H   0  0  0  0  0  0  0  0  0  0  0  0
    4.3351   -4.9373    1.5435 H   0  0  0  0  0  0  0  0  0  0  0  0
    4.5022   -3.2776    2.1657 H   0  0  0  0  0  0  0  0  0  0  0  0
    2.8791   -4.0479    5.3649 H   0  0  0  0  0  0  0  0  0  0  0  0
    3.6465   -2.7549    4.4115 H   0  0  0  0  0  0  0  0  0  0  0  0
    1.1816   -2.5341    4.3624 H   0  0  0  0  0  0  0  0  0  0  0  0
    1.0419   -4.1853    3.7125 H   0  0  0  0  0  0  0  0  0  0  0  0
    3.7706   -7.2330    3.0243 H   0  0  0  0  0  0  0  0  0  0  0  0
    4.7892   -8.9832    1.6235 H   0  0  0  0  0  0  0  0  0  0  0  0
    7.1843   -8.8728    1.0630 H   0  0  0  0  0  0  0  0  0  0  0  0
    8.5607   -7.0117    1.9026 H   0  0  0  0  0  0  0  0  0  0  0  0
    7.5403   -5.2570    3.2965 H   0  0  0  0  0  0  0  0  0  0  0  0
    3.0281   -6.7550    4.9321 H   0  0  0  0  0  0  0  0  0  0  0  0
    2.6525   -7.6353    7.2006 H   0  0  0  0  0  0  0  0  0  0  0  0
    6.0342   -5.4466    8.6080 H   0  0  0  0  0  0  0  0  0  0  0  0
    6.4146   -4.5758    6.3366 H   0  0  0  0  0  0  0  0  0  0  0  0
    2.4527   -1.9566    2.4240 H   0  0  0  0  0  0  0  0  0  0  0  0
  1  2  1  0  0  0  0
  1 30  1  0  0  0  0
  1 31  1  0  0  0  0
  1 32  1  0  0  0  0
  2  7  2  0  0  0  0
  2  3  1  0  0  0  0
  3  4  2  0  0  0  0
  3 33  1  0  0  0  0
  4  5  1  0  0  0  0
  4 34  1  0  0  0  0
  5  6  2  0  0  0  0
  5 35  1  0  0  0  0
  6  7  1  0  0  0  0
  6  8  1  0  0  0  0
  7 36  1  0  0  0  0
  8  9  1  0  0  0  0
  8 37  1  0  0  0  0
  8 38  1  0  0  0  0
  9 14  1  0  0  0  0
  9 10  1  0  0  0  0
  9 56  1  1  0  0  0
 10 11  1  0  0  0  0
 10 39  1  0  0  0  0
 10 40  1  0  0  0  0
 11 12  1  0  0  0  0
 11 41  1  0  0  0  0
 11 42  1  0  0  0  0
 12 13  1  0  0  0  0
 12 15  1  0  0  0  0
 13 14  1  0  0  0  0
 13 43  1  0  0  0  0
 13 44  1  0  0  0  0
 14 45  1  0  0  0  0
 14 46  1  0  0  0  0
 15 16  1  1  0  0  0
 15 17  1  0  0  0  0
 15 23  1  0  0  0  0
 17 22  2  0  0  0  0
 17 18  1  0  0  0  0
 18 19  2  0  0  0  0
 18 47  1  0  0  0  0
 19 20  1  0  0  0  0
 19 48  1  0  0  0  0
 20 21  2  0  0  0  0
 20 49  1  0  0  0  0
 21 22  1  0  0  0  0
 21 50  1  0  0  0  0
 22 51  1  0  0  0  0
 23 28  2  0  0  0  0
 23 24  1  0  0  0  0
 24 25  2  0  0  0  0
 24 52  1  0  0  0  0
 25 26  1  0  0  0  0
 25 53  1  0  0  0  0
 26 27  2  0  0  0  0
 26 29  1  0  0  0  0
 27 28  1  0  0  0  0
 27 54  1  0  0  0  0
 28 55  1  0  0  0  0
M  CHG  1   9   1
M  END
$$$$
