ZINC00020235
 OpenBabel08292219463D

 30 32  0  0  1  0  0  0  0  0999 V2000
   -0.0187    1.5258    0.0104 C   0  0  0  0  0  0  0  0  0  0  0  0
    0.0021   -0.0041    0.0020 C   0  0  1  0  0  0  0  0  0  0  0  0
    0.5293   -0.3651    0.8851 H   0  0  0  0  0  0  0  0  0  0  0  0
   -1.4117   -0.5257    0.0127 C   0  0  0  0  0  0  0  0  0  0  0  0
   -2.2731   -0.1977   -1.0231 C   0  0  0  0  0  0  0  0  0  0  0  0
   -3.5682   -0.6687   -1.0243 C   0  0  0  0  0  0  0  0  0  0  0  0
   -4.0113   -1.4771    0.0199 C   0  0  0  0  0  0  0  0  0  0  0  0
   -5.2981   -2.1317    0.3198 C   0  0  0  0  0  0  0  0  0  0  0  0
   -6.5268   -2.1740   -0.3353 C   0  0  0  0  0  0  0  0  0  0  0  0
   -7.5696   -2.8926    0.2108 C   0  0  0  0  0  0  0  0  0  0  0  0
   -7.3978   -3.5715    1.4086 C   0  0  0  0  0  0  0  0  0  0  0  0
   -6.1872   -3.5373    2.0661 C   0  0  0  0  0  0  0  0  0  0  0  0
   -5.1231   -2.8179    1.5304 C   0  0  0  0  0  0  0  0  0  0  0  0
   -3.8247   -2.6135    1.9638 N   0  0  0  0  0  0  0  0  0  0  0  0
   -3.4478   -2.9812    2.7784 H   0  0  0  0  0  0  0  0  0  0  0  0
   -3.1414   -1.8100    1.0687 C   0  0  0  0  0  0  0  0  0  0  0  0
   -1.8355   -1.3291    1.0491 C   0  0  0  0  0  0  0  0  0  0  0  0
   -9.1021   -2.9475   -0.6028 Cl  0  0  0  0  0  0  0  0  0  0  0  0
    0.7074   -0.4901   -1.2379 C   0  0  0  0  0  0  0  0  0  0  0  0
    1.4615   -1.4461   -1.1751 O   0  0  0  0  0  0  0  0  0  0  0  0
    0.5241    0.0728   -2.3037 O   0  0  0  0  0  1  0  0  0  0  0  0
    1.0039    1.9031    0.0027 H   0  0  0  0  0  0  0  0  0  0  0  0
   -0.5459    1.8868   -0.8726 H   0  0  0  0  0  0  0  0  0  0  0  0
   -0.5289    1.8773    0.9072 H   0  0  0  0  0  0  0  0  0  0  0  0
   -1.9280    0.4295   -1.8318 H   0  0  0  0  0  0  0  0  0  0  0  0
   -4.2375   -0.4117   -1.8320 H   0  0  0  0  0  0  0  0  0  0  0  0
   -6.6624   -1.6455   -1.2673 H   0  0  0  0  0  0  0  0  0  0  0  0
   -8.2200   -4.1312    1.8295 H   0  0  0  0  0  0  0  0  0  0  0  0
   -6.0641   -4.0689    2.9981 H   0  0  0  0  0  0  0  0  0  0  0  0
   -1.1552   -1.5822    1.8487 H   0  0  0  0  0  0  0  0  0  0  0  0
  1  2  1  0  0  0  0
  1 22  1  0  0  0  0
  1 23  1  0  0  0  0
  1 24  1  0  0  0  0
  2  3  1  1  0  0  0
  2  4  1  0  0  0  0
  2 19  1  0  0  0  0
  4 17  2  0  0  0  0
  4  5  1  0  0  0  0
  5  6  2  0  0  0  0
  5 25  1  0  0  0  0
  6  7  1  0  0  0  0
  6 26  1  0  0  0  0
  7 16  2  0  0  0  0
  7  8  1  0  0  0  0
  8 13  2  0  0  0  0
  8  9  1  0  0  0  0
  9 10  2  0  0  0  0
  9 27  1  0  0  0  0
 10 11  1  0  0  0  0
 10 18  1  0  0  0  0
 11 12  2  0  0  0  0
 11 28  1  0  0  0  0
 12 13  1  0  0  0  0
 12 29  1  0  0  0  0
 13 14  1  0  0  0  0
 14 15  1  0  0  0  0
 14 16  1  0  0  0  0
 16 17  1  0  0  0  0
 17 30  1  0  0  0  0
 19 20  2  0  0  0  0
 19 21  1  0  0  0  0
M  END
$$$$
