ZINC04258316
 OpenBabel08292219463D

 26 28  0  0  0  0  0  0  0  0999 V2000
   -0.0178    1.4608    0.0101 C   0  0  0  0  0  0  0  0  0  0  0  0
    0.0021   -0.0041    0.0020 N   0  0  0  0  0  0  0  0  0  0  0  0
    0.0084   -0.7953   -1.0872 C   0  0  0  0  0  0  0  0  0  0  0  0
    0.0272   -2.0776   -0.7485 N   0  0  0  0  0  0  0  0  0  0  0  0
    0.0342   -2.2047    0.5593 C   0  0  0  0  0  0  0  0  0  0  0  0
    0.0238   -0.8272    1.1096 C   0  0  0  0  0  0  0  0  0  0  0  0
    0.0327   -0.3751    2.7067 S   0  0  0  0  0  0  0  0  0  0  0  0
   -1.4320   -1.1016    3.3636 C   0  0  0  0  0  0  0  0  0  0  0  0
   -1.7758   -0.9312    4.7118 C   0  0  0  0  0  0  0  0  0  0  0  0
   -2.9611   -1.5356    5.1859 C   0  0  0  0  0  0  0  0  0  0  0  0
   -3.0600   -1.2228    6.4978 N   0  0  0  0  0  0  0  0  0  0  0  0
   -0.4008    0.2334    5.7839 H   0  0  0  0  0  0  0  0  0  0  0  0
   -2.0429   -0.4874    6.8502 C   0  0  0  0  0  0  0  0  0  0  0  0
   -1.2236   -0.2802    5.7847 N   0  0  0  0  0  0  0  0  0  0  0  0
   -3.7018   -2.2418    4.3345 N   0  0  0  0  0  0  0  0  0  0  0  0
   -3.3366   -2.3743    3.0748 C   0  0  0  0  0  0  0  0  0  0  0  0
   -2.2441   -1.8229    2.5888 N   0  0  0  0  0  0  0  0  0  0  0  0
    0.0541   -3.4922    1.3432 N   0  0  0  0  0  4  0  0  0  0  0  0
    0.0669   -4.6477    0.7114 O   0  0  0  0  0  0  0  0  0  0  0  0
    0.0586   -3.4615    2.6598 O   0  5  0  0  0  0  0  0  0  0  0  0
    1.0048    1.8381    0.0023 H   0  0  0  0  0  0  0  0  0  0  0  0
   -0.5450    1.8219   -0.8730 H   0  0  0  0  0  0  0  0  0  0  0  0
   -0.5280    1.8123    0.9069 H   0  0  0  0  0  0  0  0  0  0  0  0
   -0.0010   -0.4330   -2.1046 H   0  0  0  0  0  0  0  0  0  0  0  0
   -1.8751   -0.0993    7.8440 H   0  0  0  0  0  0  0  0  0  0  0  0
   -3.9621   -2.9548    2.4128 H   0  0  0  0  0  0  0  0  0  0  0  0
  1  2  1  0  0  0  0
  1 21  1  0  0  0  0
  1 22  1  0  0  0  0
  1 23  1  0  0  0  0
  2  6  1  0  0  0  0
  2  3  1  0  0  0  0
  3  4  2  0  0  0  0
  3 24  1  0  0  0  0
  4  5  1  0  0  0  0
  5  6  2  0  0  0  0
  5 18  1  0  0  0  0
  6  7  1  0  0  0  0
  7  8  1  0  0  0  0
  8 17  2  0  0  0  0
  8  9  1  0  0  0  0
  9 10  2  0  0  0  0
  9 14  1  0  0  0  0
 10 11  1  0  0  0  0
 10 15  1  0  0  0  0
 11 13  2  0  0  0  0
 12 14  1  0  0  0  0
 13 25  1  0  0  0  0
 13 14  1  0  0  0  0
 15 16  2  0  0  0  0
 16 26  1  0  0  0  0
 16 17  1  0  0  0  0
 18 19  2  0  0  0  0
 18 20  1  0  0  0  0
M  CHG  1  20  -1
M  END
$$$$
