ZINC00601305
 OpenBabel08292219463D

 40 42  0  0  1  0  0  0  0  0999 V2000
   -0.0187    1.5258    0.0104 C   0  0  0  0  0  0  0  0  0  0  0  0
    0.0021   -0.0041    0.0020 C   0  0  1  0  0  0  0  0  0  0  0  0
   -1.0150   -0.3956    0.0221 H   0  0  0  0  0  0  0  0  0  0  0  0
    0.7480   -0.5206   -1.2392 C   0  0  0  0  0  0  0  0  0  0  0  0
    1.9155   -1.3037   -0.6819 C   0  0  0  0  0  0  0  0  0  0  0  0
    2.9291   -1.9949   -1.3175 C   0  0  0  0  0  0  0  0  0  0  0  0
    3.8990   -2.6426   -0.5756 C   0  0  0  0  0  0  0  0  0  0  0  0
    3.8530   -2.5975    0.8059 C   0  0  0  0  0  0  0  0  0  0  0  0
    2.8439   -1.9093    1.4445 C   0  0  0  0  0  0  0  0  0  0  0  0
    1.8601   -1.2523    0.7020 C   0  0  0  0  0  0  0  0  0  0  0  0
    0.7638   -0.5085    1.1477 N   0  0  0  0  0  0  0  0  0  0  0  0
    0.4401   -0.2776    2.4912 N   0  0  0  0  0  0  0  0  0  0  0  0
   -0.1064   -1.2623    3.2315 C   0  0  0  0  0  0  0  0  0  0  0  0
   -0.3186   -2.3508    2.7336 O   0  0  0  0  0  0  0  0  0  0  0  0
   -0.4478   -1.0188    4.6486 C   0  0  0  0  0  0  0  0  0  0  0  0
   -0.2105    0.2322    5.2217 C   0  0  0  0  0  0  0  0  0  0  0  0
   -0.5310    0.4534    6.5443 C   0  0  0  0  0  0  0  0  0  0  0  0
   -1.0874   -0.5624    7.3043 C   0  0  0  0  0  0  0  0  0  0  0  0
   -1.3247   -1.8054    6.7416 C   0  0  0  0  0  0  0  0  0  0  0  0
   -1.0140   -2.0367    5.4179 C   0  0  0  0  0  0  0  0  0  0  0  0
   -2.0322   -3.0913    7.7164 S   0  0  0  0  0  0  0  0  0  0  0  0
   -3.1639   -2.5312    8.3681 O   0  0  0  0  0  0  0  0  0  0  0  0
   -2.1249   -4.2337    6.8763 O   0  0  0  0  0  0  0  0  0  0  0  0
   -0.9390   -3.4640    8.9032 N   0  0  0  0  0  0  0  0  0  0  0  0
   -1.4883   -0.2763    8.9690 Cl  0  0  0  0  0  0  0  0  0  0  0  0
    1.0039    1.9031    0.0027 H   0  0  0  0  0  0  0  0  0  0  0  0
   -0.5459    1.8868   -0.8726 H   0  0  0  0  0  0  0  0  0  0  0  0
   -0.5289    1.8773    0.9072 H   0  0  0  0  0  0  0  0  0  0  0  0
    0.1011   -1.1702   -1.8288 H   0  0  0  0  0  0  0  0  0  0  0  0
    1.1036    0.3137   -1.8438 H   0  0  0  0  0  0  0  0  0  0  0  0
    2.9634   -2.0294   -2.3964 H   0  0  0  0  0  0  0  0  0  0  0  0
    4.6906   -3.1829   -1.0735 H   0  0  0  0  0  0  0  0  0  0  0  0
    4.6102   -3.1036    1.3864 H   0  0  0  0  0  0  0  0  0  0  0  0
    2.8138   -1.8780    2.5237 H   0  0  0  0  0  0  0  0  0  0  0  0
    0.6095    0.5909    2.8885 H   0  0  0  0  0  0  0  0  0  0  0  0
    0.2236    1.0248    4.6303 H   0  0  0  0  0  0  0  0  0  0  0  0
   -0.3476    1.4205    6.9888 H   0  0  0  0  0  0  0  0  0  0  0  0
   -1.2043   -3.0049    4.9787 H   0  0  0  0  0  0  0  0  0  0  0  0
   -1.2485   -3.7912    9.7623 H   0  0  0  0  0  0  0  0  0  0  0  0
    0.0108   -3.3552    8.7392 H   0  0  0  0  0  0  0  0  0  0  0  0
  1  2  1  0  0  0  0
  1 26  1  0  0  0  0
  1 27  1  0  0  0  0
  1 28  1  0  0  0  0
  2  3  1  1  0  0  0
  2 11  1  0  0  0  0
  2  4  1  0  0  0  0
  4  5  1  0  0  0  0
  4 29  1  0  0  0  0
  4 30  1  0  0  0  0
  5 10  2  0  0  0  0
  5  6  1  0  0  0  0
  6  7  2  0  0  0  0
  6 31  1  0  0  0  0
  7  8  1  0  0  0  0
  7 32  1  0  0  0  0
  8  9  2  0  0  0  0
  8 33  1  0  0  0  0
  9 10  1  0  0  0  0
  9 34  1  0  0  0  0
 10 11  1  0  0  0  0
 11 12  1  0  0  0  0
 12 13  1  0  0  0  0
 12 35  1  0  0  0  0
 13 14  2  0  0  0  0
 13 15  1  0  0  0  0
 15 20  2  0  0  0  0
 15 16  1  0  0  0  0
 16 17  2  0  0  0  0
 16 36  1  0  0  0  0
 17 18  1  0  0  0  0
 17 37  1  0  0  0  0
 18 19  2  0  0  0  0
 18 25  1  0  0  0  0
 19 20  1  0  0  0  0
 19 21  1  0  0  0  0
 20 38  1  0  0  0  0
 21 22  2  0  0  0  0
 21 23  2  0  0  0  0
 21 24  1  0  0  0  0
 24 39  1  0  0  0  0
 24 40  1  0  0  0  0
M  END
$$$$
