ZINC01530710
 OpenBabel08292219463D

 19 19  0  0  0  0  0  0  0  0999 V2000
   -0.0187    1.5258    0.0104 C   0  0  0  0  0  0  0  0  0  0  0  0
    0.0021   -0.0041    0.0020 C   0  0  0  0  0  0  0  0  0  0  0  0
    0.7893   -0.5178   -1.1863 C   0  0  0  0  0  0  0  0  0  0  0  0
    0.5466   -0.3378   -2.3604 O   0  0  0  0  0  0  0  0  0  0  0  0
    1.8173   -1.2167   -0.6631 N   0  0  0  0  0  0  0  0  0  0  0  0
    1.7691   -1.2024    0.6752 C   0  0  0  0  0  0  0  0  0  0  0  0
    2.5806   -1.7587    1.3874 O   0  0  0  0  0  0  0  0  0  0  0  0
    0.7214   -0.5036    1.1396 O   0  0  0  0  0  0  0  0  0  0  0  0
    2.8464   -1.8991   -1.4515 C   0  0  0  0  0  0  0  0  0  0  0  0
   -1.4240   -0.5581   -0.0160 C   0  0  0  0  0  0  0  0  0  0  0  0
    1.0039    1.9031    0.0027 H   0  0  0  0  0  0  0  0  0  0  0  0
   -0.5459    1.8868   -0.8726 H   0  0  0  0  0  0  0  0  0  0  0  0
   -0.5289    1.8773    0.9072 H   0  0  0  0  0  0  0  0  0  0  0  0
    3.6755   -1.2160   -1.6358 H   0  0  0  0  0  0  0  0  0  0  0  0
    3.2074   -2.7689   -0.9026 H   0  0  0  0  0  0  0  0  0  0  0  0
    2.4219   -2.2203   -2.4027 H   0  0  0  0  0  0  0  0  0  0  0  0
   -1.9354   -0.2158   -0.9157 H   0  0  0  0  0  0  0  0  0  0  0  0
   -1.3907   -1.6475   -0.0093 H   0  0  0  0  0  0  0  0  0  0  0  0
   -1.9619   -0.2055    0.8640 H   0  0  0  0  0  0  0  0  0  0  0  0
  1  2  1  0  0  0  0
  1 11  1  0  0  0  0
  1 12  1  0  0  0  0
  1 13  1  0  0  0  0
  2  8  1  0  0  0  0
  2  3  1  0  0  0  0
  2 10  1  0  0  0  0
  3  4  2  0  0  0  0
  3  5  1  0  0  0  0
  5  6  1  0  0  0  0
  5  9  1  0  0  0  0
  6  7  2  0  0  0  0
  6  8  1  0  0  0  0
  9 14  1  0  0  0  0
  9 15  1  0  0  0  0
  9 16  1  0  0  0  0
 10 17  1  0  0  0  0
 10 18  1  0  0  0  0
 10 19  1  0  0  0  0
M  END
$$$$
