ZINC03830953
 OpenBabel08292219463D

 51 51  0  0  1  0  0  0  0  0999 V2000
   13.3014    0.8818    6.6548 C   0  0  0  0  0  0  0  0  0  0  0  0
   12.4611    1.4464    5.5077 C   0  0  0  0  0  0  0  0  0  0  0  0
   11.1164    0.9032    5.5798 O   0  0  0  0  0  0  0  0  0  0  0  0
   10.2469    1.3016    4.6380 C   0  0  0  0  0  0  0  0  0  0  0  0
   10.5978    2.0784    3.7816 O   0  0  0  0  0  0  0  0  0  0  0  0
    8.8331    0.7800    4.6487 C   0  0  0  0  0  0  0  0  0  0  0  0
    8.0571    1.3860    3.4777 C   0  0  0  0  0  0  0  0  0  0  0  0
    6.6217    0.8564    3.4885 C   0  0  0  0  0  0  0  0  0  0  0  0
    5.8456    1.4625    2.3175 C   0  0  0  0  0  0  0  0  0  0  0  0
    4.4102    0.9329    2.3284 C   0  0  0  0  0  0  0  0  0  0  0  0
    3.6341    1.5389    1.1573 C   0  0  0  0  0  0  0  0  0  0  0  0
    2.1988    1.0094    1.1682 C   0  0  0  0  0  0  0  0  0  0  0  0
    1.4227    1.6154   -0.0028 C   0  0  0  0  0  0  0  0  0  0  0  0
   -0.0127    1.0858    0.0080 C   0  0  1  0  0  0  0  0  0  0  0  0
    0.0021   -0.0041    0.0020 H   0  0  0  0  0  0  0  0  0  0  0  0
   -0.7288    1.5792    1.2668 C   0  0  0  0  0  0  0  0  0  0  0  0
   -0.7416    1.5850   -1.2129 C   0  0  0  0  0  0  0  0  0  0  0  0
   -0.8934    2.9434   -1.4201 C   0  0  0  0  0  0  0  0  0  0  0  0
   -1.5577    3.4014   -2.5423 C   0  0  0  0  0  0  0  0  0  0  0  0
   -2.0798    2.5011   -3.4525 C   0  0  0  0  0  0  0  0  0  0  0  0
   -1.9328    1.1429   -3.2432 C   0  0  0  0  0  0  0  0  0  0  0  0
   -1.2635    0.6844   -2.1230 C   0  0  0  0  0  0  0  0  0  0  0  0
   -1.0412   -1.3744   -1.8050 I   0  0  0  0  0  0  0  0  0  0  0  0
   12.8486    1.1580    7.6071 H   0  0  0  0  0  0  0  0  0  0  0  0
   13.3435   -0.2044    6.5740 H   0  0  0  0  0  0  0  0  0  0  0  0
   14.3108    1.2895    6.6006 H   0  0  0  0  0  0  0  0  0  0  0  0
   12.9139    1.1701    4.5554 H   0  0  0  0  0  0  0  0  0  0  0  0
   12.4190    2.5326    5.5885 H   0  0  0  0  0  0  0  0  0  0  0  0
    8.3509    1.0567    5.5862 H   0  0  0  0  0  0  0  0  0  0  0  0
    8.8457   -0.3058    4.5532 H   0  0  0  0  0  0  0  0  0  0  0  0
    8.5393    1.1093    2.5401 H   0  0  0  0  0  0  0  0  0  0  0  0
    8.0445    2.4717    3.5732 H   0  0  0  0  0  0  0  0  0  0  0  0
    6.1394    1.1331    4.4260 H   0  0  0  0  0  0  0  0  0  0  0  0
    6.6342   -0.2293    3.3930 H   0  0  0  0  0  0  0  0  0  0  0  0
    6.3279    1.1858    1.3800 H   0  0  0  0  0  0  0  0  0  0  0  0
    5.8330    2.5482    2.4130 H   0  0  0  0  0  0  0  0  0  0  0  0
    3.9279    1.2096    3.2659 H   0  0  0  0  0  0  0  0  0  0  0  0
    4.4228   -0.1528    2.2328 H   0  0  0  0  0  0  0  0  0  0  0  0
    4.1164    1.2622    0.2198 H   0  0  0  0  0  0  0  0  0  0  0  0
    3.6216    2.6247    1.2528 H   0  0  0  0  0  0  0  0  0  0  0  0
    1.7165    1.2860    2.1057 H   0  0  0  0  0  0  0  0  0  0  0  0
    2.2113   -0.0764    1.0727 H   0  0  0  0  0  0  0  0  0  0  0  0
    1.9050    1.3387   -0.9404 H   0  0  0  0  0  0  0  0  0  0  0  0
    1.4101    2.7011    0.0927 H   0  0  0  0  0  0  0  0  0  0  0  0
   -0.7436    2.6691    1.2728 H   0  0  0  0  0  0  0  0  0  0  0  0
   -1.7514    1.2020    1.2746 H   0  0  0  0  0  0  0  0  0  0  0  0
   -0.2017    1.2182    2.1499 H   0  0  0  0  0  0  0  0  0  0  0  0
   -0.4896    3.6468   -0.7070 H   0  0  0  0  0  0  0  0  0  0  0  0
   -1.6727    4.4627   -2.7061 H   0  0  0  0  0  0  0  0  0  0  0  0
   -2.6027    2.8592   -4.3270 H   0  0  0  0  0  0  0  0  0  0  0  0
   -2.3409    0.4397   -3.9541 H   0  0  0  0  0  0  0  0  0  0  0  0
  1  2  1  0  0  0  0
  1 24  1  0  0  0  0
  1 25  1  0  0  0  0
  1 26  1  0  0  0  0
  2  3  1  0  0  0  0
  2 27  1  0  0  0  0
  2 28  1  0  0  0  0
  3  4  1  0  0  0  0
  4  5  2  0  0  0  0
  4  6  1  0  0  0  0
  6  7  1  0  0  0  0
  6 29  1  0  0  0  0
  6 30  1  0  0  0  0
  7  8  1  0  0  0  0
  7 31  1  0  0  0  0
  7 32  1  0  0  0  0
  8  9  1  0  0  0  0
  8 33  1  0  0  0  0
  8 34  1  0  0  0  0
  9 10  1  0  0  0  0
  9 35  1  0  0  0  0
  9 36  1  0  0  0  0
 10 11  1  0  0  0  0
 10 37  1  0  0  0  0
 10 38  1  0  0  0  0
 11 12  1  0  0  0  0
 11 39  1  0  0  0  0
 11 40  1  0  0  0  0
 12 13  1  0  0  0  0
 12 41  1  0  0  0  0
 12 42  1  0  0  0  0
 13 14  1  0  0  0  0
 13 43  1  0  0  0  0
 13 44  1  0  0  0  0
 14 15  1  6  0  0  0
 14 16  1  0  0  0  0
 14 17  1  0  0  0  0
 16 45  1  0  0  0  0
 16 46  1  0  0  0  0
 16 47  1  0  0  0  0
 17 22  2  0  0  0  0
 17 18  1  0  0  0  0
 18 19  2  0  0  0  0
 18 48  1  0  0  0  0
 19 20  1  0  0  0  0
 19 49  1  0  0  0  0
 20 21  2  0  0  0  0
 20 50  1  0  0  0  0
 21 22  1  0  0  0  0
 21 51  1  0  0  0  0
 22 23  1  0  0  0  0
M  END
$$$$
