ZINC03830247
 OpenBabel08292219463D

 60 62  0  0  1  0  0  0  0  0999 V2000
   -8.1290    1.8607    0.5054 C   0  0  0  0  0  0  0  0  0  0  0  0
   -6.8536    1.0352    0.6867 C   0  0  0  0  0  0  0  0  0  0  0  0
   -6.0220    1.1477   -0.5190 N   0  3  0  0  0  0  0  0  0  0  0  0
   -5.5677    2.5362   -0.6727 C   0  0  0  0  0  0  0  0  0  0  0  0
   -4.6452    2.6393   -1.8889 C   0  0  0  0  0  0  0  0  0  0  0  0
   -4.8566    0.2621   -0.3943 C   0  0  0  0  0  0  0  0  0  0  0  0
   -5.3166   -1.1962   -0.4434 C   0  0  0  0  0  0  0  0  0  0  0  0
   -4.0943   -2.1155   -0.4837 C   0  0  0  0  0  0  0  0  0  0  0  0
   -4.5543   -3.5739   -0.5328 C   0  0  2  0  0  0  0  0  0  0  0  0
   -5.2206   -3.7732    0.3066 H   0  0  0  0  0  0  0  0  0  0  0  0
   -3.3364   -4.4960   -0.4473 C   0  0  0  0  0  0  0  0  0  0  0  0
   -5.2656   -3.8195   -1.7898 N   0  0  0  0  0  0  0  0  0  0  0  0
   -6.6116   -3.5340   -1.8879 C   0  0  0  0  0  0  0  0  0  0  0  0
   -7.5379   -4.0736   -0.9772 C   0  0  0  0  0  0  0  0  0  0  0  0
   -7.1387   -4.9231    0.0681 C   0  0  0  0  0  0  0  0  0  0  0  0
   -8.0745   -5.4182    0.9222 C   0  0  0  0  0  0  0  0  0  0  0  0
   -9.4258   -5.1022    0.7855 C   0  0  0  0  0  0  0  0  0  0  0  0
   -9.8736   -4.2854   -0.2061 C   0  0  0  0  0  0  0  0  0  0  0  0
   -8.9560   -3.7388   -1.1248 C   0  0  0  0  0  0  0  0  0  0  0  0
   -9.3557   -2.9356   -2.1068 N   0  0  0  0  0  0  0  0  0  0  0  0
   -8.4951   -2.4125   -2.9808 C   0  0  0  0  0  3  0  0  0  0  0  0
   -7.1052   -2.6866   -2.9006 C   0  0  0  0  0  0  0  0  0  0  0  0
   -6.2276   -2.1122   -3.8378 C   0  0  0  0  0  0  0  0  0  0  0  0
   -6.7194   -1.2940   -4.8124 C   0  0  0  0  0  0  0  0  0  0  0  0
   -8.0891   -1.0189   -4.8902 C   0  0  0  0  0  0  0  0  0  0  0  0
   -8.9645   -1.5649   -4.0070 C   0  0  0  0  0  0  0  0  0  0  0  0
   -5.8696   -0.7397   -5.7174 O   0  0  0  0  0  0  0  0  0  0  0  0
   -6.4454    0.1079   -6.7134 C   0  0  0  0  0  0  0  0  0  0  0  0
  -10.5673   -5.7694    1.9104 Cl  0  0  0  0  0  0  0  0  0  0  0  0
   -8.7461    1.7772    1.4000 H   0  0  0  0  0  0  0  0  0  0  0  0
   -7.8654    2.9056    0.3421 H   0  0  0  0  0  0  0  0  0  0  0  0
   -8.6842    1.4872   -0.3551 H   0  0  0  0  0  0  0  0  0  0  0  0
   -6.2984    1.4086    1.5472 H   0  0  0  0  0  0  0  0  0  0  0  0
   -7.1173   -0.0097    0.8501 H   0  0  0  0  0  0  0  0  0  0  0  0
   -6.4303    3.1871   -0.8147 H   0  0  0  0  0  0  0  0  0  0  0  0
   -5.0251    2.8421    0.2218 H   0  0  0  0  0  0  0  0  0  0  0  0
   -3.7676    2.0118   -1.7336 H   0  0  0  0  0  0  0  0  0  0  0  0
   -5.1784    2.3046   -2.7787 H   0  0  0  0  0  0  0  0  0  0  0  0
   -4.3324    3.6751   -2.0210 H   0  0  0  0  0  0  0  0  0  0  0  0
   -4.1657    0.4530   -1.2155 H   0  0  0  0  0  0  0  0  0  0  0  0
   -4.3549    0.4531    0.5544 H   0  0  0  0  0  0  0  0  0  0  0  0
   -5.9104   -1.4199    0.4428 H   0  0  0  0  0  0  0  0  0  0  0  0
   -5.9214   -1.3566   -1.3360 H   0  0  0  0  0  0  0  0  0  0  0  0
   -3.5004   -1.8918   -1.3699 H   0  0  0  0  0  0  0  0  0  0  0  0
   -3.4895   -1.9552    0.4089 H   0  0  0  0  0  0  0  0  0  0  0  0
   -3.6656   -5.5350   -0.4623 H   0  0  0  0  0  0  0  0  0  0  0  0
   -2.6799   -4.3106   -1.2975 H   0  0  0  0  0  0  0  0  0  0  0  0
   -2.7961   -4.2994    0.4787 H   0  0  0  0  0  0  0  0  0  0  0  0
   -4.7900   -4.1829   -2.5531 H   0  0  0  0  0  0  0  0  0  0  0  0
   -6.0974   -5.1812    0.1923 H   0  0  0  0  0  0  0  0  0  0  0  0
   -7.7638   -6.0713    1.7244 H   0  0  0  0  0  0  0  0  0  0  0  0
  -10.9261   -4.0577   -0.2887 H   0  0  0  0  0  0  0  0  0  0  0  0
   -5.1686   -2.3178   -3.7859 H   0  0  0  0  0  0  0  0  0  0  0  0
   -8.4570   -0.3678   -5.6694 H   0  0  0  0  0  0  0  0  0  0  0  0
  -10.0184   -1.3420   -4.0834 H   0  0  0  0  0  0  0  0  0  0  0  0
   -5.6599    0.4831   -7.3694 H   0  0  0  0  0  0  0  0  0  0  0  0
   -7.1682   -0.4594   -7.2997 H   0  0  0  0  0  0  0  0  0  0  0  0
   -6.9471    0.9467   -6.2308 H   0  0  0  0  0  0  0  0  0  0  0  0
   -6.5633    0.8795   -1.3271 H   0  0  0  0  0  0  0  0  0  0  0  0
  -10.2989   -2.7249   -2.1896 H   0  0  0  0  0  0  0  0  0  0  0  0
  1  2  1  0  0  0  0
  1 30  1  0  0  0  0
  1 31  1  0  0  0  0
  1 32  1  0  0  0  0
  2  3  1  0  0  0  0
  2 33  1  0  0  0  0
  2 34  1  0  0  0  0
  3  4  1  0  0  0  0
  3  6  1  0  0  0  0
  3 59  1  0  0  0  0
  4  5  1  0  0  0  0
  4 35  1  0  0  0  0
  4 36  1  0  0  0  0
  5 37  1  0  0  0  0
  5 38  1  0  0  0  0
  5 39  1  0  0  0  0
  6  7  1  0  0  0  0
  6 40  1  0  0  0  0
  6 41  1  0  0  0  0
  7  8  1  0  0  0  0
  7 42  1  0  0  0  0
  7 43  1  0  0  0  0
  8  9  1  0  0  0  0
  8 44  1  0  0  0  0
  8 45  1  0  0  0  0
  9 10  1  1  0  0  0
  9 11  1  0  0  0  0
  9 12  1  0  0  0  0
 11 46  1  0  0  0  0
 11 47  1  0  0  0  0
 11 48  1  0  0  0  0
 12 13  1  0  0  0  0
 12 49  1  0  0  0  0
 13 22  2  0  0  0  0
 13 14  1  0  0  0  0
 14 19  2  0  0  0  0
 14 15  1  0  0  0  0
 15 16  2  0  0  0  0
 15 50  1  0  0  0  0
 16 17  1  0  0  0  0
 16 51  1  0  0  0  0
 17 18  2  0  0  0  0
 17 29  1  0  0  0  0
 18 19  1  0  0  0  0
 18 52  1  0  0  0  0
 19 20  1  0  0  0  0
 20 21  1  0  0  0  0
 20 60  1  0  0  0  0
 21 26  1  0  0  0  0
 21 22  1  0  0  0  0
 22 23  1  0  0  0  0
 23 24  2  0  0  0  0
 23 53  1  0  0  0  0
 24 25  1  0  0  0  0
 24 27  1  0  0  0  0
 25 26  2  0  0  0  0
 25 54  1  0  0  0  0
 26 55  1  0  0  0  0
 27 28  1  0  0  0  0
 28 56  1  0  0  0  0
 28 57  1  0  0  0  0
 28 58  1  0  0  0  0
M  CHG  1   3   1
M  END
$$$$
