ZINC03831157
 OpenBabel08292219463D

 54 57  0  0  1  0  0  0  0  0999 V2000
   -1.3800    9.4812    7.8347 C   0  0  0  0  0  0  0  0  0  0  0  0
   -0.2291    8.5755    7.7979 N   0  0  0  0  0  0  0  0  0  0  0  0
    0.2035    7.8380    6.7480 C   0  0  0  0  0  0  0  0  0  0  0  0
    1.2668    7.1771    7.1517 N   0  0  0  0  0  0  0  0  0  0  0  0
    1.5241    7.4466    8.3807 N   0  0  0  0  0  0  0  0  0  0  0  0
    0.6614    8.2837    8.8460 N   0  0  0  0  0  0  0  0  0  0  0  0
   -0.5175    7.7803    5.1414 S   0  0  0  0  0  0  0  0  0  0  0  0
    0.6059    6.6129    4.3344 C   0  0  0  0  0  0  0  0  0  0  0  0
    0.1718    6.4033    2.9066 C   0  0  0  0  0  0  0  0  0  0  0  0
    0.6369    7.2460    1.9638 C   0  0  0  0  0  0  0  0  0  0  0  0
    0.1823    6.9323    0.6642 N   0  0  0  0  0  0  0  0  0  0  0  0
   -1.0106    6.0750    0.3765 C   0  0  1  0  0  0  0  0  0  0  0  0
   -1.9868    6.5528    0.4589 H   0  0  0  0  0  0  0  0  0  0  0  0
   -0.4447    5.9869   -1.0365 C   0  0  1  0  0  0  0  0  0  0  0  0
    0.5679    7.0394   -0.6149 C   0  0  0  0  0  0  0  0  0  0  0  0
    1.3934    7.7068   -1.2016 O   0  0  0  0  0  0  0  0  0  0  0  0
    0.1550    4.6872   -1.3486 N   0  0  0  0  0  0  0  0  0  0  0  0
    1.1721    4.2170   -0.5996 C   0  0  0  0  0  0  0  0  0  0  0  0
    1.5908    4.8699    0.3328 O   0  0  0  0  0  0  0  0  0  0  0  0
    1.7890    2.8801   -0.9207 C   0  0  1  0  0  0  0  0  0  0  0  0
    2.1944    2.9006   -1.9323 H   0  0  0  0  0  0  0  0  0  0  0  0
    2.8968    2.5898    0.0588 C   0  0  0  0  0  0  0  0  0  0  0  0
    2.6211    2.5202    1.4119 C   0  0  0  0  0  0  0  0  0  0  0  0
    3.6339    2.2486    2.3113 C   0  0  0  0  0  0  0  0  0  0  0  0
    4.9306    2.0574    1.8569 C   0  0  0  0  0  0  0  0  0  0  0  0
    5.2057    2.1334    0.4993 C   0  0  0  0  0  0  0  0  0  0  0  0
    4.1883    2.3992   -0.3966 C   0  0  0  0  0  0  0  0  0  0  0  0
    5.9299    1.7965    2.7403 O   0  0  0  0  0  0  0  0  0  0  0  0
    0.7374    1.8051   -0.8227 C   0  0  0  0  0  0  0  0  0  0  0  0
   -0.3978    2.0955   -0.5278 O   0  0  0  0  0  0  0  0  0  0  0  0
   -1.3513    6.4364   -2.0454 O   0  0  0  0  0  0  0  0  0  0  0  0
   -0.8592    6.2848   -3.3784 C   0  0  0  0  0  0  0  0  0  0  0  0
   -0.8412    4.9247    1.2182 O   0  0  0  0  0  0  0  0  0  0  0  0
   -0.7558    5.2679    2.6022 C   0  0  0  0  0  0  0  0  0  0  0  0
    1.5301    8.3808    2.2591 C   0  0  0  0  0  0  0  0  0  0  0  0
    2.0037    9.0337    1.3504 O   0  0  0  0  0  0  0  0  0  0  0  0
   -2.2678    8.9283    8.1417 H   0  0  0  0  0  0  0  0  0  0  0  0
   -1.1878   10.2842    8.5463 H   0  0  0  0  0  0  0  0  0  0  0  0
   -1.5406    9.9050    6.8434 H   0  0  0  0  0  0  0  0  0  0  0  0
    0.5829    5.6609    4.8647 H   0  0  0  0  0  0  0  0  0  0  0  0
    1.6194    7.0136    4.3509 H   0  0  0  0  0  0  0  0  0  0  0  0
   -0.1799    4.1651   -2.0944 H   0  0  0  0  0  0  0  0  0  0  0  0
    1.6123    2.6742    1.7656 H   0  0  0  0  0  0  0  0  0  0  0  0
    3.4172    2.1903    3.3677 H   0  0  0  0  0  0  0  0  0  0  0  0
    6.2144    1.9846    0.1430 H   0  0  0  0  0  0  0  0  0  0  0  0
    4.4020    2.4585   -1.4536 H   0  0  0  0  0  0  0  0  0  0  0  0
    6.3744    2.5870    3.0759 H   0  0  0  0  0  0  0  0  0  0  0  0
    0.0604    6.8585   -3.4937 H   0  0  0  0  0  0  0  0  0  0  0  0
   -0.6573    5.2316   -3.5736 H   0  0  0  0  0  0  0  0  0  0  0  0
   -1.6054    6.6487   -4.0848 H   0  0  0  0  0  0  0  0  0  0  0  0
   -1.7528    5.5329    2.9542 H   0  0  0  0  0  0  0  0  0  0  0  0
   -0.4177    4.3914    3.1550 H   0  0  0  0  0  0  0  0  0  0  0  0
    1.0605    0.5257   -1.0685 O   0  0  0  0  0  1  0  0  0  0  0  0
    1.8215    8.6941    3.5371 O   0  0  0  0  0  1  0  0  0  0  0  0
  1  2  1  0  0  0  0
  1 37  1  0  0  0  0
  1 38  1  0  0  0  0
  1 39  1  0  0  0  0
  2  6  1  0  0  0  0
  2  3  1  0  0  0  0
  3  4  2  0  0  0  0
  3  7  1  0  0  0  0
  4  5  1  0  0  0  0
  5  6  2  0  0  0  0
  7  8  1  0  0  0  0
  8  9  1  0  0  0  0
  8 40  1  0  0  0  0
  8 41  1  0  0  0  0
  9 34  1  0  0  0  0
  9 10  2  0  0  0  0
 10 11  1  0  0  0  0
 10 35  1  0  0  0  0
 11 15  1  0  0  0  0
 11 12  1  0  0  0  0
 12 13  1  1  0  0  0
 12 14  1  0  0  0  0
 12 33  1  0  0  0  0
 14 15  1  0  0  0  0
 14 17  1  0  0  0  0
 14 31  1  6  0  0  0
 15 16  2  0  0  0  0
 17 18  1  0  0  0  0
 17 42  1  0  0  0  0
 18 19  2  0  0  0  0
 18 20  1  0  0  0  0
 20 21  1  6  0  0  0
 20 22  1  0  0  0  0
 20 29  1  0  0  0  0
 22 27  2  0  0  0  0
 22 23  1  0  0  0  0
 23 24  2  0  0  0  0
 23 43  1  0  0  0  0
 24 25  1  0  0  0  0
 24 44  1  0  0  0  0
 25 26  2  0  0  0  0
 25 28  1  0  0  0  0
 26 27  1  0  0  0  0
 26 45  1  0  0  0  0
 27 46  1  0  0  0  0
 28 47  1  0  0  0  0
 29 30  2  0  0  0  0
 29 53  1  0  0  0  0
 31 32  1  0  0  0  0
 32 48  1  0  0  0  0
 32 49  1  0  0  0  0
 32 50  1  0  0  0  0
 33 34  1  0  0  0  0
 34 51  1  0  0  0  0
 34 52  1  0  0  0  0
 35 36  2  0  0  0  0
 35 54  1  0  0  0  0
M  END
$$$$
