ZINC00537931
 OpenBabel08292219463D

 50 53  0  0  0  0  0  0  0  0999 V2000
   -0.0187    1.5258    0.0104 C   0  0  0  0  0  0  0  0  0  0  0  0
    0.0021   -0.0041    0.0020 C   0  0  0  0  0  0  0  0  0  0  0  0
    0.6709   -0.4649   -1.1737 O   0  0  0  0  0  0  0  0  0  0  0  0
    0.7758   -1.7975   -1.3346 C   0  0  0  0  0  0  0  0  0  0  0  0
    0.3120   -2.5487   -0.4996 O   0  0  0  0  0  0  0  0  0  0  0  0
    1.3951   -2.2983   -2.4219 N   0  0  0  0  0  0  0  0  0  0  0  0
    1.9639   -1.3981   -3.4332 C   0  0  0  0  0  0  0  0  0  0  0  0
    3.4597   -1.7044   -3.5815 C   0  0  0  0  0  0  0  0  0  0  0  0
    3.6269   -3.1978   -3.7566 C   0  0  0  0  0  0  0  0  0  0  0  0
    4.3195   -3.6936   -4.7892 C   0  0  0  0  0  0  0  0  0  0  0  0
    4.4577   -5.1607   -4.9325 C   0  0  0  0  0  0  0  0  0  0  0  0
    5.1018   -5.9254   -3.9639 C   0  0  0  0  0  0  0  0  0  0  0  0
    5.1961   -7.2930   -4.1432 C   0  0  0  0  0  0  0  0  0  0  0  0
    4.6532   -7.8812   -5.2731 C   0  0  0  0  0  0  0  0  0  0  0  0
    4.0171   -7.1115   -6.2324 C   0  0  0  0  0  0  0  0  0  0  0  0
    3.9239   -5.7402   -6.0576 C   0  0  0  0  0  0  0  0  0  0  0  0
    3.2553   -4.8948   -7.0970 C   0  0  0  0  0  0  0  0  0  0  0  0
    4.2211   -4.0632   -7.8975 C   0  0  0  0  0  0  0  0  0  0  0  0
    4.8989   -2.9586   -7.1304 C   0  0  0  0  0  0  0  0  0  0  0  0
    4.9262   -2.7650   -5.7678 C   0  0  0  0  0  0  0  0  0  0  0  0
    5.5380   -1.6921   -5.2507 N   0  0  0  0  0  0  0  0  0  0  0  0
    6.1515   -0.7990   -5.9905 C   0  0  0  0  0  0  0  0  0  0  0  0
    6.1859   -0.9443   -7.3654 C   0  0  0  0  0  0  0  0  0  0  0  0
    5.5643   -2.0251   -7.9361 C   0  0  0  0  0  0  0  0  0  0  0  0
    4.7716   -9.5996   -5.4893 Cl  0  0  0  0  0  0  0  0  0  0  0  0
    2.9929   -4.1172   -2.7359 C   0  0  0  0  0  0  0  0  0  0  0  0
    1.5142   -3.7505   -2.6058 C   0  0  0  0  0  0  0  0  0  0  0  0
    1.0039    1.9031    0.0027 H   0  0  0  0  0  0  0  0  0  0  0  0
   -0.5459    1.8868   -0.8726 H   0  0  0  0  0  0  0  0  0  0  0  0
   -0.5289    1.8773    0.9072 H   0  0  0  0  0  0  0  0  0  0  0  0
    0.5293   -0.3651    0.8851 H   0  0  0  0  0  0  0  0  0  0  0  0
   -1.0205   -0.3814    0.0098 H   0  0  0  0  0  0  0  0  0  0  0  0
    1.4620   -1.5572   -4.3876 H   0  0  0  0  0  0  0  0  0  0  0  0
    1.8323   -0.3634   -3.1168 H   0  0  0  0  0  0  0  0  0  0  0  0
    3.8556   -1.1859   -4.4547 H   0  0  0  0  0  0  0  0  0  0  0  0
    3.9914   -1.3778   -2.6878 H   0  0  0  0  0  0  0  0  0  0  0  0
    5.5212   -5.4575   -3.0855 H   0  0  0  0  0  0  0  0  0  0  0  0
    5.6932   -7.9021   -3.4027 H   0  0  0  0  0  0  0  0  0  0  0  0
    3.5962   -7.5770   -7.1114 H   0  0  0  0  0  0  0  0  0  0  0  0
    2.7063   -5.5457   -7.7775 H   0  0  0  0  0  0  0  0  0  0  0  0
    2.5460   -4.2299   -6.6041 H   0  0  0  0  0  0  0  0  0  0  0  0
    4.9894   -4.7225   -8.3014 H   0  0  0  0  0  0  0  0  0  0  0  0
    3.6810   -3.6193   -8.7338 H   0  0  0  0  0  0  0  0  0  0  0  0
    6.6296    0.0505   -5.5256 H   0  0  0  0  0  0  0  0  0  0  0  0
    6.7006   -0.2203   -7.9796 H   0  0  0  0  0  0  0  0  0  0  0  0
    5.5801   -2.1500   -9.0087 H   0  0  0  0  0  0  0  0  0  0  0  0
    3.0884   -5.1520   -3.0648 H   0  0  0  0  0  0  0  0  0  0  0  0
    3.4859   -3.9910   -1.7720 H   0  0  0  0  0  0  0  0  0  0  0  0
    1.0866   -4.2642   -1.7448 H   0  0  0  0  0  0  0  0  0  0  0  0
    0.9857   -4.0486   -3.5113 H   0  0  0  0  0  0  0  0  0  0  0  0
  1  2  1  0  0  0  0
  1 28  1  0  0  0  0
  1 29  1  0  0  0  0
  1 30  1  0  0  0  0
  2  3  1  0  0  0  0
  2 31  1  0  0  0  0
  2 32  1  0  0  0  0
  3  4  1  0  0  0  0
  4  5  2  0  0  0  0
  4  6  1  0  0  0  0
  6 27  1  0  0  0  0
  6  7  1  0  0  0  0
  7  8  1  0  0  0  0
  7 33  1  0  0  0  0
  7 34  1  0  0  0  0
  8  9  1  0  0  0  0
  8 35  1  0  0  0  0
  8 36  1  0  0  0  0
  9 10  2  0  0  0  0
  9 26  1  0  0  0  0
 10 20  1  0  0  0  0
 10 11  1  0  0  0  0
 11 16  2  0  0  0  0
 11 12  1  0  0  0  0
 12 13  2  0  0  0  0
 12 37  1  0  0  0  0
 13 14  1  0  0  0  0
 13 38  1  0  0  0  0
 14 15  2  0  0  0  0
 14 25  1  0  0  0  0
 15 16  1  0  0  0  0
 15 39  1  0  0  0  0
 16 17  1  0  0  0  0
 17 18  1  0  0  0  0
 17 40  1  0  0  0  0
 17 41  1  0  0  0  0
 18 19  1  0  0  0  0
 18 42  1  0  0  0  0
 18 43  1  0  0  0  0
 19 24  2  0  0  0  0
 19 20  1  0  0  0  0
 20 21  2  0  0  0  0
 21 22  1  0  0  0  0
 22 23  2  0  0  0  0
 22 44  1  0  0  0  0
 23 24  1  0  0  0  0
 23 45  1  0  0  0  0
 24 46  1  0  0  0  0
 26 27  1  0  0  0  0
 26 47  1  0  0  0  0
 26 48  1  0  0  0  0
 27 49  1  0  0  0  0
 27 50  1  0  0  0  0
M  END
$$$$
