ZINC00001773
 OpenBabel08292219463D

 49 54  0  0  1  0  0  0  0  0999 V2000
   -0.2443    1.2570    0.4660 C   0  0  0  0  0  0  0  0  0  0  0  0
    0.9083    2.0200    0.5623 C   0  0  0  0  0  0  0  0  0  0  0  0
    2.1900    1.4753    0.5348 C   0  0  0  0  0  0  0  0  0  0  0  0
    2.2879    0.0876    0.3806 C   0  0  0  0  0  0  0  0  0  0  0  0
    1.1121   -0.6326    0.2304 C   0  0  0  0  0  0  0  0  0  0  0  0
   -0.1602   -0.1156    0.3155 C   0  0  0  0  0  0  0  0  0  0  0  0
   -1.3282   -1.0478    0.3098 C   0  0  0  0  0  0  0  0  0  0  0  0
   -0.9396   -2.5064    0.1383 C   0  0  2  0  0  0  0  0  0  0  0  0
   -1.6997   -3.1130    0.6306 H   0  0  0  0  0  0  0  0  0  0  0  0
    0.4167   -2.8747    0.7456 C   0  0  1  0  0  0  0  0  0  0  0  0
    1.4829   -2.0836    0.0450 C   0  0  1  0  0  0  0  0  0  0  0  0
    1.4804   -2.4286   -1.4426 C   0  0  0  0  0  0  0  0  0  0  0  0
    0.0910   -2.1126   -2.0094 C   0  0  0  0  0  0  0  0  0  0  0  0
   -0.9309   -2.8716   -1.2830 N   0  3  2  0  0  0  0  0  0  0  0  0
   -2.2494   -2.5851   -1.8638 C   0  0  0  0  0  0  0  0  0  0  0  0
   -2.3011   -3.1153   -3.2981 C   0  0  0  0  0  0  0  0  0  0  0  0
   -2.4792   -2.0935   -4.4229 C   0  0  0  0  0  0  0  0  0  0  0  0
   -3.6360   -3.0186   -4.0393 C   0  0  0  0  0  0  0  0  0  0  0  0
    2.8868   -2.1036    0.6341 C   0  0  1  0  0  0  0  0  0  0  0  0
    3.5148   -2.8457    0.1412 H   0  0  0  0  0  0  0  0  0  0  0  0
    3.3506   -0.7456    0.3657 O   0  0  0  0  0  0  0  0  0  0  0  0
    2.8706   -2.3034    2.1213 C   0  0  0  0  0  0  0  0  0  0  0  0
    3.8019   -1.8874    2.7678 O   0  0  0  0  0  0  0  0  0  0  0  0
    1.7528   -2.9946    2.8421 C   0  0  0  0  0  0  0  0  0  0  0  0
    0.4362   -2.5258    2.2328 C   0  0  0  0  0  0  0  0  0  0  0  0
    0.6517   -4.2744    0.5791 O   0  0  0  0  0  0  0  0  0  0  0  0
    3.2968    2.2569    0.6522 O   0  0  0  0  0  0  0  0  0  0  0  0
   -1.2116    1.7350    0.5131 H   0  0  0  0  0  0  0  0  0  0  0  0
    0.8079    3.0906    0.6634 H   0  0  0  0  0  0  0  0  0  0  0  0
   -1.8664   -0.9385    1.2514 H   0  0  0  0  0  0  0  0  0  0  0  0
   -1.9954   -0.7663   -0.5049 H   0  0  0  0  0  0  0  0  0  0  0  0
    2.2322   -1.8319   -1.9592 H   0  0  0  0  0  0  0  0  0  0  0  0
    1.6983   -3.4885   -1.5741 H   0  0  0  0  0  0  0  0  0  0  0  0
   -0.1082   -1.0460   -1.9055 H   0  0  0  0  0  0  0  0  0  0  0  0
    0.0606   -2.3836   -3.0648 H   0  0  0  0  0  0  0  0  0  0  0  0
   -3.0221   -3.0716   -1.2686 H   0  0  0  0  0  0  0  0  0  0  0  0
   -2.4183   -1.5083   -1.8682 H   0  0  0  0  0  0  0  0  0  0  0  0
   -1.6744   -3.9837   -3.5011 H   0  0  0  0  0  0  0  0  0  0  0  0
   -2.5597   -1.0437   -4.1411 H   0  0  0  0  0  0  0  0  0  0  0  0
   -1.9696   -2.2896   -5.3663 H   0  0  0  0  0  0  0  0  0  0  0  0
   -3.8874   -3.8232   -4.7304 H   0  0  0  0  0  0  0  0  0  0  0  0
   -4.4775   -2.5773   -3.5052 H   0  0  0  0  0  0  0  0  0  0  0  0
    1.8718   -4.0736    2.7439 H   0  0  0  0  0  0  0  0  0  0  0  0
    1.7811   -2.7239    3.8976 H   0  0  0  0  0  0  0  0  0  0  0  0
    0.2965   -1.4521    2.3583 H   0  0  0  0  0  0  0  0  0  0  0  0
   -0.3620   -3.0631    2.7449 H   0  0  0  0  0  0  0  0  0  0  0  0
   -0.0114   -4.8375    1.0014 H   0  0  0  0  0  0  0  0  0  0  0  0
    3.5936    2.3840    1.5637 H   0  0  0  0  0  0  0  0  0  0  0  0
   -0.7373   -3.8580   -1.3711 H   0  0  0  0  0  0  0  0  0  0  0  0
  1  6  2  0  0  0  0
  1  2  1  0  0  0  0
  1 28  1  0  0  0  0
  2  3  2  0  0  0  0
  2 29  1  0  0  0  0
  3  4  1  0  0  0  0
  3 27  1  0  0  0  0
  4 21  1  0  0  0  0
  4  5  2  0  0  0  0
  5  6  1  0  0  0  0
  6  7  1  0  0  0  0
  7  8  1  0  0  0  0
  7 30  1  0  0  0  0
  7 31  1  0  0  0  0
  8  9  1  1  0  0  0
  8 14  1  0  0  0  0
  8 10  1  0  0  0  0
 10 25  1  0  0  0  0
 10 11  1  0  0  0  0
 10 26  1  6  0  0  0
 11  5  1  1  0  0  0
 11 12  1  0  0  0  0
 11 19  1  0  0  0  0
 12 13  1  0  0  0  0
 12 32  1  0  0  0  0
 12 33  1  0  0  0  0
 13 14  1  0  0  0  0
 13 34  1  0  0  0  0
 13 35  1  0  0  0  0
 14 15  1  0  0  0  0
 14 49  1  6  0  0  0
 15 16  1  0  0  0  0
 15 36  1  0  0  0  0
 15 37  1  0  0  0  0
 16 18  1  0  0  0  0
 16 17  1  0  0  0  0
 16 38  1  0  0  0  0
 17 18  1  0  0  0  0
 17 39  1  0  0  0  0
 17 40  1  0  0  0  0
 18 41  1  0  0  0  0
 18 42  1  0  0  0  0
 19 20  1  6  0  0  0
 19 21  1  0  0  0  0
 19 22  1  0  0  0  0
 22 23  2  0  0  0  0
 22 24  1  0  0  0  0
 24 25  1  0  0  0  0
 24 43  1  0  0  0  0
 24 44  1  0  0  0  0
 25 45  1  0  0  0  0
 25 46  1  0  0  0  0
 26 47  1  0  0  0  0
 27 48  1  0  0  0  0
M  CHG  1  14   1
M  END
$$$$
