ZINC03798247
 OpenBabel08292219463D

 31 33  0  0  1  0  0  0  0  0999 V2000
   -1.8283    0.1580   -1.7279 C   0  0  0  0  0  0  0  0  0  0  0  0
   -2.7798   -0.5942   -2.1994 N   0  0  0  0  0  0  0  0  0  0  0  0
   -2.7682   -1.7892   -1.5611 C   0  0  0  0  0  0  0  0  0  0  0  0
   -3.5404   -2.9608   -1.6431 C   0  0  0  0  0  0  0  0  0  0  0  0
   -3.2399   -3.9753   -0.8394 N   0  0  0  0  0  0  0  0  0  0  0  0
   -2.2395   -3.8938    0.0208 C   0  0  0  0  0  0  0  0  0  0  0  0
   -1.4896   -2.8164    0.1321 N   0  0  0  0  0  0  0  0  0  0  0  0
   -1.7160   -1.7518   -0.6311 C   0  0  0  0  0  0  0  0  0  0  0  0
   -1.1397   -0.5136   -0.7615 N   0  0  0  0  0  0  0  0  0  0  0  0
    0.0021   -0.0041    0.0020 C   0  0  1  0  0  0  0  0  0  0  0  0
   -0.0379   -0.3809    1.0240 H   0  0  0  0  0  0  0  0  0  0  0  0
    1.3184   -0.4407   -0.6698 C   0  0  2  0  0  0  0  0  0  0  0  0
    1.9114   -1.0496    0.0127 H   0  0  0  0  0  0  0  0  0  0  0  0
    2.0444    0.8904   -0.9828 C   0  0  1  0  0  0  0  0  0  0  0  0
    1.8755    1.1918   -2.0166 H   0  0  0  0  0  0  0  0  0  0  0  0
    1.3576    1.8735   -0.0008 C   0  0  2  0  0  0  0  0  0  0  0  0
    1.7950    1.7905    0.9941 H   0  0  0  0  0  0  0  0  0  0  0  0
   -0.0174    1.4332    0.0099 O   0  0  0  0  0  0  0  0  0  0  0  0
    1.4593    3.3100   -0.5175 C   0  0  0  0  0  0  0  0  0  0  0  0
    0.8301    4.1958    0.4107 O   0  0  0  0  0  0  0  0  0  0  0  0
    3.4424    0.7862   -0.7056 O   0  0  0  0  0  0  0  0  0  0  0  0
    1.0559   -1.1445   -1.8499 F   0  0  0  0  0  0  0  0  0  0  0  0
   -1.9010   -5.2570    1.0410 Cl  0  0  0  0  0  0  0  0  0  0  0  0
   -4.5893   -3.0556   -2.5407 N   0  0  0  0  0  0  0  0  0  0  0  0
   -1.6140    1.1645   -2.0555 H   0  0  0  0  0  0  0  0  0  0  0  0
    2.5088    3.5835   -0.6265 H   0  0  0  0  0  0  0  0  0  0  0  0
    0.9622    3.3843   -1.4847 H   0  0  0  0  0  0  0  0  0  0  0  0
    0.8567    5.1257    0.1469 H   0  0  0  0  0  0  0  0  0  0  0  0
    3.8993    0.1174   -1.2338 H   0  0  0  0  0  0  0  0  0  0  0  0
   -4.4206   -3.8127   -3.1718 H   0  0  0  0  0  0  0  0  0  0  0  0
   -4.7991   -2.3081   -3.1223 H   0  0  0  0  0  0  0  0  0  0  0  0
  1  9  1  0  0  0  0
  1  2  2  0  0  0  0
  1 25  1  0  0  0  0
  2  3  1  0  0  0  0
  3  8  2  0  0  0  0
  3  4  1  0  0  0  0
  4  5  2  0  0  0  0
  4 24  1  0  0  0  0
  5  6  1  0  0  0  0
  6  7  2  0  0  0  0
  6 23  1  0  0  0  0
  7  8  1  0  0  0  0
  8  9  1  0  0  0  0
  9 10  1  0  0  0  0
 10 11  1  1  0  0  0
 10 18  1  0  0  0  0
 10 12  1  0  0  0  0
 12 13  1  1  0  0  0
 12 14  1  0  0  0  0
 12 22  1  0  0  0  0
 14 15  1  6  0  0  0
 14 16  1  0  0  0  0
 14 21  1  0  0  0  0
 16 17  1  1  0  0  0
 16 18  1  0  0  0  0
 16 19  1  0  0  0  0
 19 20  1  0  0  0  0
 19 26  1  0  0  0  0
 19 27  1  0  0  0  0
 20 28  1  0  0  0  0
 21 29  1  0  0  0  0
 24 30  1  0  0  0  0
 24 31  1  0  0  0  0
M  END
$$$$
