ZINC84394807
 OpenBabel08292219463D

 60 63  0  0  1  0  0  0  0  0999 V2000
    0.0227    1.5209   -0.0399 C   0  0  0  0  0  0  0  0  0  0  0  0
    0.0195    0.0919   -0.0458 O   0  0  0  0  0  0  0  0  0  0  0  0
    0.6217   -0.5222   -1.0983 C   0  0  0  0  0  0  0  0  0  0  0  0
    1.2087    0.2349   -2.1014 C   0  0  0  0  0  0  0  0  0  0  0  0
    1.8206   -0.3915   -3.1700 C   0  0  0  0  0  0  0  0  0  0  0  0
    1.8483   -1.7722   -3.2408 C   0  0  0  0  0  0  0  0  0  0  0  0
    1.2638   -2.5298   -2.2429 C   0  0  0  0  0  0  0  0  0  0  0  0
    0.6555   -1.9082   -1.1683 C   0  0  0  0  0  0  0  0  0  0  0  0
   -0.0720   -2.8597    0.0883 Cl  0  0  0  0  0  0  0  0  0  0  0  0
    2.5162   -2.4522   -4.4080 C   0  0  0  0  0  0  0  0  0  0  0  0
    3.9285   -2.6841   -4.0952 N   0  0  0  0  0  0  0  0  0  0  0  0
    4.7475   -3.2979   -5.0191 C   0  0  0  0  0  0  0  0  0  0  0  0
    6.1322   -3.4312   -4.7758 C   0  0  0  0  0  0  0  0  0  0  0  0
    6.9154   -4.0625   -5.7478 C   0  0  0  0  0  0  0  0  0  0  0  0
    6.3373   -4.5074   -6.8484 N   0  0  0  0  0  0  0  0  0  0  0  0
    5.0322   -4.3647   -7.0438 C   0  0  0  0  0  0  0  0  0  0  0  0
    4.2476   -3.7792   -6.1510 N   0  0  0  0  0  0  0  0  0  0  0  0
    4.4745   -4.8458   -8.2101 N   0  0  0  0  0  0  0  0  0  0  0  0
    3.0500   -4.7613   -8.5800 C   0  0  0  0  0  0  0  0  0  0  0  0
    2.8318   -5.9197   -9.5850 C   0  0  0  0  0  0  0  0  0  0  0  0
    4.1688   -5.9052  -10.3722 C   0  0  0  0  0  0  0  0  0  0  0  0
    5.2035   -5.5221   -9.2931 C   0  0  1  0  0  0  0  0  0  0  0  0
    5.6867   -6.4208   -8.9099 H   0  0  0  0  0  0  0  0  0  0  0  0
    6.2509   -4.5767   -9.8849 C   0  0  0  0  0  0  0  0  0  0  0  0
    5.5957   -3.4709  -10.5094 O   0  0  0  0  0  0  0  0  0  0  0  0
    6.7346   -2.9196   -3.5342 C   0  0  0  0  0  0  0  0  0  0  0  0
    6.0253   -2.4684   -2.6551 O   0  0  0  0  0  0  0  0  0  0  0  0
    8.0721   -2.9511   -3.3714 N   0  0  0  0  0  0  0  0  0  0  0  0
    8.6717   -2.4419   -2.1355 C   0  0  0  0  0  0  0  0  0  0  0  0
   10.1697   -2.5908   -2.2055 C   0  0  0  0  0  0  0  0  0  0  0  0
   10.7248   -3.7036   -1.7689 N   0  0  0  0  0  0  0  0  0  0  0  0
   12.0368   -3.8699   -1.8144 C   0  0  0  0  0  0  0  0  0  0  0  0
   12.8276   -2.8550   -2.3296 C   0  0  0  0  0  0  0  0  0  0  0  0
   12.2075   -1.6998   -2.7789 C   0  0  0  0  0  0  0  0  0  0  0  0
   10.8894   -1.6069   -2.7066 N   0  0  0  0  0  0  0  0  0  0  0  0
    1.0512    1.8819   -0.0402 H   0  0  0  0  0  0  0  0  0  0  0  0
   -0.4919    1.8891   -0.9274 H   0  0  0  0  0  0  0  0  0  0  0  0
   -0.4887    1.8817    0.8525 H   0  0  0  0  0  0  0  0  0  0  0  0
    1.1870    1.3133   -2.0474 H   0  0  0  0  0  0  0  0  0  0  0  0
    2.2777    0.1979   -3.9511 H   0  0  0  0  0  0  0  0  0  0  0  0
    1.2861   -3.6080   -2.3009 H   0  0  0  0  0  0  0  0  0  0  0  0
    2.0257   -3.4061   -4.6021 H   0  0  0  0  0  0  0  0  0  0  0  0
    2.4391   -1.8177   -5.2909 H   0  0  0  0  0  0  0  0  0  0  0  0
    4.2875   -2.4058   -3.2381 H   0  0  0  0  0  0  0  0  0  0  0  0
    7.9784   -4.1839   -5.6002 H   0  0  0  0  0  0  0  0  0  0  0  0
    2.4209   -4.8985   -7.7005 H   0  0  0  0  0  0  0  0  0  0  0  0
    2.8373   -3.8029   -9.0538 H   0  0  0  0  0  0  0  0  0  0  0  0
    2.6950   -6.8678   -9.0648 H   0  0  0  0  0  0  0  0  0  0  0  0
    1.9884   -5.7121  -10.2435 H   0  0  0  0  0  0  0  0  0  0  0  0
    4.3846   -6.8910  -10.7841 H   0  0  0  0  0  0  0  0  0  0  0  0
    4.1436   -5.1535  -11.1612 H   0  0  0  0  0  0  0  0  0  0  0  0
    6.9014   -4.2119   -9.0900 H   0  0  0  0  0  0  0  0  0  0  0  0
    6.8462   -5.1115  -10.6249 H   0  0  0  0  0  0  0  0  0  0  0  0
    6.2000   -2.8293  -10.9072 H   0  0  0  0  0  0  0  0  0  0  0  0
    8.6377   -3.3110   -4.0724 H   0  0  0  0  0  0  0  0  0  0  0  0
    8.4165   -1.3891   -2.0147 H   0  0  0  0  0  0  0  0  0  0  0  0
    8.2896   -3.0081   -1.2861 H   0  0  0  0  0  0  0  0  0  0  0  0
   12.4854   -4.7841   -1.4547 H   0  0  0  0  0  0  0  0  0  0  0  0
   13.9011   -2.9615   -2.3795 H   0  0  0  0  0  0  0  0  0  0  0  0
   12.7917   -0.8879   -3.1863 H   0  0  0  0  0  0  0  0  0  0  0  0
  1  2  1  0  0  0  0
  1 36  1  0  0  0  0
  1 37  1  0  0  0  0
  1 38  1  0  0  0  0
  2  3  1  0  0  0  0
  3  8  2  0  0  0  0
  3  4  1  0  0  0  0
  4  5  2  0  0  0  0
  4 39  1  0  0  0  0
  5  6  1  0  0  0  0
  5 40  1  0  0  0  0
  6  7  2  0  0  0  0
  6 10  1  0  0  0  0
  7  8  1  0  0  0  0
  7 41  1  0  0  0  0
  8  9  1  0  0  0  0
 10 11  1  0  0  0  0
 10 42  1  0  0  0  0
 10 43  1  0  0  0  0
 11 12  1  0  0  0  0
 11 44  1  0  0  0  0
 12 17  2  0  0  0  0
 12 13  1  0  0  0  0
 13 14  2  0  0  0  0
 13 26  1  0  0  0  0
 14 15  1  0  0  0  0
 14 45  1  0  0  0  0
 15 16  2  0  0  0  0
 16 17  1  0  0  0  0
 16 18  1  0  0  0  0
 18 22  1  0  0  0  0
 18 19  1  0  0  0  0
 19 20  1  0  0  0  0
 19 46  1  0  0  0  0
 19 47  1  0  0  0  0
 20 21  1  0  0  0  0
 20 48  1  0  0  0  0
 20 49  1  0  0  0  0
 21 22  1  0  0  0  0
 21 50  1  0  0  0  0
 21 51  1  0  0  0  0
 22 23  1  1  0  0  0
 22 24  1  0  0  0  0
 24 25  1  0  0  0  0
 24 52  1  0  0  0  0
 24 53  1  0  0  0  0
 25 54  1  0  0  0  0
 26 27  2  0  0  0  0
 26 28  1  0  0  0  0
 28 29  1  0  0  0  0
 28 55  1  0  0  0  0
 29 30  1  0  0  0  0
 29 56  1  0  0  0  0
 29 57  1  0  0  0  0
 30 35  2  0  0  0  0
 30 31  1  0  0  0  0
 31 32  2  0  0  0  0
 32 33  1  0  0  0  0
 32 58  1  0  0  0  0
 33 34  2  0  0  0  0
 33 59  1  0  0  0  0
 34 35  1  0  0  0  0
 34 60  1  0  0  0  0
M  END
$$$$
