ZINC08035131
 OpenBabel08292219463D

 11 10  0  0  0  0  0  0  0  0999 V2000
   -0.0226    1.8187    0.0120 C   0  0  0  0  0  0  0  0  0  0  0  0
    0.0021   -0.0041    0.0020 P   0  0  0  0  0  0  0  0  0  0  0  0
    0.7354   -0.5093   -1.2869 O   0  0  0  0  0  0  0  0  0  0  0  0
    0.7598   -0.5231    1.2713 O   0  0  0  0  0  0  0  0  0  0  0  0
   -1.4677   -0.5463    0.0131 O   0  0  0  0  0  0  0  0  0  0  0  0
    1.6876    2.4497   -0.0009 P   0  0  0  0  0  0  0  0  0  0  0  0
    2.4453    1.9308    1.2683 O   0  0  0  0  0  0  0  0  0  0  0  0
    2.4209    1.9445   -1.2899 O   0  0  0  0  0  0  0  0  0  0  0  0
    1.6664    4.0162    0.0077 O   0  0  0  0  0  0  0  0  0  0  0  0
   -0.8947    2.4160   -1.4487 Cl  0  0  0  0  0  0  0  0  0  0  0  0
   -0.8666    2.4002    1.4955 Cl  0  0  0  0  0  0  0  0  0  0  0  0
  1  2  1  0  0  0  0
  1  6  1  0  0  0  0
  1 10  1  0  0  0  0
  1 11  1  0  0  0  0
  2  3  2  0  0  0  0
  2  4  1  0  0  0  0
  2  5  1  0  0  0  0
  6  7  2  0  0  0  0
  6  8  1  0  0  0  0
  6  9  1  0  0  0  0
M  END
$$$$
