ZINC03830683
 OpenBabel08292219463D

 42 44  0  0  1  0  0  0  0  0999 V2000
   -1.4804    0.3203   -1.7239 C   0  0  0  0  0  0  0  0  0  0  0  0
   -0.6608    1.5452   -1.2811 C   0  0  2  0  0  0  0  0  0  0  0  0
   -0.0129    1.0991    0.0081 C   0  0  0  0  0  0  0  0  0  0  0  0
   -0.6319    1.5352    1.3326 C   0  0  0  0  0  0  0  0  0  0  0  0
    0.0343    2.8602    1.8044 C   0  0  0  0  0  0  0  0  0  0  0  0
   -0.3466    3.9506    0.8784 C   0  0  0  0  0  0  0  0  0  0  0  0
    0.2688    3.9095   -0.4909 C   0  0  0  0  0  0  0  0  0  0  0  0
   -0.8446    4.0173   -1.5274 C   0  0  2  0  0  0  0  0  0  0  0  0
   -1.4784    4.8860   -1.3865 H   0  0  0  0  0  0  0  0  0  0  0  0
   -1.6193    2.6741   -1.4315 C   0  0  2  0  0  0  0  0  0  0  0  0
   -2.1003    2.5273   -2.4371 H   0  0  0  0  0  0  0  0  0  0  0  0
   -0.2149    4.0184   -2.9268 C   0  0  0  0  0  0  0  0  0  0  0  0
    0.5940    2.7610   -3.1189 C   0  0  0  0  0  0  0  0  0  0  0  0
    0.4115    1.6291   -2.3536 C   0  0  0  0  0  0  0  0  0  0  0  0
    1.2310    0.5284   -2.5412 C   0  0  0  0  0  0  0  0  0  0  0  0
    2.2153    0.5452   -3.5179 C   0  0  0  0  0  0  0  0  0  0  0  0
    2.3824    1.6749   -4.3043 C   0  0  0  0  0  0  0  0  0  0  0  0
    1.5750    2.7740   -4.1032 C   0  0  0  0  0  0  0  0  0  0  0  0
    3.0095   -0.5416   -3.7036 O   0  0  0  0  0  0  0  0  0  0  0  0
   -2.2149    0.0777   -0.9559 H   0  0  0  0  0  0  0  0  0  0  0  0
   -1.9933    0.5450   -2.6591 H   0  0  0  0  0  0  0  0  0  0  0  0
   -0.8136   -0.5294   -1.8703 H   0  0  0  0  0  0  0  0  0  0  0  0
    0.0021   -0.0041    0.0020 H   0  0  0  0  0  0  0  0  0  0  0  0
    1.0391    1.4027   -0.0003 H   0  0  0  0  0  0  0  0  0  0  0  0
   -1.7066    1.6336    1.2775 H   0  0  0  0  0  0  0  0  0  0  0  0
   -0.4183    0.7569    2.0884 H   0  0  0  0  0  0  0  0  0  0  0  0
    1.1213    2.7470    1.8058 H   0  0  0  0  0  0  0  0  0  0  0  0
   -0.3002    3.1045    2.8149 H   0  0  0  0  0  0  0  0  0  0  0  0
   -0.0036    4.8876    1.3522 H   0  0  0  0  0  0  0  0  0  0  0  0
   -1.4198    4.0286    0.8246 H   0  0  0  0  0  0  0  0  0  0  0  0
    0.8797    3.0227   -0.6328 H   0  0  0  0  0  0  0  0  0  0  0  0
    0.9441    4.7810   -0.6017 H   0  0  0  0  0  0  0  0  0  0  0  0
   -3.3215    3.4714   -0.6306 H   0  0  0  0  0  0  0  0  0  0  0  0
   -3.2247    1.8160   -0.5036 H   0  0  0  0  0  0  0  0  0  0  0  0
    0.4327    4.8831   -3.0126 H   0  0  0  0  0  0  0  0  0  0  0  0
   -1.0087    4.0562   -3.6631 H   0  0  0  0  0  0  0  0  0  0  0  0
    1.1234   -0.3496   -1.9214 H   0  0  0  0  0  0  0  0  0  0  0  0
    3.1431    1.6940   -5.0707 H   0  0  0  0  0  0  0  0  0  0  0  0
    1.7102    3.6565   -4.7110 H   0  0  0  0  0  0  0  0  0  0  0  0
    3.8171   -0.5341   -3.1718 H   0  0  0  0  0  0  0  0  0  0  0  0
   -2.6974    2.6861   -0.4530 N   0  3  0  0  0  0  0  0  0  0  0  0
   -2.2980    2.7817    0.4880 H   0  0  0  0  0  0  0  0  0  0  0  0
  1 20  1  0  0  0  0
  1 21  1  0  0  0  0
  1 22  1  0  0  0  0
  2  1  1  6  0  0  0
  2 10  1  0  0  0  0
  2 14  1  0  0  0  0
  2  3  1  0  0  0  0
  3  4  1  0  0  0  0
  3 23  1  0  0  0  0
  3 24  1  0  0  0  0
  4  5  1  0  0  0  0
  4 25  1  0  0  0  0
  4 26  1  0  0  0  0
  5  6  1  0  0  0  0
  5 27  1  0  0  0  0
  5 28  1  0  0  0  0
  6  7  1  0  0  0  0
  6 29  1  0  0  0  0
  6 30  1  0  0  0  0
  7  8  1  0  0  0  0
  7 31  1  0  0  0  0
  7 32  1  0  0  0  0
  8  9  1  1  0  0  0
  8 10  1  0  0  0  0
  8 12  1  0  0  0  0
 10 11  1  6  0  0  0
 10 41  1  0  0  0  0
 12 13  1  0  0  0  0
 12 35  1  0  0  0  0
 12 36  1  0  0  0  0
 13 18  2  0  0  0  0
 13 14  1  0  0  0  0
 14 15  2  0  0  0  0
 15 16  1  0  0  0  0
 15 37  1  0  0  0  0
 16 17  2  0  0  0  0
 16 19  1  0  0  0  0
 17 18  1  0  0  0  0
 17 38  1  0  0  0  0
 18 39  1  0  0  0  0
 19 40  1  0  0  0  0
 33 41  1  0  0  0  0
 34 41  1  0  0  0  0
 41 42  1  0  0  0  0
M  CHG  1  41   1
M  END
$$$$
