ZINC00901555
 OpenBabel08292219463D

 14 13  0  0  1  0  0  0  0  0999 V2000
    1.2864    1.5618   -0.0018 C   0  0  0  0  0  0  0  0  0  0  0  0
    1.1449    3.0852    0.0077 C   0  0  2  0  0  0  0  0  0  0  0  0
    2.1315    3.5412    0.0903 H   0  0  0  0  0  0  0  0  0  0  0  0
    0.2852    3.5101    1.1999 C   0  0  0  0  0  0  0  0  0  0  0  0
    0.1175    5.3163    1.2112 S   0  0  0  0  0  0  0  0  0  0  0  0
    0.3545    3.6287   -1.5319 S   0  0  0  0  0  0  0  0  0  0  0  0
   -0.0110    0.9628    0.0073 O   0  0  0  0  0  0  0  0  0  0  0  0
    1.8401    1.2428    0.8812 H   0  0  0  0  0  0  0  0  0  0  0  0
    1.8231    1.2523   -0.8987 H   0  0  0  0  0  0  0  0  0  0  0  0
   -0.7014    3.0541    1.1173 H   0  0  0  0  0  0  0  0  0  0  0  0
    0.7601    3.1835    2.1250 H   0  0  0  0  0  0  0  0  0  0  0  0
   -0.6477    5.5653    2.2889 H   0  0  0  0  0  0  0  0  0  0  0  0
   -0.8391    3.0088   -1.5214 H   0  0  0  0  0  0  0  0  0  0  0  0
    0.0021   -0.0041    0.0020 H   0  0  0  0  0  0  0  0  0  0  0  0
  1  2  1  0  0  0  0
  1  7  1  0  0  0  0
  1  8  1  0  0  0  0
  1  9  1  0  0  0  0
  2  3  1  1  0  0  0
  2  4  1  0  0  0  0
  2  6  1  0  0  0  0
  4  5  1  0  0  0  0
  4 10  1  0  0  0  0
  4 11  1  0  0  0  0
  5 12  1  0  0  0  0
  6 13  1  0  0  0  0
  7 14  1  0  0  0  0
M  END
$$$$
