ZINC03794601
 OpenBabel08292219463D

 46 48  0  0  1  0  0  0  0  0999 V2000
    0.7371    1.0040   -0.7320 C   0  0  0  0  0  0  0  0  0  0  0  0
    0.5525   -0.4470   -0.5961 N   0  3  0  0  0  0  0  0  0  0  0  0
    1.2844   -0.9253    0.5844 C   0  0  0  0  0  0  0  0  0  0  0  0
   -0.8772   -0.7462   -0.4402 C   0  0  0  0  0  0  0  0  0  0  0  0
   -1.0822   -2.2624   -0.4237 C   0  0  0  0  0  0  0  0  0  0  0  0
   -2.5713   -2.5740   -0.2613 C   0  0  0  0  0  0  0  0  0  0  0  0
   -2.7762   -4.0901   -0.2449 C   0  0  1  0  0  0  0  0  0  0  0  0
   -4.2480   -4.4155   -0.1346 C   0  0  0  0  0  0  0  0  0  0  0  0
   -5.2644   -3.8901    0.6396 C   0  0  0  0  0  0  0  0  0  0  0  0
   -6.5457   -4.3908    0.5327 C   0  0  0  0  0  0  0  0  0  0  0  0
   -6.8142   -5.4309   -0.3598 C   0  0  0  0  0  0  0  0  0  0  0  0
   -5.7821   -5.9581   -1.1395 C   0  0  0  0  0  0  0  0  0  0  0  0
   -4.5080   -5.4489   -1.0233 C   0  0  0  0  0  0  0  0  0  0  0  0
   -3.2045   -5.7906   -1.7072 C   0  0  0  0  0  0  0  0  0  0  0  0
   -2.3362   -4.6635   -1.4895 O   0  0  0  0  0  0  0  0  0  0  0  0
   -8.1418   -5.9549   -0.4748 C   0  0  0  0  0  0  0  0  0  0  0  0
   -9.1951   -6.3707   -0.5661 N   0  0  0  0  0  0  0  0  0  0  0  0
   -2.0198   -4.7033    0.9053 C   0  0  0  0  0  0  0  0  0  0  0  0
   -0.9558   -5.5509    0.6588 C   0  0  0  0  0  0  0  0  0  0  0  0
   -0.2612   -6.1134    1.7128 C   0  0  0  0  0  0  0  0  0  0  0  0
   -0.6311   -5.8277    3.0161 C   0  0  0  0  0  0  0  0  0  0  0  0
   -1.6968   -4.9786    3.2618 C   0  0  0  0  0  0  0  0  0  0  0  0
   -2.3867   -4.4131    2.2062 C   0  0  0  0  0  0  0  0  0  0  0  0
    0.0470   -6.3773    4.0472 F   0  0  0  0  0  0  0  0  0  0  0  0
    1.7980    1.2260   -0.8477 H   0  0  0  0  0  0  0  0  0  0  0  0
    0.1940    1.3588   -1.6079 H   0  0  0  0  0  0  0  0  0  0  0  0
    0.3563    1.5037    0.1587 H   0  0  0  0  0  0  0  0  0  0  0  0
    0.9036   -0.4256    1.4751 H   0  0  0  0  0  0  0  0  0  0  0  0
    1.1474   -2.0019    0.6853 H   0  0  0  0  0  0  0  0  0  0  0  0
    2.3453   -0.7033    0.4687 H   0  0  0  0  0  0  0  0  0  0  0  0
   -1.2375   -0.3207    0.4964 H   0  0  0  0  0  0  0  0  0  0  0  0
   -1.4319   -0.3137   -1.2729 H   0  0  0  0  0  0  0  0  0  0  0  0
   -0.7219   -2.6879   -1.3603 H   0  0  0  0  0  0  0  0  0  0  0  0
   -0.5275   -2.6949    0.4090 H   0  0  0  0  0  0  0  0  0  0  0  0
   -2.9315   -2.1485    0.6753 H   0  0  0  0  0  0  0  0  0  0  0  0
   -3.1259   -2.1414   -1.0940 H   0  0  0  0  0  0  0  0  0  0  0  0
   -5.0557   -3.0858    1.3295 H   0  0  0  0  0  0  0  0  0  0  0  0
   -7.3395   -3.9794    1.1385 H   0  0  0  0  0  0  0  0  0  0  0  0
   -5.9828   -6.7626   -1.8315 H   0  0  0  0  0  0  0  0  0  0  0  0
   -2.7725   -6.6884   -1.2651 H   0  0  0  0  0  0  0  0  0  0  0  0
   -3.3679   -5.9382   -2.7747 H   0  0  0  0  0  0  0  0  0  0  0  0
   -0.6677   -5.7738   -0.3579 H   0  0  0  0  0  0  0  0  0  0  0  0
    0.5697   -6.7758    1.5199 H   0  0  0  0  0  0  0  0  0  0  0  0
   -1.9865   -4.7553    4.2780 H   0  0  0  0  0  0  0  0  0  0  0  0
   -3.2152   -3.7473    2.3977 H   0  0  0  0  0  0  0  0  0  0  0  0
    0.9050   -0.9096   -1.4206 H   0  0  0  0  0  0  0  0  0  0  0  0
  1  2  1  0  0  0  0
  1 25  1  0  0  0  0
  1 26  1  0  0  0  0
  1 27  1  0  0  0  0
  2  3  1  0  0  0  0
  2  4  1  0  0  0  0
  2 46  1  0  0  0  0
  3 28  1  0  0  0  0
  3 29  1  0  0  0  0
  3 30  1  0  0  0  0
  4  5  1  0  0  0  0
  4 31  1  0  0  0  0
  4 32  1  0  0  0  0
  5  6  1  0  0  0  0
  5 33  1  0  0  0  0
  5 34  1  0  0  0  0
  6 35  1  0  0  0  0
  6 36  1  0  0  0  0
  7  6  1  6  0  0  0
  7 15  1  0  0  0  0
  7  8  1  0  0  0  0
  7 18  1  0  0  0  0
  8 13  2  0  0  0  0
  8  9  1  0  0  0  0
  9 10  2  0  0  0  0
  9 37  1  0  0  0  0
 10 11  1  0  0  0  0
 10 38  1  0  0  0  0
 11 12  2  0  0  0  0
 11 16  1  0  0  0  0
 12 13  1  0  0  0  0
 12 39  1  0  0  0  0
 13 14  1  0  0  0  0
 14 15  1  0  0  0  0
 14 40  1  0  0  0  0
 14 41  1  0  0  0  0
 16 17  3  0  0  0  0
 18 23  2  0  0  0  0
 18 19  1  0  0  0  0
 19 20  2  0  0  0  0
 19 42  1  0  0  0  0
 20 21  1  0  0  0  0
 20 43  1  0  0  0  0
 21 22  2  0  0  0  0
 21 24  1  0  0  0  0
 22 23  1  0  0  0  0
 22 44  1  0  0  0  0
 23 45  1  0  0  0  0
M  CHG  1   2   1
M  END
$$$$
