ZINC19228902
 OpenBabel08292219463D

 54 57  0  0  0  0  0  0  0  0999 V2000
    3.4438   -4.9771    0.0386 C   0  0  0  0  0  0  0  0  0  0  0  0
    4.3860   -4.5768    0.9671 C   0  0  0  0  0  0  0  0  0  0  0  0
    4.2788   -3.3360    1.5681 C   0  0  0  0  0  0  0  0  0  0  0  0
    3.2264   -2.4924    1.2424 C   0  0  0  0  0  0  0  0  0  0  0  0
    2.2729   -2.8934    0.3107 C   0  0  0  0  0  0  0  0  0  0  0  0
    2.3927   -4.1424   -0.2900 C   0  0  0  0  0  0  0  0  0  0  0  0
    1.1946   -2.0826   -0.0342 N   0  0  0  0  0  0  0  0  0  0  0  0
    1.1706   -0.6956    0.0863 C   0  0  0  0  0  0  0  0  0  0  0  0
    0.3021    0.0330   -0.7201 C   0  0  0  0  0  0  0  0  0  0  0  0
    0.2494    1.4113   -0.6229 C   0  0  0  0  0  0  0  0  0  0  0  0
    1.0609    2.0766    0.2781 C   0  0  0  0  0  0  0  0  0  0  0  0
    1.9290    1.3618    1.0829 C   0  0  0  0  0  0  0  0  0  0  0  0
    1.9886   -0.0212    0.9884 C   0  0  0  0  0  0  0  0  0  0  0  0
    3.1088   -0.9132    2.0136 S   0  0  0  0  0  0  0  0  0  0  0  0
   -0.8381    2.3093   -1.6351 Cl  0  0  0  0  0  0  0  0  0  0  0  0
   -0.0043   -2.7379   -0.5628 C   0  0  0  0  0  0  0  0  0  0  0  0
    0.1007   -2.8418   -2.0857 C   0  0  0  0  0  0  0  0  0  0  0  0
   -1.1514   -3.5261   -2.6377 C   0  0  0  0  0  0  0  0  0  0  0  0
   -1.0506   -3.6259   -4.0999 N   0  3  0  0  0  0  0  0  0  0  0  0
   -1.0530   -2.2781   -4.6836 C   0  0  0  0  0  0  0  0  0  0  0  0
   -0.9290   -2.3808   -6.2054 C   0  0  0  0  0  0  0  0  0  0  0  0
   -2.0545   -3.1644   -6.7340 N   0  0  0  0  0  0  0  0  0  0  0  0
   -2.0797   -4.5083   -6.1396 C   0  0  0  0  0  0  0  0  0  0  0  0
   -2.1942   -4.3880   -4.6184 C   0  0  0  0  0  0  0  0  0  0  0  0
   -2.0021   -3.2381   -8.2002 C   0  0  0  0  0  0  0  0  0  0  0  0
   -3.3066   -3.8390   -8.7276 C   0  0  0  0  0  0  0  0  0  0  0  0
   -4.3912   -2.9568   -8.4319 O   0  0  0  0  0  0  0  0  0  0  0  0
    3.5317   -5.9437   -0.4350 H   0  0  0  0  0  0  0  0  0  0  0  0
    5.2050   -5.2326    1.2232 H   0  0  0  0  0  0  0  0  0  0  0  0
    5.0157   -3.0230    2.2930 H   0  0  0  0  0  0  0  0  0  0  0  0
    1.6605   -4.4613   -1.0170 H   0  0  0  0  0  0  0  0  0  0  0  0
   -0.3340   -0.4806   -1.4259 H   0  0  0  0  0  0  0  0  0  0  0  0
    1.0168    3.1531    0.3527 H   0  0  0  0  0  0  0  0  0  0  0  0
    2.5626    1.8814    1.7864 H   0  0  0  0  0  0  0  0  0  0  0  0
   -0.0907   -3.7369   -0.1356 H   0  0  0  0  0  0  0  0  0  0  0  0
   -0.8849   -2.1523   -0.2985 H   0  0  0  0  0  0  0  0  0  0  0  0
    0.1870   -1.8427   -2.5129 H   0  0  0  0  0  0  0  0  0  0  0  0
    0.9813   -3.4273   -2.3500 H   0  0  0  0  0  0  0  0  0  0  0  0
   -1.2377   -4.5252   -2.2105 H   0  0  0  0  0  0  0  0  0  0  0  0
   -2.0320   -2.9406   -2.3734 H   0  0  0  0  0  0  0  0  0  0  0  0
   -1.9847   -1.7732   -4.4283 H   0  0  0  0  0  0  0  0  0  0  0  0
   -0.2114   -1.7093   -4.2881 H   0  0  0  0  0  0  0  0  0  0  0  0
   -0.9458   -1.3814   -6.6400 H   0  0  0  0  0  0  0  0  0  0  0  0
    0.0090   -2.8734   -6.4614 H   0  0  0  0  0  0  0  0  0  0  0  0
   -2.9359   -5.0610   -6.5262 H   0  0  0  0  0  0  0  0  0  0  0  0
   -1.1606   -5.0360   -6.3945 H   0  0  0  0  0  0  0  0  0  0  0  0
   -2.1986   -5.3835   -4.1745 H   0  0  0  0  0  0  0  0  0  0  0  0
   -3.1200   -3.8724   -4.3634 H   0  0  0  0  0  0  0  0  0  0  0  0
   -1.8718   -2.2365   -8.6099 H   0  0  0  0  0  0  0  0  0  0  0  0
   -1.1643   -3.8663   -8.5027 H   0  0  0  0  0  0  0  0  0  0  0  0
   -3.2335   -3.9760   -9.8064 H   0  0  0  0  0  0  0  0  0  0  0  0
   -3.4818   -4.8030   -8.2499 H   0  0  0  0  0  0  0  0  0  0  0  0
   -5.2516   -3.2748   -8.7381 H   0  0  0  0  0  0  0  0  0  0  0  0
   -0.1931   -4.0972   -4.3463 H   0  0  0  0  0  0  0  0  0  0  0  0
  1  6  2  0  0  0  0
  1  2  1  0  0  0  0
  1 28  1  0  0  0  0
  2  3  2  0  0  0  0
  2 29  1  0  0  0  0
  3  4  1  0  0  0  0
  3 30  1  0  0  0  0
  4 14  1  0  0  0  0
  4  5  2  0  0  0  0
  5  6  1  0  0  0  0
  5  7  1  0  0  0  0
  6 31  1  0  0  0  0
  7  8  1  0  0  0  0
  7 16  1  0  0  0  0
  8 13  2  0  0  0  0
  8  9  1  0  0  0  0
  9 10  2  0  0  0  0
  9 32  1  0  0  0  0
 10 11  1  0  0  0  0
 10 15  1  0  0  0  0
 11 12  2  0  0  0  0
 11 33  1  0  0  0  0
 12 13  1  0  0  0  0
 12 34  1  0  0  0  0
 13 14  1  0  0  0  0
 16 17  1  0  0  0  0
 16 35  1  0  0  0  0
 16 36  1  0  0  0  0
 17 18  1  0  0  0  0
 17 37  1  0  0  0  0
 17 38  1  0  0  0  0
 18 19  1  0  0  0  0
 18 39  1  0  0  0  0
 18 40  1  0  0  0  0
 19 24  1  0  0  0  0
 19 20  1  0  0  0  0
 19 54  1  0  0  0  0
 20 21  1  0  0  0  0
 20 41  1  0  0  0  0
 20 42  1  0  0  0  0
 21 22  1  0  0  0  0
 21 43  1  0  0  0  0
 21 44  1  0  0  0  0
 22 23  1  0  0  0  0
 22 25  1  0  0  0  0
 23 24  1  0  0  0  0
 23 45  1  0  0  0  0
 23 46  1  0  0  0  0
 24 47  1  0  0  0  0
 24 48  1  0  0  0  0
 25 26  1  0  0  0  0
 25 49  1  0  0  0  0
 25 50  1  0  0  0  0
 26 27  1  0  0  0  0
 26 51  1  0  0  0  0
 26 52  1  0  0  0  0
 27 53  1  0  0  0  0
M  CHG  1  19   1
M  END
$$$$
