ZINC00000850
 OpenBabel08292219463D

 28 29  0  0  1  0  0  0  0  0999 V2000
    0.0000    1.4808   -0.0563 C   0  0  0  0  0  0  0  0  0  0  0  0
    0.0160   -0.0482   -0.0032 C   0  0  1  0  0  0  0  0  0  0  0  0
   -1.0078   -0.4216    0.0218 H   0  0  0  0  0  0  0  0  0  0  0  0
    0.7171   -0.5859   -1.2240 C   0  0  0  0  0  0  0  0  0  0  0  0
    0.1711   -1.0748   -2.3467 C   0  0  0  0  0  0  0  0  0  0  0  0
    1.0398   -1.5461   -3.4153 C   0  0  0  0  0  0  0  0  0  0  0  0
    0.6830   -2.0941   -4.6702 C   0  0  0  0  0  0  0  0  0  0  0  0
    1.6385   -2.4860   -5.5542 C   0  0  0  0  0  0  0  0  0  0  0  0
    2.9908   -2.3649   -5.2627 C   0  0  0  0  0  0  0  0  0  0  0  0
    3.3800   -1.8346   -4.0489 C   0  0  0  0  0  0  0  0  0  0  0  0
    2.4205   -1.4334   -3.1440 C   0  0  0  0  0  0  0  0  0  0  0  0
    2.4698   -0.7160   -1.5221 S   0  0  0  0  0  0  0  0  0  0  0  0
    0.7256   -0.4876    1.2008 N   0  0  0  0  0  0  0  0  0  0  0  0
    2.0149   -0.1419    1.3870 C   0  0  0  0  0  0  0  0  0  0  0  0
    2.6042    0.4908    0.5322 O   0  0  0  0  0  0  0  0  0  0  0  0
    2.6509   -0.4975    2.5208 N   0  0  0  0  0  0  0  0  0  0  0  0
    0.0570   -1.2757    2.1687 O   0  0  0  0  0  0  0  0  0  0  0  0
    1.0237    1.8542   -0.0813 H   0  0  0  0  0  0  0  0  0  0  0  0
   -0.5280    1.8078   -0.9520 H   0  0  0  0  0  0  0  0  0  0  0  0
   -0.5071    1.8697    0.8267 H   0  0  0  0  0  0  0  0  0  0  0  0
   -0.9024   -1.1187   -2.4569 H   0  0  0  0  0  0  0  0  0  0  0  0
   -0.3600   -2.2026   -4.9285 H   0  0  0  0  0  0  0  0  0  0  0  0
    1.3390   -2.9015   -6.5050 H   0  0  0  0  0  0  0  0  0  0  0  0
    3.7326   -2.6836   -5.9800 H   0  0  0  0  0  0  0  0  0  0  0  0
    4.4285   -1.7353   -3.8098 H   0  0  0  0  0  0  0  0  0  0  0  0
    2.2051   -1.0642    3.1697 H   0  0  0  0  0  0  0  0  0  0  0  0
    3.5545   -0.1868    2.6879 H   0  0  0  0  0  0  0  0  0  0  0  0
    0.5803   -1.4510    2.9628 H   0  0  0  0  0  0  0  0  0  0  0  0
  1  2  1  0  0  0  0
  1 18  1  0  0  0  0
  1 19  1  0  0  0  0
  1 20  1  0  0  0  0
  2  3  1  1  0  0  0
  2  4  1  0  0  0  0
  2 13  1  0  0  0  0
  4 12  1  0  0  0  0
  4  5  2  0  0  0  0
  5  6  1  0  0  0  0
  5 21  1  0  0  0  0
  6 11  2  0  0  0  0
  6  7  1  0  0  0  0
  7  8  2  0  0  0  0
  7 22  1  0  0  0  0
  8  9  1  0  0  0  0
  8 23  1  0  0  0  0
  9 10  2  0  0  0  0
  9 24  1  0  0  0  0
 10 11  1  0  0  0  0
 10 25  1  0  0  0  0
 11 12  1  0  0  0  0
 13 14  1  0  0  0  0
 13 17  1  0  0  0  0
 14 15  2  0  0  0  0
 14 16  1  0  0  0  0
 16 26  1  0  0  0  0
 16 27  1  0  0  0  0
 17 28  1  0  0  0  0
M  END
$$$$
