ZINC00000746
 OpenBabel08292219463D

 36 36  0  0  1  0  0  0  0  0999 V2000
   -0.0187    1.5258    0.0104 C   0  0  0  0  0  0  0  0  0  0  0  0
    0.0021   -0.0041    0.0020 C   0  0  0  0  0  0  0  0  0  0  0  0
    0.7421   -0.5109    1.2415 C   0  0  0  0  0  0  0  0  0  0  0  0
   -1.4333   -0.5336    0.0129 C   0  0  0  0  0  0  0  0  0  0  0  0
    0.6897   -0.4778   -1.2066 N   0  3  0  0  0  0  0  0  0  0  0  0
    2.0678    0.0307   -1.2170 C   0  0  0  0  0  0  0  0  0  0  0  0
    2.7840   -0.4628   -2.4758 C   0  0  1  0  0  0  0  0  0  0  0  0
    2.2568   -0.1017   -3.3589 H   0  0  0  0  0  0  0  0  0  0  0  0
    4.1978    0.0589   -2.4865 C   0  0  0  0  0  0  0  0  0  0  0  0
    5.1919   -0.6293   -1.8176 C   0  0  0  0  0  0  0  0  0  0  0  0
    6.4946   -0.1510   -1.8260 C   0  0  0  0  0  0  0  0  0  0  0  0
    6.7981    1.0182   -2.5062 C   0  0  0  0  0  0  0  0  0  0  0  0
    5.7989    1.7068   -3.1766 C   0  0  0  0  0  0  0  0  0  0  0  0
    4.4989    1.2214   -3.1699 C   0  0  0  0  0  0  0  0  0  0  0  0
    6.0933    2.8535   -3.8439 O   0  0  0  0  0  0  0  0  0  0  0  0
    7.4718   -0.8279   -1.1675 O   0  0  0  0  0  0  0  0  0  0  0  0
    2.8033   -1.8916   -2.4837 O   0  0  0  0  0  0  0  0  0  0  0  0
    1.0039    1.9031    0.0027 H   0  0  0  0  0  0  0  0  0  0  0  0
   -0.5459    1.8868   -0.8726 H   0  0  0  0  0  0  0  0  0  0  0  0
   -0.5289    1.8773    0.9072 H   0  0  0  0  0  0  0  0  0  0  0  0
    0.2319   -0.1594    2.1383 H   0  0  0  0  0  0  0  0  0  0  0  0
    0.7568   -1.6008    1.2356 H   0  0  0  0  0  0  0  0  0  0  0  0
    1.7647   -0.1336    1.2338 H   0  0  0  0  0  0  0  0  0  0  0  0
   -1.9605   -0.1726   -0.8702 H   0  0  0  0  0  0  0  0  0  0  0  0
   -1.4185   -1.6235    0.0069 H   0  0  0  0  0  0  0  0  0  0  0  0
   -1.9435   -0.1821    0.9097 H   0  0  0  0  0  0  0  0  0  0  0  0
    0.7033   -1.4867   -1.2121 H   0  0  0  0  0  0  0  0  0  0  0  0
    2.0530    1.1205   -1.2110 H   0  0  0  0  0  0  0  0  0  0  0  0
    2.5950   -0.3304   -0.3340 H   0  0  0  0  0  0  0  0  0  0  0  0
    4.9548   -1.5399   -1.2875 H   0  0  0  0  0  0  0  0  0  0  0  0
    7.8113    1.3923   -2.5136 H   0  0  0  0  0  0  0  0  0  0  0  0
    3.7210    1.7551   -3.6957 H   0  0  0  0  0  0  0  0  0  0  0  0
    6.3460    2.7173   -4.7673 H   0  0  0  0  0  0  0  0  0  0  0  0
    7.9219   -1.4924   -1.7070 H   0  0  0  0  0  0  0  0  0  0  0  0
    3.2576   -2.2830   -1.7250 H   0  0  0  0  0  0  0  0  0  0  0  0
    0.2017   -0.1436   -2.0240 H   0  0  0  0  0  0  0  0  0  0  0  0
  1  2  1  0  0  0  0
  1 18  1  0  0  0  0
  1 19  1  0  0  0  0
  1 20  1  0  0  0  0
  2  3  1  0  0  0  0
  2  4  1  0  0  0  0
  2  5  1  0  0  0  0
  3 21  1  0  0  0  0
  3 22  1  0  0  0  0
  3 23  1  0  0  0  0
  4 24  1  0  0  0  0
  4 25  1  0  0  0  0
  4 26  1  0  0  0  0
  5  6  1  0  0  0  0
  5 27  1  0  0  0  0
  5 36  1  0  0  0  0
  6  7  1  0  0  0  0
  6 28  1  0  0  0  0
  6 29  1  0  0  0  0
  7  8  1  6  0  0  0
  7  9  1  0  0  0  0
  7 17  1  0  0  0  0
  9 14  2  0  0  0  0
  9 10  1  0  0  0  0
 10 11  2  0  0  0  0
 10 30  1  0  0  0  0
 11 12  1  0  0  0  0
 11 16  1  0  0  0  0
 12 13  2  0  0  0  0
 12 31  1  0  0  0  0
 13 14  1  0  0  0  0
 13 15  1  0  0  0  0
 14 32  1  0  0  0  0
 15 33  1  0  0  0  0
 16 34  1  0  0  0  0
 17 35  1  0  0  0  0
M  CHG  1   5   1
M  END
$$$$
