ZINC14438802
 OpenBabel08292219463D

 19 19  0  0  1  0  0  0  0  0999 V2000
   -0.0187    1.5258    0.0104 C   0  0  0  0  0  0  0  0  0  0  0  0
    0.0021   -0.0041    0.0020 C   0  0  1  0  0  0  0  0  0  0  0  0
    0.6044   -0.3639    0.8362 H   0  0  0  0  0  0  0  0  0  0  0  0
   -1.4051   -0.5263    0.1365 C   0  0  0  0  0  0  0  0  0  0  0  0
   -1.4147   -0.4855    3.0517 H   0  0  0  0  0  0  0  0  0  0  0  0
   -1.9429   -1.0644    1.2496 C   0  0  0  0  0  0  0  0  0  0  0  0
   -3.2790   -1.4174    0.9311 C   0  0  0  0  0  0  0  0  0  0  0  0
   -3.4768   -1.0722   -0.3615 C   0  0  0  0  0  0  0  0  0  0  0  0
   -4.6296   -1.2401   -1.0622 O   0  0  0  0  0  0  0  0  0  0  0  0
   -2.3406   -0.5289   -0.8341 O   0  0  0  0  0  0  0  0  0  0  0  0
   -4.1892   -1.9943    1.7672 O   0  5  0  0  0  0  0  0  0  0  0  0
   -1.3219   -1.2365    2.4496 O   0  0  0  0  0  0  0  0  0  0  0  0
    0.5662   -0.4660   -1.2270 O   0  0  0  0  0  0  0  0  0  0  0  0
    1.3220    2.0204    0.0003 O   0  0  0  0  0  0  0  0  0  0  0  0
   -0.5459    1.8868   -0.8726 H   0  0  0  0  0  0  0  0  0  0  0  0
   -0.5289    1.8773    0.9072 H   0  0  0  0  0  0  0  0  0  0  0  0
    0.0804   -0.1829   -2.0137 H   0  0  0  0  0  0  0  0  0  0  0  0
    1.3852    2.9853    0.0049 H   0  0  0  0  0  0  0  0  0  0  0  0
   -5.2351   -0.4880   -1.0095 H   0  0  0  0  0  0  0  0  0  0  0  0
  1  2  1  0  0  0  0
  1 14  1  0  0  0  0
  1 15  1  0  0  0  0
  1 16  1  0  0  0  0
  2  3  1  1  0  0  0
  2 13  1  0  0  0  0
  2  4  1  0  0  0  0
  4 10  1  0  0  0  0
  4  6  2  0  0  0  0
  5 12  1  0  0  0  0
  6  7  1  0  0  0  0
  6 12  1  0  0  0  0
  7  8  2  0  0  0  0
  7 11  1  0  0  0  0
  8  9  1  0  0  0  0
  8 10  1  0  0  0  0
  9 19  1  0  0  0  0
 13 17  1  0  0  0  0
 14 18  1  0  0  0  0
M  CHG  1  11  -1
M  END
$$$$
