ZINC03812892
 OpenBabel08292219463D

 77 80  0  0  1  0  0  0  0  0999 V2000
   -5.6570   -1.8380   -5.8329 C   0  0  0  0  0  0  0  0  0  0  0  0
   -5.2316   -3.3070   -5.7878 C   0  0  0  0  0  0  0  0  0  0  0  0
   -5.1149   -3.7596   -4.3310 C   0  0  0  0  0  0  0  0  0  0  0  0
   -6.2769   -4.1630   -6.5057 C   0  0  0  0  0  0  0  0  0  0  0  0
   -3.8977   -3.4648   -6.4712 C   0  0  0  0  0  0  0  0  0  0  0  0
   -3.7802   -4.2876   -7.5758 C   0  0  0  0  0  0  0  0  0  0  0  0
   -2.5567   -4.4324   -8.2027 C   0  0  0  0  0  0  0  0  0  0  0  0
   -1.4508   -3.7541   -7.7253 C   0  0  0  0  0  0  0  0  0  0  0  0
   -1.5686   -2.9306   -6.6212 C   0  0  0  0  0  0  0  0  0  0  0  0
   -2.7930   -2.7825   -5.9969 C   0  0  0  0  0  0  0  0  0  0  0  0
   -0.1168   -3.9128   -8.4081 C   0  0  2  0  0  0  0  0  0  0  0  0
   -0.2727   -4.2002   -9.4478 H   0  0  0  0  0  0  0  0  0  0  0  0
    0.6951   -4.9963   -7.6956 C   0  0  0  0  0  0  0  0  0  0  0  0
    1.9961   -5.2452   -8.4615 C   0  0  0  0  0  0  0  0  0  0  0  0
    2.8080   -6.3287   -7.7490 C   0  0  0  0  0  0  0  0  0  0  0  0
    4.0571   -6.5677   -8.4843 N   0  3  1  0  0  0  0  0  0  0  0  0
    4.8871   -5.3578   -8.4420 C   0  0  0  0  0  0  0  0  0  0  0  0
    6.1529   -5.5737   -9.2743 C   0  0  0  0  0  0  0  0  0  0  0  0
    6.9399   -6.7549   -8.6994 C   0  0  1  0  0  0  0  0  0  0  0  0
    6.0400   -7.9939   -8.6795 C   0  0  0  0  0  0  0  0  0  0  0  0
    4.7784   -7.6883   -7.8693 C   0  0  0  0  0  0  0  0  0  0  0  0
    8.1658   -7.0269   -9.5736 C   0  0  0  0  0  0  0  0  0  0  0  0
    9.0396   -5.7996   -9.6092 C   0  0  0  0  0  0  0  0  0  0  0  0
    9.4143   -5.1835   -8.4299 C   0  0  0  0  0  0  0  0  0  0  0  0
   10.2158   -4.0577   -8.4626 C   0  0  0  0  0  0  0  0  0  0  0  0
   10.6430   -3.5483   -9.6747 C   0  0  0  0  0  0  0  0  0  0  0  0
   10.2690   -4.1651  -10.8540 C   0  0  0  0  0  0  0  0  0  0  0  0
    9.4710   -5.2933  -10.8210 C   0  0  0  0  0  0  0  0  0  0  0  0
    8.9453   -8.1821   -9.0001 C   0  0  0  0  0  0  0  0  0  0  0  0
    9.3013   -8.1805   -7.6644 C   0  0  0  0  0  0  0  0  0  0  0  0
   10.0164   -9.2401   -7.1384 C   0  0  0  0  0  0  0  0  0  0  0  0
   10.3751  -10.3016   -7.9480 C   0  0  0  0  0  0  0  0  0  0  0  0
   10.0184  -10.3036   -9.2835 C   0  0  0  0  0  0  0  0  0  0  0  0
    9.2996   -9.2460   -9.8085 C   0  0  0  0  0  0  0  0  0  0  0  0
    7.7429   -7.3493  -10.8999 O   0  0  0  0  0  0  0  0  0  0  0  0
    0.5943   -2.6743   -8.3578 O   0  0  0  0  0  0  0  0  0  0  0  0
   -4.9123   -1.2282   -5.3215 H   0  0  0  0  0  0  0  0  0  0  0  0
   -5.7401   -1.5155   -6.8708 H   0  0  0  0  0  0  0  0  0  0  0  0
   -6.6218   -1.7238   -5.3387 H   0  0  0  0  0  0  0  0  0  0  0  0
   -6.0797   -3.6455   -3.8367 H   0  0  0  0  0  0  0  0  0  0  0  0
   -4.8118   -4.8062   -4.2989 H   0  0  0  0  0  0  0  0  0  0  0  0
   -4.3702   -3.1498   -3.8196 H   0  0  0  0  0  0  0  0  0  0  0  0
   -6.3600   -3.8405   -7.5436 H   0  0  0  0  0  0  0  0  0  0  0  0
   -5.9738   -5.2095   -6.4736 H   0  0  0  0  0  0  0  0  0  0  0  0
   -7.2417   -4.0488   -6.0114 H   0  0  0  0  0  0  0  0  0  0  0  0
   -4.6441   -4.8176   -7.9488 H   0  0  0  0  0  0  0  0  0  0  0  0
   -2.4646   -5.0758   -9.0653 H   0  0  0  0  0  0  0  0  0  0  0  0
   -0.7046   -2.4010   -6.2480 H   0  0  0  0  0  0  0  0  0  0  0  0
   -2.8859   -2.1362   -5.1366 H   0  0  0  0  0  0  0  0  0  0  0  0
    0.9270   -4.6692   -6.6821 H   0  0  0  0  0  0  0  0  0  0  0  0
    0.1148   -5.9182   -7.6560 H   0  0  0  0  0  0  0  0  0  0  0  0
    1.7641   -5.5723   -9.4750 H   0  0  0  0  0  0  0  0  0  0  0  0
    2.5764   -4.3234   -8.5011 H   0  0  0  0  0  0  0  0  0  0  0  0
    3.0399   -6.0016   -6.7355 H   0  0  0  0  0  0  0  0  0  0  0  0
    2.2277   -7.2506   -7.7094 H   0  0  0  0  0  0  0  0  0  0  0  0
    4.3245   -4.5174   -8.8485 H   0  0  0  0  0  0  0  0  0  0  0  0
    5.1637   -5.1434   -7.4097 H   0  0  0  0  0  0  0  0  0  0  0  0
    5.8774   -5.7879  -10.3069 H   0  0  0  0  0  0  0  0  0  0  0  0
    6.7686   -4.6749   -9.2401 H   0  0  0  0  0  0  0  0  0  0  0  0
    7.2596   -6.5203   -7.6841 H   0  0  0  0  0  0  0  0  0  0  0  0
    5.7622   -8.2584   -9.6998 H   0  0  0  0  0  0  0  0  0  0  0  0
    6.5751   -8.8251   -8.2202 H   0  0  0  0  0  0  0  0  0  0  0  0
    5.0574   -7.4243   -6.8492 H   0  0  0  0  0  0  0  0  0  0  0  0
    4.1356   -8.5685   -7.8530 H   0  0  0  0  0  0  0  0  0  0  0  0
    9.0806   -5.5814   -7.4830 H   0  0  0  0  0  0  0  0  0  0  0  0
   10.5080   -3.5759   -7.5413 H   0  0  0  0  0  0  0  0  0  0  0  0
   11.2686   -2.6684   -9.7003 H   0  0  0  0  0  0  0  0  0  0  0  0
   10.6025   -3.7669  -11.8009 H   0  0  0  0  0  0  0  0  0  0  0  0
    9.1819   -5.7773  -11.7422 H   0  0  0  0  0  0  0  0  0  0  0  0
    9.0210   -7.3512   -7.0319 H   0  0  0  0  0  0  0  0  0  0  0  0
   10.2951   -9.2385   -6.0950 H   0  0  0  0  0  0  0  0  0  0  0  0
   10.9345  -11.1291   -7.5372 H   0  0  0  0  0  0  0  0  0  0  0  0
   10.2990  -11.1328   -9.9161 H   0  0  0  0  0  0  0  0  0  0  0  0
    9.0176   -9.2493  -10.8511 H   0  0  0  0  0  0  0  0  0  0  0  0
    7.2342   -6.6493  -11.3316 H   0  0  0  0  0  0  0  0  0  0  0  0
    0.7687   -2.3570   -7.4611 H   0  0  0  0  0  0  0  0  0  0  0  0
    3.8432   -6.7930   -9.4443 H   0  0  0  0  0  0  0  0  0  0  0  0
  1  2  1  0  0  0  0
  1 37  1  0  0  0  0
  1 38  1  0  0  0  0
  1 39  1  0  0  0  0
  2  3  1  0  0  0  0
  2  4  1  0  0  0  0
  2  5  1  0  0  0  0
  3 40  1  0  0  0  0
  3 41  1  0  0  0  0
  3 42  1  0  0  0  0
  4 43  1  0  0  0  0
  4 44  1  0  0  0  0
  4 45  1  0  0  0  0
  5 10  2  0  0  0  0
  5  6  1  0  0  0  0
  6  7  2  0  0  0  0
  6 46  1  0  0  0  0
  7  8  1  0  0  0  0
  7 47  1  0  0  0  0
  8  9  2  0  0  0  0
  8 11  1  0  0  0  0
  9 10  1  0  0  0  0
  9 48  1  0  0  0  0
 10 49  1  0  0  0  0
 11 12  1  6  0  0  0
 11 13  1  0  0  0  0
 11 36  1  0  0  0  0
 13 14  1  0  0  0  0
 13 50  1  0  0  0  0
 13 51  1  0  0  0  0
 14 15  1  0  0  0  0
 14 52  1  0  0  0  0
 14 53  1  0  0  0  0
 15 16  1  0  0  0  0
 15 54  1  0  0  0  0
 15 55  1  0  0  0  0
 16 21  1  0  0  0  0
 16 17  1  0  0  0  0
 16 77  1  6  0  0  0
 17 18  1  0  0  0  0
 17 56  1  0  0  0  0
 17 57  1  0  0  0  0
 18 19  1  0  0  0  0
 18 58  1  0  0  0  0
 18 59  1  0  0  0  0
 19 20  1  0  0  0  0
 19 22  1  0  0  0  0
 19 60  1  1  0  0  0
 20 21  1  0  0  0  0
 20 61  1  0  0  0  0
 20 62  1  0  0  0  0
 21 63  1  0  0  0  0
 21 64  1  0  0  0  0
 22 23  1  0  0  0  0
 22 29  1  0  0  0  0
 22 35  1  0  0  0  0
 23 28  2  0  0  0  0
 23 24  1  0  0  0  0
 24 25  2  0  0  0  0
 24 65  1  0  0  0  0
 25 26  1  0  0  0  0
 25 66  1  0  0  0  0
 26 27  2  0  0  0  0
 26 67  1  0  0  0  0
 27 28  1  0  0  0  0
 27 68  1  0  0  0  0
 28 69  1  0  0  0  0
 29 34  2  0  0  0  0
 29 30  1  0  0  0  0
 30 31  2  0  0  0  0
 30 70  1  0  0  0  0
 31 32  1  0  0  0  0
 31 71  1  0  0  0  0
 32 33  2  0  0  0  0
 32 72  1  0  0  0  0
 33 34  1  0  0  0  0
 33 73  1  0  0  0  0
 34 74  1  0  0  0  0
 35 75  1  0  0  0  0
 36 76  1  0  0  0  0
M  CHG  1  16   1
M  END
$$$$
