ZINC04474682
 OpenBabel08292219463D

 70 71  0  0  1  0  0  0  0  0999 V2000
    2.5779   -5.6561    5.5271 C   0  0  0  0  0  0  0  0  0  0  0  0
    1.9464   -5.2045    4.2087 C   0  0  0  0  0  0  0  0  0  0  0  0
    2.8831   -5.5508    3.0496 C   0  0  0  0  0  0  0  0  0  0  0  0
    0.6960   -5.8717    4.0263 O   0  0  0  0  0  0  0  0  0  0  0  0
   -0.2494   -5.2161    3.3347 C   0  0  0  0  0  0  0  0  0  0  0  0
   -0.0227   -4.1124    2.8986 O   0  0  0  0  0  0  0  0  0  0  0  0
   -1.5934   -5.8568    3.1021 C   0  0  0  0  0  0  0  0  0  0  0  0
   -2.4786   -4.9061    2.2937 C   0  0  0  0  0  0  0  0  0  0  0  0
   -3.8431   -5.5565    2.0576 C   0  0  0  0  0  0  0  0  0  0  0  0
   -4.7150   -4.6201    1.2614 C   0  0  0  0  0  0  0  0  0  0  0  0
   -5.3012   -5.0413    0.1682 C   0  0  0  0  0  0  0  0  0  0  0  0
   -5.2450   -6.5009   -0.2024 C   0  0  0  0  0  0  0  0  0  0  0  0
   -6.6642   -7.0229   -0.4357 C   0  0  1  0  0  0  0  0  0  0  0  0
   -7.1568   -6.4320   -1.2079 H   0  0  0  0  0  0  0  0  0  0  0  0
   -6.6192   -8.5070   -0.8542 C   0  0  2  0  0  0  0  0  0  0  0  0
   -7.4161   -8.7274   -1.5645 H   0  0  0  0  0  0  0  0  0  0  0  0
   -6.8424   -9.2816    0.4684 C   0  0  0  0  0  0  0  0  0  0  0  0
   -7.8880   -8.4073    1.2042 C   0  0  2  0  0  0  0  0  0  0  0  0
   -8.8898   -8.6116    0.8263 H   0  0  0  0  0  0  0  0  0  0  0  0
   -7.4713   -6.9583    0.8727 C   0  0  2  0  0  0  0  0  0  0  0  0
   -6.8520   -6.5551    1.6739 H   0  0  0  0  0  0  0  0  0  0  0  0
   -8.6946   -6.0990    0.6828 C   0  0  0  0  0  0  0  0  0  0  0  0
   -8.8625   -5.0270    1.4169 C   0  0  0  0  0  0  0  0  0  0  0  0
  -10.0858   -4.1677    1.2269 C   0  0  2  0  0  0  0  0  0  0  0  0
   -9.7869   -3.1865    0.8580 H   0  0  0  0  0  0  0  0  0  0  0  0
  -10.8112   -4.0102    2.5648 C   0  0  0  0  0  0  0  0  0  0  0  0
  -11.9039   -3.1024    2.4102 O   0  0  0  0  0  0  0  0  0  0  0  0
  -12.6572   -2.8502    3.5128 C   0  0  0  0  0  0  0  0  0  0  0  0
  -12.3475   -3.4595    4.7203 C   0  0  0  0  0  0  0  0  0  0  0  0
  -13.1144   -3.2012    5.8397 C   0  0  0  0  0  0  0  0  0  0  0  0
  -14.1902   -2.3361    5.7576 C   0  0  0  0  0  0  0  0  0  0  0  0
  -14.5011   -1.7281    4.5556 C   0  0  0  0  0  0  0  0  0  0  0  0
  -13.7336   -1.9788    3.4344 C   0  0  0  0  0  0  0  0  0  0  0  0
  -15.6744   -0.7863    4.4697 C   0  0  0  0  0  0  0  0  0  0  0  0
  -16.2872   -0.6892    5.7235 F   0  0  0  0  0  0  0  0  0  0  0  0
  -15.2292    0.4780    4.0690 F   0  0  0  0  0  0  0  0  0  0  0  0
  -16.5960   -1.2735    3.5367 F   0  0  0  0  0  0  0  0  0  0  0  0
  -10.9602   -4.7862    0.2809 O   0  0  0  0  0  0  0  0  0  0  0  0
   -7.8297   -8.6375    2.6133 O   0  0  0  0  0  0  0  0  0  0  0  0
   -5.3459   -8.8296   -1.4170 O   0  0  0  0  0  0  0  0  0  0  0  0
    3.5317   -5.1472    5.6662 H   0  0  0  0  0  0  0  0  0  0  0  0
    1.9106   -5.4094    6.3529 H   0  0  0  0  0  0  0  0  0  0  0  0
    2.7413   -6.7335    5.5014 H   0  0  0  0  0  0  0  0  0  0  0  0
    1.7830   -4.1271    4.2344 H   0  0  0  0  0  0  0  0  0  0  0  0
    3.8369   -5.0418    3.1887 H   0  0  0  0  0  0  0  0  0  0  0  0
    3.0465   -6.6281    3.0239 H   0  0  0  0  0  0  0  0  0  0  0  0
    2.4332   -5.2290    2.1103 H   0  0  0  0  0  0  0  0  0  0  0  0
   -1.4616   -6.7877    2.5507 H   0  0  0  0  0  0  0  0  0  0  0  0
   -2.0668   -6.0666    4.0613 H   0  0  0  0  0  0  0  0  0  0  0  0
   -2.6103   -3.9752    2.8452 H   0  0  0  0  0  0  0  0  0  0  0  0
   -2.0052   -4.6963    1.3346 H   0  0  0  0  0  0  0  0  0  0  0  0
   -3.7113   -6.4874    1.5062 H   0  0  0  0  0  0  0  0  0  0  0  0
   -4.3165   -5.7663    3.0168 H   0  0  0  0  0  0  0  0  0  0  0  0
   -4.8564   -3.6017    1.5920 H   0  0  0  0  0  0  0  0  0  0  0  0
   -5.8249   -4.3425   -0.4673 H   0  0  0  0  0  0  0  0  0  0  0  0
   -4.6590   -6.6221   -1.1135 H   0  0  0  0  0  0  0  0  0  0  0  0
   -4.7793   -7.0636    0.6067 H   0  0  0  0  0  0  0  0  0  0  0  0
   -7.2412  -10.2766    0.2708 H   0  0  0  0  0  0  0  0  0  0  0  0
   -5.9173   -9.3419    1.0416 H   0  0  0  0  0  0  0  0  0  0  0  0
   -9.4329   -6.3668   -0.0586 H   0  0  0  0  0  0  0  0  0  0  0  0
   -8.1242   -4.7592    2.1582 H   0  0  0  0  0  0  0  0  0  0  0  0
  -11.1877   -4.9799    2.8903 H   0  0  0  0  0  0  0  0  0  0  0  0
  -10.1179   -3.6207    3.3103 H   0  0  0  0  0  0  0  0  0  0  0  0
  -11.5077   -4.1355    4.7848 H   0  0  0  0  0  0  0  0  0  0  0  0
  -12.8739   -3.6755    6.7797 H   0  0  0  0  0  0  0  0  0  0  0  0
  -14.7886   -2.1355    6.6340 H   0  0  0  0  0  0  0  0  0  0  0  0
  -13.9742   -1.5001    2.4967 H   0  0  0  0  0  0  0  0  0  0  0  0
  -11.2667   -5.6646    0.5444 H   0  0  0  0  0  0  0  0  0  0  0  0
   -8.0275   -9.5481    2.8716 H   0  0  0  0  0  0  0  0  0  0  0  0
   -5.2621   -9.7512   -1.6978 H   0  0  0  0  0  0  0  0  0  0  0  0
  1  2  1  0  0  0  0
  1 41  1  0  0  0  0
  1 42  1  0  0  0  0
  1 43  1  0  0  0  0
  2  3  1  0  0  0  0
  2  4  1  0  0  0  0
  2 44  1  0  0  0  0
  3 45  1  0  0  0  0
  3 46  1  0  0  0  0
  3 47  1  0  0  0  0
  4  5  1  0  0  0  0
  5  6  2  0  0  0  0
  5  7  1  0  0  0  0
  7  8  1  0  0  0  0
  7 48  1  0  0  0  0
  7 49  1  0  0  0  0
  8  9  1  0  0  0  0
  8 50  1  0  0  0  0
  8 51  1  0  0  0  0
  9 10  1  0  0  0  0
  9 52  1  0  0  0  0
  9 53  1  0  0  0  0
 10 11  2  0  0  0  0
 10 54  1  0  0  0  0
 11 12  1  0  0  0  0
 11 55  1  0  0  0  0
 12 13  1  0  0  0  0
 12 56  1  0  0  0  0
 12 57  1  0  0  0  0
 13 14  1  6  0  0  0
 13 20  1  0  0  0  0
 13 15  1  0  0  0  0
 15 16  1  6  0  0  0
 15 17  1  0  0  0  0
 15 40  1  0  0  0  0
 17 18  1  0  0  0  0
 17 58  1  0  0  0  0
 17 59  1  0  0  0  0
 18 19  1  6  0  0  0
 18 20  1  0  0  0  0
 18 39  1  0  0  0  0
 20 21  1  1  0  0  0
 20 22  1  0  0  0  0
 22 23  2  0  0  0  0
 22 60  1  0  0  0  0
 23 24  1  0  0  0  0
 23 61  1  0  0  0  0
 24 25  1  6  0  0  0
 24 26  1  0  0  0  0
 24 38  1  0  0  0  0
 26 27  1  0  0  0  0
 26 62  1  0  0  0  0
 26 63  1  0  0  0  0
 27 28  1  0  0  0  0
 28 33  2  0  0  0  0
 28 29  1  0  0  0  0
 29 30  2  0  0  0  0
 29 64  1  0  0  0  0
 30 31  1  0  0  0  0
 30 65  1  0  0  0  0
 31 32  2  0  0  0  0
 31 66  1  0  0  0  0
 32 33  1  0  0  0  0
 32 34  1  0  0  0  0
 33 67  1  0  0  0  0
 34 35  1  0  0  0  0
 34 36  1  0  0  0  0
 34 37  1  0  0  0  0
 38 68  1  0  0  0  0
 39 69  1  0  0  0  0
 40 70  1  0  0  0  0
M  END
$$$$
