ZINC03919581
 OpenBabel08292219463D

 59 63  0  0  0  0  0  0  0  0999 V2000
    0.3603    0.9013    0.4657 C   0  0  0  0  0  0  0  0  0  0  0  0
    0.2113   -0.5996    0.2092 C   0  0  0  0  0  0  0  0  0  0  0  0
   -1.2413   -0.9859    0.3172 C   0  0  0  0  0  0  0  0  0  0  0  0
   -1.8455   -1.3656    1.4141 N   0  0  0  0  0  0  0  0  0  0  0  0
   -3.1256   -1.6313    1.1528 C   0  0  0  0  0  0  0  0  0  0  0  0
   -3.3352   -1.4063   -0.1788 C   0  0  0  0  0  0  0  0  0  0  0  0
   -2.1243   -0.9898   -0.6972 N   0  0  0  0  0  0  0  0  0  0  0  0
   -1.8526   -0.6246   -2.0897 C   0  0  0  0  0  0  0  0  0  0  0  0
   -1.5493   -1.8681   -2.8852 C   0  0  0  0  0  0  0  0  0  0  0  0
   -0.2724   -2.4102   -2.8571 C   0  0  0  0  0  0  0  0  0  0  0  0
    0.0261   -3.5472   -3.5781 C   0  0  0  0  0  0  0  0  0  0  0  0
   -0.9590   -4.1601   -4.3418 C   0  0  0  0  0  0  0  0  0  0  0  0
   -2.2515   -3.6066   -4.3661 C   0  0  0  0  0  0  0  0  0  0  0  0
   -2.5356   -2.4582   -3.6256 C   0  0  0  0  0  0  0  0  0  0  0  0
   -3.0370   -4.4740   -5.2477 C   0  0  0  0  0  0  0  0  0  0  0  0
   -2.1908   -5.4452   -5.6701 C   0  0  0  0  0  0  0  0  0  0  0  0
   -0.9697   -5.2529   -5.1321 O   0  0  0  0  0  0  0  0  0  0  0  0
   -2.5523   -6.5484   -6.5827 C   0  0  0  0  0  0  0  0  0  0  0  0
   -3.2548   -6.2842   -7.7592 C   0  0  0  0  0  0  0  0  0  0  0  0
   -3.5893   -7.3188   -8.6080 C   0  0  0  0  0  0  0  0  0  0  0  0
   -3.2314   -8.6200   -8.2986 C   0  0  0  0  0  0  0  0  0  0  0  0
   -2.5361   -8.8959   -7.1369 C   0  0  0  0  0  0  0  0  0  0  0  0
   -2.1866   -7.8666   -6.2749 C   0  0  0  0  0  0  0  0  0  0  0  0
   -1.4800   -8.1424   -5.1050 N   0  0  0  0  0  2  0  0  0  0  0  0
   -1.0501   -9.7006   -4.7451 S   0  0  0  0  0  0  0  0  0  0  0  0
   -2.2826  -10.3852   -4.5683 O   0  0  0  0  0  0  0  0  0  0  0  0
   -0.1540  -10.0780   -5.7814 O   0  0  0  0  0  0  0  0  0  0  0  0
   -0.1660   -9.5873   -3.1652 C   0  0  0  0  0  0  0  0  0  0  0  0
   -1.0151   -9.0472   -2.1934 F   0  0  0  0  0  0  0  0  0  0  0  0
    0.2447  -10.8643   -2.7680 F   0  0  0  0  0  0  0  0  0  0  0  0
    0.9543   -8.7629   -3.3158 F   0  0  0  0  0  0  0  0  0  0  0  0
   -4.8618   -4.2788   -5.7035 Br  0  0  0  0  0  0  0  0  0  0  0  0
   -4.5965   -1.5700   -0.9111 C   0  0  0  0  0  0  0  0  0  0  0  0
   -5.5660   -2.0492   -0.3535 O   0  0  0  0  0  0  0  0  0  0  0  0
   -4.6809   -1.1896   -2.2013 N   0  0  0  0  0  0  0  0  0  0  0  0
   -4.1571   -2.0966    2.1480 C   0  0  0  0  0  0  0  0  0  0  0  0
   -3.7646   -2.0919    3.6268 C   0  0  0  0  0  0  0  0  0  0  0  0
   -3.8932   -3.4174    2.8737 C   0  0  0  0  0  0  0  0  0  0  0  0
    1.4110    1.1808    0.3876 H   0  0  0  0  0  0  0  0  0  0  0  0
   -0.2189    1.4554   -0.2730 H   0  0  0  0  0  0  0  0  0  0  0  0
   -0.0050    1.1372    1.4652 H   0  0  0  0  0  0  0  0  0  0  0  0
    0.5767   -0.8355   -0.7903 H   0  0  0  0  0  0  0  0  0  0  0  0
    0.7905   -1.1537    0.9479 H   0  0  0  0  0  0  0  0  0  0  0  0
   -2.7257   -0.1271   -2.5119 H   0  0  0  0  0  0  0  0  0  0  0  0
   -0.9965    0.0491   -2.1282 H   0  0  0  0  0  0  0  0  0  0  0  0
    0.4961   -1.9363   -2.2645 H   0  0  0  0  0  0  0  0  0  0  0  0
    1.0237   -3.9599   -3.5493 H   0  0  0  0  0  0  0  0  0  0  0  0
   -3.5292   -2.0353   -3.6406 H   0  0  0  0  0  0  0  0  0  0  0  0
   -3.5365   -5.2709   -8.0046 H   0  0  0  0  0  0  0  0  0  0  0  0
   -4.1333   -7.1129   -9.5180 H   0  0  0  0  0  0  0  0  0  0  0  0
   -3.4974   -9.4239   -8.9690 H   0  0  0  0  0  0  0  0  0  0  0  0
   -2.2605   -9.9134   -6.9020 H   0  0  0  0  0  0  0  0  0  0  0  0
   -3.8901   -0.8757   -2.6671 H   0  0  0  0  0  0  0  0  0  0  0  0
   -5.5325   -1.2296   -2.6641 H   0  0  0  0  0  0  0  0  0  0  0  0
   -5.1911   -1.8561    1.9006 H   0  0  0  0  0  0  0  0  0  0  0  0
   -2.7602   -1.7522    3.8798 H   0  0  0  0  0  0  0  0  0  0  0  0
   -4.5403   -1.8480    4.3526 H   0  0  0  0  0  0  0  0  0  0  0  0
   -4.7536   -4.0457    3.1041 H   0  0  0  0  0  0  0  0  0  0  0  0
   -2.9735   -3.9499    2.6312 H   0  0  0  0  0  0  0  0  0  0  0  0
  1  2  1  0  0  0  0
  1 39  1  0  0  0  0
  1 40  1  0  0  0  0
  1 41  1  0  0  0  0
  2  3  1  0  0  0  0
  2 42  1  0  0  0  0
  2 43  1  0  0  0  0
  3  7  1  0  0  0  0
  3  4  2  0  0  0  0
  4  5  1  0  0  0  0
  5  6  2  0  0  0  0
  5 36  1  0  0  0  0
  6  7  1  0  0  0  0
  6 33  1  0  0  0  0
  7  8  1  0  0  0  0
  8  9  1  0  0  0  0
  8 44  1  0  0  0  0
  8 45  1  0  0  0  0
  9 14  2  0  0  0  0
  9 10  1  0  0  0  0
 10 11  2  0  0  0  0
 10 46  1  0  0  0  0
 11 12  1  0  0  0  0
 11 47  1  0  0  0  0
 12 17  1  0  0  0  0
 12 13  2  0  0  0  0
 13 14  1  0  0  0  0
 13 15  1  0  0  0  0
 14 48  1  0  0  0  0
 15 16  2  0  0  0  0
 15 32  1  0  0  0  0
 16 17  1  0  0  0  0
 16 18  1  0  0  0  0
 18 23  2  0  0  0  0
 18 19  1  0  0  0  0
 19 20  2  0  0  0  0
 19 49  1  0  0  0  0
 20 21  1  0  0  0  0
 20 50  1  0  0  0  0
 21 22  2  0  0  0  0
 21 51  1  0  0  0  0
 22 23  1  0  0  0  0
 22 52  1  0  0  0  0
 23 24  1  0  0  0  0
 24 25  1  0  0  0  0
 25 26  2  0  0  0  0
 25 27  2  0  0  0  0
 25 28  1  0  0  0  0
 28 29  1  0  0  0  0
 28 30  1  0  0  0  0
 28 31  1  0  0  0  0
 33 34  2  0  0  0  0
 33 35  1  0  0  0  0
 35 53  1  0  0  0  0
 35 54  1  0  0  0  0
 36 38  1  0  0  0  0
 36 37  1  0  0  0  0
 36 55  1  0  0  0  0
 37 38  1  0  0  0  0
 37 56  1  0  0  0  0
 37 57  1  0  0  0  0
 38 58  1  0  0  0  0
 38 59  1  0  0  0  0
M  END
$$$$
