ZINC03995599
 OpenBabel08292219463D

 78 79  0  0  0  0  0  0  0  0999 V2000
   -4.6735    1.1423    4.1239 C   0  0  0  0  0  0  0  0  0  0  0  0
   -4.8227   -0.3214    3.7040 C   0  0  0  0  0  0  0  0  0  0  0  0
   -3.8668   -0.6226    2.6301 N   0  3  0  0  0  0  0  0  0  0  0  0
   -4.0100   -2.0280    2.2269 C   0  0  0  0  0  0  0  0  0  0  0  0
   -3.1315   -2.2999    1.0042 C   0  0  0  0  0  0  0  0  0  0  0  0
   -4.1353    0.2473    1.4772 C   0  0  0  0  0  0  0  0  0  0  0  0
   -5.5599    0.0034    0.9752 C   0  0  0  0  0  0  0  0  0  0  0  0
   -5.8276    0.8710   -0.1745 N   0  0  0  0  0  0  0  0  0  0  0  0
   -7.0281    0.8284   -0.7858 C   0  0  0  0  0  0  0  0  0  0  0  0
   -7.8871    0.0714   -0.3838 O   0  0  0  0  0  0  0  0  0  0  0  0
   -7.3013    1.7134   -1.9586 C   0  0  0  0  0  0  0  0  0  0  0  0
   -6.4423    2.4705   -2.3606 O   0  0  0  0  0  0  0  0  0  0  0  0
   -8.5017    1.6708   -2.5699 N   0  0  0  0  0  0  0  0  0  0  0  0
   -8.7695    2.5384   -3.7196 C   0  0  0  0  0  0  0  0  0  0  0  0
  -10.1940    2.2945   -4.2217 C   0  0  0  0  0  0  0  0  0  0  0  0
  -10.4626    3.1645   -5.3745 N   0  3  0  0  0  0  0  0  0  0  0  0
  -10.3193    4.5698   -4.9714 C   0  0  0  0  0  0  0  0  0  0  0  0
  -11.3150    4.8835   -3.8528 C   0  0  0  0  0  0  0  0  0  0  0  0
   -9.5066    2.8632   -6.4484 C   0  0  0  0  0  0  0  0  0  0  0  0
   -9.5426    1.3653   -6.7580 C   0  0  0  0  0  0  0  0  0  0  0  0
  -11.8303    2.9303   -5.8566 C   0  0  0  0  0  0  0  0  0  0  0  0
  -12.1630    3.9335   -6.9308 C   0  0  0  0  0  0  0  0  0  0  0  0
  -12.7133    5.1548   -6.5897 C   0  0  0  0  0  0  0  0  0  0  0  0
  -13.0184    6.0750   -7.5749 C   0  0  0  0  0  0  0  0  0  0  0  0
  -12.7734    5.7746   -8.9021 C   0  0  0  0  0  0  0  0  0  0  0  0
  -12.2232    4.5540   -9.2443 C   0  0  0  0  0  0  0  0  0  0  0  0
  -11.9123    3.6346   -8.2580 C   0  0  0  0  0  0  0  0  0  0  0  0
  -11.2150    2.1037   -8.6866 Cl  0  0  0  0  0  0  0  0  0  0  0  0
   -2.4990   -0.3885    3.1121 C   0  0  0  0  0  0  0  0  0  0  0  0
   -2.2785   -1.1562    4.3900 C   0  0  0  0  0  0  0  0  0  0  0  0
   -2.5856   -0.5763    5.6067 C   0  0  0  0  0  0  0  0  0  0  0  0
   -2.3834   -1.2803    6.7788 C   0  0  0  0  0  0  0  0  0  0  0  0
   -1.8738   -2.5649    6.7353 C   0  0  0  0  0  0  0  0  0  0  0  0
   -1.5664   -3.1457    5.5196 C   0  0  0  0  0  0  0  0  0  0  0  0
   -1.7739   -2.4435    4.3454 C   0  0  0  0  0  0  0  0  0  0  0  0
   -1.3941   -3.1748    2.8175 Cl  0  0  0  0  0  0  0  0  0  0  0  0
   -3.6587    1.3160    4.4816 H   0  0  0  0  0  0  0  0  0  0  0  0
   -4.8728    1.7878    3.2685 H   0  0  0  0  0  0  0  0  0  0  0  0
   -5.3829    1.3658    4.9208 H   0  0  0  0  0  0  0  0  0  0  0  0
   -4.6235   -0.9669    4.5594 H   0  0  0  0  0  0  0  0  0  0  0  0
   -5.8376   -0.4951    3.3463 H   0  0  0  0  0  0  0  0  0  0  0  0
   -3.7005   -2.6748    3.0478 H   0  0  0  0  0  0  0  0  0  0  0  0
   -5.0518   -2.2301    1.9780 H   0  0  0  0  0  0  0  0  0  0  0  0
   -3.5207   -1.7496    0.1475 H   0  0  0  0  0  0  0  0  0  0  0  0
   -2.1113   -1.9764    1.2107 H   0  0  0  0  0  0  0  0  0  0  0  0
   -3.1366   -3.3672    0.7833 H   0  0  0  0  0  0  0  0  0  0  0  0
   -4.0290    1.2901    1.7764 H   0  0  0  0  0  0  0  0  0  0  0  0
   -3.4260    0.0238    0.6804 H   0  0  0  0  0  0  0  0  0  0  0  0
   -5.6662   -1.0393    0.6760 H   0  0  0  0  0  0  0  0  0  0  0  0
   -6.2692    0.2270    1.7720 H   0  0  0  0  0  0  0  0  0  0  0  0
   -5.1410    1.4761   -0.4959 H   0  0  0  0  0  0  0  0  0  0  0  0
   -9.1883    1.0657   -2.2486 H   0  0  0  0  0  0  0  0  0  0  0  0
   -8.6632    3.5811   -3.4205 H   0  0  0  0  0  0  0  0  0  0  0  0
   -8.0602    2.3149   -4.5165 H   0  0  0  0  0  0  0  0  0  0  0  0
  -10.3003    1.2518   -4.5208 H   0  0  0  0  0  0  0  0  0  0  0  0
  -10.9034    2.5180   -3.4248 H   0  0  0  0  0  0  0  0  0  0  0  0
   -9.3044    4.7435   -4.6137 H   0  0  0  0  0  0  0  0  0  0  0  0
  -10.5186    5.2153   -5.8268 H   0  0  0  0  0  0  0  0  0  0  0  0
  -11.2087    5.9263   -3.5537 H   0  0  0  0  0  0  0  0  0  0  0  0
  -12.3299    4.7098   -4.2105 H   0  0  0  0  0  0  0  0  0  0  0  0
  -11.1157    4.2380   -2.9974 H   0  0  0  0  0  0  0  0  0  0  0  0
   -9.7756    3.4256   -7.3426 H   0  0  0  0  0  0  0  0  0  0  0  0
   -8.5026    3.1445   -6.1306 H   0  0  0  0  0  0  0  0  0  0  0  0
   -8.9320    1.1613   -7.6375 H   0  0  0  0  0  0  0  0  0  0  0  0
   -9.1509    0.8088   -5.9066 H   0  0  0  0  0  0  0  0  0  0  0  0
  -10.5708    1.0587   -6.9504 H   0  0  0  0  0  0  0  0  0  0  0  0
  -11.9040    1.9225   -6.2652 H   0  0  0  0  0  0  0  0  0  0  0  0
  -12.5309    3.0388   -5.0286 H   0  0  0  0  0  0  0  0  0  0  0  0
  -12.9053    5.3899   -5.5532 H   0  0  0  0  0  0  0  0  0  0  0  0
  -13.4488    7.0290   -7.3079 H   0  0  0  0  0  0  0  0  0  0  0  0
  -13.0124    6.4939   -9.6714 H   0  0  0  0  0  0  0  0  0  0  0  0
  -12.0322    4.3193  -10.2810 H   0  0  0  0  0  0  0  0  0  0  0  0
   -1.7860   -0.7240    2.3591 H   0  0  0  0  0  0  0  0  0  0  0  0
   -2.3567    0.6760    3.2986 H   0  0  0  0  0  0  0  0  0  0  0  0
   -2.9834    0.4272    5.6414 H   0  0  0  0  0  0  0  0  0  0  0  0
   -2.6232   -0.8267    7.7292 H   0  0  0  0  0  0  0  0  0  0  0  0
   -1.7157   -3.1144    7.6515 H   0  0  0  0  0  0  0  0  0  0  0  0
   -1.1680   -4.1490    5.4857 H   0  0  0  0  0  0  0  0  0  0  0  0
  1  2  1  0  0  0  0
  1 37  1  0  0  0  0
  1 38  1  0  0  0  0
  1 39  1  0  0  0  0
  2  3  1  0  0  0  0
  2 40  1  0  0  0  0
  2 41  1  0  0  0  0
  3  4  1  0  0  0  0
  3  6  1  0  0  0  0
  3 29  1  0  0  0  0
  4  5  1  0  0  0  0
  4 42  1  0  0  0  0
  4 43  1  0  0  0  0
  5 44  1  0  0  0  0
  5 45  1  0  0  0  0
  5 46  1  0  0  0  0
  6  7  1  0  0  0  0
  6 47  1  0  0  0  0
  6 48  1  0  0  0  0
  7  8  1  0  0  0  0
  7 49  1  0  0  0  0
  7 50  1  0  0  0  0
  8  9  1  0  0  0  0
  8 51  1  0  0  0  0
  9 10  2  0  0  0  0
  9 11  1  0  0  0  0
 11 12  2  0  0  0  0
 11 13  1  0  0  0  0
 13 14  1  0  0  0  0
 13 52  1  0  0  0  0
 14 15  1  0  0  0  0
 14 53  1  0  0  0  0
 14 54  1  0  0  0  0
 15 16  1  0  0  0  0
 15 55  1  0  0  0  0
 15 56  1  0  0  0  0
 16 17  1  0  0  0  0
 16 19  1  0  0  0  0
 16 21  1  0  0  0  0
 17 18  1  0  0  0  0
 17 57  1  0  0  0  0
 17 58  1  0  0  0  0
 18 59  1  0  0  0  0
 18 60  1  0  0  0  0
 18 61  1  0  0  0  0
 19 20  1  0  0  0  0
 19 62  1  0  0  0  0
 19 63  1  0  0  0  0
 20 64  1  0  0  0  0
 20 65  1  0  0  0  0
 20 66  1  0  0  0  0
 21 22  1  0  0  0  0
 21 67  1  0  0  0  0
 21 68  1  0  0  0  0
 22 27  2  0  0  0  0
 22 23  1  0  0  0  0
 23 24  2  0  0  0  0
 23 69  1  0  0  0  0
 24 25  1  0  0  0  0
 24 70  1  0  0  0  0
 25 26  2  0  0  0  0
 25 71  1  0  0  0  0
 26 27  1  0  0  0  0
 26 72  1  0  0  0  0
 27 28  1  0  0  0  0
 29 30  1  0  0  0  0
 29 73  1  0  0  0  0
 29 74  1  0  0  0  0
 30 35  2  0  0  0  0
 30 31  1  0  0  0  0
 31 32  2  0  0  0  0
 31 75  1  0  0  0  0
 32 33  1  0  0  0  0
 32 76  1  0  0  0  0
 33 34  2  0  0  0  0
 33 77  1  0  0  0  0
 34 35  1  0  0  0  0
 34 78  1  0  0  0  0
 35 36  1  0  0  0  0
M  CHG  2   3   1  16   1
M  END
$$$$
