ZINC00013156
 OpenBabel08292219463D

 23 24  0  0  0  0  0  0  0  0999 V2000
    0.9876   -0.2372    1.1188 C   0  0  0  0  0  0  0  0  0  0  0  0
    2.1766    0.4622    1.0718 C   0  0  0  0  0  0  0  0  0  0  0  0
    2.3831    1.4158    0.0762 C   0  0  0  0  0  0  0  0  0  0  0  0
    1.3850    1.6578   -0.8682 C   0  0  0  0  0  0  0  0  0  0  0  0
    0.1984    0.9513   -0.8110 C   0  0  0  0  0  0  0  0  0  0  0  0
    0.0007    0.0058    0.1808 C   0  0  0  0  0  0  0  0  0  0  0  0
   -1.0456    1.2499   -1.9844 Cl  0  0  0  0  0  0  0  0  0  0  0  0
    1.6326    2.8438   -2.1115 Cl  0  0  0  0  0  0  0  0  0  0  0  0
    3.6578    2.1699    0.0214 C   0  0  0  0  0  0  0  0  0  0  0  0
    4.8924    1.4922    0.0629 C   0  0  0  0  0  0  0  0  0  0  0  0
    6.0110    2.2079    0.0113 N   0  0  0  0  0  0  0  0  0  0  0  0
    5.9357    3.5303   -0.0773 C   0  0  0  0  0  0  0  0  0  0  0  0
    4.7617    4.1475   -0.1145 N   0  0  0  0  0  0  0  0  0  0  0  0
    3.6541    3.4935   -0.0730 N   0  0  0  0  0  0  0  0  0  0  0  0
    7.0997    4.2767   -0.1312 N   0  0  0  0  0  0  0  0  0  0  0  0
    4.9391    0.1128    0.1559 N   0  0  0  0  0  0  0  0  0  0  0  0
    0.8292   -0.9792    1.8874 H   0  0  0  0  0  0  0  0  0  0  0  0
    2.9457    0.2711    1.8055 H   0  0  0  0  0  0  0  0  0  0  0  0
   -0.9277   -0.5444    0.2219 H   0  0  0  0  0  0  0  0  0  0  0  0
    7.9620    3.8332   -0.1042 H   0  0  0  0  0  0  0  0  0  0  0  0
    7.0534    5.2434   -0.1960 H   0  0  0  0  0  0  0  0  0  0  0  0
    4.1220   -0.4057    0.0904 H   0  0  0  0  0  0  0  0  0  0  0  0
    5.7891   -0.3360    0.2865 H   0  0  0  0  0  0  0  0  0  0  0  0
  1  6  2  0  0  0  0
  1  2  1  0  0  0  0
  1 17  1  0  0  0  0
  2  3  2  0  0  0  0
  2 18  1  0  0  0  0
  3  4  1  0  0  0  0
  3  9  1  0  0  0  0
  4  5  2  0  0  0  0
  4  8  1  0  0  0  0
  5  6  1  0  0  0  0
  5  7  1  0  0  0  0
  6 19  1  0  0  0  0
  9 14  2  0  0  0  0
  9 10  1  0  0  0  0
 10 11  2  0  0  0  0
 10 16  1  0  0  0  0
 11 12  1  0  0  0  0
 12 13  2  0  0  0  0
 12 15  1  0  0  0  0
 13 14  1  0  0  0  0
 15 20  1  0  0  0  0
 15 21  1  0  0  0  0
 16 22  1  0  0  0  0
 16 23  1  0  0  0  0
M  END
$$$$
