ZINC03964325
 OpenBabel08292219463D

 57 59  0  0  0  0  0  0  0  0999 V2000
    0.1489    2.0884    0.1150 C   0  0  0  0  0  0  0  0  0  0  0  0
    0.1348    0.5603    0.1888 C   0  0  0  0  0  0  0  0  0  0  0  0
   -1.2520    0.0881    0.2979 N   0  3  0  0  0  0  0  0  0  0  0  0
   -1.9779    0.4111   -0.9377 C   0  0  0  0  0  0  0  0  0  0  0  0
   -3.4549    0.0484   -0.7712 C   0  0  0  0  0  0  0  0  0  0  0  0
   -1.2593   -1.3663    0.5041 C   0  0  0  0  0  0  0  0  0  0  0  0
   -0.6131   -1.6936    1.8518 C   0  0  0  0  0  0  0  0  0  0  0  0
   -0.6203   -3.1440    2.0575 N   0  0  0  0  0  0  0  0  0  0  0  0
   -0.0988   -3.6675    3.1846 C   0  0  0  0  0  0  0  0  0  0  0  0
    0.3779   -2.9358    4.0309 O   0  0  0  0  0  0  0  0  0  0  0  0
   -0.1061   -5.1270    3.3915 C   0  0  0  0  0  0  0  0  0  0  0  0
    0.9071   -6.0320    3.0089 C   0  0  0  0  0  0  0  0  0  0  0  0
    0.4868   -7.2892    3.3960 C   0  0  0  0  0  0  0  0  0  0  0  0
   -0.7476   -7.1595    3.9982 N   0  0  0  0  0  0  0  0  0  0  0  0
   -1.2731   -7.8879    4.3645 H   0  0  0  0  0  0  0  0  0  0  0  0
   -1.1044   -5.8642    4.0022 C   0  0  0  0  0  0  0  0  0  0  0  0
   -2.3825   -5.3072    4.5743 C   0  0  0  0  0  0  0  0  0  0  0  0
    1.1957   -8.4957    3.2079 C   0  0  0  0  0  0  0  0  0  0  0  0
    0.5100   -9.6674    2.9570 C   0  0  0  0  0  0  0  0  0  0  0  0
    1.0648  -11.0377    2.8871 C   0  0  0  0  0  0  0  0  0  0  0  0
    2.3472  -11.5557    3.0375 C   0  0  0  0  0  0  0  0  0  0  0  0
    2.5553  -12.9162    2.9116 C   0  0  0  0  0  0  0  0  0  0  0  0
    1.4888  -13.7593    2.6366 C   0  0  0  0  0  0  0  0  0  0  0  0
    0.2139  -13.2531    2.4856 C   0  0  0  0  0  0  0  0  0  0  0  0
   -0.0144  -11.8871    2.6092 C   0  0  0  0  0  0  0  0  0  0  0  0
   -1.1765  -11.1301    2.5069 N   0  0  0  0  0  0  0  0  0  0  0  0
   -0.9294   -9.8245    2.7079 C   0  0  0  0  0  0  0  0  0  0  0  0
   -1.7538   -8.9280    2.6842 O   0  0  0  0  0  0  0  0  0  0  0  0
    3.7984  -13.4252    3.0561 F   0  0  0  0  0  0  0  0  0  0  0  0
    2.1990   -5.6919    2.3116 C   0  0  0  0  0  0  0  0  0  0  0  0
    1.1793    2.4435    0.1331 H   0  0  0  0  0  0  0  0  0  0  0  0
   -0.3308    2.4121   -0.8087 H   0  0  0  0  0  0  0  0  0  0  0  0
   -0.3916    2.4984    0.9682 H   0  0  0  0  0  0  0  0  0  0  0  0
    0.5888    0.1488   -0.7126 H   0  0  0  0  0  0  0  0  0  0  0  0
    0.6996    0.2334    1.0619 H   0  0  0  0  0  0  0  0  0  0  0  0
   -1.8867    1.4775   -1.1444 H   0  0  0  0  0  0  0  0  0  0  0  0
   -1.5554   -0.1571   -1.7664 H   0  0  0  0  0  0  0  0  0  0  0  0
   -3.5537   -1.0316   -0.6617 H   0  0  0  0  0  0  0  0  0  0  0  0
   -3.8523    0.5414    0.1160 H   0  0  0  0  0  0  0  0  0  0  0  0
   -4.0109    0.3769   -1.6492 H   0  0  0  0  0  0  0  0  0  0  0  0
   -2.2871   -1.7292    0.4963 H   0  0  0  0  0  0  0  0  0  0  0  0
   -0.6973   -1.8494   -0.2952 H   0  0  0  0  0  0  0  0  0  0  0  0
    0.4147   -1.3306    1.8596 H   0  0  0  0  0  0  0  0  0  0  0  0
   -1.1751   -1.2105    2.6511 H   0  0  0  0  0  0  0  0  0  0  0  0
   -1.0005   -3.7277    1.3824 H   0  0  0  0  0  0  0  0  0  0  0  0
   -3.1529   -5.3000    3.8032 H   0  0  0  0  0  0  0  0  0  0  0  0
   -2.7087   -5.9289    5.4080 H   0  0  0  0  0  0  0  0  0  0  0  0
   -2.2103   -4.2898    4.9254 H   0  0  0  0  0  0  0  0  0  0  0  0
    2.2744   -8.5020    3.2604 H   0  0  0  0  0  0  0  0  0  0  0  0
    3.1765  -10.8977    3.2512 H   0  0  0  0  0  0  0  0  0  0  0  0
    1.6578  -14.8215    2.5394 H   0  0  0  0  0  0  0  0  0  0  0  0
   -0.6084  -13.9196    2.2712 H   0  0  0  0  0  0  0  0  0  0  0  0
   -2.0541  -11.4980    2.3189 H   0  0  0  0  0  0  0  0  0  0  0  0
    2.9686   -5.4822    3.0545 H   0  0  0  0  0  0  0  0  0  0  0  0
    2.5107   -6.5337    1.6932 H   0  0  0  0  0  0  0  0  0  0  0  0
    2.0522   -4.8138    1.6827 H   0  0  0  0  0  0  0  0  0  0  0  0
   -1.7009    0.5410    1.0799 H   0  0  0  0  0  0  0  0  0  0  0  0
  1  2  1  0  0  0  0
  1 31  1  0  0  0  0
  1 32  1  0  0  0  0
  1 33  1  0  0  0  0
  2  3  1  0  0  0  0
  2 34  1  0  0  0  0
  2 35  1  0  0  0  0
  3  4  1  0  0  0  0
  3  6  1  0  0  0  0
  3 57  1  0  0  0  0
  4  5  1  0  0  0  0
  4 36  1  0  0  0  0
  4 37  1  0  0  0  0
  5 38  1  0  0  0  0
  5 39  1  0  0  0  0
  5 40  1  0  0  0  0
  6  7  1  0  0  0  0
  6 41  1  0  0  0  0
  6 42  1  0  0  0  0
  7  8  1  0  0  0  0
  7 43  1  0  0  0  0
  7 44  1  0  0  0  0
  8  9  1  0  0  0  0
  8 45  1  0  0  0  0
  9 10  2  0  0  0  0
  9 11  1  0  0  0  0
 11 16  2  0  0  0  0
 11 12  1  0  0  0  0
 12 13  2  0  0  0  0
 12 30  1  0  0  0  0
 13 14  1  0  0  0  0
 13 18  1  0  0  0  0
 14 15  1  0  0  0  0
 14 16  1  0  0  0  0
 16 17  1  0  0  0  0
 17 46  1  0  0  0  0
 17 47  1  0  0  0  0
 17 48  1  0  0  0  0
 18 19  2  0  0  0  0
 18 49  1  0  0  0  0
 19 27  1  0  0  0  0
 19 20  1  0  0  0  0
 20 25  2  0  0  0  0
 20 21  1  0  0  0  0
 21 22  2  0  0  0  0
 21 50  1  0  0  0  0
 22 23  1  0  0  0  0
 22 29  1  0  0  0  0
 23 24  2  0  0  0  0
 23 51  1  0  0  0  0
 24 25  1  0  0  0  0
 24 52  1  0  0  0  0
 25 26  1  0  0  0  0
 26 27  1  0  0  0  0
 26 53  1  0  0  0  0
 27 28  2  0  0  0  0
 30 54  1  0  0  0  0
 30 55  1  0  0  0  0
 30 56  1  0  0  0  0
M  CHG  1   3   1
M  END
$$$$
