ZINC20444137
 OpenBabel08292219463D

 40 39  0  0  1  0  0  0  0  0999 V2000
   -0.0187    1.5258    0.0104 C   0  0  0  0  0  0  0  0  0  0  0  0
    0.0021   -0.0041    0.0020 C   0  0  0  0  0  0  0  0  0  0  0  0
   -1.4333   -0.5336    0.0129 C   0  0  0  0  0  0  0  0  0  0  0  0
   -1.4126   -2.0635    0.0045 C   0  0  0  0  0  0  0  0  0  0  0  0
   -2.8479   -2.5931    0.0153 C   0  0  0  0  0  0  0  0  0  0  0  0
   -2.8280   -4.0619    0.0072 N   0  3  2  0  0  0  0  0  0  0  0  0
   -2.2481   -4.5368   -1.2561 C   0  0  0  0  0  0  0  0  0  0  0  0
   -4.1998   -4.5710    0.1383 C   0  0  0  0  0  0  0  0  0  0  0  0
   -4.1687   -6.0962    0.2553 C   0  0  0  0  0  0  0  0  0  0  0  0
   -5.5974   -6.6263    0.3918 C   0  0  2  0  0  0  0  0  0  0  0  0
   -6.3564   -6.2522   -0.7597 O   0  0  0  0  0  0  0  0  0  0  0  0
   -6.3684   -5.9180    1.8842 P   0  0  0  0  0  0  0  0  0  0  0  0
   -5.5363   -6.3282    3.1466 O   0  0  0  0  0  0  0  0  0  0  0  0
   -6.4002   -4.3563    1.7644 O   0  0  0  0  0  1  0  0  0  0  0  0
   -7.8314   -6.4609    2.0240 O   0  0  0  0  0  1  0  0  0  0  0  0
   -5.5605   -8.4436    0.5311 P   0  0  1  0  0  0  0  0  0  0  0  0
   -7.0032   -8.9790    0.6690 O   0  0  0  0  0  0  0  0  0  0  0  0
   -4.9071   -9.0439   -0.7337 O   0  0  0  0  0  1  0  0  0  0  0  0
   -4.7054   -8.8651    1.8285 O   0  0  0  0  0  0  0  0  0  0  0  0
    1.0039    1.9031    0.0027 H   0  0  0  0  0  0  0  0  0  0  0  0
   -0.5459    1.8868   -0.8726 H   0  0  0  0  0  0  0  0  0  0  0  0
   -0.5289    1.8773    0.9072 H   0  0  0  0  0  0  0  0  0  0  0  0
    0.5123   -0.3556   -0.8948 H   0  0  0  0  0  0  0  0  0  0  0  0
    0.5293   -0.3651    0.8851 H   0  0  0  0  0  0  0  0  0  0  0  0
   -1.9435   -0.1821    0.9097 H   0  0  0  0  0  0  0  0  0  0  0  0
   -1.9605   -0.1726   -0.8702 H   0  0  0  0  0  0  0  0  0  0  0  0
   -0.9024   -2.4150   -0.8923 H   0  0  0  0  0  0  0  0  0  0  0  0
   -0.8854   -2.4246    0.8875 H   0  0  0  0  0  0  0  0  0  0  0  0
   -3.3581   -2.2415    0.9121 H   0  0  0  0  0  0  0  0  0  0  0  0
   -3.3751   -2.2320   -0.8677 H   0  0  0  0  0  0  0  0  0  0  0  0
   -1.2303   -4.1591   -1.3534 H   0  0  0  0  0  0  0  0  0  0  0  0
   -2.2333   -5.6267   -1.2621 H   0  0  0  0  0  0  0  0  0  0  0  0
   -2.8505   -4.1770   -2.0903 H   0  0  0  0  0  0  0  0  0  0  0  0
   -4.6607   -4.1474    1.0306 H   0  0  0  0  0  0  0  0  0  0  0  0
   -4.7787   -4.2856   -0.7400 H   0  0  0  0  0  0  0  0  0  0  0  0
   -3.7078   -6.5197   -0.6371 H   0  0  0  0  0  0  0  0  0  0  0  0
   -3.5898   -6.3815    1.1336 H   0  0  0  0  0  0  0  0  0  0  0  0
   -6.0032   -6.5951   -1.5921 H   0  0  0  0  0  0  0  0  0  0  0  0
   -4.6434   -9.8204    1.9653 H   0  0  0  0  0  0  0  0  0  0  0  0
   -2.2705   -4.3950    0.7794 H   0  0  0  0  0  0  0  0  0  0  0  0
  1  2  1  0  0  0  0
  1 20  1  0  0  0  0
  1 21  1  0  0  0  0
  1 22  1  0  0  0  0
  2  3  1  0  0  0  0
  2 23  1  0  0  0  0
  2 24  1  0  0  0  0
  3  4  1  0  0  0  0
  3 25  1  0  0  0  0
  3 26  1  0  0  0  0
  4  5  1  0  0  0  0
  4 27  1  0  0  0  0
  4 28  1  0  0  0  0
  5  6  1  0  0  0  0
  5 29  1  0  0  0  0
  5 30  1  0  0  0  0
  6  7  1  0  0  0  0
  6  8  1  0  0  0  0
  6 40  1  1  0  0  0
  7 31  1  0  0  0  0
  7 32  1  0  0  0  0
  7 33  1  0  0  0  0
  8  9  1  0  0  0  0
  8 34  1  0  0  0  0
  8 35  1  0  0  0  0
  9 10  1  0  0  0  0
  9 36  1  0  0  0  0
  9 37  1  0  0  0  0
 10 11  1  6  0  0  0
 10 12  1  0  0  0  0
 10 16  1  0  0  0  0
 11 38  1  0  0  0  0
 12 13  2  0  0  0  0
 12 14  1  0  0  0  0
 12 15  1  0  0  0  0
 16 17  2  1  0  0  0
 16 18  1  0  0  0  0
 16 19  1  0  0  0  0
 19 39  1  0  0  0  0
M  CHG  1   6   1
M  END
$$$$
