ZINC14879972
 OpenBabel08292219463D

 82 85  0  0  1  0  0  0  0  0999 V2000
   -0.7946   -0.6657   -0.8172 C   0  0  0  0  0  0  0  0  0  0  0  0
   -0.8130   -2.1860   -0.9883 C   0  0  0  0  0  0  0  0  0  0  0  0
   -0.2192   -2.8466    0.2575 C   0  0  0  0  0  0  0  0  0  0  0  0
   -2.2550   -2.6604   -1.1789 C   0  0  0  0  0  0  0  0  0  0  0  0
   -0.0161   -2.5560   -2.1656 N   0  3  0  0  0  0  0  0  0  0  0  0
    1.3684   -2.1005   -1.9826 C   0  0  0  0  0  0  0  0  0  0  0  0
    2.1859   -2.4800   -3.1904 C   0  0  0  0  0  0  0  0  0  0  0  0
    1.6662   -3.0717   -4.1129 O   0  0  0  0  0  0  0  0  0  0  0  0
    3.4945   -2.1620   -3.2455 N   0  0  0  0  0  0  0  0  0  0  0  0
    4.2805   -2.6121   -4.3146 C   0  0  0  0  0  0  0  0  0  0  0  0
    3.8611   -3.6911   -5.0768 C   0  0  0  0  0  0  0  0  0  0  0  0
    4.6320   -4.1388   -6.1436 C   0  0  0  0  0  0  0  0  0  0  0  0
    5.8282   -3.5114   -6.4492 C   0  0  0  0  0  0  0  0  0  0  0  0
    6.2637   -2.4315   -5.6781 C   0  0  0  0  0  0  0  0  0  0  0  0
    5.4805   -1.9717   -4.6148 C   0  0  0  0  0  0  0  0  0  0  0  0
    5.8906   -0.9090   -3.8748 O   0  0  0  0  0  0  0  0  0  0  0  0
    7.5601   -1.7920   -5.9811 C   0  0  0  0  0  0  0  0  0  0  0  0
    7.8517   -0.7179   -5.4867 O   0  0  0  0  0  0  0  0  0  0  0  0
    8.4649   -2.4548   -6.8626 C   0  0  0  0  0  0  0  0  0  0  0  0
    9.5553   -1.8003   -7.2721 C   0  0  0  0  0  0  0  0  0  0  0  0
   10.5960   -2.3859   -8.1880 C   0  0  1  0  0  0  0  0  0  0  0  0
   10.4286   -3.9052   -8.2325 C   0  0  1  0  0  0  0  0  0  0  0  0
   10.6778   -4.3020   -7.2483 H   0  0  0  0  0  0  0  0  0  0  0  0
    8.9687   -4.2419   -8.5234 C   0  0  0  0  0  0  0  0  0  0  0  0
    8.1404   -3.8597   -7.2939 C   0  0  2  0  0  0  0  0  0  0  0  0
    8.3773   -4.5445   -6.4796 H   0  0  0  0  0  0  0  0  0  0  0  0
    6.6533   -3.9858   -7.6166 C   0  0  0  0  0  0  0  0  0  0  0  0
   11.3574   -4.5425   -9.2472 C   0  0  1  0  0  0  0  0  0  0  0  0
   11.0861   -5.5916   -9.3648 H   0  0  0  0  0  0  0  0  0  0  0  0
   11.2850   -3.8686  -10.5845 C   0  0  0  0  0  0  0  0  0  0  0  0
   10.8102   -2.5897  -10.7352 C   0  0  0  0  0  0  0  0  0  0  0  0
   10.3388   -1.8439   -9.5814 C   0  0  0  0  0  0  0  0  0  0  0  0
    9.7277   -0.8069   -9.7379 O   0  0  0  0  0  0  0  0  0  0  0  0
   10.7920   -1.9679  -12.0689 C   0  0  0  0  0  0  0  0  0  0  0  0
   11.0963   -2.6213  -13.0487 O   0  0  0  0  0  0  0  0  0  0  0  0
   10.4382   -0.6745  -12.2047 N   0  0  0  0  0  0  0  0  0  0  0  0
   11.6988   -4.5382  -11.6705 O   0  5  0  0  0  0  0  0  0  0  0  0
   12.7366   -4.4605   -8.7482 N   0  3  0  0  0  0  0  0  0  0  0  0
   12.8369   -5.1718   -7.4668 C   0  0  0  0  0  0  0  0  0  0  0  0
   13.6473   -5.0762   -9.7226 C   0  0  0  0  0  0  0  0  0  0  0  0
   11.9078   -2.0300   -7.7469 O   0  0  0  0  0  0  0  0  0  0  0  0
    9.7343   -0.5366   -6.8382 O   0  0  0  0  0  0  0  0  0  0  0  0
    4.1985   -5.2263   -6.9102 N   0  0  0  0  0  0  0  0  0  0  0  0
    3.3569   -5.0029   -8.0884 C   0  0  0  0  0  0  0  0  0  0  0  0
    4.5862   -6.5883   -6.5346 C   0  0  0  0  0  0  0  0  0  0  0  0
    0.2327   -0.3277   -0.6814 H   0  0  0  0  0  0  0  0  0  0  0  0
   -1.2176   -0.1951   -1.7047 H   0  0  0  0  0  0  0  0  0  0  0  0
   -1.3859   -0.3912    0.0564 H   0  0  0  0  0  0  0  0  0  0  0  0
   -0.8105   -2.5721    1.1311 H   0  0  0  0  0  0  0  0  0  0  0  0
   -0.2323   -3.9297    0.1356 H   0  0  0  0  0  0  0  0  0  0  0  0
    0.8081   -2.5086    0.3933 H   0  0  0  0  0  0  0  0  0  0  0  0
   -2.6780   -2.1898   -2.0664 H   0  0  0  0  0  0  0  0  0  0  0  0
   -2.2681   -3.7435   -1.3008 H   0  0  0  0  0  0  0  0  0  0  0  0
   -2.8463   -2.3859   -0.3053 H   0  0  0  0  0  0  0  0  0  0  0  0
   -0.0282   -3.5586   -2.2784 H   0  0  0  0  0  0  0  0  0  0  0  0
    1.3815   -1.0174   -1.8607 H   0  0  0  0  0  0  0  0  0  0  0  0
    1.7914   -2.5711   -1.0951 H   0  0  0  0  0  0  0  0  0  0  0  0
    3.8921   -1.6214   -2.5451 H   0  0  0  0  0  0  0  0  0  0  0  0
    2.9310   -4.1867   -4.8407 H   0  0  0  0  0  0  0  0  0  0  0  0
    6.4375   -1.1473   -3.1138 H   0  0  0  0  0  0  0  0  0  0  0  0
    8.6253   -3.6755   -9.3891 H   0  0  0  0  0  0  0  0  0  0  0  0
    8.8686   -5.3098   -8.7177 H   0  0  0  0  0  0  0  0  0  0  0  0
    6.4163   -5.0288   -7.8267 H   0  0  0  0  0  0  0  0  0  0  0  0
    6.4211   -3.3807   -8.4930 H   0  0  0  0  0  0  0  0  0  0  0  0
   10.2614   -0.1349  -11.4182 H   0  0  0  0  0  0  0  0  0  0  0  0
   10.3605   -0.2832  -13.0888 H   0  0  0  0  0  0  0  0  0  0  0  0
   12.4376   -6.1799   -7.5787 H   0  0  0  0  0  0  0  0  0  0  0  0
   13.8821   -5.2267   -7.1626 H   0  0  0  0  0  0  0  0  0  0  0  0
   12.2653   -4.6367   -6.7085 H   0  0  0  0  0  0  0  0  0  0  0  0
   13.3740   -6.1217   -9.8651 H   0  0  0  0  0  0  0  0  0  0  0  0
   13.5729   -4.5484  -10.6734 H   0  0  0  0  0  0  0  0  0  0  0  0
   14.6707   -5.0153   -9.3524 H   0  0  0  0  0  0  0  0  0  0  0  0
   12.0685   -1.0768   -7.7200 H   0  0  0  0  0  0  0  0  0  0  0  0
   10.5785   -0.3906   -6.3898 H   0  0  0  0  0  0  0  0  0  0  0  0
    3.9889   -4.8698   -8.9664 H   0  0  0  0  0  0  0  0  0  0  0  0
    2.7046   -5.8634   -8.2374 H   0  0  0  0  0  0  0  0  0  0  0  0
    2.7510   -4.1094   -7.9379 H   0  0  0  0  0  0  0  0  0  0  0  0
    3.8417   -7.0038   -5.8556 H   0  0  0  0  0  0  0  0  0  0  0  0
    4.6484   -7.2081   -7.4290 H   0  0  0  0  0  0  0  0  0  0  0  0
    5.5571   -6.5662   -6.0397 H   0  0  0  0  0  0  0  0  0  0  0  0
   -0.4077   -2.1203   -2.9872 H   0  0  0  0  0  0  0  0  0  0  0  0
   12.9896   -3.4926   -8.6163 H   0  0  0  0  0  0  0  0  0  0  0  0
  1  2  1  0  0  0  0
  1 46  1  0  0  0  0
  1 47  1  0  0  0  0
  1 48  1  0  0  0  0
  2  3  1  0  0  0  0
  2  4  1  0  0  0  0
  2  5  1  0  0  0  0
  3 49  1  0  0  0  0
  3 50  1  0  0  0  0
  3 51  1  0  0  0  0
  4 52  1  0  0  0  0
  4 53  1  0  0  0  0
  4 54  1  0  0  0  0
  5  6  1  0  0  0  0
  5 55  1  0  0  0  0
  5 81  1  0  0  0  0
  6  7  1  0  0  0  0
  6 56  1  0  0  0  0
  6 57  1  0  0  0  0
  7  8  2  0  0  0  0
  7  9  1  0  0  0  0
  9 10  1  0  0  0  0
  9 58  1  0  0  0  0
 10 15  2  0  0  0  0
 10 11  1  0  0  0  0
 11 12  2  0  0  0  0
 11 59  1  0  0  0  0
 12 13  1  0  0  0  0
 12 43  1  0  0  0  0
 13 27  1  0  0  0  0
 13 14  2  0  0  0  0
 14 15  1  0  0  0  0
 14 17  1  0  0  0  0
 15 16  1  0  0  0  0
 16 60  1  0  0  0  0
 17 18  2  0  0  0  0
 17 19  1  0  0  0  0
 19 25  1  0  0  0  0
 19 20  2  0  0  0  0
 20 21  1  0  0  0  0
 20 42  1  0  0  0  0
 21 32  1  0  0  0  0
 21 22  1  0  0  0  0
 21 41  1  1  0  0  0
 22 23  1  1  0  0  0
 22 24  1  0  0  0  0
 22 28  1  0  0  0  0
 24 25  1  0  0  0  0
 24 61  1  0  0  0  0
 24 62  1  0  0  0  0
 25 26  1  1  0  0  0
 25 27  1  0  0  0  0
 27 63  1  0  0  0  0
 27 64  1  0  0  0  0
 28 29  1  6  0  0  0
 28 30  1  0  0  0  0
 28 38  1  0  0  0  0
 30 31  2  0  0  0  0
 30 37  1  0  0  0  0
 31 32  1  0  0  0  0
 31 34  1  0  0  0  0
 32 33  2  0  0  0  0
 34 35  2  0  0  0  0
 34 36  1  0  0  0  0
 36 65  1  0  0  0  0
 36 66  1  0  0  0  0
 38 39  1  0  0  0  0
 38 40  1  0  0  0  0
 38 82  1  0  0  0  0
 39 67  1  0  0  0  0
 39 68  1  0  0  0  0
 39 69  1  0  0  0  0
 40 70  1  0  0  0  0
 40 71  1  0  0  0  0
 40 72  1  0  0  0  0
 41 73  1  0  0  0  0
 42 74  1  0  0  0  0
 43 44  1  0  0  0  0
 43 45  1  0  0  0  0
 44 75  1  0  0  0  0
 44 76  1  0  0  0  0
 44 77  1  0  0  0  0
 45 78  1  0  0  0  0
 45 79  1  0  0  0  0
 45 80  1  0  0  0  0
M  CHG  3   5   1  37  -1  38   1
M  END
$$$$
