ZINC04097304
 OpenBabel08292219463D

 56 59  0  0  1  0  0  0  0  0999 V2000
    0.1918    1.4971    0.2782 C   0  0  0  0  0  0  0  0  0  0  0  0
    0.0591   -0.0227    0.1630 C   0  0  2  0  0  0  0  0  0  0  0  0
   -1.4196   -0.3671    0.1791 C   0  0  0  0  0  0  0  0  0  0  0  0
   -1.9866   -0.3455    1.5983 C   0  0  0  0  0  0  0  0  0  0  0  0
   -1.1881   -1.3374    2.4211 C   0  0  0  0  0  0  0  0  0  0  0  0
   -1.7294   -2.1699    3.1182 O   0  0  0  0  0  0  0  0  0  0  0  0
    0.2728   -1.2391    2.3306 C   0  0  0  0  0  0  0  0  0  0  0  0
    0.8416   -0.6418    1.2801 C   0  0  0  0  0  0  0  0  0  0  0  0
    2.3563   -0.5514    1.2474 C   0  0  0  0  0  0  0  0  0  0  0  0
    2.8455   -0.9899   -0.1349 C   0  0  0  0  0  0  0  0  0  0  0  0
    2.1527   -0.1423   -1.2055 C   0  0  2  0  0  0  0  0  0  0  0  0
    2.3208    0.9165   -1.0080 H   0  0  0  0  0  0  0  0  0  0  0  0
    0.6473   -0.4465   -1.1883 C   0  0  2  0  0  0  0  0  0  0  0  0
   -0.1027    0.2713   -2.3067 C   0  0  2  0  0  0  0  0  0  0  0  0
   -1.1400   -0.0636   -2.3108 H   0  0  0  0  0  0  0  0  0  0  0  0
    0.5203   -0.0108   -3.6830 C   0  0  0  0  0  0  0  0  0  0  0  0
    1.9718    0.4238   -3.6145 C   0  0  1  0  0  0  0  0  0  0  0  0
    2.6921   -0.5055   -2.5766 C   0  0  1  0  0  0  0  0  0  0  0  0
    2.4746   -1.5488   -2.8052 H   0  0  0  0  0  0  0  0  0  0  0  0
    4.1726   -0.1877   -2.8155 C   0  0  0  0  0  0  0  0  0  0  0  0
    4.2635   -0.0949   -4.3632 C   0  0  0  0  0  0  0  0  0  0  0  0
    2.7993    0.2336   -4.8813 C   0  0  2  0  0  0  0  0  0  0  0  0
    2.8098    1.5030   -5.6935 C   0  0  0  0  0  0  0  0  0  0  0  0
    3.6967    2.3087   -5.5432 O   0  0  0  0  0  0  0  0  0  0  0  0
    1.7136    1.7669   -6.6933 C   0  0  0  0  0  0  0  0  0  0  0  0
    1.9438    3.0245   -7.3317 O   0  0  0  0  0  0  0  0  0  0  0  0
    2.2765   -0.8470   -5.6566 O   0  0  0  0  0  0  0  0  0  0  0  0
    2.0556    1.8805   -3.1541 C   0  0  0  0  0  0  0  0  0  0  0  0
   -0.0691    1.6787   -2.0614 O   0  0  0  0  0  0  0  0  0  0  0  0
    0.4733   -1.8254   -1.3487 F   0  0  0  0  0  0  0  0  0  0  0  0
    1.1563    1.8091   -0.1223 H   0  0  0  0  0  0  0  0  0  0  0  0
   -0.6082    1.9755   -0.2869 H   0  0  0  0  0  0  0  0  0  0  0  0
    0.1216    1.7896    1.3259 H   0  0  0  0  0  0  0  0  0  0  0  0
   -1.9602    0.3563   -0.4313 H   0  0  0  0  0  0  0  0  0  0  0  0
   -1.5579   -1.3620   -0.2443 H   0  0  0  0  0  0  0  0  0  0  0  0
   -1.8858    0.6536    2.0223 H   0  0  0  0  0  0  0  0  0  0  0  0
   -3.0366   -0.6378    1.5822 H   0  0  0  0  0  0  0  0  0  0  0  0
    0.8910   -1.6631    3.1080 H   0  0  0  0  0  0  0  0  0  0  0  0
    2.6651    0.4770    1.4351 H   0  0  0  0  0  0  0  0  0  0  0  0
    2.7781   -1.2068    2.0093 H   0  0  0  0  0  0  0  0  0  0  0  0
    3.9244   -0.8496   -0.2009 H   0  0  0  0  0  0  0  0  0  0  0  0
    2.6038   -2.0414   -0.2901 H   0  0  0  0  0  0  0  0  0  0  0  0
    0.4618   -1.0761   -3.9057 H   0  0  0  0  0  0  0  0  0  0  0  0
   -0.0022    0.5594   -4.4510 H   0  0  0  0  0  0  0  0  0  0  0  0
    4.4419    0.7632   -2.3557 H   0  0  0  0  0  0  0  0  0  0  0  0
    4.8052   -0.9918   -2.4396 H   0  0  0  0  0  0  0  0  0  0  0  0
    4.9618    0.6912   -4.6505 H   0  0  0  0  0  0  0  0  0  0  0  0
    4.5844   -1.0508   -4.7771 H   0  0  0  0  0  0  0  0  0  0  0  0
    1.7066    0.9751   -7.4423 H   0  0  0  0  0  0  0  0  0  0  0  0
    0.7520    1.7904   -6.1805 H   0  0  0  0  0  0  0  0  0  0  0  0
    1.2752    3.2598   -7.9895 H   0  0  0  0  0  0  0  0  0  0  0  0
    2.7630   -1.0151   -6.4752 H   0  0  0  0  0  0  0  0  0  0  0  0
    1.7761    1.9458   -2.1025 H   0  0  0  0  0  0  0  0  0  0  0  0
    3.0753    2.2439   -3.2822 H   0  0  0  0  0  0  0  0  0  0  0  0
    1.3753    2.4895   -3.7494 H   0  0  0  0  0  0  0  0  0  0  0  0
   -0.5263    2.2057   -2.7310 H   0  0  0  0  0  0  0  0  0  0  0  0
  1 31  1  0  0  0  0
  1 32  1  0  0  0  0
  1 33  1  0  0  0  0
  2  1  1  1  0  0  0
  2  8  1  0  0  0  0
  2 13  1  0  0  0  0
  2  3  1  0  0  0  0
  3  4  1  0  0  0  0
  3 34  1  0  0  0  0
  3 35  1  0  0  0  0
  4  5  1  0  0  0  0
  4 36  1  0  0  0  0
  4 37  1  0  0  0  0
  5  6  2  0  0  0  0
  5  7  1  0  0  0  0
  7  8  2  0  0  0  0
  7 38  1  0  0  0  0
  8  9  1  0  0  0  0
  9 10  1  0  0  0  0
  9 39  1  0  0  0  0
  9 40  1  0  0  0  0
 10 11  1  0  0  0  0
 10 41  1  0  0  0  0
 10 42  1  0  0  0  0
 11 12  1  1  0  0  0
 11 18  1  0  0  0  0
 11 13  1  0  0  0  0
 13 14  1  0  0  0  0
 13 30  1  6  0  0  0
 14 15  1  6  0  0  0
 14 16  1  0  0  0  0
 14 29  1  0  0  0  0
 16 17  1  0  0  0  0
 16 43  1  0  0  0  0
 16 44  1  0  0  0  0
 17 22  1  0  0  0  0
 17 18  1  0  0  0  0
 17 28  1  1  0  0  0
 18 19  1  6  0  0  0
 18 20  1  0  0  0  0
 20 21  1  0  0  0  0
 20 45  1  0  0  0  0
 20 46  1  0  0  0  0
 21 22  1  0  0  0  0
 21 47  1  0  0  0  0
 21 48  1  0  0  0  0
 22 23  1  6  0  0  0
 22 27  1  0  0  0  0
 23 24  2  0  0  0  0
 23 25  1  0  0  0  0
 25 26  1  0  0  0  0
 25 49  1  0  0  0  0
 25 50  1  0  0  0  0
 26 51  1  0  0  0  0
 27 52  1  0  0  0  0
 28 53  1  0  0  0  0
 28 54  1  0  0  0  0
 28 55  1  0  0  0  0
 29 56  1  0  0  0  0
M  END
$$$$
