ZINC19850111
 OpenBabel08292219463D

 43 45  0  0  1  0  0  0  0  0999 V2000
   -0.0187    1.5258    0.0104 C   0  0  0  0  0  0  0  0  0  0  0  0
    0.0021   -0.0041    0.0020 C   0  0  0  0  0  0  0  0  0  0  0  0
    0.9183   -0.5578   -1.1267 C   0  0  1  0  0  0  0  0  0  0  0  0
    1.7655    0.1146   -1.2616 H   0  0  0  0  0  0  0  0  0  0  0  0
    1.4152   -1.8973   -0.7968 N   0  0  0  0  0  0  0  0  0  0  0  0
    1.5639   -2.1961    0.6340 C   0  0  2  0  0  0  0  0  0  0  0  0
    1.1313   -3.1348    0.9800 H   0  0  0  0  0  0  0  0  0  0  0  0
    0.9226   -0.6800    1.4567 S   0  0  0  0  0  0  0  0  0  0  0  0
    3.0673   -2.2015    0.4210 C   0  0  1  0  0  0  0  0  0  0  0  0
    3.5574   -3.1223    0.7376 H   0  0  0  0  0  0  0  0  0  0  0  0
    2.7129   -2.1678   -1.0358 C   0  0  0  0  0  0  0  0  0  0  0  0
    3.3561   -2.3252   -2.0520 O   0  0  0  0  0  0  0  0  0  0  0  0
    3.7428   -0.9941    0.9027 N   0  0  0  0  0  0  0  0  0  0  0  0
    5.0446   -1.0426    1.2482 C   0  0  0  0  0  0  0  0  0  0  0  0
    5.6569   -2.0859    1.1604 O   0  0  0  0  0  0  0  0  0  0  0  0
    5.7395    0.1994    1.7437 C   0  0  1  0  0  0  0  0  0  0  0  0
    5.4088    1.0583    1.1597 H   0  0  0  0  0  0  0  0  0  0  0  0
    5.4011    0.4190    3.1957 C   0  0  0  0  0  0  0  0  0  0  0  0
    6.0656   -0.2959    4.1750 C   0  0  0  0  0  0  0  0  0  0  0  0
    5.7570   -0.0969    5.5067 C   0  0  0  0  0  0  0  0  0  0  0  0
    4.7795    0.8216    5.8612 C   0  0  0  0  0  0  0  0  0  0  0  0
    4.1145    1.5380    4.8767 C   0  0  0  0  0  0  0  0  0  0  0  0
    4.4305    1.3390    3.5467 C   0  0  0  0  0  0  0  0  0  0  0  0
    4.4737    1.0190    7.1706 O   0  0  0  0  0  0  0  0  0  0  0  0
    7.1924    0.0387    1.5985 N   0  0  0  0  0  0  0  0  0  0  0  0
    0.1332   -0.6267   -2.4112 C   0  0  0  0  0  0  0  0  0  0  0  0
    0.1177    0.3290   -3.1682 O   0  0  0  0  0  0  0  0  0  0  0  0
   -0.4864   -1.6381   -2.6935 O   0  0  0  0  0  1  0  0  0  0  0  0
   -1.4126   -0.5802   -0.0861 C   0  0  0  0  0  0  0  0  0  0  0  0
    1.0039    1.9031    0.0027 H   0  0  0  0  0  0  0  0  0  0  0  0
   -0.5459    1.8868   -0.8726 H   0  0  0  0  0  0  0  0  0  0  0  0
   -0.5289    1.8773    0.9072 H   0  0  0  0  0  0  0  0  0  0  0  0
    3.2531   -0.1597    0.9729 H   0  0  0  0  0  0  0  0  0  0  0  0
    6.8265   -1.0109    3.8986 H   0  0  0  0  0  0  0  0  0  0  0  0
    6.2758   -0.6560    6.2712 H   0  0  0  0  0  0  0  0  0  0  0  0
    3.3531    2.2536    5.1502 H   0  0  0  0  0  0  0  0  0  0  0  0
    3.9161    1.8997    2.7802 H   0  0  0  0  0  0  0  0  0  0  0  0
    4.9984    1.7102    7.5971 H   0  0  0  0  0  0  0  0  0  0  0  0
    7.5238   -0.7517    2.1310 H   0  0  0  0  0  0  0  0  0  0  0  0
    7.4515   -0.0456    0.6269 H   0  0  0  0  0  0  0  0  0  0  0  0
   -1.8843   -0.2455   -1.0100 H   0  0  0  0  0  0  0  0  0  0  0  0
   -1.3627   -1.6690   -0.0774 H   0  0  0  0  0  0  0  0  0  0  0  0
   -1.9986   -0.2365    0.7662 H   0  0  0  0  0  0  0  0  0  0  0  0
  1  2  1  0  0  0  0
  1 30  1  0  0  0  0
  1 31  1  0  0  0  0
  1 32  1  0  0  0  0
  2  8  1  0  0  0  0
  2  3  1  0  0  0  0
  2 29  1  0  0  0  0
  3  4  1  6  0  0  0
  3  5  1  0  0  0  0
  3 26  1  0  0  0  0
  5 11  1  0  0  0  0
  5  6  1  0  0  0  0
  6  7  1  1  0  0  0
  6  8  1  0  0  0  0
  6  9  1  0  0  0  0
  9 10  1  1  0  0  0
  9 11  1  0  0  0  0
  9 13  1  0  0  0  0
 11 12  2  0  0  0  0
 13 14  1  0  0  0  0
 13 33  1  0  0  0  0
 14 15  2  0  0  0  0
 14 16  1  0  0  0  0
 16 17  1  6  0  0  0
 16 18  1  0  0  0  0
 16 25  1  0  0  0  0
 18 23  2  0  0  0  0
 18 19  1  0  0  0  0
 19 20  2  0  0  0  0
 19 34  1  0  0  0  0
 20 21  1  0  0  0  0
 20 35  1  0  0  0  0
 21 22  2  0  0  0  0
 21 24  1  0  0  0  0
 22 23  1  0  0  0  0
 22 36  1  0  0  0  0
 23 37  1  0  0  0  0
 24 38  1  0  0  0  0
 25 39  1  0  0  0  0
 25 40  1  0  0  0  0
 26 27  2  0  0  0  0
 26 28  1  0  0  0  0
 29 41  1  0  0  0  0
 29 42  1  0  0  0  0
 29 43  1  0  0  0  0
M  END
$$$$
