ZINC08214681
 OpenBabel08292219463D

 82 84  0  0  1  0  0  0  0  0999 V2000
    0.8394    0.9614   -0.9801 C   0  0  0  0  0  0  0  0  0  0  0  0
    0.4246   -0.4957   -0.7663 C   0  0  1  0  0  0  0  0  0  0  0  0
   -0.6580   -0.5703   -0.6641 H   0  0  0  0  0  0  0  0  0  0  0  0
    0.9157   -1.3724   -1.9396 C   0  0  1  0  0  0  0  0  0  0  0  0
    1.3245   -2.7029   -1.2688 C   0  0  2  0  0  0  0  0  0  0  0  0
    0.7219   -3.5256   -1.6535 H   0  0  0  0  0  0  0  0  0  0  0  0
    1.0321   -2.4726    0.2305 C   0  0  1  0  0  0  0  0  0  0  0  0
    1.7943   -2.9532    0.8439 H   0  0  0  0  0  0  0  0  0  0  0  0
    1.0784   -1.0383    0.4017 O   0  0  0  0  0  0  0  0  0  0  0  0
   -0.2637   -2.9721    0.5671 O   0  0  0  0  0  0  0  0  0  0  0  0
   -0.5817   -2.8738    1.9568 C   0  0  2  0  0  0  0  0  0  0  0  0
    0.2883   -2.5104    2.5037 H   0  0  0  0  0  0  0  0  0  0  0  0
   -0.9785   -4.2527    2.4879 C   0  0  2  0  0  0  0  0  0  0  0  0
   -1.8485   -4.6161    1.9410 H   0  0  0  0  0  0  0  0  0  0  0  0
   -1.3189   -4.1475    3.9758 C   0  0  1  0  0  0  0  0  0  0  0  0
   -0.4489   -3.7841    4.5228 H   0  0  0  0  0  0  0  0  0  0  0  0
   -2.4836   -3.1735    4.1650 C   0  0  2  0  0  0  0  0  0  0  0  0
   -3.3536   -3.5369    3.6180 H   0  0  0  0  0  0  0  0  0  0  0  0
   -2.0867   -1.7947    3.6338 C   0  0  1  0  0  0  0  0  0  0  0  0
   -1.2167   -1.4313    4.1808 H   0  0  0  0  0  0  0  0  0  0  0  0
   -1.7463   -1.8999    2.1459 C   0  0  1  0  0  0  0  0  0  0  0  0
   -2.6163   -2.2633    1.5990 H   0  0  0  0  0  0  0  0  0  0  0  0
   -1.3757   -0.6120    1.6498 O   0  0  0  0  0  0  0  0  0  0  0  0
   -3.1745   -0.8850    3.8105 O   0  0  0  0  0  0  0  0  0  0  0  0
   -2.8095   -3.0728    5.5897 N   0  0  0  0  0  0  0  0  0  0  0  0
   -4.0683   -2.7055    5.9790 C   0  0  0  0  0  0  0  0  0  0  0  0
   -4.3646   -2.6139    7.2744 N   0  0  0  0  0  4  0  0  0  0  0  0
   -4.9977   -2.4394    5.0628 N   0  0  0  0  0  0  0  0  0  0  0  0
   -1.6896   -5.4354    4.4719 O   0  0  0  0  0  0  0  0  0  0  0  0
    0.1367   -5.1853    2.3068 N   0  0  0  0  0  0  0  0  0  0  0  0
   -0.1091   -6.5194    2.1310 C   0  0  0  0  0  0  0  0  0  0  0  0
    0.9049   -7.3673    1.9664 N   0  0  0  0  0  4  0  0  0  0  0  0
   -1.3623   -6.9706    2.1245 N   0  0  0  0  0  0  0  0  0  0  0  0
    2.7144   -2.9621   -1.4766 O   0  0  0  0  0  0  0  0  0  0  0  0
    2.9982   -3.6799   -2.6792 C   0  0  1  0  0  0  0  0  0  0  0  0
    2.5745   -3.1460   -3.5298 H   0  0  0  0  0  0  0  0  0  0  0  0
    4.5141   -3.8007   -2.8559 C   0  0  2  0  0  0  0  0  0  0  0  0
    4.7319   -4.3126   -3.7932 H   0  0  0  0  0  0  0  0  0  0  0  0
    5.0942   -4.6035   -1.6874 C   0  0  1  0  0  0  0  0  0  0  0  0
    4.9199   -4.0674   -0.7545 H   0  0  0  0  0  0  0  0  0  0  0  0
    4.4049   -5.9702   -1.6294 C   0  0  2  0  0  0  0  0  0  0  0  0
    4.6205   -6.5260   -2.5419 H   0  0  0  0  0  0  0  0  0  0  0  0
    2.8933   -5.7656   -1.5000 C   0  0  1  0  0  0  0  0  0  0  0  0
    2.6753   -5.2454   -0.5673 H   0  0  0  0  0  0  0  0  0  0  0  0
    2.4232   -4.9858   -2.6017 O   0  0  0  0  0  0  0  0  0  0  0  0
    2.1923   -7.1256   -1.5015 C   0  0  0  0  0  0  0  0  0  0  0  0
    0.7887   -6.9383   -1.3093 O   0  0  0  0  0  0  0  0  0  0  0  0
    4.8875   -6.7008   -0.5000 O   0  0  0  0  0  0  0  0  0  0  0  0
    6.4987   -4.7824   -1.8809 O   0  0  0  0  0  0  0  0  0  0  0  0
    5.1142   -2.4600   -2.8778 N   0  3  0  0  0  0  0  0  0  0  0  0
    4.6422   -1.7316   -4.0630 C   0  0  0  0  0  0  0  0  0  0  0  0
   -0.1970   -1.6005   -2.9301 C   0  0  0  0  0  0  0  0  0  0  0  0
   -1.2791   -1.0958   -2.7493 O   0  0  0  0  0  0  0  0  0  0  0  0
    2.0412   -0.7677   -2.5796 O   0  0  0  0  0  0  0  0  0  0  0  0
    1.9242    1.0212   -1.0680 H   0  0  0  0  0  0  0  0  0  0  0  0
    0.3795    1.3398   -1.8930 H   0  0  0  0  0  0  0  0  0  0  0  0
    0.5100    1.5612   -0.1317 H   0  0  0  0  0  0  0  0  0  0  0  0
   -2.0679    0.0574    1.7375 H   0  0  0  0  0  0  0  0  0  0  0  0
   -2.9931    0.0110    3.4952 H   0  0  0  0  0  0  0  0  0  0  0  0
   -2.1327   -3.2666    6.2569 H   0  0  0  0  0  0  0  0  0  0  0  0
   -3.6878   -2.8077    7.9416 H   0  0  0  0  0  0  0  0  0  0  0  0
   -4.7819   -2.5061    4.1195 H   0  0  0  0  0  0  0  0  0  0  0  0
   -5.8904   -2.1789    5.3389 H   0  0  0  0  0  0  0  0  0  0  0  0
   -1.9191   -5.4439    5.4112 H   0  0  0  0  0  0  0  0  0  0  0  0
    1.0493   -4.8568    2.3116 H   0  0  0  0  0  0  0  0  0  0  0  0
    1.8175   -7.0388    1.9712 H   0  0  0  0  0  0  0  0  0  0  0  0
   -2.1007   -6.3531    2.2444 H   0  0  0  0  0  0  0  0  0  0  0  0
   -1.5365   -7.9166    1.9998 H   0  0  0  0  0  0  0  0  0  0  0  0
    2.3652   -7.6224   -2.4561 H   0  0  0  0  0  0  0  0  0  0  0  0
    2.5907   -7.7406   -0.6945 H   0  0  0  0  0  0  0  0  0  0  0  0
    0.2799   -7.7605   -1.2993 H   0  0  0  0  0  0  0  0  0  0  0  0
    4.4928   -7.5781   -0.4012 H   0  0  0  0  0  0  0  0  0  0  0  0
    6.9320   -5.2837   -1.1766 H   0  0  0  0  0  0  0  0  0  0  0  0
    4.8455   -1.9576   -2.0451 H   0  0  0  0  0  0  0  0  0  0  0  0
    5.0875   -0.7368   -4.0792 H   0  0  0  0  0  0  0  0  0  0  0  0
    4.9325   -2.2744   -4.9625 H   0  0  0  0  0  0  0  0  0  0  0  0
    3.5564   -1.6431   -4.0265 H   0  0  0  0  0  0  0  0  0  0  0  0
   -0.0266   -2.2153   -3.8015 H   0  0  0  0  0  0  0  0  0  0  0  0
    1.8553    0.0990   -2.9659 H   0  0  0  0  0  0  0  0  0  0  0  0
   -5.2573   -2.3534    7.5505 H   0  0  0  0  0  0  0  0  0  0  0  0
    0.7306   -8.3134    1.8417 H   0  0  0  0  0  0  0  0  0  0  0  0
    6.1193   -2.5419   -2.9116 H   0  0  0  0  0  0  0  0  0  0  0  0
  1  2  1  0  0  0  0
  1 55  1  0  0  0  0
  1 56  1  0  0  0  0
  1 57  1  0  0  0  0
  2  3  1  1  0  0  0
  2  9  1  0  0  0  0
  2  4  1  0  0  0  0
  4  5  1  0  0  0  0
  4 52  1  6  0  0  0
  4 54  1  0  0  0  0
  5  6  1  6  0  0  0
  5  7  1  0  0  0  0
  5 34  1  0  0  0  0
  7  8  1  1  0  0  0
  7  9  1  0  0  0  0
  7 10  1  0  0  0  0
 10 11  1  0  0  0  0
 11 12  1  1  0  0  0
 11 21  1  0  0  0  0
 11 13  1  0  0  0  0
 13 14  1  6  0  0  0
 13 15  1  0  0  0  0
 13 30  1  0  0  0  0
 15 16  1  1  0  0  0
 15 17  1  0  0  0  0
 15 29  1  0  0  0  0
 17 18  1  6  0  0  0
 17 19  1  0  0  0  0
 17 25  1  0  0  0  0
 19 20  1  1  0  0  0
 19 21  1  0  0  0  0
 19 24  1  0  0  0  0
 21 22  1  6  0  0  0
 21 23  1  0  0  0  0
 23 58  1  0  0  0  0
 24 59  1  0  0  0  0
 25 26  1  0  0  0  0
 25 60  1  0  0  0  0
 26 27  2  0  0  0  0
 26 28  1  0  0  0  0
 27 61  1  0  0  0  0
 27 80  1  0  0  0  0
 28 62  1  0  0  0  0
 28 63  1  0  0  0  0
 29 64  1  0  0  0  0
 30 31  1  0  0  0  0
 30 65  1  0  0  0  0
 31 32  2  0  0  0  0
 31 33  1  0  0  0  0
 32 66  1  0  0  0  0
 32 81  1  0  0  0  0
 33 67  1  0  0  0  0
 33 68  1  0  0  0  0
 34 35  1  0  0  0  0
 35 36  1  6  0  0  0
 35 45  1  0  0  0  0
 35 37  1  0  0  0  0
 37 38  1  6  0  0  0
 37 39  1  0  0  0  0
 37 50  1  0  0  0  0
 39 40  1  1  0  0  0
 39 41  1  0  0  0  0
 39 49  1  0  0  0  0
 41 42  1  6  0  0  0
 41 43  1  0  0  0  0
 41 48  1  0  0  0  0
 43 44  1  1  0  0  0
 43 45  1  0  0  0  0
 43 46  1  0  0  0  0
 46 47  1  0  0  0  0
 46 69  1  0  0  0  0
 46 70  1  0  0  0  0
 47 71  1  0  0  0  0
 48 72  1  0  0  0  0
 49 73  1  0  0  0  0
 50 51  1  0  0  0  0
 50 74  1  0  0  0  0
 50 82  1  0  0  0  0
 51 75  1  0  0  0  0
 51 76  1  0  0  0  0
 51 77  1  0  0  0  0
 52 53  2  0  0  0  0
 52 78  1  0  0  0  0
 54 79  1  0  0  0  0
M  CHG  1  50   1
M  END
$$$$
