ZINC18456286
 OpenBabel08292219463D

 55 57  0  0  1  0  0  0  0  0999 V2000
   -0.0055    1.3906   -0.0442 C   0  0  0  0  0  0  0  0  0  0  0  0
    1.1768    2.0946   -0.0400 C   0  0  0  0  0  0  0  0  0  0  0  0
    2.3926    1.4163   -0.0472 C   0  0  0  0  0  0  0  0  0  0  0  0
    2.4164    0.0244   -0.0587 C   0  0  0  0  0  0  0  0  0  0  0  0
    1.2375   -0.6853   -0.0634 C   0  0  0  0  0  0  0  0  0  0  0  0
    0.0150   -0.0072   -0.0557 C   0  0  0  0  0  0  0  0  0  0  0  0
   -1.2507   -0.7650   -0.0598 C   0  0  0  0  0  0  0  0  0  0  0  0
   -2.3132   -0.1739   -0.0531 O   0  0  0  0  0  0  0  0  0  0  0  0
   -1.2292   -2.1125   -0.0709 N   0  0  0  0  0  0  0  0  0  0  0  0
   -2.4861   -2.8651   -0.0749 C   0  0  2  0  0  0  0  0  0  0  0  0
   -3.2293   -2.3344    0.5202 H   0  0  0  0  0  0  0  0  0  0  0  0
   -2.2511   -4.2537    0.5229 C   0  0  0  0  0  0  0  0  0  0  0  0
   -1.8666   -4.1158    1.9974 C   0  0  0  0  0  0  0  0  0  0  0  0
   -1.6351   -5.4835    2.5863 C   0  0  0  0  0  0  0  0  0  0  0  0
   -1.7655   -6.4766    1.8910 O   0  0  0  0  0  0  0  0  0  0  0  0
   -1.3174   -5.5970    3.7579 O   0  0  0  0  0  1  0  0  0  0  0  0
   -2.9832   -3.0053   -1.4906 C   0  0  0  0  0  0  0  0  0  0  0  0
   -2.1886   -3.0447   -2.4146 O   0  0  0  0  0  0  0  0  0  0  0  0
   -4.1798   -3.0793   -1.7121 O   0  0  0  0  0  1  0  0  0  0  0  0
    3.5856    2.1306   -0.0434 N   0  0  0  0  0  0  0  0  0  0  0  0
    4.8658    1.4184   -0.0509 C   0  0  0  0  0  0  0  0  0  0  0  0
    6.0127    2.4310   -0.0447 C   0  0  2  0  0  0  0  0  0  0  0  0
    6.0004    3.0071   -0.9700 H   0  0  0  0  0  0  0  0  0  0  0  0
    7.3538    1.6952    0.0906 C   0  0  0  0  0  0  0  0  0  0  0  0
    7.3754    1.0076    1.3897 N   0  0  0  0  0  0  0  0  0  0  0  0
    6.9591    1.6913    2.5193 C   0  0  0  0  0  0  0  0  0  0  0  0
    6.2061    2.8513    2.3879 C   0  0  0  0  0  0  0  0  0  0  0  0
    5.7908    3.5268    3.5412 C   0  0  0  0  0  0  0  0  0  0  0  0
    5.1273    4.5491    3.4613 O   0  0  0  0  0  0  0  0  0  0  0  0
    6.1407    3.0228    4.7448 N   0  0  0  0  0  0  0  0  0  0  0  0
    5.8628    3.4737    5.5574 H   0  0  0  0  0  0  0  0  0  0  0  0
    6.8816    1.8838    4.8200 C   0  0  0  0  0  0  0  0  0  0  0  0
    7.2753    1.2433    3.7395 N   0  0  0  0  0  0  0  0  0  0  0  0
    7.2268    1.3910    6.0521 N   0  0  0  0  0  0  0  0  0  0  0  0
    5.8705    3.3365    1.1068 N   0  0  0  0  0  0  0  0  0  0  0  0
    5.4310    4.5997    0.9401 C   0  0  0  0  0  0  0  0  0  0  0  0
    5.2254    5.0281   -0.1763 O   0  0  0  0  0  0  0  0  0  0  0  0
   -0.9483    1.9173   -0.0341 H   0  0  0  0  0  0  0  0  0  0  0  0
    1.1616    3.1745   -0.0314 H   0  0  0  0  0  0  0  0  0  0  0  0
    3.3611   -0.4989   -0.0642 H   0  0  0  0  0  0  0  0  0  0  0  0
    1.2566   -1.7651   -0.0730 H   0  0  0  0  0  0  0  0  0  0  0  0
   -0.3816   -2.5841   -0.0762 H   0  0  0  0  0  0  0  0  0  0  0  0
   -3.1632   -4.8446    0.4390 H   0  0  0  0  0  0  0  0  0  0  0  0
   -1.4454   -4.7504   -0.0177 H   0  0  0  0  0  0  0  0  0  0  0  0
   -0.9545   -3.5249    2.0813 H   0  0  0  0  0  0  0  0  0  0  0  0
   -2.6723   -3.6191    2.5380 H   0  0  0  0  0  0  0  0  0  0  0  0
    3.5701    3.1005   -0.0357 H   0  0  0  0  0  0  0  0  0  0  0  0
    4.9348    0.7858    0.8340 H   0  0  0  0  0  0  0  0  0  0  0  0
    4.9321    0.7998   -0.9459 H   0  0  0  0  0  0  0  0  0  0  0  0
    7.4551    0.9655   -0.7128 H   0  0  0  0  0  0  0  0  0  0  0  0
    8.1730    2.4126    0.0412 H   0  0  0  0  0  0  0  0  0  0  0  0
    7.6767    0.0879    1.4545 H   0  0  0  0  0  0  0  0  0  0  0  0
    6.9431    1.8534    6.8562 H   0  0  0  0  0  0  0  0  0  0  0  0
    7.7546    0.5800    6.1196 H   0  0  0  0  0  0  0  0  0  0  0  0
    5.2618    5.2305    1.8002 H   0  0  0  0  0  0  0  0  0  0  0  0
  1  6  2  0  0  0  0
  1  2  1  0  0  0  0
  1 38  1  0  0  0  0
  2  3  2  0  0  0  0
  2 39  1  0  0  0  0
  3  4  1  0  0  0  0
  3 20  1  0  0  0  0
  4  5  2  0  0  0  0
  4 40  1  0  0  0  0
  5  6  1  0  0  0  0
  5 41  1  0  0  0  0
  6  7  1  0  0  0  0
  7  8  2  0  0  0  0
  7  9  1  0  0  0  0
  9 10  1  0  0  0  0
  9 42  1  0  0  0  0
 10 11  1  1  0  0  0
 10 12  1  0  0  0  0
 10 17  1  0  0  0  0
 12 13  1  0  0  0  0
 12 43  1  0  0  0  0
 12 44  1  0  0  0  0
 13 14  1  0  0  0  0
 13 45  1  0  0  0  0
 13 46  1  0  0  0  0
 14 15  2  0  0  0  0
 14 16  1  0  0  0  0
 17 18  2  0  0  0  0
 17 19  1  0  0  0  0
 20 21  1  0  0  0  0
 20 47  1  0  0  0  0
 21 22  1  0  0  0  0
 21 48  1  0  0  0  0
 21 49  1  0  0  0  0
 22 23  1  6  0  0  0
 22 35  1  0  0  0  0
 22 24  1  0  0  0  0
 24 25  1  0  0  0  0
 24 50  1  0  0  0  0
 24 51  1  0  0  0  0
 25 26  1  0  0  0  0
 25 52  1  0  0  0  0
 26 33  1  0  0  0  0
 26 27  2  0  0  0  0
 27 28  1  0  0  0  0
 27 35  1  0  0  0  0
 28 29  2  0  0  0  0
 28 30  1  0  0  0  0
 30 31  1  0  0  0  0
 30 32  1  0  0  0  0
 32 33  2  0  0  0  0
 32 34  1  0  0  0  0
 34 53  1  0  0  0  0
 34 54  1  0  0  0  0
 35 36  1  0  0  0  0
 36 37  2  0  0  0  0
 36 55  1  0  0  0  0
M  END
$$$$
