ZINC00018635
 OpenBabel08292219463D

 36 38  0  0  1  0  0  0  0  0999 V2000
   -0.0178    1.4648    0.0101 C   0  0  0  0  0  0  0  0  0  0  0  0
    0.0021   -0.0041    0.0020 N   0  3  0  0  0  0  0  0  0  0  0  0
   -1.3761   -0.5125    0.0124 C   0  0  2  0  0  0  0  0  0  0  0  0
   -1.9294   -0.0810   -0.8217 H   0  0  0  0  0  0  0  0  0  0  0  0
   -2.0537   -0.1255    1.3300 C   0  0  0  0  0  0  0  0  0  0  0  0
   -3.5525   -0.4328    1.2418 C   0  0  0  0  0  0  0  0  0  0  0  0
   -3.7256   -1.8515    0.7522 C   0  0  0  0  0  0  0  0  0  0  0  0
   -2.7479   -2.5609    0.1494 C   0  0  0  0  0  0  0  0  0  0  0  0
   -3.3002   -3.8628   -0.1656 C   0  0  0  0  0  0  0  0  0  0  0  0
   -2.7645   -4.9937   -0.7814 C   0  0  0  0  0  0  0  0  0  0  0  0
   -3.6158   -6.0942   -0.9175 C   0  0  0  0  0  0  0  0  0  0  0  0
   -4.9370   -6.0596   -0.4586 C   0  0  0  0  0  0  0  0  0  0  0  0
   -5.4723   -4.9535    0.1466 C   0  0  0  0  0  0  0  0  0  0  0  0
   -4.6437   -3.8400    0.2959 C   0  0  0  0  0  0  0  0  0  0  0  0
   -4.8628   -2.6115    0.8420 N   0  0  0  0  0  0  0  0  0  0  0  0
   -5.6991   -2.3182    1.2364 H   0  0  0  0  0  0  0  0  0  0  0  0
   -3.1086   -7.3223   -1.5615 C   0  0  0  0  0  0  0  0  0  0  0  0
   -1.9630   -7.3679   -1.9659 O   0  0  0  0  0  0  0  0  0  0  0  0
   -3.9157   -8.3926   -1.7011 N   0  0  0  0  0  0  0  0  0  0  0  0
   -1.3590   -2.0399   -0.1203 C   0  0  0  0  0  0  0  0  0  0  0  0
    1.0047    1.8421    0.0024 H   0  0  0  0  0  0  0  0  0  0  0  0
   -0.5450    1.8259   -0.8730 H   0  0  0  0  0  0  0  0  0  0  0  0
   -0.5280    1.8163    0.9069 H   0  0  0  0  0  0  0  0  0  0  0  0
    0.4744   -0.3295   -0.8281 H   0  0  0  0  0  0  0  0  0  0  0  0
   -1.6130   -0.6969    2.1470 H   0  0  0  0  0  0  0  0  0  0  0  0
   -1.9112    0.9396    1.5129 H   0  0  0  0  0  0  0  0  0  0  0  0
   -4.0063   -0.3278    2.2273 H   0  0  0  0  0  0  0  0  0  0  0  0
   -4.0267    0.2560    0.5425 H   0  0  0  0  0  0  0  0  0  0  0  0
   -1.7443   -5.0179   -1.1351 H   0  0  0  0  0  0  0  0  0  0  0  0
   -5.5563   -6.9351   -0.5863 H   0  0  0  0  0  0  0  0  0  0  0  0
   -6.4947   -4.9432    0.4943 H   0  0  0  0  0  0  0  0  0  0  0  0
   -4.8297   -8.3562   -1.3784 H   0  0  0  0  0  0  0  0  0  0  0  0
   -3.5825   -9.1994   -2.1242 H   0  0  0  0  0  0  0  0  0  0  0  0
   -1.0535   -2.3162   -1.1295 H   0  0  0  0  0  0  0  0  0  0  0  0
   -0.6630   -2.4625    0.6043 H   0  0  0  0  0  0  0  0  0  0  0  0
    0.4901   -0.3383    0.8195 H   0  0  0  0  0  0  0  0  0  0  0  0
  1  2  1  0  0  0  0
  1 21  1  0  0  0  0
  1 22  1  0  0  0  0
  1 23  1  0  0  0  0
  2  3  1  0  0  0  0
  2 24  1  0  0  0  0
  2 36  1  0  0  0  0
  3  4  1  6  0  0  0
  3 20  1  0  0  0  0
  3  5  1  0  0  0  0
  5  6  1  0  0  0  0
  5 25  1  0  0  0  0
  5 26  1  0  0  0  0
  6  7  1  0  0  0  0
  6 27  1  0  0  0  0
  6 28  1  0  0  0  0
  7 15  1  0  0  0  0
  7  8  2  0  0  0  0
  8  9  1  0  0  0  0
  8 20  1  0  0  0  0
  9 14  2  0  0  0  0
  9 10  1  0  0  0  0
 10 11  2  0  0  0  0
 10 29  1  0  0  0  0
 11 12  1  0  0  0  0
 11 17  1  0  0  0  0
 12 13  2  0  0  0  0
 12 30  1  0  0  0  0
 13 14  1  0  0  0  0
 13 31  1  0  0  0  0
 14 15  1  0  0  0  0
 15 16  1  0  0  0  0
 17 18  2  0  0  0  0
 17 19  1  0  0  0  0
 19 32  1  0  0  0  0
 19 33  1  0  0  0  0
 20 34  1  0  0  0  0
 20 35  1  0  0  0  0
M  CHG  1   2   1
M  END
$$$$
