ZINC01548097
 OpenBabel08292219463D

 59 62  0  0  1  0  0  0  0  0999 V2000
    5.4534   19.1223    1.8869 C   0  0  0  0  0  0  0  0  0  0  0  0
    4.3501   18.7399    2.8395 C   0  0  0  0  0  0  0  0  0  0  0  0
    4.0275   19.4980    3.7297 O   0  0  0  0  0  0  0  0  0  0  0  0
    3.6653   17.4493    2.6899 C   0  0  0  0  0  0  0  0  0  0  0  0
    4.0360   16.5727    1.6630 C   0  0  0  0  0  0  0  0  0  0  0  0
    3.3928   15.3632    1.5254 C   0  0  0  0  0  0  0  0  0  0  0  0
    2.3755   15.0095    2.4028 C   0  0  0  0  0  0  0  0  0  0  0  0
    1.9965   15.8797    3.4249 C   0  0  0  0  0  0  0  0  0  0  0  0
    2.6401   17.0916    3.5742 C   0  0  0  0  0  0  0  0  0  0  0  0
    0.9963   15.5315    4.2781 O   0  0  0  0  0  0  0  0  0  0  0  0
    0.6601   16.4707    5.3013 C   0  0  0  0  0  0  0  0  0  0  0  0
    1.7447   13.8158    2.2616 O   0  0  0  0  0  0  0  0  0  0  0  0
    2.1786   12.9754    1.1904 C   0  0  0  0  0  0  0  0  0  0  0  0
    1.3580   11.6841    1.1907 C   0  0  0  0  0  0  0  0  0  0  0  0
    1.8225   10.7843    0.0437 C   0  0  0  0  0  0  0  0  0  0  0  0
    1.2834    8.7626   -1.1738 C   0  0  0  0  0  0  0  0  0  0  0  0
    0.3423    7.5563   -1.2082 C   0  0  0  0  0  0  0  0  0  0  0  0
    0.5821    6.6925    0.0332 C   0  0  1  0  0  0  0  0  0  0  0  0
    0.3647    7.5425    1.2881 C   0  0  0  0  0  0  0  0  0  0  0  0
    1.3040    8.7501    1.2493 C   0  0  0  0  0  0  0  0  0  0  0  0
   -0.3830    5.5351    0.0354 C   0  0  0  0  0  0  0  0  0  0  0  0
   -0.0312    4.1126    0.0244 C   0  0  0  0  0  0  0  0  0  0  0  0
    1.1811    3.4182    0.0091 C   0  0  0  0  0  0  0  0  0  0  0  0
    1.1816    2.0526    0.0018 C   0  0  0  0  0  0  0  0  0  0  0  0
   -0.0162    1.3468    0.0094 C   0  0  0  0  0  0  0  0  0  0  0  0
   -1.2242    2.0150    0.0188 C   0  0  0  0  0  0  0  0  0  0  0  0
   -1.2442    3.4039    0.0322 C   0  0  0  0  0  0  0  0  0  0  0  0
   -2.2366    4.3165    0.0466 O   0  0  0  0  0  0  0  0  0  0  0  0
   -1.6781    5.6150    0.0482 N   0  0  0  0  0  0  0  0  0  0  0  0
    0.0021   -0.0041    0.0020 F   0  0  0  0  0  0  0  0  0  0  0  0
    5.0645   19.6089    1.1046 H   0  0  0  0  0  0  0  0  0  0  0  0
    6.1673   19.7681    2.3983 H   0  0  0  0  0  0  0  0  0  0  0  0
    5.9614   18.2228    1.5394 H   0  0  0  0  0  0  0  0  0  0  0  0
    4.8261   16.8453    0.9790 H   0  0  0  0  0  0  0  0  0  0  0  0
    3.6796   14.6878    0.7329 H   0  0  0  0  0  0  0  0  0  0  0  0
    2.3502   17.7645    4.3677 H   0  0  0  0  0  0  0  0  0  0  0  0
   -0.1505   16.0700    5.9101 H   0  0  0  0  0  0  0  0  0  0  0  0
    1.5320   16.6506    5.9301 H   0  0  0  0  0  0  0  0  0  0  0  0
    0.3422   17.4077    4.8442 H   0  0  0  0  0  0  0  0  0  0  0  0
    3.2338   12.7354    1.3213 H   0  0  0  0  0  0  0  0  0  0  0  0
    2.0390   13.4944    0.2421 H   0  0  0  0  0  0  0  0  0  0  0  0
    0.3028   11.9241    1.0598 H   0  0  0  0  0  0  0  0  0  0  0  0
    1.4976   11.1651    2.1390 H   0  0  0  0  0  0  0  0  0  0  0  0
    2.8777   10.5443    0.1746 H   0  0  0  0  0  0  0  0  0  0  0  0
    1.6829   11.3033   -0.9046 H   0  0  0  0  0  0  0  0  0  0  0  0
    2.3172    8.4170   -1.1787 H   0  0  0  0  0  0  0  0  0  0  0  0
    1.1053    9.3872   -2.0491 H   0  0  0  0  0  0  0  0  0  0  0  0
    0.5379    6.9676   -2.1045 H   0  0  0  0  0  0  0  0  0  0  0  0
   -0.6917    7.9008   -1.2176 H   0  0  0  0  0  0  0  0  0  0  0  0
    1.6044    6.3144    0.0219 H   0  0  0  0  0  0  0  0  0  0  0  0
   -0.6688    7.8874    1.3195 H   0  0  0  0  0  0  0  0  0  0  0  0
    0.5762    6.9440    2.1742 H   0  0  0  0  0  0  0  0  0  0  0  0
    2.3377    8.4046    1.2331 H   0  0  0  0  0  0  0  0  0  0  0  0
    1.1407    9.3656    2.1340 H   0  0  0  0  0  0  0  0  0  0  0  0
    2.1154    3.9600    0.0035 H   0  0  0  0  0  0  0  0  0  0  0  0
    2.1193    1.5169   -0.0097 H   0  0  0  0  0  0  0  0  0  0  0  0
   -2.1505    1.4597    0.0202 H   0  0  0  0  0  0  0  0  0  0  0  0
    1.0059    9.5530    0.0442 N   0  3  1  0  0  0  0  0  0  0  0  0
    0.0123    9.8119    0.0539 H   0  0  0  0  0  0  0  0  0  0  0  0
  1  2  1  0  0  0  0
  1 31  1  0  0  0  0
  1 32  1  0  0  0  0
  1 33  1  0  0  0  0
  2  3  2  0  0  0  0
  2  4  1  0  0  0  0
  4  9  2  0  0  0  0
  4  5  1  0  0  0  0
  5  6  2  0  0  0  0
  5 34  1  0  0  0  0
  6  7  1  0  0  0  0
  6 35  1  0  0  0  0
  7  8  2  0  0  0  0
  7 12  1  0  0  0  0
  8  9  1  0  0  0  0
  8 10  1  0  0  0  0
  9 36  1  0  0  0  0
 10 11  1  0  0  0  0
 11 37  1  0  0  0  0
 11 38  1  0  0  0  0
 11 39  1  0  0  0  0
 12 13  1  0  0  0  0
 13 14  1  0  0  0  0
 13 40  1  0  0  0  0
 13 41  1  0  0  0  0
 14 15  1  0  0  0  0
 14 42  1  0  0  0  0
 14 43  1  0  0  0  0
 15 44  1  0  0  0  0
 15 45  1  0  0  0  0
 15 58  1  0  0  0  0
 16 17  1  0  0  0  0
 16 46  1  0  0  0  0
 16 47  1  0  0  0  0
 16 58  1  0  0  0  0
 17 18  1  0  0  0  0
 17 48  1  0  0  0  0
 17 49  1  0  0  0  0
 18 19  1  0  0  0  0
 18 21  1  0  0  0  0
 18 50  1  6  0  0  0
 19 20  1  0  0  0  0
 19 51  1  0  0  0  0
 19 52  1  0  0  0  0
 20 53  1  0  0  0  0
 20 54  1  0  0  0  0
 20 58  1  0  0  0  0
 21 29  2  0  0  0  0
 21 22  1  0  0  0  0
 22 27  2  0  0  0  0
 22 23  1  0  0  0  0
 23 24  2  0  0  0  0
 23 55  1  0  0  0  0
 24 25  1  0  0  0  0
 24 56  1  0  0  0  0
 25 26  2  0  0  0  0
 25 30  1  0  0  0  0
 26 27  1  0  0  0  0
 26 57  1  0  0  0  0
 27 28  1  0  0  0  0
 28 29  1  0  0  0  0
 58 59  1  1  0  0  0
M  CHG  1  58   1
M  END
$$$$
