ZINC22443609
 OpenBabel08292219463D

 93 95  0  0  1  0  0  0  0  0999 V2000
   -0.0167    1.3781    0.0096 C   0  0  0  0  0  0  0  0  0  0  0  0
    1.1709    2.0855    0.0021 C   0  0  0  0  0  0  0  0  0  0  0  0
    2.3773    1.4107   -0.0130 C   0  0  0  0  0  0  0  0  0  0  0  0
    2.3960    0.0285   -0.0201 C   0  0  0  0  0  0  0  0  0  0  0  0
    1.2085   -0.6789   -0.0117 C   0  0  0  0  0  0  0  0  0  0  0  0
    0.0021   -0.0041    0.0020 C   0  0  0  0  0  0  0  0  0  0  0  0
   -1.2926   -0.7753    0.0107 C   0  0  0  0  0  0  0  0  0  0  0  0
   -1.7270   -1.0184   -1.3714 N   0  0  0  0  0  0  0  0  0  0  0  0
   -3.0940   -1.5550   -1.4069 C   0  0  0  0  0  0  0  0  0  0  0  0
   -4.0830   -0.4150   -1.6584 C   0  0  0  0  0  0  0  0  0  0  0  0
   -5.0537   -0.8180   -2.7703 C   0  0  0  0  0  0  0  0  0  0  0  0
   -5.1326    0.2595   -3.7657 N   0  3  0  0  0  0  0  0  0  0  0  0
   -5.0625   -0.3152   -5.1158 C   0  0  0  0  0  0  0  0  0  0  0  0
   -4.1553    0.5507   -5.9922 C   0  0  0  0  0  0  0  0  0  0  0  0
   -3.2191   -0.3097   -6.7280 N   0  0  0  0  0  0  0  0  0  0  0  0
   -1.8495    0.2160   -6.6512 C   0  0  0  0  0  0  0  0  0  0  0  0
   -0.8820   -0.9260   -6.3339 C   0  0  0  0  0  0  0  0  0  0  0  0
    0.0784   -0.4878   -5.2264 C   0  0  0  0  0  0  0  0  0  0  0  0
    0.2449   -1.5826   -4.2612 N   0  0  0  0  0  0  0  0  0  0  0  0
    0.1998   -1.0797   -2.8817 C   0  0  0  0  0  0  0  0  0  0  0  0
   -0.7922   -1.9127   -2.0674 C   0  0  0  0  0  0  0  0  0  0  0  0
    3.6720    2.1819   -0.0222 C   0  0  0  0  0  0  0  0  0  0  0  0
    4.1064    2.4260    1.3597 N   0  3  2  0  0  0  0  0  0  0  0  0
    5.3024    3.2789    1.3536 C   0  0  0  0  0  0  0  0  0  0  0  0
    4.9021    4.7209    1.6718 C   0  0  0  0  0  0  0  0  0  0  0  0
    5.8648    5.3001    2.7104 C   0  0  0  0  0  0  0  0  0  0  0  0
    5.0965    5.8947    3.8123 N   0  0  0  0  0  0  0  0  0  0  0  0
    5.6432    5.4892    5.1141 C   0  0  0  0  0  0  0  0  0  0  0  0
    4.4949    5.1429    6.0640 C   0  0  0  0  0  0  0  0  0  0  0  0
    4.7901    3.8769    6.7481 N   0  3  0  0  0  0  0  0  0  0  0  0
    3.5977    3.0191    6.7267 C   0  0  0  0  0  0  0  0  0  0  0  0
    3.9997    1.5968    6.3313 C   0  0  0  0  0  0  0  0  0  0  0  0
    3.0177    1.0608    5.2876 C   0  0  0  0  0  0  0  0  0  0  0  0
    3.7600    0.3607    4.2308 N   0  0  0  0  0  0  0  0  0  0  0  0
    3.2528    0.7253    2.9012 C   0  0  0  0  0  0  0  0  0  0  0  0
    4.4213    1.1457    2.0074 C   0  0  0  0  0  0  0  0  0  0  0  0
   -0.9591    1.9053    0.0259 H   0  0  0  0  0  0  0  0  0  0  0  0
    1.1563    3.1654    0.0076 H   0  0  0  0  0  0  0  0  0  0  0  0
    3.3385   -0.4987   -0.0326 H   0  0  0  0  0  0  0  0  0  0  0  0
    1.2231   -1.7588   -0.0179 H   0  0  0  0  0  0  0  0  0  0  0  0
   -1.1443   -1.7285    0.5180 H   0  0  0  0  0  0  0  0  0  0  0  0
   -2.0551   -0.1993    0.5352 H   0  0  0  0  0  0  0  0  0  0  0  0
   -3.1753   -2.2898   -2.2079 H   0  0  0  0  0  0  0  0  0  0  0  0
   -3.3226   -2.0305   -0.4531 H   0  0  0  0  0  0  0  0  0  0  0  0
   -4.6415   -0.2103   -0.7450 H   0  0  0  0  0  0  0  0  0  0  0  0
   -3.5375    0.4796   -1.9589 H   0  0  0  0  0  0  0  0  0  0  0  0
   -4.6987   -1.7302   -3.2496 H   0  0  0  0  0  0  0  0  0  0  0  0
   -6.0419   -0.9922   -2.3444 H   0  0  0  0  0  0  0  0  0  0  0  0
   -6.0044    0.7555   -3.6561 H   0  0  0  0  0  0  0  0  0  0  0  0
   -4.6572   -1.3255   -5.0601 H   0  0  0  0  0  0  0  0  0  0  0  0
   -6.0622   -0.3481   -5.5490 H   0  0  0  0  0  0  0  0  0  0  0  0
   -4.7636    1.1141   -6.6997 H   0  0  0  0  0  0  0  0  0  0  0  0
   -3.5951    1.2425   -5.3631 H   0  0  0  0  0  0  0  0  0  0  0  0
   -3.2610   -1.2601   -6.3918 H   0  0  0  0  0  0  0  0  0  0  0  0
   -1.5792    0.6664   -7.6063 H   0  0  0  0  0  0  0  0  0  0  0  0
   -1.7930    0.9691   -5.8653 H   0  0  0  0  0  0  0  0  0  0  0  0
   -1.4455   -1.7981   -6.0022 H   0  0  0  0  0  0  0  0  0  0  0  0
   -0.3133   -1.1796   -7.2286 H   0  0  0  0  0  0  0  0  0  0  0  0
    1.0456   -0.2374   -5.6622 H   0  0  0  0  0  0  0  0  0  0  0  0
   -0.3282    0.3863   -4.7177 H   0  0  0  0  0  0  0  0  0  0  0  0
   -0.4479   -2.3016   -4.4068 H   0  0  0  0  0  0  0  0  0  0  0  0
    1.1909   -1.1557   -2.4347 H   0  0  0  0  0  0  0  0  0  0  0  0
   -0.1182   -0.0371   -2.8853 H   0  0  0  0  0  0  0  0  0  0  0  0
   -0.2494   -2.5114   -1.3360 H   0  0  0  0  0  0  0  0  0  0  0  0
   -1.3481   -2.5708   -2.7352 H   0  0  0  0  0  0  0  0  0  0  0  0
    4.4344    1.6056   -0.5463 H   0  0  0  0  0  0  0  0  0  0  0  0
    3.5237    3.1349   -0.5302 H   0  0  0  0  0  0  0  0  0  0  0  0
    6.0064    2.9229    2.1057 H   0  0  0  0  0  0  0  0  0  0  0  0
    5.7710    3.2405    0.3702 H   0  0  0  0  0  0  0  0  0  0  0  0
    4.9462    5.3195    0.7619 H   0  0  0  0  0  0  0  0  0  0  0  0
    3.8870    4.7371    2.0685 H   0  0  0  0  0  0  0  0  0  0  0  0
    6.5014    4.5051    3.0988 H   0  0  0  0  0  0  0  0  0  0  0  0
    6.4841    6.0665    2.2443 H   0  0  0  0  0  0  0  0  0  0  0  0
    5.0655    6.8999    3.7304 H   0  0  0  0  0  0  0  0  0  0  0  0
    6.2826    4.6161    4.9836 H   0  0  0  0  0  0  0  0  0  0  0  0
    6.2275    6.3081    5.5338 H   0  0  0  0  0  0  0  0  0  0  0  0
    4.3819    5.9370    6.8021 H   0  0  0  0  0  0  0  0  0  0  0  0
    3.5707    5.0415    5.4950 H   0  0  0  0  0  0  0  0  0  0  0  0
    5.5496    3.4090    6.2766 H   0  0  0  0  0  0  0  0  0  0  0  0
    3.1419    3.0059    7.7167 H   0  0  0  0  0  0  0  0  0  0  0  0
    2.8825    3.4092    6.0026 H   0  0  0  0  0  0  0  0  0  0  0  0
    5.0058    1.6069    5.9120 H   0  0  0  0  0  0  0  0  0  0  0  0
    3.9796    0.9553    7.2123 H   0  0  0  0  0  0  0  0  0  0  0  0
    2.3235    0.3684    5.7638 H   0  0  0  0  0  0  0  0  0  0  0  0
    2.4615    1.8909    4.8520 H   0  0  0  0  0  0  0  0  0  0  0  0
    4.7498    0.5429    4.3028 H   0  0  0  0  0  0  0  0  0  0  0  0
    2.7463   -0.1320    2.4579 H   0  0  0  0  0  0  0  0  0  0  0  0
    2.5507    1.5538    2.9948 H   0  0  0  0  0  0  0  0  0  0  0  0
    4.5880    0.3843    1.2454 H   0  0  0  0  0  0  0  0  0  0  0  0
    5.3206    1.2565    2.6132 H   0  0  0  0  0  0  0  0  0  0  0  0
    3.3670    2.8873    1.8682 H   0  0  0  0  0  0  0  0  0  0  0  0
   -4.3631    0.8982   -3.6317 H   0  0  0  0  0  0  0  0  0  0  0  0
    5.0524    4.0644    7.7042 H   0  0  0  0  0  0  0  0  0  0  0  0
  1  6  2  0  0  0  0
  1  2  1  0  0  0  0
  1 37  1  0  0  0  0
  2  3  2  0  0  0  0
  2 38  1  0  0  0  0
  3  4  1  0  0  0  0
  3 22  1  0  0  0  0
  4  5  2  0  0  0  0
  4 39  1  0  0  0  0
  5  6  1  0  0  0  0
  5 40  1  0  0  0  0
  6  7  1  0  0  0  0
  7  8  1  0  0  0  0
  7 41  1  0  0  0  0
  7 42  1  0  0  0  0
  8 21  1  0  0  0  0
  8  9  1  0  0  0  0
  9 10  1  0  0  0  0
  9 43  1  0  0  0  0
  9 44  1  0  0  0  0
 10 11  1  0  0  0  0
 10 45  1  0  0  0  0
 10 46  1  0  0  0  0
 11 12  1  0  0  0  0
 11 47  1  0  0  0  0
 11 48  1  0  0  0  0
 12 13  1  0  0  0  0
 12 49  1  0  0  0  0
 12 92  1  0  0  0  0
 13 14  1  0  0  0  0
 13 50  1  0  0  0  0
 13 51  1  0  0  0  0
 14 15  1  0  0  0  0
 14 52  1  0  0  0  0
 14 53  1  0  0  0  0
 15 16  1  0  0  0  0
 15 54  1  0  0  0  0
 16 17  1  0  0  0  0
 16 55  1  0  0  0  0
 16 56  1  0  0  0  0
 17 18  1  0  0  0  0
 17 57  1  0  0  0  0
 17 58  1  0  0  0  0
 18 19  1  0  0  0  0
 18 59  1  0  0  0  0
 18 60  1  0  0  0  0
 19 20  1  0  0  0  0
 19 61  1  0  0  0  0
 20 21  1  0  0  0  0
 20 62  1  0  0  0  0
 20 63  1  0  0  0  0
 21 64  1  0  0  0  0
 21 65  1  0  0  0  0
 22 23  1  0  0  0  0
 22 66  1  0  0  0  0
 22 67  1  0  0  0  0
 23 36  1  0  0  0  0
 23 24  1  0  0  0  0
 23 91  1  1  0  0  0
 24 25  1  0  0  0  0
 24 68  1  0  0  0  0
 24 69  1  0  0  0  0
 25 26  1  0  0  0  0
 25 70  1  0  0  0  0
 25 71  1  0  0  0  0
 26 27  1  0  0  0  0
 26 72  1  0  0  0  0
 26 73  1  0  0  0  0
 27 28  1  0  0  0  0
 27 74  1  0  0  0  0
 28 29  1  0  0  0  0
 28 75  1  0  0  0  0
 28 76  1  0  0  0  0
 29 30  1  0  0  0  0
 29 77  1  0  0  0  0
 29 78  1  0  0  0  0
 30 31  1  0  0  0  0
 30 79  1  0  0  0  0
 30 93  1  0  0  0  0
 31 32  1  0  0  0  0
 31 80  1  0  0  0  0
 31 81  1  0  0  0  0
 32 33  1  0  0  0  0
 32 82  1  0  0  0  0
 32 83  1  0  0  0  0
 33 34  1  0  0  0  0
 33 84  1  0  0  0  0
 33 85  1  0  0  0  0
 34 35  1  0  0  0  0
 34 86  1  0  0  0  0
 35 36  1  0  0  0  0
 35 87  1  0  0  0  0
 35 88  1  0  0  0  0
 36 89  1  0  0  0  0
 36 90  1  0  0  0  0
M  CHG  3  12   1  23   1  30   1
M  END
$$$$
