ZINC14210455
 OpenBabel08292219463D

 82 84  0  0  1  0  0  0  0  0999 V2000
    7.5547    3.7597   -5.7148 C   0  0  0  0  0  0  0  0  0  0  0  0
    6.7695    2.5173   -5.2894 C   0  0  0  0  0  0  0  0  0  0  0  0
    7.5571    1.3671   -4.6589 C   0  0  2  0  0  0  0  0  0  0  0  0
    8.6239    1.4864   -4.4697 H   0  0  0  0  0  0  0  0  0  0  0  0
    6.9948    1.2327   -6.0894 C   0  0  1  0  0  0  0  0  0  0  0  0
    7.6217    1.2576   -6.9807 H   0  0  0  0  0  0  0  0  0  0  0  0
    5.9282    0.1204   -5.9955 C   0  0  2  0  0  0  0  0  0  0  0  0
    5.0773    0.3549   -6.6351 H   0  0  0  0  0  0  0  0  0  0  0  0
    5.5182    0.1148   -4.5719 N   0  0  0  0  0  0  0  0  0  0  0  0
    6.7800    0.3307   -3.8263 C   0  0  0  0  0  0  0  0  0  0  0  0
    4.2779   -0.0447   -4.0693 C   0  0  0  0  0  0  0  0  0  0  0  0
    3.3273   -0.1336   -4.8173 O   0  0  0  0  0  0  0  0  0  0  0  0
    4.0721   -0.1127   -2.5780 C   0  0  2  0  0  0  0  0  0  0  0  0
    4.8141    0.5115   -2.0800 H   0  0  0  0  0  0  0  0  0  0  0  0
    4.2251   -1.5604   -2.1075 C   0  0  0  0  0  0  0  0  0  0  0  0
    3.2264   -2.4474   -2.8537 C   0  0  0  0  0  0  0  0  0  0  0  0
    5.6487   -2.0422   -2.3943 C   0  0  0  0  0  0  0  0  0  0  0  0
    3.9532   -1.6395   -0.6039 C   0  0  0  0  0  0  0  0  0  0  0  0
    2.7284    0.3687   -2.2480 N   0  0  0  0  0  0  0  0  0  0  0  0
    2.4755    0.8754   -1.0250 C   0  0  0  0  0  0  0  0  0  0  0  0
    3.3627    0.9332   -0.1956 O   0  0  0  0  0  0  0  0  0  0  0  0
    1.2393    1.3182   -0.7214 N   0  0  0  0  0  0  0  0  0  0  0  0
    0.9645    1.8691    0.6079 C   0  0  0  0  0  0  0  0  0  0  0  0
    1.8625    3.0835    0.8524 C   0  0  0  0  0  0  0  0  0  0  0  0
    1.2467    0.8041    1.6696 C   0  0  0  0  0  0  0  0  0  0  0  0
   -0.5028    2.2950    0.6902 C   0  0  0  0  0  0  0  0  0  0  0  0
    6.5198   -1.2120   -6.3772 C   0  0  0  0  0  0  0  0  0  0  0  0
    6.9125   -1.9702   -5.5160 O   0  0  0  0  0  0  0  0  0  0  0  0
    6.6125   -1.5609   -7.6757 N   0  0  0  0  0  0  0  0  0  0  0  0
    7.1876   -2.8562   -8.0469 C   0  0  1  0  0  0  0  0  0  0  0  0
    6.9412   -3.5395   -7.3596 H   0  0  0  0  0  0  0  0  0  0  0  0
    6.6419   -3.2846   -9.4105 C   0  0  0  0  0  0  0  0  0  0  0  0
    5.1350   -3.5266   -9.3037 C   0  0  0  0  0  0  0  0  0  0  0  0
    4.7697   -4.9571   -8.8735 C   0  0  0  0  0  0  0  0  0  0  0  0
    3.6238   -4.8880   -9.8967 C   0  0  0  0  0  0  0  0  0  0  0  0
    4.4651   -3.8448  -10.6508 C   0  0  0  0  0  0  0  0  0  0  0  0
    8.6881   -2.7368   -8.1212 C   0  0  0  0  0  0  0  0  0  0  0  0
    9.2060   -1.6464   -8.1588 O   0  0  0  0  0  0  0  0  0  0  0  0
    9.5331   -3.9648   -8.1483 C   0  0  0  0  0  0  0  0  0  0  0  0
    9.0127   -5.0605   -8.1105 O   0  0  0  0  0  0  0  0  0  0  0  0
   10.8750   -3.8580   -8.2147 N   0  0  0  0  0  0  0  0  0  0  0  0
    5.3587    2.7791   -4.7585 C   0  0  0  0  0  0  0  0  0  0  0  0
    7.3035    4.0133   -6.7447 H   0  0  0  0  0  0  0  0  0  0  0  0
    7.2968    4.5936   -5.0620 H   0  0  0  0  0  0  0  0  0  0  0  0
    8.6232    3.5572   -5.6407 H   0  0  0  0  0  0  0  0  0  0  0  0
    6.5711    0.7236   -2.8312 H   0  0  0  0  0  0  0  0  0  0  0  0
    7.3449   -0.5990   -3.7579 H   0  0  0  0  0  0  0  0  0  0  0  0
    3.4201   -2.3911   -3.9248 H   0  0  0  0  0  0  0  0  0  0  0  0
    3.3354   -3.4789   -2.5185 H   0  0  0  0  0  0  0  0  0  0  0  0
    2.2123   -2.1042   -2.6493 H   0  0  0  0  0  0  0  0  0  0  0  0
    6.3625   -1.3722   -1.9151 H   0  0  0  0  0  0  0  0  0  0  0  0
    5.7770   -3.0508   -2.0015 H   0  0  0  0  0  0  0  0  0  0  0  0
    5.8207   -2.0468   -3.4706 H   0  0  0  0  0  0  0  0  0  0  0  0
    2.9390   -1.2963   -0.3995 H   0  0  0  0  0  0  0  0  0  0  0  0
    4.0622   -2.6709   -0.2687 H   0  0  0  0  0  0  0  0  0  0  0  0
    4.6646   -1.0076   -0.0723 H   0  0  0  0  0  0  0  0  0  0  0  0
    2.0206    0.3226   -2.9097 H   0  0  0  0  0  0  0  0  0  0  0  0
    0.5316    1.2722   -1.3832 H   0  0  0  0  0  0  0  0  0  0  0  0
    2.9078    2.7801    0.7938 H   0  0  0  0  0  0  0  0  0  0  0  0
    1.6614    3.8422    0.0961 H   0  0  0  0  0  0  0  0  0  0  0  0
    1.6580    3.4933    1.8415 H   0  0  0  0  0  0  0  0  0  0  0  0
    1.0422    1.2140    2.6587 H   0  0  0  0  0  0  0  0  0  0  0  0
    0.6070   -0.0610    1.4954 H   0  0  0  0  0  0  0  0  0  0  0  0
    2.2920    0.5008    1.6110 H   0  0  0  0  0  0  0  0  0  0  0  0
   -0.7038    3.0536   -0.0662 H   0  0  0  0  0  0  0  0  0  0  0  0
   -1.1425    1.4298    0.5160 H   0  0  0  0  0  0  0  0  0  0  0  0
   -0.7072    2.7048    1.6793 H   0  0  0  0  0  0  0  0  0  0  0  0
    6.2984   -0.9545   -8.3646 H   0  0  0  0  0  0  0  0  0  0  0  0
    6.8328   -2.4988  -10.1414 H   0  0  0  0  0  0  0  0  0  0  0  0
    7.1359   -4.2032   -9.7272 H   0  0  0  0  0  0  0  0  0  0  0  0
    4.6215   -2.7530   -8.7327 H   0  0  0  0  0  0  0  0  0  0  0  0
    5.5322   -5.6956   -9.1211 H   0  0  0  0  0  0  0  0  0  0  0  0
    4.4291   -5.0289   -7.8406 H   0  0  0  0  0  0  0  0  0  0  0  0
    2.6963   -4.4876   -9.4872 H   0  0  0  0  0  0  0  0  0  0  0  0
    3.4761   -5.8141  -10.4521 H   0  0  0  0  0  0  0  0  0  0  0  0
    3.8786   -3.0186  -11.0528 H   0  0  0  0  0  0  0  0  0  0  0  0
    5.1443   -4.2792  -11.3844 H   0  0  0  0  0  0  0  0  0  0  0  0
   11.2910   -2.9823   -8.2450 H   0  0  0  0  0  0  0  0  0  0  0  0
   11.4248   -4.6570   -8.2324 H   0  0  0  0  0  0  0  0  0  0  0  0
    5.0653    1.9686   -4.0914 H   0  0  0  0  0  0  0  0  0  0  0  0
    5.3453    3.7222   -4.2122 H   0  0  0  0  0  0  0  0  0  0  0  0
    4.6604    2.8330   -5.5937 H   0  0  0  0  0  0  0  0  0  0  0  0
  1  2  1  0  0  0  0
  1 43  1  0  0  0  0
  1 44  1  0  0  0  0
  1 45  1  0  0  0  0
  2  5  1  0  0  0  0
  2  3  1  0  0  0  0
  2 42  1  0  0  0  0
  3  4  1  1  0  0  0
  3 10  1  0  0  0  0
  3  5  1  0  0  0  0
  5  6  1  6  0  0  0
  5  7  1  0  0  0  0
  7  8  1  6  0  0  0
  7  9  1  0  0  0  0
  7 27  1  0  0  0  0
  9 10  1  0  0  0  0
  9 11  1  0  0  0  0
 10 46  1  0  0  0  0
 10 47  1  0  0  0  0
 11 12  2  0  0  0  0
 11 13  1  0  0  0  0
 13 14  1  1  0  0  0
 13 15  1  0  0  0  0
 13 19  1  0  0  0  0
 15 16  1  0  0  0  0
 15 17  1  0  0  0  0
 15 18  1  0  0  0  0
 16 48  1  0  0  0  0
 16 49  1  0  0  0  0
 16 50  1  0  0  0  0
 17 51  1  0  0  0  0
 17 52  1  0  0  0  0
 17 53  1  0  0  0  0
 18 54  1  0  0  0  0
 18 55  1  0  0  0  0
 18 56  1  0  0  0  0
 19 20  1  0  0  0  0
 19 57  1  0  0  0  0
 20 21  2  0  0  0  0
 20 22  1  0  0  0  0
 22 23  1  0  0  0  0
 22 58  1  0  0  0  0
 23 24  1  0  0  0  0
 23 25  1  0  0  0  0
 23 26  1  0  0  0  0
 24 59  1  0  0  0  0
 24 60  1  0  0  0  0
 24 61  1  0  0  0  0
 25 62  1  0  0  0  0
 25 63  1  0  0  0  0
 25 64  1  0  0  0  0
 26 65  1  0  0  0  0
 26 66  1  0  0  0  0
 26 67  1  0  0  0  0
 27 28  2  0  0  0  0
 27 29  1  0  0  0  0
 29 30  1  0  0  0  0
 29 68  1  0  0  0  0
 30 31  1  1  0  0  0
 30 32  1  0  0  0  0
 30 37  1  0  0  0  0
 32 33  1  0  0  0  0
 32 69  1  0  0  0  0
 32 70  1  0  0  0  0
 33 36  1  0  0  0  0
 33 34  1  0  0  0  0
 33 71  1  0  0  0  0
 34 35  1  0  0  0  0
 34 72  1  0  0  0  0
 34 73  1  0  0  0  0
 35 36  1  0  0  0  0
 35 74  1  0  0  0  0
 35 75  1  0  0  0  0
 36 76  1  0  0  0  0
 36 77  1  0  0  0  0
 37 38  2  0  0  0  0
 37 39  1  0  0  0  0
 39 40  2  0  0  0  0
 39 41  1  0  0  0  0
 41 78  1  0  0  0  0
 41 79  1  0  0  0  0
 42 80  1  0  0  0  0
 42 81  1  0  0  0  0
 42 82  1  0  0  0  0
M  END
$$$$
