ZINC02040778
 OpenBabel08292219463D

 35 36  0  0  0  0  0  0  0  0999 V2000
   -0.0173    1.4248    0.0099 C   0  0  0  0  0  0  0  0  0  0  0  0
    0.0021   -0.0041    0.0020 O   0  0  0  0  0  0  0  0  0  0  0  0
    0.6734   -0.5824    1.1231 C   0  0  0  0  0  0  0  0  0  0  0  0
    0.6327   -2.1077    1.0107 C   0  0  0  0  0  0  0  0  0  0  0  0
    1.3824   -2.5212   -0.1334 O   0  0  0  0  0  0  0  0  0  0  0  0
    1.4474   -3.8575   -0.3792 C   0  0  0  0  0  0  0  0  0  0  0  0
    0.8024   -4.7659    0.4523 C   0  0  0  0  0  0  0  0  0  0  0  0
    0.8871   -6.0584    0.1828 N   0  0  0  0  0  0  0  0  0  0  0  0
    1.5754   -6.4892   -0.8633 C   0  0  0  0  0  0  0  0  0  0  0  0
    2.2021   -5.6524   -1.6762 N   0  0  0  0  0  0  0  0  0  0  0  0
    2.1556   -4.3463   -1.4710 C   0  0  0  0  0  0  0  0  0  0  0  0
    1.6421   -7.8512   -1.1135 N   0  0  0  0  0  2  0  0  0  0  0  0
    2.4970   -8.4130   -2.4158 S   0  0  0  0  0  0  0  0  0  0  0  0
    1.8173   -7.9541   -3.5763 O   0  0  0  0  0  0  0  0  0  0  0  0
    3.8631   -8.1134   -2.1647 O   0  0  0  0  0  0  0  0  0  0  0  0
    2.3576  -10.1695   -2.4121 C   0  0  0  0  0  0  0  0  0  0  0  0
    3.2831  -10.9347   -1.7274 C   0  0  0  0  0  0  0  0  0  0  0  0
    3.1738  -12.3128   -1.7245 C   0  0  0  0  0  0  0  0  0  0  0  0
    2.1388  -12.9255   -2.4059 C   0  0  0  0  0  0  0  0  0  0  0  0
    1.2128  -12.1601   -3.0898 C   0  0  0  0  0  0  0  0  0  0  0  0
    1.3197  -10.7819   -3.0892 C   0  0  0  0  0  0  0  0  0  0  0  0
    1.0053    1.8021    0.0021 H   0  0  0  0  0  0  0  0  0  0  0  0
   -0.5445    1.7859   -0.8732 H   0  0  0  0  0  0  0  0  0  0  0  0
   -0.5275    1.7763    0.9067 H   0  0  0  0  0  0  0  0  0  0  0  0
    1.7103   -0.2468    1.1385 H   0  0  0  0  0  0  0  0  0  0  0  0
    0.1775   -0.2725    2.0430 H   0  0  0  0  0  0  0  0  0  0  0  0
    1.0656   -2.5499    1.9080 H   0  0  0  0  0  0  0  0  0  0  0  0
   -0.4012   -2.4369    0.9060 H   0  0  0  0  0  0  0  0  0  0  0  0
    0.2397   -4.4210    1.3072 H   0  0  0  0  0  0  0  0  0  0  0  0
    2.6651   -3.6689   -2.1404 H   0  0  0  0  0  0  0  0  0  0  0  0
    4.0917  -10.4560   -1.1951 H   0  0  0  0  0  0  0  0  0  0  0  0
    3.8972  -12.9107   -1.1902 H   0  0  0  0  0  0  0  0  0  0  0  0
    2.0538  -14.0021   -2.4042 H   0  0  0  0  0  0  0  0  0  0  0  0
    0.4044  -12.6388   -3.6224 H   0  0  0  0  0  0  0  0  0  0  0  0
    0.5941  -10.1838   -3.6204 H   0  0  0  0  0  0  0  0  0  0  0  0
  1  2  1  0  0  0  0
  1 22  1  0  0  0  0
  1 23  1  0  0  0  0
  1 24  1  0  0  0  0
  2  3  1  0  0  0  0
  3  4  1  0  0  0  0
  3 25  1  0  0  0  0
  3 26  1  0  0  0  0
  4  5  1  0  0  0  0
  4 27  1  0  0  0  0
  4 28  1  0  0  0  0
  5  6  1  0  0  0  0
  6 11  2  0  0  0  0
  6  7  1  0  0  0  0
  7  8  2  0  0  0  0
  7 29  1  0  0  0  0
  8  9  1  0  0  0  0
  9 10  2  0  0  0  0
  9 12  1  0  0  0  0
 10 11  1  0  0  0  0
 11 30  1  0  0  0  0
 12 13  1  0  0  0  0
 13 14  2  0  0  0  0
 13 15  2  0  0  0  0
 13 16  1  0  0  0  0
 16 21  2  0  0  0  0
 16 17  1  0  0  0  0
 17 18  2  0  0  0  0
 17 31  1  0  0  0  0
 18 19  1  0  0  0  0
 18 32  1  0  0  0  0
 19 20  2  0  0  0  0
 19 33  1  0  0  0  0
 20 21  1  0  0  0  0
 20 34  1  0  0  0  0
 21 35  1  0  0  0  0
M  END
$$$$
