ZINC19632618
 OpenBabel08292219463D

 69 73  0  0  0  0  0  0  0  0999 V2000
   -0.1643    1.5374    0.2772 C   0  0  0  0  0  0  0  0  0  0  0  0
    0.0708    0.1281   -0.2021 C   0  0  0  0  0  0  0  0  0  0  0  0
   -0.6192   -0.3521   -1.2987 C   0  0  0  0  0  0  0  0  0  0  0  0
   -0.4070   -1.6434   -1.7410 C   0  0  0  0  0  0  0  0  0  0  0  0
    0.5017   -2.4641   -1.0837 C   0  0  0  0  0  0  0  0  0  0  0  0
    1.1965   -1.9850    0.0175 C   0  0  0  0  0  0  0  0  0  0  0  0
    0.9852   -0.6852    0.4558 C   0  0  0  0  0  0  0  0  0  0  0  0
    1.6874   -0.1967    1.5617 N   0  0  0  0  0  0  0  0  0  0  0  0
    2.1285   -1.0695    2.5429 C   0  0  0  0  0  0  0  0  0  0  0  0
    1.7764   -2.3456    2.4776 N   0  0  0  0  0  0  0  0  0  0  0  0
    2.1776   -3.2107    3.3953 C   0  0  0  0  0  0  0  0  0  0  0  0
    2.9764   -2.7714    4.4364 C   0  0  0  0  0  0  0  0  0  0  0  0
    3.3313   -1.4207    4.4789 C   0  0  0  0  0  0  0  0  0  0  0  0
    2.8950   -0.6087    3.5185 N   0  0  0  0  0  0  0  0  0  0  0  0
    4.1856   -0.9008    5.5740 C   0  0  0  0  0  0  0  0  0  0  0  0
    4.4510    0.4679    5.6793 C   0  0  0  0  0  0  0  0  0  0  0  0
    5.2541    0.9026    6.7193 C   0  0  0  0  0  0  0  0  0  0  0  0
    5.7636   -0.0222    7.6129 C   0  0  0  0  0  0  0  0  0  0  0  0
    5.4957   -1.3077    7.4879 N   0  0  0  0  0  0  0  0  0  0  0  0
    4.7320   -1.7677    6.5181 C   0  0  0  0  0  0  0  0  0  0  0  0
    0.7153   -3.7716   -1.5315 N   0  0  0  0  0  0  0  0  0  0  0  0
    0.7404   -4.0356   -2.8529 C   0  0  0  0  0  0  0  0  0  0  0  0
    0.4912   -3.1555   -3.6535 O   0  0  0  0  0  0  0  0  0  0  0  0
    1.0709   -5.3955   -3.3287 C   0  0  0  0  0  0  0  0  0  0  0  0
    1.3519   -6.4100   -2.4119 C   0  0  0  0  0  0  0  0  0  0  0  0
    1.6592   -7.6771   -2.8626 C   0  0  0  0  0  0  0  0  0  0  0  0
    1.6892   -7.9435   -4.2200 C   0  0  0  0  0  0  0  0  0  0  0  0
    1.4117   -6.9425   -5.1341 C   0  0  0  0  0  0  0  0  0  0  0  0
    1.0978   -5.6724   -4.6966 C   0  0  0  0  0  0  0  0  0  0  0  0
    2.0262   -9.3299   -4.7050 C   0  0  0  0  0  0  0  0  0  0  0  0
    0.7933  -10.1196   -4.8258 N   0  0  0  0  0  0  0  0  0  0  0  0
    0.1866  -10.3538   -3.5078 C   0  0  0  0  0  0  0  0  0  0  0  0
   -1.1228  -11.1262   -3.6823 C   0  0  0  0  0  0  0  0  0  0  0  0
   -0.8513  -12.4061   -4.3498 N   0  3  0  0  0  0  0  0  0  0  0  0
   -0.2685  -12.1554   -5.6746 C   0  0  0  0  0  0  0  0  0  0  0  0
    1.0481  -11.3916   -5.5166 C   0  0  0  0  0  0  0  0  0  0  0  0
   -2.1059  -13.1551   -4.5009 C   0  0  0  0  0  0  0  0  0  0  0  0
    0.5251    2.2130   -0.2290 H   0  0  0  0  0  0  0  0  0  0  0  0
   -1.1901    1.8307    0.0540 H   0  0  0  0  0  0  0  0  0  0  0  0
    0.0021    1.5877    1.3533 H   0  0  0  0  0  0  0  0  0  0  0  0
   -1.3262    0.2836   -1.8111 H   0  0  0  0  0  0  0  0  0  0  0  0
   -0.9481   -2.0158   -2.5982 H   0  0  0  0  0  0  0  0  0  0  0  0
    1.9030   -2.6209    0.5302 H   0  0  0  0  0  0  0  0  0  0  0  0
    1.8658    0.7534    1.6418 H   0  0  0  0  0  0  0  0  0  0  0  0
    1.8844   -4.2483    3.3325 H   0  0  0  0  0  0  0  0  0  0  0  0
    3.3172   -3.4566    5.1985 H   0  0  0  0  0  0  0  0  0  0  0  0
    4.0401    1.1680    4.9670 H   0  0  0  0  0  0  0  0  0  0  0  0
    5.4807    1.9525    6.8318 H   0  0  0  0  0  0  0  0  0  0  0  0
    6.3909    0.3135    8.4254 H   0  0  0  0  0  0  0  0  0  0  0  0
    4.5316   -2.8268    6.4514 H   0  0  0  0  0  0  0  0  0  0  0  0
    0.8453   -4.4884   -0.8911 H   0  0  0  0  0  0  0  0  0  0  0  0
    1.3291   -6.2032   -1.3521 H   0  0  0  0  0  0  0  0  0  0  0  0
    1.8771   -8.4627   -2.1544 H   0  0  0  0  0  0  0  0  0  0  0  0
    1.4372   -7.1570   -6.1922 H   0  0  0  0  0  0  0  0  0  0  0  0
    0.8770   -4.8931   -5.4110 H   0  0  0  0  0  0  0  0  0  0  0  0
    2.5135   -9.2661   -5.6779 H   0  0  0  0  0  0  0  0  0  0  0  0
    2.6973   -9.8107   -3.9933 H   0  0  0  0  0  0  0  0  0  0  0  0
    0.8718  -10.9344   -2.8900 H   0  0  0  0  0  0  0  0  0  0  0  0
   -0.0167   -9.3975   -3.0259 H   0  0  0  0  0  0  0  0  0  0  0  0
   -1.5673  -11.3133   -2.7048 H   0  0  0  0  0  0  0  0  0  0  0  0
   -1.8127  -10.5393   -4.2887 H   0  0  0  0  0  0  0  0  0  0  0  0
   -0.0795  -13.1056   -6.1741 H   0  0  0  0  0  0  0  0  0  0  0  0
   -0.9627  -11.5633   -6.2708 H   0  0  0  0  0  0  0  0  0  0  0  0
    1.4733  -11.1924   -6.5003 H   0  0  0  0  0  0  0  0  0  0  0  0
    1.7474  -11.9892   -4.9320 H   0  0  0  0  0  0  0  0  0  0  0  0
   -2.8061  -12.5737   -5.1008 H   0  0  0  0  0  0  0  0  0  0  0  0
   -1.9046  -14.1049   -4.9963 H   0  0  0  0  0  0  0  0  0  0  0  0
   -2.5379  -13.3423   -3.5179 H   0  0  0  0  0  0  0  0  0  0  0  0
   -0.2036  -12.9443   -3.7940 H   0  0  0  0  0  0  0  0  0  0  0  0
  1  2  1  0  0  0  0
  1 38  1  0  0  0  0
  1 39  1  0  0  0  0
  1 40  1  0  0  0  0
  2  7  2  0  0  0  0
  2  3  1  0  0  0  0
  3  4  2  0  0  0  0
  3 41  1  0  0  0  0
  4  5  1  0  0  0  0
  4 42  1  0  0  0  0
  5  6  2  0  0  0  0
  5 21  1  0  0  0  0
  6  7  1  0  0  0  0
  6 43  1  0  0  0  0
  7  8  1  0  0  0  0
  8  9  1  0  0  0  0
  8 44  1  0  0  0  0
  9 14  2  0  0  0  0
  9 10  1  0  0  0  0
 10 11  2  0  0  0  0
 11 12  1  0  0  0  0
 11 45  1  0  0  0  0
 12 13  2  0  0  0  0
 12 46  1  0  0  0  0
 13 14  1  0  0  0  0
 13 15  1  0  0  0  0
 15 20  2  0  0  0  0
 15 16  1  0  0  0  0
 16 17  2  0  0  0  0
 16 47  1  0  0  0  0
 17 18  1  0  0  0  0
 17 48  1  0  0  0  0
 18 19  2  0  0  0  0
 18 49  1  0  0  0  0
 19 20  1  0  0  0  0
 20 50  1  0  0  0  0
 21 22  1  0  0  0  0
 21 51  1  0  0  0  0
 22 23  2  0  0  0  0
 22 24  1  0  0  0  0
 24 29  2  0  0  0  0
 24 25  1  0  0  0  0
 25 26  2  0  0  0  0
 25 52  1  0  0  0  0
 26 27  1  0  0  0  0
 26 53  1  0  0  0  0
 27 28  2  0  0  0  0
 27 30  1  0  0  0  0
 28 29  1  0  0  0  0
 28 54  1  0  0  0  0
 29 55  1  0  0  0  0
 30 31  1  0  0  0  0
 30 56  1  0  0  0  0
 30 57  1  0  0  0  0
 31 36  1  0  0  0  0
 31 32  1  0  0  0  0
 32 33  1  0  0  0  0
 32 58  1  0  0  0  0
 32 59  1  0  0  0  0
 33 34  1  0  0  0  0
 33 60  1  0  0  0  0
 33 61  1  0  0  0  0
 34 35  1  0  0  0  0
 34 37  1  0  0  0  0
 34 69  1  0  0  0  0
 35 36  1  0  0  0  0
 35 62  1  0  0  0  0
 35 63  1  0  0  0  0
 36 64  1  0  0  0  0
 36 65  1  0  0  0  0
 37 66  1  0  0  0  0
 37 67  1  0  0  0  0
 37 68  1  0  0  0  0
M  CHG  1  34   1
M  END
$$$$
