ZINC00608106
 OpenBabel08292219463D

 54 56  0  0  1  0  0  0  0  0999 V2000
    0.4520   -0.7635    1.1307 C   0  0  0  0  0  0  0  0  0  0  0  0
   -0.0808   -0.0328   -0.1034 C   0  0  0  0  0  0  0  0  0  0  0  0
    0.7898   -0.3751   -1.3141 C   0  0  2  0  0  0  0  0  0  0  0  0
    0.3812    0.2070   -2.1401 H   0  0  0  0  0  0  0  0  0  0  0  0
    0.5132   -1.8262   -1.6395 C   0  0  0  0  0  0  0  0  0  0  0  0
   -0.8143   -2.0924   -1.8584 C   0  0  0  0  0  0  0  0  0  0  0  0
   -1.2106   -3.3891   -2.1678 C   0  0  0  0  0  0  0  0  0  0  0  0
   -0.2661   -4.4109   -2.2543 C   0  0  0  0  0  0  0  0  0  0  0  0
    1.0735   -4.1448   -2.0334 C   0  0  0  0  0  0  0  0  0  0  0  0
    1.4698   -2.8452   -1.7240 C   0  0  0  0  0  0  0  0  0  0  0  0
    2.9259   -2.7171   -1.5165 C   0  0  0  0  0  0  0  0  0  0  0  0
    3.6196   -1.6440   -1.2157 N   0  0  0  0  0  0  0  0  0  0  0  0
    3.2948   -0.4251   -1.0125 N   0  0  0  0  0  0  0  0  0  0  0  0
    2.1639    0.1995   -1.0268 C   0  0  0  0  0  0  0  0  0  0  0  0
    2.2173    1.6747   -0.7238 C   0  0  0  0  0  0  0  0  0  0  0  0
    3.7060   -3.9619   -1.6682 C   0  0  0  0  0  0  0  0  0  0  0  0
    4.2336   -4.3102   -2.9142 C   0  0  0  0  0  0  0  0  0  0  0  0
    4.9614   -5.4723   -3.0539 C   0  0  0  0  0  0  0  0  0  0  0  0
    5.1718   -6.2991   -1.9591 C   0  0  0  0  0  0  0  0  0  0  0  0
    4.6480   -5.9579   -0.7133 C   0  0  0  0  0  0  0  0  0  0  0  0
    3.9231   -4.7910   -0.5647 C   0  0  0  0  0  0  0  0  0  0  0  0
    4.8556   -6.7705    0.3573 O   0  0  0  0  0  0  0  0  0  0  0  0
    4.2900   -6.3590    1.6034 C   0  0  0  0  0  0  0  0  0  0  0  0
    5.8895   -7.4438   -2.1021 O   0  0  0  0  0  0  0  0  0  0  0  0
    6.3968   -7.7328   -3.4065 C   0  0  0  0  0  0  0  0  0  0  0  0
   -0.6636   -5.6757   -2.5570 O   0  0  0  0  0  0  0  0  0  0  0  0
    0.3545   -6.6758   -2.6299 C   0  0  0  0  0  0  0  0  0  0  0  0
   -2.5237   -3.6614   -2.3862 O   0  0  0  0  0  0  0  0  0  0  0  0
   -3.4389   -2.5689   -2.2814 C   0  0  0  0  0  0  0  0  0  0  0  0
    0.3802   -1.8399    0.9749 H   0  0  0  0  0  0  0  0  0  0  0  0
    1.4941   -0.4887    1.2940 H   0  0  0  0  0  0  0  0  0  0  0  0
   -0.1387   -0.4824    2.0026 H   0  0  0  0  0  0  0  0  0  0  0  0
   -1.1078   -0.3440   -0.2947 H   0  0  0  0  0  0  0  0  0  0  0  0
   -0.0536    1.0427    0.0712 H   0  0  0  0  0  0  0  0  0  0  0  0
   -1.5463   -1.3012   -1.7908 H   0  0  0  0  0  0  0  0  0  0  0  0
    1.8050   -4.9366   -2.1001 H   0  0  0  0  0  0  0  0  0  0  0  0
    2.0264    1.8348    0.3373 H   0  0  0  0  0  0  0  0  0  0  0  0
    3.2038    2.0624   -0.9780 H   0  0  0  0  0  0  0  0  0  0  0  0
    1.4604    2.1940   -1.3115 H   0  0  0  0  0  0  0  0  0  0  0  0
    4.0707   -3.6690   -3.7679 H   0  0  0  0  0  0  0  0  0  0  0  0
    5.3686   -5.7404   -4.0176 H   0  0  0  0  0  0  0  0  0  0  0  0
    3.5211   -4.5229    0.4012 H   0  0  0  0  0  0  0  0  0  0  0  0
    4.7013   -5.3902    1.8869 H   0  0  0  0  0  0  0  0  0  0  0  0
    3.2076   -6.2787    1.5022 H   0  0  0  0  0  0  0  0  0  0  0  0
    4.5295   -7.0943    2.3716 H   0  0  0  0  0  0  0  0  0  0  0  0
    7.0609   -6.9290   -3.7243 H   0  0  0  0  0  0  0  0  0  0  0  0
    6.9492   -8.6721   -3.3816 H   0  0  0  0  0  0  0  0  0  0  0  0
    5.5671   -7.8176   -4.1084 H   0  0  0  0  0  0  0  0  0  0  0  0
    1.0767   -6.4036   -3.3997 H   0  0  0  0  0  0  0  0  0  0  0  0
    0.8604   -6.7502   -1.6673 H   0  0  0  0  0  0  0  0  0  0  0  0
   -0.0968   -7.6363   -2.8784 H   0  0  0  0  0  0  0  0  0  0  0  0
   -3.3900   -2.1491   -1.2767 H   0  0  0  0  0  0  0  0  0  0  0  0
   -3.1739   -1.8019   -3.0090 H   0  0  0  0  0  0  0  0  0  0  0  0
   -4.4509   -2.9226   -2.4785 H   0  0  0  0  0  0  0  0  0  0  0  0
  1  2  1  0  0  0  0
  1 30  1  0  0  0  0
  1 31  1  0  0  0  0
  1 32  1  0  0  0  0
  2  3  1  0  0  0  0
  2 33  1  0  0  0  0
  2 34  1  0  0  0  0
  3  4  1  6  0  0  0
  3 14  1  0  0  0  0
  3  5  1  0  0  0  0
  5 10  2  0  0  0  0
  5  6  1  0  0  0  0
  6  7  2  0  0  0  0
  6 35  1  0  0  0  0
  7  8  1  0  0  0  0
  7 28  1  0  0  0  0
  8  9  2  0  0  0  0
  8 26  1  0  0  0  0
  9 10  1  0  0  0  0
  9 36  1  0  0  0  0
 10 11  1  0  0  0  0
 11 12  2  0  0  0  0
 11 16  1  0  0  0  0
 12 13  1  0  0  0  0
 13 14  2  0  0  0  0
 14 15  1  0  0  0  0
 15 37  1  0  0  0  0
 15 38  1  0  0  0  0
 15 39  1  0  0  0  0
 16 21  2  0  0  0  0
 16 17  1  0  0  0  0
 17 18  2  0  0  0  0
 17 40  1  0  0  0  0
 18 19  1  0  0  0  0
 18 41  1  0  0  0  0
 19 20  2  0  0  0  0
 19 24  1  0  0  0  0
 20 21  1  0  0  0  0
 20 22  1  0  0  0  0
 21 42  1  0  0  0  0
 22 23  1  0  0  0  0
 23 43  1  0  0  0  0
 23 44  1  0  0  0  0
 23 45  1  0  0  0  0
 24 25  1  0  0  0  0
 25 46  1  0  0  0  0
 25 47  1  0  0  0  0
 25 48  1  0  0  0  0
 26 27  1  0  0  0  0
 27 49  1  0  0  0  0
 27 50  1  0  0  0  0
 27 51  1  0  0  0  0
 28 29  1  0  0  0  0
 29 52  1  0  0  0  0
 29 53  1  0  0  0  0
 29 54  1  0  0  0  0
M  END
$$$$
