ZINC85537026
 OpenBabel08292219463D

126128  0  0  1  0  0  0  0  0999 V2000
   -3.2533    0.3954    1.1195 C   0  0  0  0  0  0  0  0  0  0  0  0
   -3.3386   -1.1121    0.8725 C   0  0  0  0  0  0  0  0  0  0  0  0
   -2.6462   -1.4517   -0.4439 C   0  0  2  0  0  0  0  0  0  0  0  0
   -3.0891   -0.8450   -1.2461 H   0  0  0  0  0  0  0  0  0  0  0  0
   -2.8709   -2.9311   -0.7966 C   0  0  1  0  0  0  0  0  0  0  0  0
   -2.2704   -3.8271    0.2682 C   0  0  1  0  0  0  0  0  0  0  0  0
   -2.9980   -3.8433    1.1215 H   0  0  0  0  0  0  0  0  0  0  0  0
   -2.0204   -5.2708   -0.1009 C   0  0  2  0  0  0  0  0  0  0  0  0
   -2.4732   -5.8924    0.7169 H   0  0  0  0  0  0  0  0  0  0  0  0
   -0.5797   -5.6096   -0.0597 N   0  3  2  0  0  0  0  0  0  0  0  0
    0.1398   -4.9393   -1.1279 C   0  0  0  0  0  0  0  0  0  0  0  0
    1.6030   -4.6124   -0.8576 C   0  0  1  0  0  0  0  0  0  0  0  0
    2.2280   -5.2146   -1.5313 H   0  0  0  0  0  0  0  0  0  0  0  0
    1.8424   -3.1253   -1.1336 C   0  0  0  0  0  0  0  0  0  0  0  0
    3.0818   -2.9185   -2.0040 C   0  0  1  0  0  0  0  0  0  0  0  0
    3.0405   -1.5298   -2.6428 C   0  0  1  0  0  0  0  0  0  0  0  0
    2.3226   -1.5435   -3.4637 H   0  0  0  0  0  0  0  0  0  0  0  0
    2.6354   -0.4642   -1.6291 C   0  0  2  0  0  0  0  0  0  0  0  0
    2.3179   -0.9193   -0.6980 H   0  0  0  0  0  0  0  0  0  0  0  0
    1.4862    0.3704   -2.2053 C   0  0  1  0  0  0  0  0  0  0  0  0
    1.0935   -0.1219   -3.0963 H   0  0  0  0  0  0  0  0  0  0  0  0
    0.3817    0.5094   -1.1548 C   0  0  2  0  0  0  0  0  0  0  0  0
    0.7917    0.3694   -0.1557 H   0  0  0  0  0  0  0  0  0  0  0  0
   -0.6911   -0.5169   -1.3985 C   0  0  0  0  0  0  0  0  0  0  0  0
   -1.0426   -0.7701   -2.5363 O   0  0  0  0  0  0  0  0  0  0  0  0
   -1.2545   -1.1641   -0.3697 O   0  0  0  0  0  0  0  0  0  0  0  0
   -0.2381    1.9055   -1.2621 C   0  0  0  0  0  0  0  0  0  0  0  0
    1.9752    1.6625   -2.5674 O   0  0  0  0  0  0  0  0  0  0  0  0
    1.2938    2.2525   -3.6816 C   0  0  1  0  0  0  0  0  0  0  0  0
    0.2300    2.2860   -3.4631 H   0  0  0  0  0  0  0  0  0  0  0  0
    1.8367    3.6652   -3.9057 C   0  0  0  0  0  0  0  0  0  0  0  0
    1.1461    4.3017   -5.1105 C   0  0  1  0  0  0  0  0  0  0  0  0
    1.2298    3.4025   -6.3369 C   0  0  2  0  0  0  0  0  0  0  0  0
    0.4951    3.7568   -7.0784 H   0  0  0  0  0  0  0  0  0  0  0  0
    0.9652    1.9332   -6.0569 C   0  0  1  0  0  0  0  0  0  0  0  0
    1.4315    1.3513   -6.8809 H   0  0  0  0  0  0  0  0  0  0  0  0
    1.5438    1.4748   -4.8474 O   0  0  0  0  0  0  0  0  0  0  0  0
   -0.5317    1.6220   -6.0958 C   0  0  0  0  0  0  0  0  0  0  0  0
    2.5309    3.5416   -6.9299 O   0  0  0  0  0  0  0  0  0  0  0  0
   -0.3062    4.6411   -4.7728 C   0  0  0  0  0  0  0  0  0  0  0  0
    1.8273    5.5366   -5.4114 O   0  0  0  0  0  0  0  0  0  0  0  0
    1.8125    6.4840   -4.3417 C   0  0  0  0  0  0  0  0  0  0  0  0
    3.8286    0.4595   -1.3599 C   0  0  0  0  0  0  0  0  0  0  0  0
    4.3365   -1.2160   -3.1621 O   0  0  0  0  0  0  0  0  0  0  0  0
    4.3128   -0.3559   -4.3031 C   0  0  1  0  0  0  0  0  0  0  0  0
    3.7581    0.5511   -4.0631 H   0  0  0  0  0  0  0  0  0  0  0  0
    5.7464    0.0112   -4.6955 C   0  0  1  0  0  0  0  0  0  0  0  0
    6.3132   -0.8979   -4.8963 H   0  0  0  0  0  0  0  0  0  0  0  0
    5.7153    0.8835   -5.9543 C   0  0  2  0  0  0  0  0  0  0  0  0
    5.1912    1.8148   -5.7397 H   0  0  0  0  0  0  0  0  0  0  0  0
    4.9831    0.1282   -7.0677 C   0  0  0  0  0  0  0  0  0  0  0  0
    3.5791   -0.2435   -6.5836 C   0  0  2  0  0  0  0  0  0  0  0  0
    3.0146    0.6651   -6.3737 H   0  0  0  0  0  0  0  0  0  0  0  0
    3.6789   -1.0279   -5.3933 O   0  0  0  0  0  0  0  0  0  0  0  0
    2.8624   -1.0503   -7.6681 C   0  0  0  0  0  0  0  0  0  0  0  0
    7.0895    1.1800   -6.3806 N   0  3  0  0  0  0  0  0  0  0  0  0
    7.7518   -0.0631   -6.7976 C   0  0  0  0  0  0  0  0  0  0  0  0
    7.0600    2.1212   -7.5081 C   0  0  0  0  0  0  0  0  0  0  0  0
    6.3638    0.7330   -3.6279 O   0  0  0  0  0  0  0  0  0  0  0  0
    4.3467   -3.0406   -1.1500 C   0  0  0  0  0  0  0  0  0  0  0  0
    3.1222   -3.9001   -3.0446 O   0  0  0  0  0  0  0  0  0  0  0  0
    2.0449   -4.9244    0.5680 C   0  0  0  0  0  0  0  0  0  0  0  0
   -0.4707   -7.0742   -0.2371 C   0  0  0  0  0  0  0  0  0  0  0  0
   -2.6397   -5.7606   -1.3942 C   0  0  0  0  0  0  0  0  0  0  0  0
   -1.0713   -3.2464    0.8009 O   0  0  0  0  0  0  0  0  0  0  0  0
   -4.3947   -3.1409   -0.8487 C   0  0  0  0  0  0  0  0  0  0  0  0
   -2.3174   -3.1579   -2.0896 O   0  0  0  0  0  0  0  0  0  0  0  0
   -2.2070    0.6965    1.1712 H   0  0  0  0  0  0  0  0  0  0  0  0
   -3.7441    0.9257    0.3035 H   0  0  0  0  0  0  0  0  0  0  0  0
   -3.7480    0.6380    2.0600 H   0  0  0  0  0  0  0  0  0  0  0  0
   -2.8478   -1.6424    1.6886 H   0  0  0  0  0  0  0  0  0  0  0  0
   -4.3850   -1.4132    0.8209 H   0  0  0  0  0  0  0  0  0  0  0  0
    0.1051   -5.5729   -2.0349 H   0  0  0  0  0  0  0  0  0  0  0  0
   -0.3678   -4.0087   -1.3992 H   0  0  0  0  0  0  0  0  0  0  0  0
    0.9753   -2.7109   -1.6417 H   0  0  0  0  0  0  0  0  0  0  0  0
    1.9903   -2.6127   -0.1795 H   0  0  0  0  0  0  0  0  0  0  0  0
   -0.7873    1.9881   -2.2000 H   0  0  0  0  0  0  0  0  0  0  0  0
   -0.9196    2.0657   -0.4266 H   0  0  0  0  0  0  0  0  0  0  0  0
    0.5515    2.6565   -1.2361 H   0  0  0  0  0  0  0  0  0  0  0  0
    1.6495    4.2698   -3.0159 H   0  0  0  0  0  0  0  0  0  0  0  0
    2.9125    3.6166   -4.0830 H   0  0  0  0  0  0  0  0  0  0  0  0
   -0.9277    1.8642   -7.0820 H   0  0  0  0  0  0  0  0  0  0  0  0
   -0.6880    0.5627   -5.8916 H   0  0  0  0  0  0  0  0  0  0  0  0
   -1.0463    2.2172   -5.3414 H   0  0  0  0  0  0  0  0  0  0  0  0
    2.6635    2.9988   -7.7191 H   0  0  0  0  0  0  0  0  0  0  0  0
   -0.3310    5.3414   -3.9379 H   0  0  0  0  0  0  0  0  0  0  0  0
   -0.7850    5.0938   -5.6411 H   0  0  0  0  0  0  0  0  0  0  0  0
   -0.8379    3.7299   -4.4986 H   0  0  0  0  0  0  0  0  0  0  0  0
    2.2999    6.0525   -3.4674 H   0  0  0  0  0  0  0  0  0  0  0  0
    2.3449    7.3848   -4.6469 H   0  0  0  0  0  0  0  0  0  0  0  0
    0.7815    6.7373   -4.0949 H   0  0  0  0  0  0  0  0  0  0  0  0
    4.1344    0.9385   -2.2901 H   0  0  0  0  0  0  0  0  0  0  0  0
    3.5417    1.2220   -0.6358 H   0  0  0  0  0  0  0  0  0  0  0  0
    4.6583   -0.1252   -0.9625 H   0  0  0  0  0  0  0  0  0  0  0  0
    4.9079    0.7634   -7.9502 H   0  0  0  0  0  0  0  0  0  0  0  0
    5.5346   -0.7786   -7.3163 H   0  0  0  0  0  0  0  0  0  0  0  0
    3.4267   -1.9590   -7.8777 H   0  0  0  0  0  0  0  0  0  0  0  0
    1.8628   -1.3148   -7.3233 H   0  0  0  0  0  0  0  0  0  0  0  0
    2.7870   -0.4519   -8.5761 H   0  0  0  0  0  0  0  0  0  0  0  0
    7.7737   -0.7615   -5.9610 H   0  0  0  0  0  0  0  0  0  0  0  0
    7.2018   -0.5072   -7.6273 H   0  0  0  0  0  0  0  0  0  0  0  0
    8.7714    0.1569   -7.1140 H   0  0  0  0  0  0  0  0  0  0  0  0
    6.5967    3.0551   -7.1898 H   0  0  0  0  0  0  0  0  0  0  0  0
    8.0781    2.3169   -7.8447 H   0  0  0  0  0  0  0  0  0  0  0  0
    6.4834    1.6899   -8.3264 H   0  0  0  0  0  0  0  0  0  0  0  0
    6.4131    0.2406   -2.7971 H   0  0  0  0  0  0  0  0  0  0  0  0
    4.3862   -4.0321   -0.6989 H   0  0  0  0  0  0  0  0  0  0  0  0
    5.2249   -2.8919   -1.7782 H   0  0  0  0  0  0  0  0  0  0  0  0
    4.3293   -2.2847   -0.3649 H   0  0  0  0  0  0  0  0  0  0  0  0
    3.9243   -3.8688   -3.5838 H   0  0  0  0  0  0  0  0  0  0  0  0
    1.9067   -5.9872    0.7667 H   0  0  0  0  0  0  0  0  0  0  0  0
    3.0972   -4.6663    0.6869 H   0  0  0  0  0  0  0  0  0  0  0  0
    1.4466   -4.3429    1.2693 H   0  0  0  0  0  0  0  0  0  0  0  0
   -0.7872   -7.3427   -1.2450 H   0  0  0  0  0  0  0  0  0  0  0  0
    0.5640   -7.3824   -0.0871 H   0  0  0  0  0  0  0  0  0  0  0  0
   -1.1085   -7.5768    0.4900 H   0  0  0  0  0  0  0  0  0  0  0  0
   -2.1641   -5.2595   -2.2373 H   0  0  0  0  0  0  0  0  0  0  0  0
   -2.4938   -6.8372   -1.4820 H   0  0  0  0  0  0  0  0  0  0  0  0
   -3.7066   -5.5374   -1.3936 H   0  0  0  0  0  0  0  0  0  0  0  0
   -1.2024   -2.3811    1.2121 H   0  0  0  0  0  0  0  0  0  0  0  0
   -4.8254   -2.4893   -1.6089 H   0  0  0  0  0  0  0  0  0  0  0  0
   -4.6101   -4.1803   -1.0965 H   0  0  0  0  0  0  0  0  0  0  0  0
   -4.8278   -2.9017    0.1226 H   0  0  0  0  0  0  0  0  0  0  0  0
   -2.7140   -2.6186   -2.7874 H   0  0  0  0  0  0  0  0  0  0  0  0
   -0.2687   -5.3746    0.8685 H   0  0  0  0  0  0  0  0  0  0  0  0
    7.5986    1.5911   -5.6126 H   0  0  0  0  0  0  0  0  0  0  0  0
  1  2  1  0  0  0  0
  1 68  1  0  0  0  0
  1 69  1  0  0  0  0
  1 70  1  0  0  0  0
  2  3  1  0  0  0  0
  2 71  1  0  0  0  0
  2 72  1  0  0  0  0
  3  4  1  6  0  0  0
  3 26  1  0  0  0  0
  3  5  1  0  0  0  0
  5  6  1  0  0  0  0
  5 66  1  0  0  0  0
  5 67  1  6  0  0  0
  6  7  1  1  0  0  0
  6  8  1  0  0  0  0
  6 65  1  0  0  0  0
  8  9  1  1  0  0  0
  8 10  1  0  0  0  0
  8 64  1  0  0  0  0
 10 11  1  0  0  0  0
 10 63  1  0  0  0  0
 10125  1  1  0  0  0
 11 12  1  0  0  0  0
 11 73  1  0  0  0  0
 11 74  1  0  0  0  0
 12 13  1  6  0  0  0
 12 14  1  0  0  0  0
 12 62  1  0  0  0  0
 14 15  1  0  0  0  0
 14 75  1  0  0  0  0
 14 76  1  0  0  0  0
 15 16  1  0  0  0  0
 15 60  1  0  0  0  0
 15 61  1  6  0  0  0
 16 17  1  6  0  0  0
 16 18  1  0  0  0  0
 16 44  1  0  0  0  0
 18 19  1  1  0  0  0
 18 20  1  0  0  0  0
 18 43  1  0  0  0  0
 20 21  1  6  0  0  0
 20 22  1  0  0  0  0
 20 28  1  0  0  0  0
 22 23  1  1  0  0  0
 22 24  1  0  0  0  0
 22 27  1  0  0  0  0
 24 25  2  0  0  0  0
 24 26  1  0  0  0  0
 27 77  1  0  0  0  0
 27 78  1  0  0  0  0
 27 79  1  0  0  0  0
 28 29  1  0  0  0  0
 29 30  1  1  0  0  0
 29 37  1  0  0  0  0
 29 31  1  0  0  0  0
 31 32  1  0  0  0  0
 31 80  1  0  0  0  0
 31 81  1  0  0  0  0
 32 33  1  0  0  0  0
 32 40  1  0  0  0  0
 32 41  1  6  0  0  0
 33 34  1  6  0  0  0
 33 35  1  0  0  0  0
 33 39  1  0  0  0  0
 35 36  1  6  0  0  0
 35 37  1  0  0  0  0
 35 38  1  0  0  0  0
 38 82  1  0  0  0  0
 38 83  1  0  0  0  0
 38 84  1  0  0  0  0
 39 85  1  0  0  0  0
 40 86  1  0  0  0  0
 40 87  1  0  0  0  0
 40 88  1  0  0  0  0
 41 42  1  0  0  0  0
 42 89  1  0  0  0  0
 42 90  1  0  0  0  0
 42 91  1  0  0  0  0
 43 92  1  0  0  0  0
 43 93  1  0  0  0  0
 43 94  1  0  0  0  0
 44 45  1  0  0  0  0
 45 46  1  1  0  0  0
 45 54  1  0  0  0  0
 45 47  1  0  0  0  0
 47 48  1  6  0  0  0
 47 49  1  0  0  0  0
 47 59  1  0  0  0  0
 49 50  1  1  0  0  0
 49 51  1  0  0  0  0
 49 56  1  0  0  0  0
 51 52  1  0  0  0  0
 51 95  1  0  0  0  0
 51 96  1  0  0  0  0
 52 53  1  1  0  0  0
 52 54  1  0  0  0  0
 52 55  1  0  0  0  0
 55 97  1  0  0  0  0
 55 98  1  0  0  0  0
 55 99  1  0  0  0  0
 56 57  1  0  0  0  0
 56 58  1  0  0  0  0
 56126  1  0  0  0  0
 57100  1  0  0  0  0
 57101  1  0  0  0  0
 57102  1  0  0  0  0
 58103  1  0  0  0  0
 58104  1  0  0  0  0
 58105  1  0  0  0  0
 59106  1  0  0  0  0
 60107  1  0  0  0  0
 60108  1  0  0  0  0
 60109  1  0  0  0  0
 61110  1  0  0  0  0
 62111  1  0  0  0  0
 62112  1  0  0  0  0
 62113  1  0  0  0  0
 63114  1  0  0  0  0
 63115  1  0  0  0  0
 63116  1  0  0  0  0
 64117  1  0  0  0  0
 64118  1  0  0  0  0
 64119  1  0  0  0  0
 65120  1  0  0  0  0
 66121  1  0  0  0  0
 66122  1  0  0  0  0
 66123  1  0  0  0  0
 67124  1  0  0  0  0
M  CHG  2  10   1  56   1
M  END
$$$$
