ZINC01530625
 OpenBabel08292219463D

 53 55  0  0  1  0  0  0  0  0999 V2000
    1.1312    7.6661    2.8994 C   0  0  0  0  0  0  0  0  0  0  0  0
    1.1487    6.1362    2.8960 C   0  0  0  0  0  0  0  0  0  0  0  0
    1.1435    5.6293    1.4524 C   0  0  0  0  0  0  0  0  0  0  0  0
    1.1610    4.0994    1.4490 C   0  0  0  0  0  0  0  0  0  0  0  0
    1.1558    3.5925    0.0054 C   0  0  0  0  0  0  0  0  0  0  0  0
    1.1731    2.0856    0.0021 C   0  0  0  0  0  0  0  0  0  0  0  0
   -0.0167    1.3825    0.0096 C   0  0  0  0  0  0  0  0  0  0  0  0
    0.0021   -0.0041    0.0020 C   0  0  0  0  0  0  0  0  0  0  0  0
    1.2101   -0.6850   -0.0134 C   0  0  0  0  0  0  0  0  0  0  0  0
    2.4061    0.0193   -0.0126 C   0  0  0  0  0  0  0  0  0  0  0  0
    2.3764    1.4113   -0.0090 C   0  0  0  0  0  0  0  0  0  0  0  0
    3.6146   -0.6005   -0.0010 O   0  0  0  0  0  0  0  0  0  0  0  0
    3.6845   -2.0092   -0.2471 C   0  0  0  0  0  0  0  0  0  0  0  0
    2.5579   -2.6737    0.5379 C   0  0  1  0  0  0  0  0  0  0  0  0
    2.6234   -2.3795    1.5854 H   0  0  0  0  0  0  0  0  0  0  0  0
    1.2282   -2.1827   -0.0438 C   0  0  1  0  0  0  0  0  0  0  0  0
    1.1717   -2.5044   -1.0837 H   0  0  0  0  0  0  0  0  0  0  0  0
    0.0991   -2.8232    0.6943 C   0  0  0  0  0  0  0  0  0  0  0  0
    0.2426   -3.9571    1.3166 C   0  0  0  0  0  0  0  0  0  0  0  0
    1.5172   -4.7404    1.4011 C   0  0  0  0  0  0  0  0  0  0  0  0
    2.5770   -4.1958    0.4360 C   0  0  0  0  0  0  0  0  0  0  0  0
   -0.9695   -4.5278    2.0066 C   0  0  0  0  0  0  0  0  0  0  0  0
    3.5073   -2.2839   -1.7418 C   0  0  0  0  0  0  0  0  0  0  0  0
    5.0358   -2.5513    0.2230 C   0  0  0  0  0  0  0  0  0  0  0  0
   -1.1666   -0.6976    0.0092 O   0  0  0  0  0  0  0  0  0  0  0  0
    2.0130    8.0407    2.3796 H   0  0  0  0  0  0  0  0  0  0  0  0
    0.2332    8.0203    2.3932 H   0  0  0  0  0  0  0  0  0  0  0  0
    1.1349    8.0272    3.9278 H   0  0  0  0  0  0  0  0  0  0  0  0
    0.2669    5.7616    3.4158 H   0  0  0  0  0  0  0  0  0  0  0  0
    2.0467    5.7820    3.4022 H   0  0  0  0  0  0  0  0  0  0  0  0
    2.0253    6.0039    0.9326 H   0  0  0  0  0  0  0  0  0  0  0  0
    0.2455    5.9835    0.9462 H   0  0  0  0  0  0  0  0  0  0  0  0
    0.2792    3.7248    1.9688 H   0  0  0  0  0  0  0  0  0  0  0  0
    2.0590    3.7452    1.9552 H   0  0  0  0  0  0  0  0  0  0  0  0
    2.0376    3.9671   -0.5144 H   0  0  0  0  0  0  0  0  0  0  0  0
    0.2578    3.9467   -0.5008 H   0  0  0  0  0  0  0  0  0  0  0  0
   -0.9583    1.9114    0.0170 H   0  0  0  0  0  0  0  0  0  0  0  0
    3.3023    1.9672   -0.0154 H   0  0  0  0  0  0  0  0  0  0  0  0
   -0.8626   -2.3322    0.7121 H   0  0  0  0  0  0  0  0  0  0  0  0
    1.3121   -5.7820    1.1539 H   0  0  0  0  0  0  0  0  0  0  0  0
    1.9012   -4.6853    2.4197 H   0  0  0  0  0  0  0  0  0  0  0  0
    2.3403   -4.5010   -0.5833 H   0  0  0  0  0  0  0  0  0  0  0  0
    3.5606   -4.5727    0.7164 H   0  0  0  0  0  0  0  0  0  0  0  0
   -1.0093   -4.1621    3.0327 H   0  0  0  0  0  0  0  0  0  0  0  0
   -1.8695   -4.2183    1.4753 H   0  0  0  0  0  0  0  0  0  0  0  0
   -0.9063   -5.6160    2.0110 H   0  0  0  0  0  0  0  0  0  0  0  0
    4.2972   -1.7810   -2.2998 H   0  0  0  0  0  0  0  0  0  0  0  0
    3.5615   -3.3574   -1.9228 H   0  0  0  0  0  0  0  0  0  0  0  0
    2.5371   -1.9090   -2.0676 H   0  0  0  0  0  0  0  0  0  0  0  0
    5.1499   -2.3661    1.2911 H   0  0  0  0  0  0  0  0  0  0  0  0
    5.0831   -3.6236    0.0331 H   0  0  0  0  0  0  0  0  0  0  0  0
    5.8372   -2.0504   -0.3202 H   0  0  0  0  0  0  0  0  0  0  0  0
   -1.5131   -0.8936   -0.8720 H   0  0  0  0  0  0  0  0  0  0  0  0
  1  2  1  0  0  0  0
  1 26  1  0  0  0  0
  1 27  1  0  0  0  0
  1 28  1  0  0  0  0
  2  3  1  0  0  0  0
  2 29  1  0  0  0  0
  2 30  1  0  0  0  0
  3  4  1  0  0  0  0
  3 31  1  0  0  0  0
  3 32  1  0  0  0  0
  4  5  1  0  0  0  0
  4 33  1  0  0  0  0
  4 34  1  0  0  0  0
  5  6  1  0  0  0  0
  5 35  1  0  0  0  0
  5 36  1  0  0  0  0
  6 11  2  0  0  0  0
  6  7  1  0  0  0  0
  7  8  2  0  0  0  0
  7 37  1  0  0  0  0
  8  9  1  0  0  0  0
  8 25  1  0  0  0  0
  9 16  1  0  0  0  0
  9 10  2  0  0  0  0
 10 11  1  0  0  0  0
 10 12  1  0  0  0  0
 11 38  1  0  0  0  0
 12 13  1  0  0  0  0
 13 14  1  0  0  0  0
 13 23  1  0  0  0  0
 13 24  1  0  0  0  0
 14 15  1  1  0  0  0
 14 21  1  0  0  0  0
 14 16  1  0  0  0  0
 16 17  1  6  0  0  0
 16 18  1  0  0  0  0
 18 19  2  0  0  0  0
 18 39  1  0  0  0  0
 19 20  1  0  0  0  0
 19 22  1  0  0  0  0
 20 21  1  0  0  0  0
 20 40  1  0  0  0  0
 20 41  1  0  0  0  0
 21 42  1  0  0  0  0
 21 43  1  0  0  0  0
 22 44  1  0  0  0  0
 22 45  1  0  0  0  0
 22 46  1  0  0  0  0
 23 47  1  0  0  0  0
 23 48  1  0  0  0  0
 23 49  1  0  0  0  0
 24 50  1  0  0  0  0
 24 51  1  0  0  0  0
 24 52  1  0  0  0  0
 25 53  1  0  0  0  0
M  END
$$$$
