ZINC00001267
 OpenBabel08292219463D

 37 38  0  0  1  0  0  0  0  0999 V2000
   -0.6005    1.5605    0.3274 C   0  0  0  0  0  0  0  0  0  0  0  0
   -0.3541    0.1564    0.2280 O   0  0  0  0  0  0  0  0  0  0  0  0
   -1.4258   -0.6435    0.1121 C   0  0  0  0  0  0  0  0  0  0  0  0
   -2.5361   -0.1674    0.0956 O   0  0  0  0  0  0  0  0  0  0  0  0
   -1.2439   -2.1355    0.0025 C   0  0  2  0  0  0  0  0  0  0  0  0
   -0.6473   -2.3649   -0.8804 H   0  0  0  0  0  0  0  0  0  0  0  0
   -2.5921   -2.7985   -0.1161 C   0  0  0  0  0  0  0  0  0  0  0  0
   -3.4835   -2.7455    0.9391 C   0  0  0  0  0  0  0  0  0  0  0  0
   -4.7201   -3.3537    0.8304 C   0  0  0  0  0  0  0  0  0  0  0  0
   -5.0655   -4.0144   -0.3337 C   0  0  0  0  0  0  0  0  0  0  0  0
   -4.1744   -4.0665   -1.3892 C   0  0  0  0  0  0  0  0  0  0  0  0
   -2.9394   -3.4547   -1.2821 C   0  0  0  0  0  0  0  0  0  0  0  0
   -0.5281   -2.6551    1.2509 C   0  0  2  0  0  0  0  0  0  0  0  0
   -1.0726   -2.3374    2.1401 H   0  0  0  0  0  0  0  0  0  0  0  0
    0.8934   -2.0905    1.2951 C   0  0  0  0  0  0  0  0  0  0  0  0
    1.6057   -2.6130    2.5461 C   0  0  0  0  0  0  0  0  0  0  0  0
    1.5897   -4.1442    2.5286 C   0  0  0  0  0  0  0  0  0  0  0  0
    0.1424   -4.6327    2.4386 C   0  0  0  0  0  0  0  0  0  0  0  0
   -0.4743   -4.1214    1.2086 N   0  3  0  0  0  0  0  0  0  0  0  0
    0.3479    2.0904    0.4159 H   0  0  0  0  0  0  0  0  0  0  0  0
   -1.1253    1.9015   -0.5650 H   0  0  0  0  0  0  0  0  0  0  0  0
   -1.2119    1.7607    1.2073 H   0  0  0  0  0  0  0  0  0  0  0  0
   -3.2137   -2.2294    1.8486 H   0  0  0  0  0  0  0  0  0  0  0  0
   -5.4163   -3.3129    1.6550 H   0  0  0  0  0  0  0  0  0  0  0  0
   -6.0314   -4.4901   -0.4184 H   0  0  0  0  0  0  0  0  0  0  0  0
   -4.4441   -4.5830   -2.2986 H   0  0  0  0  0  0  0  0  0  0  0  0
   -2.2447   -3.4923   -2.1081 H   0  0  0  0  0  0  0  0  0  0  0  0
    1.4390   -2.4079    0.4064 H   0  0  0  0  0  0  0  0  0  0  0  0
    0.8518   -1.0018    1.3279 H   0  0  0  0  0  0  0  0  0  0  0  0
    2.6366   -2.2593    2.5530 H   0  0  0  0  0  0  0  0  0  0  0  0
    1.0897   -2.2532    3.4363 H   0  0  0  0  0  0  0  0  0  0  0  0
    2.1496   -4.5042    1.6655 H   0  0  0  0  0  0  0  0  0  0  0  0
    2.0457   -4.5234    3.4431 H   0  0  0  0  0  0  0  0  0  0  0  0
    0.1273   -5.7225    2.4261 H   0  0  0  0  0  0  0  0  0  0  0  0
   -0.4166   -4.2724    3.3022 H   0  0  0  0  0  0  0  0  0  0  0  0
   -1.4102   -4.4890    1.1253 H   0  0  0  0  0  0  0  0  0  0  0  0
    0.0719   -4.4141    0.4124 H   0  0  0  0  0  0  0  0  0  0  0  0
  1  2  1  0  0  0  0
  1 20  1  0  0  0  0
  1 21  1  0  0  0  0
  1 22  1  0  0  0  0
  2  3  1  0  0  0  0
  3  4  2  0  0  0  0
  3  5  1  0  0  0  0
  5  6  1  6  0  0  0
  5  7  1  0  0  0  0
  5 13  1  0  0  0  0
  7 12  2  0  0  0  0
  7  8  1  0  0  0  0
  8  9  2  0  0  0  0
  8 23  1  0  0  0  0
  9 10  1  0  0  0  0
  9 24  1  0  0  0  0
 10 11  2  0  0  0  0
 10 25  1  0  0  0  0
 11 12  1  0  0  0  0
 11 26  1  0  0  0  0
 12 27  1  0  0  0  0
 13 14  1  1  0  0  0
 13 19  1  0  0  0  0
 13 15  1  0  0  0  0
 15 16  1  0  0  0  0
 15 28  1  0  0  0  0
 15 29  1  0  0  0  0
 16 17  1  0  0  0  0
 16 30  1  0  0  0  0
 16 31  1  0  0  0  0
 17 18  1  0  0  0  0
 17 32  1  0  0  0  0
 17 33  1  0  0  0  0
 18 19  1  0  0  0  0
 18 34  1  0  0  0  0
 18 35  1  0  0  0  0
 19 36  1  0  0  0  0
 19 37  1  0  0  0  0
M  CHG  1  19   1
M  END
$$$$
