ZINC00897369
 OpenBabel08292219463D

 20 20  0  0  0  0  0  0  0  0999 V2000
   -0.0179    1.4723    0.0101 C   0  0  0  0  0  0  0  0  0  0  0  0
    1.2878    1.8635   -0.0002 C   0  0  0  0  0  0  0  0  0  0  0  0
    2.0778    0.7111   -0.0140 C   0  0  0  0  0  0  0  0  0  0  0  0
    1.3030   -0.3771   -0.0124 O   0  0  0  0  0  0  0  0  0  0  0  0
    0.0021   -0.0041    0.0020 C   0  0  0  0  0  0  0  0  0  0  0  0
   -1.0944   -0.8422    0.0084 C   0  0  0  0  0  0  0  0  0  0  0  0
   -0.9223   -2.1700   -0.0004 N   0  0  0  0  0  0  0  0  0  0  0  0
   -1.9471   -2.9534    0.0055 N   0  0  0  0  0  0  0  0  0  0  0  0
   -1.7738   -4.2899   -0.0034 C   0  0  0  0  0  0  0  0  0  0  0  0
   -2.7389   -5.0276    0.0022 O   0  0  0  0  0  0  0  0  0  0  0  0
   -0.5297   -4.8080   -0.0185 N   0  0  0  0  0  0  0  0  0  0  0  0
    3.5634    0.6980   -0.0287 N   0  0  0  0  0  4  0  0  0  0  0  0
    4.2320    1.8326   -0.0294 O   0  0  0  0  0  0  0  0  0  0  0  0
    4.2117   -0.4484   -0.0410 O   0  5  0  0  0  0  0  0  0  0  0  0
   -0.8885    2.1112    0.0258 H   0  0  0  0  0  0  0  0  0  0  0  0
    1.6474    2.8819    0.0015 H   0  0  0  0  0  0  0  0  0  0  0  0
   -2.0914   -0.4270    0.0205 H   0  0  0  0  0  0  0  0  0  0  0  0
   -2.8425   -2.5805    0.0164 H   0  0  0  0  0  0  0  0  0  0  0  0
    0.2409   -4.2190   -0.0230 H   0  0  0  0  0  0  0  0  0  0  0  0
   -0.4050   -5.7700   -0.0249 H   0  0  0  0  0  0  0  0  0  0  0  0
  1  5  2  0  0  0  0
  1  2  1  0  0  0  0
  1 15  1  0  0  0  0
  2  3  2  0  0  0  0
  2 16  1  0  0  0  0
  3  4  1  0  0  0  0
  3 12  1  0  0  0  0
  4  5  1  0  0  0  0
  5  6  1  0  0  0  0
  6  7  2  0  0  0  0
  6 17  1  0  0  0  0
  7  8  1  0  0  0  0
  8  9  1  0  0  0  0
  8 18  1  0  0  0  0
  9 10  2  0  0  0  0
  9 11  1  0  0  0  0
 11 19  1  0  0  0  0
 11 20  1  0  0  0  0
 12 13  2  0  0  0  0
 12 14  1  0  0  0  0
M  CHG  1  14  -1
M  END
$$$$
