ZINC00005895
 OpenBabel08292219463D

 40 42  0  0  0  0  0  0  0  0999 V2000
   -0.0178    1.4648    0.0101 C   0  0  0  0  0  0  0  0  0  0  0  0
    0.0021   -0.0041    0.0020 N   0  3  0  0  0  0  0  0  0  0  0  0
    0.6897   -0.4778   -1.2066 C   0  0  0  0  0  0  0  0  0  0  0  0
    0.7126   -0.4907    1.1921 C   0  0  0  0  0  0  0  0  0  0  0  0
   -0.0711   -0.1034    2.4478 C   0  0  0  0  0  0  0  0  0  0  0  0
    0.6578   -0.6026    3.6687 C   0  0  0  0  0  0  0  0  0  0  0  0
    0.4369   -1.7593    4.3132 C   0  0  0  0  0  0  0  0  0  0  0  0
    1.2907   -1.8713    5.3767 N   0  0  0  0  0  0  0  0  0  0  0  0
    1.3197   -2.6210    5.9914 H   0  0  0  0  0  0  0  0  0  0  0  0
    2.1025   -0.7612    5.4442 C   0  0  0  0  0  0  0  0  0  0  0  0
    1.7460    0.0793    4.3735 C   0  0  0  0  0  0  0  0  0  0  0  0
    2.4143    1.2905    4.1864 C   0  0  0  0  0  0  0  0  0  0  0  0
    3.4154    1.6524    5.0434 C   0  0  0  0  0  0  0  0  0  0  0  0
    3.7736    0.8250    6.0985 C   0  0  0  0  0  0  0  0  0  0  0  0
    3.1209   -0.3705    6.3071 C   0  0  0  0  0  0  0  0  0  0  0  0
    4.1365    2.9600    4.8408 C   0  0  0  0  0  0  0  0  0  0  0  0
    3.4480    4.0178    5.5847 N   0  0  0  0  0  0  0  0  0  0  0  0
    3.9891    4.8454    6.4953 C   0  0  0  0  0  0  0  0  0  0  0  0
    3.0476    5.6443    6.9279 N   0  0  0  0  0  0  0  0  0  0  0  0
    1.8973    5.3583    6.3195 C   0  0  0  0  0  0  0  0  0  0  0  0
    2.0929    4.3725    5.4837 N   0  0  0  0  0  0  0  0  0  0  0  0
    1.0047    1.8421    0.0024 H   0  0  0  0  0  0  0  0  0  0  0  0
   -0.5450    1.8259   -0.8730 H   0  0  0  0  0  0  0  0  0  0  0  0
   -0.5280    1.8163    0.9069 H   0  0  0  0  0  0  0  0  0  0  0  0
    1.7123   -0.1005   -1.2143 H   0  0  0  0  0  0  0  0  0  0  0  0
    0.7044   -1.5677   -1.2126 H   0  0  0  0  0  0  0  0  0  0  0  0
    0.1625   -0.1167   -2.0897 H   0  0  0  0  0  0  0  0  0  0  0  0
    0.8051   -1.5756    1.1418 H   0  0  0  0  0  0  0  0  0  0  0  0
    1.7055   -0.0428    1.2310 H   0  0  0  0  0  0  0  0  0  0  0  0
   -0.1636    0.9815    2.4982 H   0  0  0  0  0  0  0  0  0  0  0  0
   -1.0640   -0.5514    2.4090 H   0  0  0  0  0  0  0  0  0  0  0  0
   -0.3050   -2.4927    4.0340 H   0  0  0  0  0  0  0  0  0  0  0  0
    2.1414    1.9391    3.3670 H   0  0  0  0  0  0  0  0  0  0  0  0
    4.5673    1.1244    6.7669 H   0  0  0  0  0  0  0  0  0  0  0  0
    3.4078   -1.0080    7.1304 H   0  0  0  0  0  0  0  0  0  0  0  0
    5.1610    2.8698    5.2018 H   0  0  0  0  0  0  0  0  0  0  0  0
    4.1459    3.2092    3.7797 H   0  0  0  0  0  0  0  0  0  0  0  0
    5.0208    4.8497    6.8146 H   0  0  0  0  0  0  0  0  0  0  0  0
    0.9567    5.8622    6.4866 H   0  0  0  0  0  0  0  0  0  0  0  0
   -0.9445   -0.3533    0.0092 H   0  0  0  0  0  0  0  0  0  0  0  0
  1  2  1  0  0  0  0
  1 22  1  0  0  0  0
  1 23  1  0  0  0  0
  1 24  1  0  0  0  0
  2  3  1  0  0  0  0
  2  4  1  0  0  0  0
  2 40  1  0  0  0  0
  3 25  1  0  0  0  0
  3 26  1  0  0  0  0
  3 27  1  0  0  0  0
  4  5  1  0  0  0  0
  4 28  1  0  0  0  0
  4 29  1  0  0  0  0
  5  6  1  0  0  0  0
  5 30  1  0  0  0  0
  5 31  1  0  0  0  0
  6 11  1  0  0  0  0
  6  7  2  0  0  0  0
  7  8  1  0  0  0  0
  7 32  1  0  0  0  0
  8  9  1  0  0  0  0
  8 10  1  0  0  0  0
 10 15  2  0  0  0  0
 10 11  1  0  0  0  0
 11 12  2  0  0  0  0
 12 13  1  0  0  0  0
 12 33  1  0  0  0  0
 13 14  2  0  0  0  0
 13 16  1  0  0  0  0
 14 15  1  0  0  0  0
 14 34  1  0  0  0  0
 15 35  1  0  0  0  0
 16 17  1  0  0  0  0
 16 36  1  0  0  0  0
 16 37  1  0  0  0  0
 17 21  1  0  0  0  0
 17 18  1  0  0  0  0
 18 19  2  0  0  0  0
 18 38  1  0  0  0  0
 19 20  1  0  0  0  0
 20 21  2  0  0  0  0
 20 39  1  0  0  0  0
M  CHG  1   2   1
M  END
$$$$
