ZINC00538658
 OpenBabel08292219463D

 57 60  0  0  1  0  0  0  0  0999 V2000
   -1.3757    5.9647    0.6767 C   0  0  0  0  0  0  0  0  0  0  0  0
   -2.7198    5.3058    0.5027 C   0  0  0  0  0  0  0  0  0  0  0  0
   -3.8703    5.9757    0.8651 C   0  0  0  0  0  0  0  0  0  0  0  0
   -5.1050    5.3726    0.7052 C   0  0  0  0  0  0  0  0  0  0  0  0
   -5.1953    4.0949    0.1814 C   0  0  0  0  0  0  0  0  0  0  0  0
   -4.0533    3.4158   -0.1890 C   0  0  0  0  0  0  0  0  0  0  0  0
   -2.8037    4.0167   -0.0258 C   0  0  0  0  0  0  0  0  0  0  0  0
   -1.5754    3.2934   -0.4167 C   0  0  0  0  0  0  0  0  0  0  0  0
   -0.4903    3.8267   -0.2920 O   0  0  0  0  0  0  0  0  0  0  0  0
   -1.6587    2.0424   -0.9113 N   0  0  0  0  0  0  0  0  0  0  0  0
   -0.4972    1.3302   -1.2041 C   0  0  0  0  0  0  0  0  0  0  0  0
    0.6127    1.9934   -1.7192 C   0  0  0  0  0  0  0  0  0  0  0  0
    1.7594    1.2921   -2.0149 C   0  0  0  0  0  0  0  0  0  0  0  0
    1.8086   -0.0879   -1.7971 C   0  0  0  0  0  0  0  0  0  0  0  0
    0.6924   -0.7507   -1.2797 C   0  0  0  0  0  0  0  0  0  0  0  0
   -0.4516   -0.0432   -0.9862 C   0  0  0  0  0  0  0  0  0  0  0  0
    0.7411   -2.2382   -1.0430 C   0  0  0  0  0  0  0  0  0  0  0  0
    3.0362   -0.8431   -2.1134 C   0  0  0  0  0  0  0  0  0  0  0  0
    2.9732   -1.8481   -2.7949 O   0  0  0  0  0  0  0  0  0  0  0  0
    4.2274   -0.4188   -1.6469 N   0  0  0  0  0  0  0  0  0  0  0  0
    5.4509   -1.2097   -1.8594 C   0  0  0  0  0  0  0  0  0  0  0  0
    6.2022   -0.6994   -3.0663 C   0  0  0  0  0  0  0  0  0  0  0  0
    6.7169    0.7241   -2.9078 C   0  0  0  0  0  0  0  0  0  0  0  0
    5.5701    1.7298   -2.9133 C   0  0  2  0  0  0  0  0  0  0  0  0
    5.9377    2.6994   -3.2493 H   0  0  0  0  0  0  0  0  0  0  0  0
    5.0123    1.8582   -1.5063 C   0  0  0  0  0  0  0  0  0  0  0  0
    4.3402    0.7889   -0.9512 C   0  0  0  0  0  0  0  0  0  0  0  0
    3.7816    0.9191    0.3147 C   0  0  0  0  0  0  0  0  0  0  0  0
    3.9289    2.1039    1.0101 C   0  0  0  0  0  0  0  0  0  0  0  0
    4.6306    3.1578    0.4520 C   0  0  0  0  0  0  0  0  0  0  0  0
    5.1701    3.0326   -0.8031 C   0  0  0  0  0  0  0  0  0  0  0  0
    4.8295    4.6352    1.3415 Cl  0  0  0  0  0  0  0  0  0  0  0  0
    4.5420    1.2768   -3.7964 O   0  0  0  0  0  0  0  0  0  0  0  0
   -1.0683    6.4175   -0.2660 H   0  0  0  0  0  0  0  0  0  0  0  0
   -1.4455    6.7354    1.4443 H   0  0  0  0  0  0  0  0  0  0  0  0
   -0.6411    5.2178    0.9775 H   0  0  0  0  0  0  0  0  0  0  0  0
   -3.8068    6.9732    1.2742 H   0  0  0  0  0  0  0  0  0  0  0  0
   -6.0025    5.9014    0.9902 H   0  0  0  0  0  0  0  0  0  0  0  0
   -6.1623    3.6299    0.0589 H   0  0  0  0  0  0  0  0  0  0  0  0
   -4.1254    2.4203   -0.6015 H   0  0  0  0  0  0  0  0  0  0  0  0
   -2.5270    1.6378   -1.0634 H   0  0  0  0  0  0  0  0  0  0  0  0
    0.5739    3.0595   -1.8875 H   0  0  0  0  0  0  0  0  0  0  0  0
    2.6205    1.8074   -2.4143 H   0  0  0  0  0  0  0  0  0  0  0  0
   -1.3147   -0.5549   -0.5866 H   0  0  0  0  0  0  0  0  0  0  0  0
    0.4992   -2.7615   -1.9680 H   0  0  0  0  0  0  0  0  0  0  0  0
    1.7416   -2.5216   -0.7162 H   0  0  0  0  0  0  0  0  0  0  0  0
    0.0177   -2.5075   -0.2734 H   0  0  0  0  0  0  0  0  0  0  0  0
    6.0881   -1.1324   -0.9785 H   0  0  0  0  0  0  0  0  0  0  0  0
    5.1824   -2.2544   -2.0167 H   0  0  0  0  0  0  0  0  0  0  0  0
    7.0505   -1.3580   -3.2530 H   0  0  0  0  0  0  0  0  0  0  0  0
    5.5393   -0.7361   -3.9308 H   0  0  0  0  0  0  0  0  0  0  0  0
    7.2585    0.8052   -1.9653 H   0  0  0  0  0  0  0  0  0  0  0  0
    7.3950    0.9524   -3.7300 H   0  0  0  0  0  0  0  0  0  0  0  0
    3.2349    0.0974    0.7533 H   0  0  0  0  0  0  0  0  0  0  0  0
    3.4949    2.2077    1.9935 H   0  0  0  0  0  0  0  0  0  0  0  0
    5.7138    3.8576   -1.2391 H   0  0  0  0  0  0  0  0  0  0  0  0
    3.7797    1.8693   -3.8493 H   0  0  0  0  0  0  0  0  0  0  0  0
  1  2  1  0  0  0  0
  1 34  1  0  0  0  0
  1 35  1  0  0  0  0
  1 36  1  0  0  0  0
  2  7  2  0  0  0  0
  2  3  1  0  0  0  0
  3  4  2  0  0  0  0
  3 37  1  0  0  0  0
  4  5  1  0  0  0  0
  4 38  1  0  0  0  0
  5  6  2  0  0  0  0
  5 39  1  0  0  0  0
  6  7  1  0  0  0  0
  6 40  1  0  0  0  0
  7  8  1  0  0  0  0
  8  9  2  0  0  0  0
  8 10  1  0  0  0  0
 10 11  1  0  0  0  0
 10 41  1  0  0  0  0
 11 16  2  0  0  0  0
 11 12  1  0  0  0  0
 12 13  2  0  0  0  0
 12 42  1  0  0  0  0
 13 14  1  0  0  0  0
 13 43  1  0  0  0  0
 14 15  2  0  0  0  0
 14 18  1  0  0  0  0
 15 16  1  0  0  0  0
 15 17  1  0  0  0  0
 16 44  1  0  0  0  0
 17 45  1  0  0  0  0
 17 46  1  0  0  0  0
 17 47  1  0  0  0  0
 18 19  2  0  0  0  0
 18 20  1  0  0  0  0
 20 27  1  0  0  0  0
 20 21  1  0  0  0  0
 21 22  1  0  0  0  0
 21 48  1  0  0  0  0
 21 49  1  0  0  0  0
 22 23  1  0  0  0  0
 22 50  1  0  0  0  0
 22 51  1  0  0  0  0
 23 24  1  0  0  0  0
 23 52  1  0  0  0  0
 23 53  1  0  0  0  0
 24 25  1  6  0  0  0
 24 26  1  0  0  0  0
 24 33  1  0  0  0  0
 26 31  2  0  0  0  0
 26 27  1  0  0  0  0
 27 28  2  0  0  0  0
 28 29  1  0  0  0  0
 28 54  1  0  0  0  0
 29 30  2  0  0  0  0
 29 55  1  0  0  0  0
 30 31  1  0  0  0  0
 30 32  1  0  0  0  0
 31 56  1  0  0  0  0
 33 57  1  0  0  0  0
M  END
$$$$
