ZINC02847375
 OpenBabel08292219463D

 35 35  0  0  1  0  0  0  0  0999 V2000
   -0.2757    1.5557    0.1237 C   0  0  0  0  0  0  0  0  0  0  0  0
   -0.0990    0.0400    0.0132 C   0  0  0  0  0  0  0  0  0  0  0  0
    0.7759   -0.4311    1.0952 N   0  3  0  0  0  0  0  0  0  0  0  0
    0.1113   -0.2220    2.3885 C   0  0  0  0  0  0  0  0  0  0  0  0
   -1.1791   -1.0426    2.4374 C   0  0  0  0  0  0  0  0  0  0  0  0
    1.0530   -1.8622    0.9128 C   0  0  2  0  0  0  0  0  0  0  0  0
    0.1164   -2.4193    0.9342 H   0  0  0  0  0  0  0  0  0  0  0  0
    1.9642   -2.3529    2.0396 C   0  0  0  0  0  0  0  0  0  0  0  0
    1.7347   -2.0767   -0.4140 C   0  0  0  0  0  0  0  0  0  0  0  0
    2.2894   -1.1512   -0.9673 O   0  0  0  0  0  0  0  0  0  0  0  0
    1.7273   -3.4095   -1.0381 C   0  0  0  0  0  0  0  0  0  0  0  0
    1.0838   -4.4781   -0.4059 C   0  0  0  0  0  0  0  0  0  0  0  0
    1.0809   -5.7237   -0.9973 C   0  0  0  0  0  0  0  0  0  0  0  0
    1.7126   -5.9179   -2.2133 C   0  0  0  0  0  0  0  0  0  0  0  0
    2.3521   -4.8655   -2.8450 C   0  0  0  0  0  0  0  0  0  0  0  0
    2.3589   -3.6126   -2.2693 C   0  0  0  0  0  0  0  0  0  0  0  0
    0.7031    2.0342    0.1575 H   0  0  0  0  0  0  0  0  0  0  0  0
   -0.8291    1.9210   -0.7414 H   0  0  0  0  0  0  0  0  0  0  0  0
   -0.8271    1.7919    1.0339 H   0  0  0  0  0  0  0  0  0  0  0  0
   -1.0713   -0.4460    0.0945 H   0  0  0  0  0  0  0  0  0  0  0  0
    0.3500   -0.2042   -0.9495 H   0  0  0  0  0  0  0  0  0  0  0  0
    0.7745   -0.5394    3.1932 H   0  0  0  0  0  0  0  0  0  0  0  0
   -0.1256    0.8351    2.5085 H   0  0  0  0  0  0  0  0  0  0  0  0
   -1.6552   -0.9134    3.4094 H   0  0  0  0  0  0  0  0  0  0  0  0
   -1.8557   -0.7028    1.6533 H   0  0  0  0  0  0  0  0  0  0  0  0
   -0.9456   -2.0963    2.2843 H   0  0  0  0  0  0  0  0  0  0  0  0
    2.1698   -3.4147    1.9043 H   0  0  0  0  0  0  0  0  0  0  0  0
    2.9009   -1.7958    2.0181 H   0  0  0  0  0  0  0  0  0  0  0  0
    1.4711   -2.1977    2.9992 H   0  0  0  0  0  0  0  0  0  0  0  0
    0.5907   -4.3282    0.5432 H   0  0  0  0  0  0  0  0  0  0  0  0
    0.5846   -6.5500   -0.5101 H   0  0  0  0  0  0  0  0  0  0  0  0
    1.7069   -6.8958   -2.6715 H   0  0  0  0  0  0  0  0  0  0  0  0
    2.8432   -5.0250   -3.7936 H   0  0  0  0  0  0  0  0  0  0  0  0
    2.8545   -2.7913   -2.7656 H   0  0  0  0  0  0  0  0  0  0  0  0
    1.6429    0.0846    1.0753 H   0  0  0  0  0  0  0  0  0  0  0  0
  1  2  1  0  0  0  0
  1 17  1  0  0  0  0
  1 18  1  0  0  0  0
  1 19  1  0  0  0  0
  2  3  1  0  0  0  0
  2 20  1  0  0  0  0
  2 21  1  0  0  0  0
  3  4  1  0  0  0  0
  3  6  1  0  0  0  0
  3 35  1  0  0  0  0
  4  5  1  0  0  0  0
  4 22  1  0  0  0  0
  4 23  1  0  0  0  0
  5 24  1  0  0  0  0
  5 25  1  0  0  0  0
  5 26  1  0  0  0  0
  6  7  1  1  0  0  0
  6  8  1  0  0  0  0
  6  9  1  0  0  0  0
  8 27  1  0  0  0  0
  8 28  1  0  0  0  0
  8 29  1  0  0  0  0
  9 10  2  0  0  0  0
  9 11  1  0  0  0  0
 11 16  2  0  0  0  0
 11 12  1  0  0  0  0
 12 13  2  0  0  0  0
 12 30  1  0  0  0  0
 13 14  1  0  0  0  0
 13 31  1  0  0  0  0
 14 15  2  0  0  0  0
 14 32  1  0  0  0  0
 15 16  1  0  0  0  0
 15 33  1  0  0  0  0
 16 34  1  0  0  0  0
M  CHG  1   3   1
M  END
$$$$
