ZINC14880004
 OpenBabel08292219463D

 71 75  0  0  1  0  0  0  0  0999 V2000
   -0.8503    1.4584    0.1077 C   0  0  0  0  0  0  0  0  0  0  0  0
   -1.2898   -0.0071    0.1073 C   0  0  1  0  0  0  0  0  0  0  0  0
   -1.0737   -0.5924   -1.2633 C   0  0  0  0  0  0  0  0  0  0  0  0
   -1.0435    0.2302   -2.3696 C   0  0  0  0  0  0  0  0  0  0  0  0
   -0.8586   -0.3060   -3.6332 C   0  0  0  0  0  0  0  0  0  0  0  0
   -0.7049   -1.6685   -3.8002 C   0  0  0  0  0  0  0  0  0  0  0  0
   -0.7274   -2.5102   -2.6978 C   0  0  0  0  0  0  0  0  0  0  0  0
   -0.9069   -1.9691   -1.4188 C   0  0  0  0  0  0  0  0  0  0  0  0
   -0.9010   -2.8446   -0.2298 C   0  0  0  0  0  0  0  0  0  0  0  0
   -0.9915   -4.0532   -0.3498 O   0  0  0  0  0  0  0  0  0  0  0  0
   -0.7871   -2.2498    1.0619 C   0  0  0  0  0  0  0  0  0  0  0  0
   -0.9665   -3.0197    2.1390 C   0  0  0  0  0  0  0  0  0  0  0  0
   -0.8607   -2.5242    3.5560 C   0  0  1  0  0  0  0  0  0  0  0  0
   -0.1405   -1.1754    3.5643 C   0  0  1  0  0  0  0  0  0  0  0  0
    0.8916   -1.3409    3.2553 H   0  0  0  0  0  0  0  0  0  0  0  0
   -0.7975   -0.2484    2.5453 C   0  0  0  0  0  0  0  0  0  0  0  0
   -0.4777   -0.7791    1.1449 C   0  0  2  0  0  0  0  0  0  0  0  0
    0.5839   -0.6276    0.9499 H   0  0  0  0  0  0  0  0  0  0  0  0
   -0.1253   -0.5563    4.9482 C   0  0  1  0  0  0  0  0  0  0  0  0
    0.2404    0.4678    4.8733 H   0  0  0  0  0  0  0  0  0  0  0  0
   -1.4851   -0.5420    5.5795 C   0  0  0  0  0  0  0  0  0  0  0  0
   -2.4932   -1.3774    5.1670 C   0  0  0  0  0  0  0  0  0  0  0  0
   -2.2702   -2.3078    4.0739 C   0  0  0  0  0  0  0  0  0  0  0  0
   -3.2096   -2.8888    3.5707 O   0  0  0  0  0  0  0  0  0  0  0  0
   -3.7991   -1.3392    5.8443 C   0  0  0  0  0  0  0  0  0  0  0  0
   -3.9570   -0.6321    6.8214 O   0  0  0  0  0  0  0  0  0  0  0  0
   -4.8201   -2.0876    5.3819 N   0  0  0  0  0  0  0  0  0  0  0  0
   -6.1513   -1.9602    5.9802 C   0  0  0  0  0  0  0  0  0  0  0  0
   -6.9523   -1.0115    5.1951 N   0  3  0  0  0  0  0  0  0  0  0  0
   -7.2668   -1.5869    3.8623 C   0  0  0  0  0  0  0  0  0  0  0  0
   -8.5145   -0.7845    3.4152 C   0  0  0  0  0  0  0  0  0  0  0  0
   -9.3013   -0.6055    4.7339 C   0  0  0  0  0  0  0  0  0  0  0  0
   -8.2569   -0.7795    5.8521 C   0  0  0  0  0  0  0  0  0  0  0  0
   -1.7246    0.3163    6.5819 O   0  5  0  0  0  0  0  0  0  0  0  0
    0.7872   -1.3260    5.8043 N   0  0  0  0  0  0  0  0  0  0  0  0
    2.1742   -1.2085    5.3348 C   0  0  0  0  0  0  0  0  0  0  0  0
    0.6694   -0.9092    7.2079 C   0  0  0  0  0  0  0  0  0  0  0  0
   -0.1701   -3.4759    4.3680 O   0  0  0  0  0  0  0  0  0  0  0  0
   -1.2608   -4.3207    1.9443 O   0  0  0  0  0  0  0  0  0  0  0  0
   -0.5774   -3.8491   -2.8579 O   0  0  0  0  0  0  0  0  0  0  0  0
   -2.6777   -0.0851    0.4388 O   0  0  0  0  0  0  0  0  0  0  0  0
    0.2095    1.5199   -0.1396 H   0  0  0  0  0  0  0  0  0  0  0  0
   -1.4287    2.0115   -0.6323 H   0  0  0  0  0  0  0  0  0  0  0  0
   -1.0184    1.8879    1.0954 H   0  0  0  0  0  0  0  0  0  0  0  0
   -1.1648    1.2967   -2.2503 H   0  0  0  0  0  0  0  0  0  0  0  0
   -0.8347    0.3458   -4.4941 H   0  0  0  0  0  0  0  0  0  0  0  0
   -0.5675   -2.0788   -4.7897 H   0  0  0  0  0  0  0  0  0  0  0  0
   -1.8767   -0.2393    2.6980 H   0  0  0  0  0  0  0  0  0  0  0  0
   -0.4008    0.7608    2.6561 H   0  0  0  0  0  0  0  0  0  0  0  0
   -4.6736   -2.7105    4.6529 H   0  0  0  0  0  0  0  0  0  0  0  0
   -6.6422   -2.9334    5.9848 H   0  0  0  0  0  0  0  0  0  0  0  0
   -6.0566   -1.5962    7.0032 H   0  0  0  0  0  0  0  0  0  0  0  0
   -6.4396   -1.4291    3.1703 H   0  0  0  0  0  0  0  0  0  0  0  0
   -7.5018   -2.6479    3.9471 H   0  0  0  0  0  0  0  0  0  0  0  0
   -8.2244    0.1828    3.0049 H   0  0  0  0  0  0  0  0  0  0  0  0
   -9.0991   -1.3521    2.6913 H   0  0  0  0  0  0  0  0  0  0  0  0
   -9.7419    0.3904    4.7794 H   0  0  0  0  0  0  0  0  0  0  0  0
  -10.0764   -1.3672    4.8184 H   0  0  0  0  0  0  0  0  0  0  0  0
   -8.5173   -1.6364    6.4735 H   0  0  0  0  0  0  0  0  0  0  0  0
   -8.2107    0.1235    6.4608 H   0  0  0  0  0  0  0  0  0  0  0  0
    2.5035   -0.1738    5.4300 H   0  0  0  0  0  0  0  0  0  0  0  0
    2.8171   -1.8511    5.9364 H   0  0  0  0  0  0  0  0  0  0  0  0
    2.2312   -1.5133    4.2899 H   0  0  0  0  0  0  0  0  0  0  0  0
   -0.3242   -1.1601    7.5793 H   0  0  0  0  0  0  0  0  0  0  0  0
    1.4214   -1.4255    7.8046 H   0  0  0  0  0  0  0  0  0  0  0  0
    0.8235    0.1674    7.2814 H   0  0  0  0  0  0  0  0  0  0  0  0
   -0.5562   -4.3623    4.3497 H   0  0  0  0  0  0  0  0  0  0  0  0
   -0.5791   -4.9296    2.2597 H   0  0  0  0  0  0  0  0  0  0  0  0
    0.3410   -4.1494   -2.8194 H   0  0  0  0  0  0  0  0  0  0  0  0
   -3.2559    0.3876   -0.1754 H   0  0  0  0  0  0  0  0  0  0  0  0
   -6.4556   -0.1395    5.0902 H   0  0  0  0  0  0  0  0  0  0  0  0
  1  2  1  0  0  0  0
  1 42  1  0  0  0  0
  1 43  1  0  0  0  0
  1 44  1  0  0  0  0
  2 17  1  0  0  0  0
  2  3  1  0  0  0  0
  2 41  1  1  0  0  0
  3  8  2  0  0  0  0
  3  4  1  0  0  0  0
  4  5  2  0  0  0  0
  4 45  1  0  0  0  0
  5  6  1  0  0  0  0
  5 46  1  0  0  0  0
  6  7  2  0  0  0  0
  6 47  1  0  0  0  0
  7  8  1  0  0  0  0
  7 40  1  0  0  0  0
  8  9  1  0  0  0  0
  9 10  2  0  0  0  0
  9 11  1  0  0  0  0
 11 17  1  0  0  0  0
 11 12  2  0  0  0  0
 12 13  1  0  0  0  0
 12 39  1  0  0  0  0
 13 23  1  0  0  0  0
 13 14  1  0  0  0  0
 13 38  1  1  0  0  0
 14 15  1  6  0  0  0
 14 16  1  0  0  0  0
 14 19  1  0  0  0  0
 16 17  1  0  0  0  0
 16 48  1  0  0  0  0
 16 49  1  0  0  0  0
 17 18  1  6  0  0  0
 19 20  1  6  0  0  0
 19 21  1  0  0  0  0
 19 35  1  0  0  0  0
 21 22  2  0  0  0  0
 21 34  1  0  0  0  0
 22 23  1  0  0  0  0
 22 25  1  0  0  0  0
 23 24  2  0  0  0  0
 25 26  2  0  0  0  0
 25 27  1  0  0  0  0
 27 28  1  0  0  0  0
 27 50  1  0  0  0  0
 28 29  1  0  0  0  0
 28 51  1  0  0  0  0
 28 52  1  0  0  0  0
 29 33  1  0  0  0  0
 29 30  1  0  0  0  0
 29 71  1  0  0  0  0
 30 31  1  0  0  0  0
 30 53  1  0  0  0  0
 30 54  1  0  0  0  0
 31 32  1  0  0  0  0
 31 55  1  0  0  0  0
 31 56  1  0  0  0  0
 32 33  1  0  0  0  0
 32 57  1  0  0  0  0
 32 58  1  0  0  0  0
 33 59  1  0  0  0  0
 33 60  1  0  0  0  0
 35 36  1  0  0  0  0
 35 37  1  0  0  0  0
 36 61  1  0  0  0  0
 36 62  1  0  0  0  0
 36 63  1  0  0  0  0
 37 64  1  0  0  0  0
 37 65  1  0  0  0  0
 37 66  1  0  0  0  0
 38 67  1  0  0  0  0
 39 68  1  0  0  0  0
 40 69  1  0  0  0  0
 41 70  1  0  0  0  0
M  CHG  2  29   1  34  -1
M  END
$$$$
