ZINC04474603
 OpenBabel08292219463D

 51 50  0  0  0  0  0  0  0  0999 V2000
    2.3299    1.0201   -0.8333 C   0  0  0  0  0  0  0  0  0  0  0  0
    2.0803   -0.4696   -1.0769 C   0  0  0  0  0  0  0  0  0  0  0  0
    0.6976   -0.8320   -0.5996 C   0  0  0  0  0  0  0  0  0  0  0  0
   -0.1277   -1.4606   -1.3996 C   0  0  0  0  0  0  0  0  0  0  0  0
    0.3546   -1.9636   -2.7358 C   0  0  0  0  0  0  0  0  0  0  0  0
    0.0362   -3.4309   -2.8650 C   0  0  0  0  0  0  0  0  0  0  0  0
   -0.6077   -3.8712   -3.9174 C   0  0  0  0  0  0  0  0  0  0  0  0
   -0.8888   -2.9437   -5.0714 C   0  0  0  0  0  0  0  0  0  0  0  0
   -0.3802   -3.5620   -6.3482 C   0  0  0  0  0  0  0  0  0  0  0  0
   -1.1789   -3.6868   -7.3790 C   0  0  0  0  0  0  0  0  0  0  0  0
   -2.5492   -3.0603   -7.3507 C   0  0  0  0  0  0  0  0  0  0  0  0
   -2.7325   -2.1976   -8.5726 C   0  0  0  0  0  0  0  0  0  0  0  0
   -3.7708   -2.3768   -9.3511 C   0  0  0  0  0  0  0  0  0  0  0  0
   -4.8630   -3.3314   -8.9427 C   0  0  0  0  0  0  0  0  0  0  0  0
   -6.1957   -2.6319   -9.0183 C   0  0  0  0  0  0  0  0  0  0  0  0
   -7.1549   -3.1282   -9.7597 C   0  0  0  0  0  0  0  0  0  0  0  0
   -6.8743   -4.2924  -10.6747 C   0  0  0  0  0  0  0  0  0  0  0  0
   -7.7596   -5.4762  -10.2799 C   0  0  0  0  0  0  0  0  0  0  0  0
   -7.4748   -6.6581  -11.2088 C   0  0  0  0  0  0  0  0  0  0  0  0
   -8.3467   -7.8241  -10.8200 C   0  0  0  0  0  0  0  0  0  0  0  0
   -9.1240   -7.7194   -9.8865 O   0  0  0  0  0  0  0  0  0  0  0  0
   -8.2750   -8.8720  -11.4390 O   0  0  0  0  0  1  0  0  0  0  0  0
    3.3300    1.2822   -1.1785 H   0  0  0  0  0  0  0  0  0  0  0  0
    1.5915    1.6064   -1.3803 H   0  0  0  0  0  0  0  0  0  0  0  0
    2.2459    1.2330    0.2324 H   0  0  0  0  0  0  0  0  0  0  0  0
    2.1643   -0.6826   -2.1426 H   0  0  0  0  0  0  0  0  0  0  0  0
    2.8187   -1.0559   -0.5300 H   0  0  0  0  0  0  0  0  0  0  0  0
    0.3870   -0.5734    0.4019 H   0  0  0  0  0  0  0  0  0  0  0  0
   -1.1536   -1.6185   -1.1014 H   0  0  0  0  0  0  0  0  0  0  0  0
   -0.1438   -1.4121   -3.5330 H   0  0  0  0  0  0  0  0  0  0  0  0
    1.4321   -1.8175   -2.8117 H   0  0  0  0  0  0  0  0  0  0  0  0
    0.3390   -4.1194   -2.0899 H   0  0  0  0  0  0  0  0  0  0  0  0
   -0.9371   -4.8990   -3.9579 H   0  0  0  0  0  0  0  0  0  0  0  0
   -1.9632   -2.7779   -5.1508 H   0  0  0  0  0  0  0  0  0  0  0  0
   -0.3856   -1.9916   -4.9032 H   0  0  0  0  0  0  0  0  0  0  0  0
    0.6427   -3.9023   -6.4133 H   0  0  0  0  0  0  0  0  0  0  0  0
   -0.8554   -4.2387   -8.2491 H   0  0  0  0  0  0  0  0  0  0  0  0
   -3.3069   -3.8439   -7.3421 H   0  0  0  0  0  0  0  0  0  0  0  0
   -2.6502   -2.4476   -6.4549 H   0  0  0  0  0  0  0  0  0  0  0  0
   -2.0079   -1.4317   -8.8066 H   0  0  0  0  0  0  0  0  0  0  0  0
   -3.8440   -1.8403  -10.2856 H   0  0  0  0  0  0  0  0  0  0  0  0
   -4.8649   -4.1901   -9.6141 H   0  0  0  0  0  0  0  0  0  0  0  0
   -4.6873   -3.6690   -7.9214 H   0  0  0  0  0  0  0  0  0  0  0  0
   -6.3600   -1.7214   -8.4612 H   0  0  0  0  0  0  0  0  0  0  0  0
   -8.1467   -2.7031   -9.7153 H   0  0  0  0  0  0  0  0  0  0  0  0
   -7.0891   -4.0054  -11.7040 H   0  0  0  0  0  0  0  0  0  0  0  0
   -5.8260   -4.5780  -10.5882 H   0  0  0  0  0  0  0  0  0  0  0  0
   -7.5449   -5.7631   -9.2505 H   0  0  0  0  0  0  0  0  0  0  0  0
   -8.8080   -5.1906  -10.3663 H   0  0  0  0  0  0  0  0  0  0  0  0
   -7.6895   -6.3711  -12.2382 H   0  0  0  0  0  0  0  0  0  0  0  0
   -6.4264   -6.9436  -11.1224 H   0  0  0  0  0  0  0  0  0  0  0  0
  1  2  1  0  0  0  0
  1 23  1  0  0  0  0
  1 24  1  0  0  0  0
  1 25  1  0  0  0  0
  2  3  1  0  0  0  0
  2 26  1  0  0  0  0
  2 27  1  0  0  0  0
  3  4  2  0  0  0  0
  3 28  1  0  0  0  0
  4  5  1  0  0  0  0
  4 29  1  0  0  0  0
  5  6  1  0  0  0  0
  5 30  1  0  0  0  0
  5 31  1  0  0  0  0
  6  7  2  0  0  0  0
  6 32  1  0  0  0  0
  7  8  1  0  0  0  0
  7 33  1  0  0  0  0
  8  9  1  0  0  0  0
  8 34  1  0  0  0  0
  8 35  1  0  0  0  0
  9 10  2  0  0  0  0
  9 36  1  0  0  0  0
 10 11  1  0  0  0  0
 10 37  1  0  0  0  0
 11 12  1  0  0  0  0
 11 38  1  0  0  0  0
 11 39  1  0  0  0  0
 12 13  2  0  0  0  0
 12 40  1  0  0  0  0
 13 14  1  0  0  0  0
 13 41  1  0  0  0  0
 14 15  1  0  0  0  0
 14 42  1  0  0  0  0
 14 43  1  0  0  0  0
 15 16  2  0  0  0  0
 15 44  1  0  0  0  0
 16 17  1  0  0  0  0
 16 45  1  0  0  0  0
 17 18  1  0  0  0  0
 17 46  1  0  0  0  0
 17 47  1  0  0  0  0
 18 19  1  0  0  0  0
 18 48  1  0  0  0  0
 18 49  1  0  0  0  0
 19 20  1  0  0  0  0
 19 50  1  0  0  0  0
 19 51  1  0  0  0  0
 20 21  2  0  0  0  0
 20 22  1  0  0  0  0
M  END
$$$$
