ZINC28639340
 OpenBabel08292219463D

 93 99  0  0  1  0  0  0  0  0999 V2000
   -1.8235   -3.4668    2.7411 C   0  0  0  0  0  0  0  0  0  0  0  0
   -0.6473   -2.7209    2.1079 C   0  0  0  0  0  0  0  0  0  0  0  0
   -0.4862   -1.3568    2.7819 C   0  0  1  0  0  0  0  0  0  0  0  0
   -0.3855   -1.4931    3.8586 H   0  0  0  0  0  0  0  0  0  0  0  0
    0.7636   -0.6629    2.2365 C   0  0  2  0  0  0  0  0  0  0  0  0
    0.6629   -0.5266    1.1598 H   0  0  0  0  0  0  0  0  0  0  0  0
    1.9937   -1.5245    2.5287 C   0  0  0  0  0  0  0  0  0  0  0  0
    0.9140    0.6112    2.8660 O   0  0  0  0  0  0  0  0  0  0  0  0
   -1.6641   -0.5318    2.5021 N   0  0  0  0  0  0  0  0  0  0  0  0
   -2.5063   -0.0048    3.4153 C   0  0  0  0  0  0  0  0  0  0  0  0
   -2.4272   -0.1276    4.6246 O   0  0  0  0  0  0  0  0  0  0  0  0
   -3.4510    0.6831    2.7431 N   0  0  0  0  0  0  0  0  0  0  0  0
   -3.1866    0.5782    1.3979 C   0  0  0  0  0  0  0  0  0  0  0  0
   -2.1213   -0.1387    1.2368 N   0  0  0  0  0  0  0  0  0  0  0  0
   -4.5216    1.3856    3.3181 C   0  0  0  0  0  0  0  0  0  0  0  0
   -4.6708    1.4153    4.6980 C   0  0  0  0  0  0  0  0  0  0  0  0
   -5.7239    2.1057    5.2638 C   0  0  0  0  0  0  0  0  0  0  0  0
   -6.6340    2.7710    4.4524 C   0  0  0  0  0  0  0  0  0  0  0  0
   -6.4841    2.7414    3.0719 C   0  0  0  0  0  0  0  0  0  0  0  0
   -5.4277    2.0551    2.5070 C   0  0  0  0  0  0  0  0  0  0  0  0
   -7.7012    3.4701    5.0252 N   0  0  0  0  0  0  0  0  0  0  0  0
   -8.6010    4.2774    4.1896 C   0  0  0  0  0  0  0  0  0  0  0  0
  -10.0420    3.8088    4.4267 C   0  0  0  0  0  0  0  0  0  0  0  0
  -10.2840    3.7489    5.8751 N   0  0  0  0  0  0  0  0  0  0  0  0
   -9.3841    2.9417    6.7107 C   0  0  0  0  0  0  0  0  0  0  0  0
   -7.9465    3.4058    6.4728 C   0  0  0  0  0  0  0  0  0  0  0  0
  -11.3519    4.4485    6.4482 C   0  0  0  0  0  0  0  0  0  0  0  0
  -11.4955    4.4877    7.8289 C   0  0  0  0  0  0  0  0  0  0  0  0
  -12.5494    5.1788    8.3937 C   0  0  0  0  0  0  0  0  0  0  0  0
  -13.4643    5.8334    7.5824 C   0  0  0  0  0  0  0  0  0  0  0  0
  -13.3219    5.7943    6.2033 C   0  0  0  0  0  0  0  0  0  0  0  0
  -12.2653    5.1086    5.6370 C   0  0  0  0  0  0  0  0  0  0  0  0
  -14.5019    6.5137    8.1395 O   0  0  0  0  0  0  0  0  0  0  0  0
  -15.4061    7.1645    7.2446 C   0  0  0  0  0  0  0  0  0  0  0  0
  -16.4988    7.8718    8.0486 C   0  0  2  0  0  0  0  0  0  0  0  0
  -16.9927    7.1789    8.7298 H   0  0  0  0  0  0  0  0  0  0  0  0
  -17.5261    8.5621    7.1104 C   0  0  0  0  0  0  0  0  0  0  0  0
  -18.0339    9.7298    7.9832 C   0  0  2  0  0  0  0  0  0  0  0  0
  -17.0460    9.9792    8.9900 O   0  0  0  0  0  0  0  0  0  0  0  0
  -15.9284    9.0938    8.8116 C   0  0  0  0  0  0  0  0  0  0  0  0
  -19.3608    9.3469    8.6416 C   0  0  0  0  0  0  0  0  0  0  0  0
  -19.8949   10.4999    9.3707 N   0  0  0  0  0  0  0  0  0  0  0  0
  -21.1120   11.0519    9.2251 C   0  0  0  0  0  0  0  0  0  0  0  0
  -21.2032   12.0585   10.0558 N   0  0  0  0  0  0  0  0  0  0  0  0
  -20.0695   12.1797   10.7453 C   0  0  0  0  0  0  0  0  0  0  0  0
  -19.2394   11.2443   10.3650 N   0  0  0  0  0  0  0  0  0  0  0  0
  -18.2195   10.9603    7.1332 C   0  0  0  0  0  0  0  0  0  0  0  0
  -17.5040   12.1090    7.4150 C   0  0  0  0  0  0  0  0  0  0  0  0
  -17.6728   13.2379    6.6361 C   0  0  0  0  0  0  0  0  0  0  0  0
  -18.5595   13.2198    5.5725 C   0  0  0  0  0  0  0  0  0  0  0  0
  -19.2764   12.0703    5.2894 C   0  0  0  0  0  0  0  0  0  0  0  0
  -19.1023   10.9381    6.0669 C   0  0  0  0  0  0  0  0  0  0  0  0
  -19.7973    9.8136    5.7883 F   0  0  0  0  0  0  0  0  0  0  0  0
  -18.7250   14.3239    4.8117 F   0  0  0  0  0  0  0  0  0  0  0  0
   -1.9383   -4.4386    2.2610 H   0  0  0  0  0  0  0  0  0  0  0  0
   -1.6342   -3.6074    3.8053 H   0  0  0  0  0  0  0  0  0  0  0  0
   -2.7362   -2.8858    2.6081 H   0  0  0  0  0  0  0  0  0  0  0  0
    0.2653   -3.3018    2.2409 H   0  0  0  0  0  0  0  0  0  0  0  0
   -0.8367   -2.5803    1.0438 H   0  0  0  0  0  0  0  0  0  0  0  0
    1.8790   -2.4963    2.0485 H   0  0  0  0  0  0  0  0  0  0  0  0
    2.8841   -1.0301    2.1402 H   0  0  0  0  0  0  0  0  0  0  0  0
    2.0944   -1.6608    3.6054 H   0  0  0  0  0  0  0  0  0  0  0  0
    0.1692    1.2110    2.7227 H   0  0  0  0  0  0  0  0  0  0  0  0
   -3.7701    1.0240    0.6059 H   0  0  0  0  0  0  0  0  0  0  0  0
   -3.9631    0.8980    5.3288 H   0  0  0  0  0  0  0  0  0  0  0  0
   -5.8403    2.1283    6.3373 H   0  0  0  0  0  0  0  0  0  0  0  0
   -7.1917    3.2583    2.4406 H   0  0  0  0  0  0  0  0  0  0  0  0
   -5.3086    2.0357    1.4337 H   0  0  0  0  0  0  0  0  0  0  0  0
   -8.5087    5.3287    4.4623 H   0  0  0  0  0  0  0  0  0  0  0  0
   -8.3416    4.1453    3.1392 H   0  0  0  0  0  0  0  0  0  0  0  0
  -10.7360    4.5136    3.9687 H   0  0  0  0  0  0  0  0  0  0  0  0
  -10.1812    2.8193    3.9914 H   0  0  0  0  0  0  0  0  0  0  0  0
   -9.6436    3.0738    7.7611 H   0  0  0  0  0  0  0  0  0  0  0  0
   -9.4765    1.8904    6.4380 H   0  0  0  0  0  0  0  0  0  0  0  0
   -7.2549    2.6981    6.9300 H   0  0  0  0  0  0  0  0  0  0  0  0
   -7.8064    4.3935    6.9119 H   0  0  0  0  0  0  0  0  0  0  0  0
  -10.7834    3.9777    8.4607 H   0  0  0  0  0  0  0  0  0  0  0  0
  -12.6615    5.2091    9.4675 H   0  0  0  0  0  0  0  0  0  0  0  0
  -14.0350    6.3041    5.5723 H   0  0  0  0  0  0  0  0  0  0  0  0
  -12.1519    5.0822    4.5633 H   0  0  0  0  0  0  0  0  0  0  0  0
  -14.8624    7.8969    6.6478 H   0  0  0  0  0  0  0  0  0  0  0  0
  -15.8609    6.4247    6.5858 H   0  0  0  0  0  0  0  0  0  0  0  0
  -17.0391    8.9346    6.2092 H   0  0  0  0  0  0  0  0  0  0  0  0
  -18.3405    7.8823    6.8599 H   0  0  0  0  0  0  0  0  0  0  0  0
  -15.5316    8.7845    9.7786 H   0  0  0  0  0  0  0  0  0  0  0  0
  -15.1517    9.5797    8.2210 H   0  0  0  0  0  0  0  0  0  0  0  0
  -20.0721    9.0408    7.8745 H   0  0  0  0  0  0  0  0  0  0  0  0
  -19.1975    8.5222    9.3354 H   0  0  0  0  0  0  0  0  0  0  0  0
  -21.8802   10.7223    8.5413 H   0  0  0  0  0  0  0  0  0  0  0  0
  -19.8703   12.9269   11.4993 H   0  0  0  0  0  0  0  0  0  0  0  0
  -16.8128   12.1243    8.2447 H   0  0  0  0  0  0  0  0  0  0  0  0
  -17.1132   14.1348    6.8572 H   0  0  0  0  0  0  0  0  0  0  0  0
  -19.9681   12.0552    4.4601 H   0  0  0  0  0  0  0  0  0  0  0  0
  1  2  1  0  0  0  0
  1 55  1  0  0  0  0
  1 56  1  0  0  0  0
  1 57  1  0  0  0  0
  2  3  1  0  0  0  0
  2 58  1  0  0  0  0
  2 59  1  0  0  0  0
  3  4  1  1  0  0  0
  3  5  1  0  0  0  0
  3  9  1  0  0  0  0
  5  6  1  6  0  0  0
  5  7  1  0  0  0  0
  5  8  1  0  0  0  0
  7 60  1  0  0  0  0
  7 61  1  0  0  0  0
  7 62  1  0  0  0  0
  8 63  1  0  0  0  0
  9 14  1  0  0  0  0
  9 10  1  0  0  0  0
 10 11  2  0  0  0  0
 10 12  1  0  0  0  0
 12 13  1  0  0  0  0
 12 15  1  0  0  0  0
 13 14  2  0  0  0  0
 13 64  1  0  0  0  0
 15 20  2  0  0  0  0
 15 16  1  0  0  0  0
 16 17  2  0  0  0  0
 16 65  1  0  0  0  0
 17 18  1  0  0  0  0
 17 66  1  0  0  0  0
 18 19  2  0  0  0  0
 18 21  1  0  0  0  0
 19 20  1  0  0  0  0
 19 67  1  0  0  0  0
 20 68  1  0  0  0  0
 21 26  1  0  0  0  0
 21 22  1  0  0  0  0
 22 23  1  0  0  0  0
 22 69  1  0  0  0  0
 22 70  1  0  0  0  0
 23 24  1  0  0  0  0
 23 71  1  0  0  0  0
 23 72  1  0  0  0  0
 24 25  1  0  0  0  0
 24 27  1  0  0  0  0
 25 26  1  0  0  0  0
 25 73  1  0  0  0  0
 25 74  1  0  0  0  0
 26 75  1  0  0  0  0
 26 76  1  0  0  0  0
 27 32  2  0  0  0  0
 27 28  1  0  0  0  0
 28 29  2  0  0  0  0
 28 77  1  0  0  0  0
 29 30  1  0  0  0  0
 29 78  1  0  0  0  0
 30 31  2  0  0  0  0
 30 33  1  0  0  0  0
 31 32  1  0  0  0  0
 31 79  1  0  0  0  0
 32 80  1  0  0  0  0
 33 34  1  0  0  0  0
 34 35  1  0  0  0  0
 34 81  1  0  0  0  0
 34 82  1  0  0  0  0
 35 36  1  1  0  0  0
 35 40  1  0  0  0  0
 35 37  1  0  0  0  0
 37 38  1  0  0  0  0
 37 83  1  0  0  0  0
 37 84  1  0  0  0  0
 38 39  1  0  0  0  0
 38 41  1  1  0  0  0
 38 47  1  0  0  0  0
 39 40  1  0  0  0  0
 40 85  1  0  0  0  0
 40 86  1  0  0  0  0
 41 42  1  0  0  0  0
 41 87  1  0  0  0  0
 41 88  1  0  0  0  0
 42 46  1  0  0  0  0
 42 43  1  0  0  0  0
 43 44  2  0  0  0  0
 43 89  1  0  0  0  0
 44 45  1  0  0  0  0
 45 46  2  0  0  0  0
 45 90  1  0  0  0  0
 47 52  2  0  0  0  0
 47 48  1  0  0  0  0
 48 49  2  0  0  0  0
 48 91  1  0  0  0  0
 49 50  1  0  0  0  0
 49 92  1  0  0  0  0
 50 51  2  0  0  0  0
 50 54  1  0  0  0  0
 51 52  1  0  0  0  0
 51 93  1  0  0  0  0
 52 53  1  0  0  0  0
M  END
$$$$
