ZINC03830413
 OpenBabel08292219463D

 49 52  0  0  1  0  0  0  0  0999 V2000
    1.3933   -1.0707   -1.1292 C   0  0  0  0  0  0  0  0  0  0  0  0
    1.0539    0.3349   -0.8935 N   0  0  0  0  0  0  0  0  0  0  0  0
    1.9100    1.3665   -0.7032 C   0  0  0  0  0  0  0  0  0  0  0  0
    1.1805    2.4472   -0.5292 N   0  0  0  0  0  0  0  0  0  0  0  0
   -0.0697    2.1618   -0.5977 N   0  0  0  0  0  0  0  0  0  0  0  0
   -0.2303    0.9016   -0.8163 N   0  0  0  0  0  0  0  0  0  0  0  0
    3.6697    1.2782   -0.6914 S   0  0  0  0  0  0  0  0  0  0  0  0
    4.0697    3.0169   -0.3866 C   0  0  0  0  0  0  0  0  0  0  0  0
    5.5662    3.1865   -0.3346 C   0  0  0  0  0  0  0  0  0  0  0  0
    6.1742    3.3257   -1.5041 C   0  0  0  0  0  0  0  0  0  0  0  0
    7.5576    3.5460   -1.5583 N   0  0  0  0  0  0  0  0  0  0  0  0
    8.5560    3.2883   -0.4855 C   0  0  1  0  0  0  0  0  0  0  0  0
    8.8793    2.2507   -0.4021 H   0  0  0  0  0  0  0  0  0  0  0  0
    9.5293    4.2103   -1.1963 C   0  0  1  0  0  0  0  0  0  0  0  0
   10.4857    3.7498   -1.4442 H   0  0  0  0  0  0  0  0  0  0  0  0
    8.4956    4.1301   -2.2948 C   0  0  0  0  0  0  0  0  0  0  0  0
    8.5154    4.4808   -3.4557 O   0  0  0  0  0  0  0  0  0  0  0  0
    9.6618    5.5357   -0.5864 N   0  0  0  0  0  0  0  0  0  0  0  0
   10.7908    6.2498   -0.7648 C   0  0  0  0  0  0  0  0  0  0  0  0
   11.6618    5.8349   -1.5034 O   0  0  0  0  0  0  0  0  0  0  0  0
   10.9698    7.5412   -0.0603 C   0  0  0  0  0  0  0  0  0  0  0  0
   12.1010    8.1812   -0.1506 N   0  0  0  0  0  0  0  0  0  0  0  0
   13.1194    7.7012   -1.0094 O   0  0  0  0  0  0  0  0  0  0  0  0
   14.3042    8.5001   -1.0093 C   0  0  0  0  0  0  0  0  0  0  0  0
    9.8645    8.1033    0.7453 C   0  0  0  0  0  0  0  0  0  0  0  0
    9.9779    9.3480    1.3049 C   0  0  0  0  0  0  0  0  0  0  0  0
    8.3971    9.4891    2.1279 S   0  0  0  0  0  0  0  0  0  0  0  0
    7.7530    7.8900    1.6571 C   0  0  0  0  0  0  0  0  0  0  0  0
    8.7481    7.4029    0.9405 N   0  0  0  0  0  0  0  0  0  0  0  0
    6.5315    7.3140    1.9635 N   0  0  0  0  0  0  0  0  0  0  0  0
    7.8211    3.9520    1.0478 S   0  0  0  0  0  0  0  0  0  0  0  0
    6.1779    3.1705    1.0286 C   0  0  0  0  0  0  0  0  0  0  0  0
    5.3921    3.2540   -2.7515 C   0  0  0  0  0  0  0  0  0  0  0  0
    5.9192    3.5147   -3.8149 O   0  0  0  0  0  0  0  0  0  0  0  0
    1.4928   -1.2457   -2.2004 H   0  0  0  0  0  0  0  0  0  0  0  0
    2.3354   -1.3050   -0.6337 H   0  0  0  0  0  0  0  0  0  0  0  0
    0.6041   -1.7070   -0.7289 H   0  0  0  0  0  0  0  0  0  0  0  0
    3.6623    3.6298   -1.1907 H   0  0  0  0  0  0  0  0  0  0  0  0
    3.6354    3.3285    0.5633 H   0  0  0  0  0  0  0  0  0  0  0  0
    8.9369    5.8993   -0.0541 H   0  0  0  0  0  0  0  0  0  0  0  0
   14.7209    8.5320   -0.0026 H   0  0  0  0  0  0  0  0  0  0  0  0
   15.0351    8.0661   -1.6916 H   0  0  0  0  0  0  0  0  0  0  0  0
   14.0602    9.5118   -1.3337 H   0  0  0  0  0  0  0  0  0  0  0  0
   10.7963   10.0513    1.2600 H   0  0  0  0  0  0  0  0  0  0  0  0
    6.3171    6.4273    1.6337 H   0  0  0  0  0  0  0  0  0  0  0  0
    5.8904    7.7972    2.5078 H   0  0  0  0  0  0  0  0  0  0  0  0
    5.5232    3.7049    1.7171 H   0  0  0  0  0  0  0  0  0  0  0  0
    6.2729    2.1372    1.3623 H   0  0  0  0  0  0  0  0  0  0  0  0
    4.0924    2.8994   -2.7126 O   0  0  0  0  0  1  0  0  0  0  0  0
  1  2  1  0  0  0  0
  1 35  1  0  0  0  0
  1 36  1  0  0  0  0
  1 37  1  0  0  0  0
  2  6  1  0  0  0  0
  2  3  1  0  0  0  0
  3  4  2  0  0  0  0
  3  7  1  0  0  0  0
  4  5  1  0  0  0  0
  5  6  2  0  0  0  0
  7  8  1  0  0  0  0
  8  9  1  0  0  0  0
  8 38  1  0  0  0  0
  8 39  1  0  0  0  0
  9 32  1  0  0  0  0
  9 10  2  0  0  0  0
 10 11  1  0  0  0  0
 10 33  1  0  0  0  0
 11 16  1  0  0  0  0
 11 12  1  0  0  0  0
 12 13  1  1  0  0  0
 12 14  1  0  0  0  0
 12 31  1  0  0  0  0
 14 15  1  6  0  0  0
 14 16  1  0  0  0  0
 14 18  1  0  0  0  0
 16 17  2  0  0  0  0
 18 19  1  0  0  0  0
 18 40  1  0  0  0  0
 19 20  2  0  0  0  0
 19 21  1  0  0  0  0
 21 22  2  0  0  0  0
 21 25  1  0  0  0  0
 22 23  1  0  0  0  0
 23 24  1  0  0  0  0
 24 41  1  0  0  0  0
 24 42  1  0  0  0  0
 24 43  1  0  0  0  0
 25 29  1  0  0  0  0
 25 26  2  0  0  0  0
 26 27  1  0  0  0  0
 26 44  1  0  0  0  0
 27 28  1  0  0  0  0
 28 29  2  0  0  0  0
 28 30  1  0  0  0  0
 30 45  1  0  0  0  0
 30 46  1  0  0  0  0
 31 32  1  0  0  0  0
 32 47  1  0  0  0  0
 32 48  1  0  0  0  0
 33 34  2  0  0  0  0
 33 49  1  0  0  0  0
M  END
$$$$
