ZINC00389747
 OpenBabel08292219463D

 46 50  0  0  1  0  0  0  0  0999 V2000
   -0.2153    1.4141   -0.0745 C   0  0  0  0  0  0  0  0  0  0  0  0
   -0.0782    0.1114   -0.0902 C   0  0  0  0  0  0  0  0  0  0  0  0
   -1.2926   -0.7753    0.0102 C   0  0  0  0  0  0  0  0  0  0  0  0
   -1.3177   -1.7022   -1.1291 N   0  3  1  0  0  0  0  0  0  0  0  0
   -0.1699   -2.6098   -1.0369 C   0  0  0  0  0  0  0  0  0  0  0  0
   -0.1579   -3.5650   -2.2369 C   0  0  0  0  0  0  0  0  0  0  0  0
   -1.4766   -4.3355   -2.2476 C   0  0  2  0  0  0  0  0  0  0  0  0
   -1.6481   -5.0614   -0.9360 C   0  0  0  0  0  0  0  0  0  0  0  0
   -2.2077   -4.5563    0.2155 C   0  0  0  0  0  0  0  0  0  0  0  0
   -2.2401   -5.4171    1.2982 C   0  0  0  0  0  0  0  0  0  0  0  0
   -1.7820   -6.7182    1.1690 C   0  0  0  0  0  0  0  0  0  0  0  0
   -1.2916   -7.2400   -0.0258 C   0  0  0  0  0  0  0  0  0  0  0  0
   -1.2444   -6.3749   -1.1253 C   0  0  0  0  0  0  0  0  0  0  0  0
   -0.8978   -6.5770   -2.4147 O   0  0  0  0  0  0  0  0  0  0  0  0
   -1.4528   -5.4998   -3.2278 C   0  0  1  0  0  0  0  0  0  0  0  0
   -0.8189   -5.2819   -4.0873 H   0  0  0  0  0  0  0  0  0  0  0  0
   -2.8321   -5.9204   -3.6420 C   0  0  0  0  0  0  0  0  0  0  0  0
   -2.9993   -7.0571   -4.0139 O   0  0  0  0  0  0  0  0  0  0  0  0
   -4.0126   -4.9969   -3.6157 C   0  0  0  0  0  0  0  0  0  0  0  0
   -3.9662   -4.1258   -2.3586 C   0  0  0  0  0  0  0  0  0  0  0  0
   -2.6424   -3.3641   -2.3407 C   0  0  1  0  0  0  0  0  0  0  0  0
   -2.5801   -2.4492   -1.1149 C   0  0  1  0  0  0  0  0  0  0  0  0
   -3.3918   -1.7267   -1.1991 H   0  0  0  0  0  0  0  0  0  0  0  0
   -2.7615   -3.1683    0.2110 C   0  0  0  0  0  0  0  0  0  0  0  0
   -2.5223   -2.5856   -3.5330 O   0  0  0  0  0  0  0  0  0  0  0  0
   -0.8769   -8.5317   -0.1197 O   0  0  0  0  0  0  0  0  0  0  0  0
    0.6551    2.0496   -0.1465 H   0  0  0  0  0  0  0  0  0  0  0  0
   -1.1989    1.8527    0.0058 H   0  0  0  0  0  0  0  0  0  0  0  0
    0.9051   -0.3271   -0.1750 H   0  0  0  0  0  0  0  0  0  0  0  0
   -1.2521   -1.3431    0.9398 H   0  0  0  0  0  0  0  0  0  0  0  0
   -2.1930   -0.1610   -0.0013 H   0  0  0  0  0  0  0  0  0  0  0  0
    0.7517   -2.0277   -1.0288 H   0  0  0  0  0  0  0  0  0  0  0  0
   -0.2388   -3.1877   -0.1153 H   0  0  0  0  0  0  0  0  0  0  0  0
   -0.0581   -2.9942   -3.1601 H   0  0  0  0  0  0  0  0  0  0  0  0
    0.6746   -4.2623   -2.1434 H   0  0  0  0  0  0  0  0  0  0  0  0
   -2.6236   -5.0734    2.2475 H   0  0  0  0  0  0  0  0  0  0  0  0
   -1.8059   -7.3595    2.0377 H   0  0  0  0  0  0  0  0  0  0  0  0
   -3.9926   -4.3588   -4.4992 H   0  0  0  0  0  0  0  0  0  0  0  0
   -4.9312   -5.5837   -3.6157 H   0  0  0  0  0  0  0  0  0  0  0  0
   -4.7952   -3.4182   -2.3732 H   0  0  0  0  0  0  0  0  0  0  0  0
   -4.0368   -4.7574   -1.4731 H   0  0  0  0  0  0  0  0  0  0  0  0
   -3.8263   -3.2164    0.4393 H   0  0  0  0  0  0  0  0  0  0  0  0
   -2.2654   -2.5918    0.9917 H   0  0  0  0  0  0  0  0  0  0  0  0
   -3.2345   -1.9433   -3.6567 H   0  0  0  0  0  0  0  0  0  0  0  0
   -1.5743   -9.1511   -0.3750 H   0  0  0  0  0  0  0  0  0  0  0  0
   -1.2543   -1.1748   -1.9869 H   0  0  0  0  0  0  0  0  0  0  0  0
  1  2  2  0  0  0  0
  1 27  1  0  0  0  0
  1 28  1  0  0  0  0
  2  3  1  0  0  0  0
  2 29  1  0  0  0  0
  3  4  1  0  0  0  0
  3 30  1  0  0  0  0
  3 31  1  0  0  0  0
  4 22  1  0  0  0  0
  4  5  1  0  0  0  0
  4 46  1  6  0  0  0
  5  6  1  0  0  0  0
  5 32  1  0  0  0  0
  5 33  1  0  0  0  0
  6  7  1  0  0  0  0
  6 34  1  0  0  0  0
  6 35  1  0  0  0  0
  7 15  1  0  0  0  0
  7 21  1  0  0  0  0
  7  8  1  1  0  0  0
  8 13  2  0  0  0  0
  8  9  1  0  0  0  0
  9 24  1  0  0  0  0
  9 10  2  0  0  0  0
 10 11  1  0  0  0  0
 10 36  1  0  0  0  0
 11 12  2  0  0  0  0
 11 37  1  0  0  0  0
 12 13  1  0  0  0  0
 12 26  1  0  0  0  0
 13 14  1  0  0  0  0
 14 15  1  0  0  0  0
 15 16  1  6  0  0  0
 15 17  1  0  0  0  0
 17 18  2  0  0  0  0
 17 19  1  0  0  0  0
 19 20  1  0  0  0  0
 19 38  1  0  0  0  0
 19 39  1  0  0  0  0
 20 21  1  0  0  0  0
 20 40  1  0  0  0  0
 20 41  1  0  0  0  0
 21 22  1  0  0  0  0
 21 25  1  6  0  0  0
 22 23  1  6  0  0  0
 22 24  1  0  0  0  0
 24 42  1  0  0  0  0
 24 43  1  0  0  0  0
 25 44  1  0  0  0  0
 26 45  1  0  0  0  0
M  CHG  1   4   1
M  END
$$$$
