ZINC03823492
 OpenBabel08292219463D

 36 38  0  0  1  0  0  0  0  0999 V2000
   -1.0417    5.6476    0.0387 C   0  0  0  0  0  0  0  0  0  0  0  0
   -2.3240    5.0168    0.0411 O   0  0  0  0  0  0  0  0  0  0  0  0
   -2.3430    3.6623    0.0333 C   0  0  0  0  0  0  0  0  0  0  0  0
   -3.5598    2.9628    0.0350 C   0  0  0  0  0  0  0  0  0  0  0  0
   -3.5211    1.5580    0.0272 C   0  0  0  0  0  0  0  0  0  0  0  0
   -2.3431    0.9430    0.0183 N   0  0  0  0  0  0  0  0  0  0  0  0
   -1.2200    1.6421    0.0168 C   0  0  0  0  0  0  0  0  0  0  0  0
   -1.2120    2.9693    0.0294 N   0  0  0  0  0  0  0  0  0  0  0  0
   -0.0111    0.9658    0.0074 N   0  0  0  0  0  0  0  0  0  0  0  0
   -4.8288    1.1433    0.0304 N   0  0  0  0  0  0  0  0  0  0  0  0
   -5.6121    2.2602    0.0398 C   0  0  0  0  0  0  0  0  0  0  0  0
   -4.8663    3.3261    0.0425 N   0  0  0  0  0  0  0  0  0  0  0  0
   -5.2981   -0.2445    0.0253 C   0  0  1  0  0  0  0  0  0  0  0  0
   -4.6601   -0.8618   -0.6072 H   0  0  0  0  0  0  0  0  0  0  0  0
   -5.3472   -0.8094    1.4678 C   0  0  2  0  0  0  0  0  0  0  0  0
   -4.3792   -1.2171    1.7591 H   0  0  0  0  0  0  0  0  0  0  0  0
   -6.4042   -1.9333    1.3401 C   0  0  1  0  0  0  0  0  0  0  0  0
   -7.0543   -1.9469    2.2149 H   0  0  0  0  0  0  0  0  0  0  0  0
   -7.2053   -1.5569    0.0786 C   0  0  2  0  0  0  0  0  0  0  0  0
   -7.0913   -2.3330   -0.6781 H   0  0  0  0  0  0  0  0  0  0  0  0
   -6.6726   -0.3148   -0.4110 O   0  0  0  0  0  0  0  0  0  0  0  0
   -8.6843   -1.3888    0.4325 C   0  0  0  0  0  0  0  0  0  0  0  0
   -9.4358   -1.1549   -0.7602 O   0  0  0  0  0  0  0  0  0  0  0  0
   -5.7678   -3.2013    1.1686 O   0  0  0  0  0  0  0  0  0  0  0  0
   -5.7756    0.1917    2.3932 O   0  0  0  0  0  0  0  0  0  0  0  0
   -0.4931    5.3521   -0.8556 H   0  0  0  0  0  0  0  0  0  0  0  0
   -1.1694    6.7301    0.0456 H   0  0  0  0  0  0  0  0  0  0  0  0
   -0.4847    5.3418    0.9243 H   0  0  0  0  0  0  0  0  0  0  0  0
    0.0021   -0.0041    0.0020 H   0  0  0  0  0  0  0  0  0  0  0  0
    0.8223    1.4622    0.0021 H   0  0  0  0  0  0  0  0  0  0  0  0
   -6.6921    2.2596    0.0443 H   0  0  0  0  0  0  0  0  0  0  0  0
   -9.0468   -2.2945    0.9187 H   0  0  0  0  0  0  0  0  0  0  0  0
   -8.8022   -0.5416    1.1082 H   0  0  0  0  0  0  0  0  0  0  0  0
  -10.3842   -1.0387   -0.6111 H   0  0  0  0  0  0  0  0  0  0  0  0
   -6.3835   -3.9420    1.0832 H   0  0  0  0  0  0  0  0  0  0  0  0
   -5.8223   -0.1139    3.3094 H   0  0  0  0  0  0  0  0  0  0  0  0
  1  2  1  0  0  0  0
  1 26  1  0  0  0  0
  1 27  1  0  0  0  0
  1 28  1  0  0  0  0
  2  3  1  0  0  0  0
  3  8  2  0  0  0  0
  3  4  1  0  0  0  0
  4 12  1  0  0  0  0
  4  5  2  0  0  0  0
  5  6  1  0  0  0  0
  5 10  1  0  0  0  0
  6  7  2  0  0  0  0
  7  8  1  0  0  0  0
  7  9  1  0  0  0  0
  9 29  1  0  0  0  0
  9 30  1  0  0  0  0
 10 11  1  0  0  0  0
 10 13  1  0  0  0  0
 11 12  2  0  0  0  0
 11 31  1  0  0  0  0
 13 14  1  6  0  0  0
 13 21  1  0  0  0  0
 13 15  1  0  0  0  0
 15 16  1  1  0  0  0
 15 17  1  0  0  0  0
 15 25  1  0  0  0  0
 17 18  1  1  0  0  0
 17 19  1  0  0  0  0
 17 24  1  0  0  0  0
 19 20  1  6  0  0  0
 19 21  1  0  0  0  0
 19 22  1  0  0  0  0
 22 23  1  0  0  0  0
 22 32  1  0  0  0  0
 22 33  1  0  0  0  0
 23 34  1  0  0  0  0
 24 35  1  0  0  0  0
 25 36  1  0  0  0  0
M  END
$$$$
