ZINC00968337
 OpenBabel08292219463D

 45 48  0  0  1  0  0  0  0  0999 V2000
   -2.7406   -0.8686    0.3865 C   0  0  0  0  0  0  0  0  0  0  0  0
   -1.3089   -1.1276    0.1833 N   0  3  1  0  0  0  0  0  0  0  0  0
   -0.7488   -1.7396    1.3940 C   0  0  0  0  0  0  0  0  0  0  0  0
    0.7734   -1.8524    1.2523 C   0  0  0  0  0  0  0  0  0  0  0  0
    1.0748   -2.6020   -0.0289 C   0  0  0  0  0  0  0  0  0  0  0  0
    1.9442   -3.6196   -0.0481 C   0  0  0  0  0  0  0  0  0  0  0  0
    2.5167   -4.1090    1.2265 C   0  0  0  0  0  0  0  0  0  0  0  0
    3.2971   -3.2859    2.0335 C   0  0  0  0  0  0  0  0  0  0  0  0
    3.8003   -3.7916    3.2180 C   0  0  0  0  0  0  0  0  0  0  0  0
    3.5245   -5.0968    3.5847 C   0  0  0  0  0  0  0  0  0  0  0  0
    2.7500   -5.9083    2.7749 C   0  0  0  0  0  0  0  0  0  0  0  0
    2.2469   -5.4071    1.5850 C   0  0  0  0  0  0  0  0  0  0  0  0
    1.4239   -6.2813    0.6904 C   0  0  0  0  0  0  0  0  0  0  0  0
    2.1490   -6.7026   -0.5594 C   0  0  0  0  0  0  0  0  0  0  0  0
    2.4234   -5.5940   -1.5412 C   0  0  0  0  0  0  0  0  0  0  0  0
    2.3093   -4.2367   -1.3419 C   0  0  0  0  0  0  0  0  0  0  0  0
    2.5453   -3.3848   -2.3476 N   0  0  0  0  0  0  0  0  0  0  0  0
    2.9126   -3.7815   -3.5430 C   0  0  0  0  0  0  0  0  0  0  0  0
    3.0726   -5.1296   -3.8065 C   0  0  0  0  0  0  0  0  0  0  0  0
    2.8324   -6.0362   -2.8063 C   0  0  0  0  0  0  0  0  0  0  0  0
    0.3573   -2.1598   -1.2874 C   0  0  0  0  0  0  0  0  0  0  0  0
   -1.1353   -2.0252   -0.9650 C   0  0  0  0  0  0  0  0  0  0  0  0
   -3.2564   -1.8095    0.5782 H   0  0  0  0  0  0  0  0  0  0  0  0
   -2.8718   -0.2021    1.2389 H   0  0  0  0  0  0  0  0  0  0  0  0
   -3.1558   -0.4021   -0.5068 H   0  0  0  0  0  0  0  0  0  0  0  0
   -0.9883   -1.1202    2.2583 H   0  0  0  0  0  0  0  0  0  0  0  0
   -1.1756   -2.7333    1.5296 H   0  0  0  0  0  0  0  0  0  0  0  0
    1.2135   -0.8561    1.2077 H   0  0  0  0  0  0  0  0  0  0  0  0
    1.1825   -2.3980    2.1027 H   0  0  0  0  0  0  0  0  0  0  0  0
    3.5066   -2.2683    1.7388 H   0  0  0  0  0  0  0  0  0  0  0  0
    4.4086   -3.1681    3.8564 H   0  0  0  0  0  0  0  0  0  0  0  0
    3.9179   -5.4862    4.5121 H   0  0  0  0  0  0  0  0  0  0  0  0
    2.5392   -6.9261    3.0681 H   0  0  0  0  0  0  0  0  0  0  0  0
    1.1335   -7.1741    1.2443 H   0  0  0  0  0  0  0  0  0  0  0  0
    0.5215   -5.7402    0.4059 H   0  0  0  0  0  0  0  0  0  0  0  0
    3.1005   -7.1490   -0.2706 H   0  0  0  0  0  0  0  0  0  0  0  0
    1.5543   -7.4661   -1.0608 H   0  0  0  0  0  0  0  0  0  0  0  0
    3.0899   -3.0547   -4.3220 H   0  0  0  0  0  0  0  0  0  0  0  0
    3.3878   -5.4627   -4.7843 H   0  0  0  0  0  0  0  0  0  0  0  0
    2.9501   -7.0925   -2.9982 H   0  0  0  0  0  0  0  0  0  0  0  0
    0.7507   -1.1980   -1.6164 H   0  0  0  0  0  0  0  0  0  0  0  0
    0.4985   -2.9034   -2.0718 H   0  0  0  0  0  0  0  0  0  0  0  0
   -1.5450   -3.0062   -0.7244 H   0  0  0  0  0  0  0  0  0  0  0  0
   -1.6581   -1.6150   -1.8290 H   0  0  0  0  0  0  0  0  0  0  0  0
   -0.8341   -0.2561    0.0012 H   0  0  0  0  0  0  0  0  0  0  0  0
  1  2  1  0  0  0  0
  1 23  1  0  0  0  0
  1 24  1  0  0  0  0
  1 25  1  0  0  0  0
  2 22  1  0  0  0  0
  2  3  1  0  0  0  0
  2 45  1  6  0  0  0
  3  4  1  0  0  0  0
  3 26  1  0  0  0  0
  3 27  1  0  0  0  0
  4  5  1  0  0  0  0
  4 28  1  0  0  0  0
  4 29  1  0  0  0  0
  5  6  2  0  0  0  0
  5 21  1  0  0  0  0
  6 16  1  0  0  0  0
  6  7  1  0  0  0  0
  7 12  2  0  0  0  0
  7  8  1  0  0  0  0
  8  9  2  0  0  0  0
  8 30  1  0  0  0  0
  9 10  1  0  0  0  0
  9 31  1  0  0  0  0
 10 11  2  0  0  0  0
 10 32  1  0  0  0  0
 11 12  1  0  0  0  0
 11 33  1  0  0  0  0
 12 13  1  0  0  0  0
 13 14  1  0  0  0  0
 13 34  1  0  0  0  0
 13 35  1  0  0  0  0
 14 15  1  0  0  0  0
 14 36  1  0  0  0  0
 14 37  1  0  0  0  0
 15 20  2  0  0  0  0
 15 16  1  0  0  0  0
 16 17  2  0  0  0  0
 17 18  1  0  0  0  0
 18 19  2  0  0  0  0
 18 38  1  0  0  0  0
 19 20  1  0  0  0  0
 19 39  1  0  0  0  0
 20 40  1  0  0  0  0
 21 22  1  0  0  0  0
 21 41  1  0  0  0  0
 21 42  1  0  0  0  0
 22 43  1  0  0  0  0
 22 44  1  0  0  0  0
M  CHG  1   2   1
M  END
$$$$
