ZINC00000267
 OpenBabel08292219463D

 18 17  0  0  1  0  0  0  0  0999 V2000
   -0.0187    1.5258    0.0104 C   0  0  0  0  0  0  0  0  0  0  0  0
    0.0021   -0.0041    0.0020 C   0  0  0  0  0  0  0  0  0  0  0  0
    0.7421   -0.5109    1.2415 C   0  0  2  0  0  0  0  0  0  0  0  0
    2.1149    0.1084    1.2952 C   0  0  0  0  0  0  0  0  0  0  0  0
    2.4611    0.8478    2.3217 C   0  0  0  0  0  0  0  0  0  0  0  0
    4.0425    1.5612    2.3836 Cl  0  0  0  0  0  0  0  0  0  0  0  0
    0.8670   -1.9760    1.1735 C   0  0  0  0  0  0  0  0  0  0  0  0
    0.9667   -3.1445    1.1193 C   0  0  0  0  0  0  0  0  0  0  0  0
    0.0101   -0.1492    2.4144 O   0  0  0  0  0  0  0  0  0  0  0  0
    1.0039    1.9031    0.0027 H   0  0  0  0  0  0  0  0  0  0  0  0
   -0.5459    1.8868   -0.8726 H   0  0  0  0  0  0  0  0  0  0  0  0
   -0.5289    1.8773    0.9072 H   0  0  0  0  0  0  0  0  0  0  0  0
   -1.0205   -0.3814    0.0098 H   0  0  0  0  0  0  0  0  0  0  0  0
    0.5123   -0.3556   -0.8948 H   0  0  0  0  0  0  0  0  0  0  0  0
    2.8137   -0.0567    0.4885 H   0  0  0  0  0  0  0  0  0  0  0  0
    1.7623    1.0129    3.1284 H   0  0  0  0  0  0  0  0  0  0  0  0
    1.0558   -4.1896    1.0708 H   0  0  0  0  0  0  0  0  0  0  0  0
    0.4218   -0.4391    3.2399 H   0  0  0  0  0  0  0  0  0  0  0  0
  1  2  1  0  0  0  0
  1 10  1  0  0  0  0
  1 11  1  0  0  0  0
  1 12  1  0  0  0  0
  2  3  1  0  0  0  0
  2 13  1  0  0  0  0
  2 14  1  0  0  0  0
  3  4  1  0  0  0  0
  3  7  1  6  0  0  0
  3  9  1  0  0  0  0
  4  5  2  0  0  0  0
  4 15  1  0  0  0  0
  5  6  1  0  0  0  0
  5 16  1  0  0  0  0
  7  8  3  0  0  0  0
  8 17  1  0  0  0  0
  9 18  1  0  0  0  0
M  END
$$$$
