ZINC03938681
 OpenBabel08292219463D

105110  0  0  1  0  0  0  0  0999 V2000
    7.9724    0.5729   -5.4253 C   0  0  0  0  0  0  0  0  0  0  0  0
    7.8792    1.7841   -4.5335 C   0  0  0  0  0  0  0  0  0  0  0  0
    8.5274    2.7718   -4.7863 O   0  0  0  0  0  0  0  0  0  0  0  0
    7.0759    1.7655   -3.4582 O   0  0  0  0  0  0  0  0  0  0  0  0
    7.0360    2.9674   -2.6444 C   0  0  1  0  0  0  0  0  0  0  0  0
    7.9982    3.4764   -2.7004 H   0  0  0  0  0  0  0  0  0  0  0  0
    5.9361    3.8971   -3.1608 C   0  0  0  0  0  0  0  0  0  0  0  0
    4.5858    3.1824   -3.0830 C   0  0  2  0  0  0  0  0  0  0  0  0
    4.6187    2.2803   -3.6940 H   0  0  0  0  0  0  0  0  0  0  0  0
    3.4859    4.1099   -3.6031 C   0  0  0  0  0  0  0  0  0  0  0  0
    2.1358    3.3939   -3.5261 C   0  0  0  0  0  0  0  0  0  0  0  0
    1.8493    3.0352   -2.0664 C   0  0  2  0  0  0  0  0  0  0  0  0
    1.8284    3.9352   -1.4519 H   0  0  0  0  0  0  0  0  0  0  0  0
    2.9434    2.0841   -1.5573 C   0  0  1  0  0  0  0  0  0  0  0  0
    2.9770    1.2075   -2.2043 H   0  0  0  0  0  0  0  0  0  0  0  0
    4.2908    2.8032   -1.6301 C   0  0  1  0  0  0  0  0  0  0  0  0
    5.3918    1.8754   -1.1121 C   0  0  0  0  0  0  0  0  0  0  0  0
    6.7419    2.5903   -1.1909 C   0  0  2  0  0  0  0  0  0  0  0  0
    7.5255    1.9286   -0.8216 H   0  0  0  0  0  0  0  0  0  0  0  0
    6.7005    3.8067   -0.3684 N   0  0  0  0  0  0  0  0  0  0  0  0
    7.8657    4.6622   -0.6342 C   0  0  0  0  0  0  0  0  0  0  0  0
    7.7545    5.9428    0.1961 C   0  0  0  0  0  0  0  0  0  0  0  0
    7.6939    5.5980    1.6226 N   0  3  0  0  0  0  0  0  0  0  0  0
    6.5117    4.7641    1.8767 C   0  0  0  0  0  0  0  0  0  0  0  0
    6.6126    3.4736    1.0604 C   0  0  0  0  0  0  0  0  0  0  0  0
    7.6053    6.8285    2.4201 C   0  0  0  0  0  0  0  0  0  0  0  0
    8.9054    4.8573    1.9986 C   0  0  0  0  0  0  0  0  0  0  0  0
    4.2412    4.0690   -0.7721 C   0  0  0  0  0  0  0  0  0  0  0  0
    2.6700    1.6307   -0.1272 C   0  0  0  0  0  0  0  0  0  0  0  0
    1.2818    0.9806   -0.0022 C   0  0  0  0  0  0  0  0  0  0  0  0
    0.2617    1.9983   -0.4734 C   0  0  1  0  0  0  0  0  0  0  0  0
    0.5292    2.2608   -1.9803 C   0  0  1  0  0  0  0  0  0  0  0  0
    0.5976    1.3191   -2.5248 H   0  0  0  0  0  0  0  0  0  0  0  0
   -0.7263    3.0399   -2.3866 C   0  0  0  0  0  0  0  0  0  0  0  0
   -1.8620    2.2766   -1.6517 C   0  0  1  0  0  0  0  0  0  0  0  0
   -2.3138    1.5437   -2.3202 H   0  0  0  0  0  0  0  0  0  0  0  0
   -1.1994    1.5610   -0.4480 C   0  0  2  0  0  0  0  0  0  0  0  0
   -1.2721    0.4797   -0.5648 H   0  0  0  0  0  0  0  0  0  0  0  0
   -1.8271    1.9756    0.7939 O   0  0  0  0  0  0  0  0  0  0  0  0
   -2.8759    1.2528    1.2175 C   0  0  0  0  0  0  0  0  0  0  0  0
   -3.1999    0.2523    0.6226 O   0  0  0  0  0  0  0  0  0  0  0  0
   -3.6492    1.6893    2.4351 C   0  0  0  0  0  0  0  0  0  0  0  0
   -2.8806    3.2228   -1.1774 N   0  0  0  0  0  0  0  0  0  0  0  0
   -3.6987    3.7191   -2.2930 C   0  0  0  0  0  0  0  0  0  0  0  0
   -4.7828    4.6531   -1.7507 C   0  0  0  0  0  0  0  0  0  0  0  0
   -4.1530    5.7769   -1.0450 N   0  3  0  0  0  0  0  0  0  0  0  0
   -3.3594    5.2672    0.0811 C   0  0  0  0  0  0  0  0  0  0  0  0
   -2.2635    4.3383   -0.4460 C   0  0  0  0  0  0  0  0  0  0  0  0
   -5.1935    6.6826   -0.5401 C   0  0  0  0  0  0  0  0  0  0  0  0
   -3.2764    6.5066   -1.9708 C   0  0  0  0  0  0  0  0  0  0  0  0
    0.4262    3.2989    0.3154 C   0  0  0  0  0  0  0  0  0  0  0  0
    7.3215   -0.2124   -5.0409 H   0  0  0  0  0  0  0  0  0  0  0  0
    7.6615    0.8405   -6.4352 H   0  0  0  0  0  0  0  0  0  0  0  0
    9.0016    0.2145   -5.4450 H   0  0  0  0  0  0  0  0  0  0  0  0
    6.1450    4.1672   -4.1960 H   0  0  0  0  0  0  0  0  0  0  0  0
    5.9056    4.7987   -2.5492 H   0  0  0  0  0  0  0  0  0  0  0  0
    3.4536    5.0127   -2.9932 H   0  0  0  0  0  0  0  0  0  0  0  0
    3.6963    4.3781   -4.6384 H   0  0  0  0  0  0  0  0  0  0  0  0
    1.3526    4.0541   -3.8985 H   0  0  0  0  0  0  0  0  0  0  0  0
    2.1687    2.4899   -4.1343 H   0  0  0  0  0  0  0  0  0  0  0  0
    5.1830    1.6068   -0.0765 H   0  0  0  0  0  0  0  0  0  0  0  0
    5.4228    0.9726   -1.7221 H   0  0  0  0  0  0  0  0  0  0  0  0
    8.7772    4.1302   -0.3618 H   0  0  0  0  0  0  0  0  0  0  0  0
    7.8957    4.9170   -1.6936 H   0  0  0  0  0  0  0  0  0  0  0  0
    6.8499    6.4815   -0.0863 H   0  0  0  0  0  0  0  0  0  0  0  0
    8.6248    6.5724    0.0111 H   0  0  0  0  0  0  0  0  0  0  0  0
    5.6135    5.3087    1.5858 H   0  0  0  0  0  0  0  0  0  0  0  0
    6.4608    4.5197    2.9377 H   0  0  0  0  0  0  0  0  0  0  0  0
    5.7284    2.8613    1.2374 H   0  0  0  0  0  0  0  0  0  0  0  0
    7.5033    2.9216    1.3606 H   0  0  0  0  0  0  0  0  0  0  0  0
    7.5616    6.5729    3.4788 H   0  0  0  0  0  0  0  0  0  0  0  0
    8.4825    7.4475    2.2317 H   0  0  0  0  0  0  0  0  0  0  0  0
    6.7061    7.3781    2.1416 H   0  0  0  0  0  0  0  0  0  0  0  0
    8.9710    3.9439    1.4073 H   0  0  0  0  0  0  0  0  0  0  0  0
    9.7828    5.4760    1.8101 H   0  0  0  0  0  0  0  0  0  0  0  0
    8.8614    4.6022    3.0574 H   0  0  0  0  0  0  0  0  0  0  0  0
    4.2334    3.7930    0.2824 H   0  0  0  0  0  0  0  0  0  0  0  0
    5.1169    4.6837   -0.9803 H   0  0  0  0  0  0  0  0  0  0  0  0
    3.3379    4.6320   -1.0070 H   0  0  0  0  0  0  0  0  0  0  0  0
    2.7209    2.4937    0.5366 H   0  0  0  0  0  0  0  0  0  0  0  0
    3.4304    0.9079    0.1685 H   0  0  0  0  0  0  0  0  0  0  0  0
    1.0886    0.7162    1.0374 H   0  0  0  0  0  0  0  0  0  0  0  0
    1.2322    0.0893   -0.6277 H   0  0  0  0  0  0  0  0  0  0  0  0
   -0.6686    4.0720   -2.0407 H   0  0  0  0  0  0  0  0  0  0  0  0
   -0.8698    3.0040   -3.4665 H   0  0  0  0  0  0  0  0  0  0  0  0
   -4.4604    2.3514    2.1322 H   0  0  0  0  0  0  0  0  0  0  0  0
   -4.0626    0.8139    2.9360 H   0  0  0  0  0  0  0  0  0  0  0  0
   -2.9841    2.2182    3.1177 H   0  0  0  0  0  0  0  0  0  0  0  0
   -3.0661    4.2643   -2.9935 H   0  0  0  0  0  0  0  0  0  0  0  0
   -4.1661    2.8773   -2.8038 H   0  0  0  0  0  0  0  0  0  0  0  0
   -5.4235    4.1040   -1.0606 H   0  0  0  0  0  0  0  0  0  0  0  0
   -5.3818    5.0335   -2.5781 H   0  0  0  0  0  0  0  0  0  0  0  0
   -4.0074    4.7150    0.7617 H   0  0  0  0  0  0  0  0  0  0  0  0
   -2.9032    6.1029    0.6117 H   0  0  0  0  0  0  0  0  0  0  0  0
   -1.6838    3.9483    0.3906 H   0  0  0  0  0  0  0  0  0  0  0  0
   -1.6069    4.8935   -1.1160 H   0  0  0  0  0  0  0  0  0  0  0  0
   -4.7262    7.5173   -0.0176 H   0  0  0  0  0  0  0  0  0  0  0  0
   -5.7825    7.0609   -1.3756 H   0  0  0  0  0  0  0  0  0  0  0  0
   -5.8437    6.1417    0.1474 H   0  0  0  0  0  0  0  0  0  0  0  0
   -2.5038    5.8350   -2.3452 H   0  0  0  0  0  0  0  0  0  0  0  0
   -3.8651    6.8849   -2.8065 H   0  0  0  0  0  0  0  0  0  0  0  0
   -2.8099    7.3413   -1.4477 H   0  0  0  0  0  0  0  0  0  0  0  0
   -0.0150    3.1817    1.3053 H   0  0  0  0  0  0  0  0  0  0  0  0
    1.4863    3.5316    0.4154 H   0  0  0  0  0  0  0  0  0  0  0  0
   -0.0756    4.1099   -0.2123 H   0  0  0  0  0  0  0  0  0  0  0  0
  1  2  1  0  0  0  0
  1 52  1  0  0  0  0
  1 53  1  0  0  0  0
  1 54  1  0  0  0  0
  2  3  2  0  0  0  0
  2  4  1  0  0  0  0
  4  5  1  0  0  0  0
  5  6  1  6  0  0  0
  5 18  1  0  0  0  0
  5  7  1  0  0  0  0
  7  8  1  0  0  0  0
  7 55  1  0  0  0  0
  7 56  1  0  0  0  0
  8  9  1  6  0  0  0
  8 16  1  0  0  0  0
  8 10  1  0  0  0  0
 10 11  1  0  0  0  0
 10 57  1  0  0  0  0
 10 58  1  0  0  0  0
 11 12  1  0  0  0  0
 11 59  1  0  0  0  0
 11 60  1  0  0  0  0
 12 13  1  1  0  0  0
 12 32  1  0  0  0  0
 12 14  1  0  0  0  0
 14 15  1  6  0  0  0
 14 16  1  0  0  0  0
 14 29  1  0  0  0  0
 16 17  1  0  0  0  0
 16 28  1  1  0  0  0
 17 18  1  0  0  0  0
 17 61  1  0  0  0  0
 17 62  1  0  0  0  0
 18 19  1  1  0  0  0
 18 20  1  0  0  0  0
 20 25  1  0  0  0  0
 20 21  1  0  0  0  0
 21 22  1  0  0  0  0
 21 63  1  0  0  0  0
 21 64  1  0  0  0  0
 22 23  1  0  0  0  0
 22 65  1  0  0  0  0
 22 66  1  0  0  0  0
 23 24  1  0  0  0  0
 23 26  1  0  0  0  0
 23 27  1  0  0  0  0
 24 25  1  0  0  0  0
 24 67  1  0  0  0  0
 24 68  1  0  0  0  0
 25 69  1  0  0  0  0
 25 70  1  0  0  0  0
 26 71  1  0  0  0  0
 26 72  1  0  0  0  0
 26 73  1  0  0  0  0
 27 74  1  0  0  0  0
 27 75  1  0  0  0  0
 27 76  1  0  0  0  0
 28 77  1  0  0  0  0
 28 78  1  0  0  0  0
 28 79  1  0  0  0  0
 29 30  1  0  0  0  0
 29 80  1  0  0  0  0
 29 81  1  0  0  0  0
 30 31  1  0  0  0  0
 30 82  1  0  0  0  0
 30 83  1  0  0  0  0
 31 37  1  0  0  0  0
 31 32  1  0  0  0  0
 31 51  1  1  0  0  0
 32 33  1  6  0  0  0
 32 34  1  0  0  0  0
 34 35  1  0  0  0  0
 34 84  1  0  0  0  0
 34 85  1  0  0  0  0
 35 36  1  6  0  0  0
 35 37  1  0  0  0  0
 35 43  1  0  0  0  0
 37 38  1  6  0  0  0
 37 39  1  0  0  0  0
 39 40  1  0  0  0  0
 40 41  2  0  0  0  0
 40 42  1  0  0  0  0
 42 86  1  0  0  0  0
 42 87  1  0  0  0  0
 42 88  1  0  0  0  0
 43 48  1  0  0  0  0
 43 44  1  0  0  0  0
 44 45  1  0  0  0  0
 44 89  1  0  0  0  0
 44 90  1  0  0  0  0
 45 46  1  0  0  0  0
 45 91  1  0  0  0  0
 45 92  1  0  0  0  0
 46 47  1  0  0  0  0
 46 49  1  0  0  0  0
 46 50  1  0  0  0  0
 47 48  1  0  0  0  0
 47 93  1  0  0  0  0
 47 94  1  0  0  0  0
 48 95  1  0  0  0  0
 48 96  1  0  0  0  0
 49 97  1  0  0  0  0
 49 98  1  0  0  0  0
 49 99  1  0  0  0  0
 50100  1  0  0  0  0
 50101  1  0  0  0  0
 50102  1  0  0  0  0
 51103  1  0  0  0  0
 51104  1  0  0  0  0
 51105  1  0  0  0  0
M  CHG  2  23   1  46   1
M  END
$$$$
