ZINC01481956
 OpenBabel08292219463D

 59 63  0  0  1  0  0  0  0  0999 V2000
   -3.3383   -0.9118    5.1812 C   0  0  0  0  0  0  0  0  0  0  0  0
   -3.2593    0.5033    5.6935 C   0  0  0  0  0  0  0  0  0  0  0  0
   -2.5727    1.4483    4.9927 C   0  0  0  0  0  0  0  0  0  0  0  0
   -2.5270    2.7560    5.5091 C   0  0  0  0  0  0  0  0  0  0  0  0
   -1.9086    3.6285    4.9223 O   0  0  0  0  0  0  0  0  0  0  0  0
   -3.1830    3.0391    6.6644 N   0  0  0  0  0  0  0  0  0  0  0  0
   -3.8277    2.0605    7.3183 C   0  0  0  0  0  0  0  0  0  0  0  0
   -3.8593    0.8369    6.8333 N   0  0  0  0  0  0  0  0  0  0  0  0
   -4.5404    2.2874    8.6287 C   0  0  1  0  0  0  0  0  0  0  0  0
   -3.9261    1.9033    9.4431 H   0  0  0  0  0  0  0  0  0  0  0  0
   -4.7963    3.7767    8.8500 C   0  0  0  0  0  0  0  0  0  0  0  0
   -3.4796    4.5262    8.6095 C   0  0  0  0  0  0  0  0  0  0  0  0
   -3.1392    4.4276    7.1250 C   0  0  0  0  0  0  0  0  0  0  0  0
   -5.7891    1.5927    8.6124 O   0  0  0  0  0  0  0  0  0  0  0  0
   -1.8758    1.1009    3.7025 C   0  0  0  0  0  0  0  0  0  0  0  0
   -2.7943    1.4266    2.5230 C   0  0  0  0  0  0  0  0  0  0  0  0
   -0.7306    1.5801    1.2659 C   0  0  0  0  0  0  0  0  0  0  0  0
   -0.0127    1.0858    0.0080 C   0  0  0  0  0  0  0  0  0  0  0  0
   -0.7548    1.5938   -1.2312 C   0  0  2  0  0  0  0  0  0  0  0  0
   -2.2060    1.1076   -1.1825 C   0  0  0  0  0  0  0  0  0  0  0  0
   -2.8612    1.6013    0.1094 C   0  0  0  0  0  0  0  0  0  0  0  0
   -0.0856    1.0620   -2.4723 C   0  0  0  0  0  0  0  0  0  0  0  0
    0.5094    1.8611   -3.5469 C   0  0  0  0  0  0  0  0  0  0  0  0
    0.6459    3.2342   -3.7666 C   0  0  0  0  0  0  0  0  0  0  0  0
    1.2659    3.6827   -4.8977 C   0  0  0  0  0  0  0  0  0  0  0  0
    1.7645    2.7828   -5.8328 C   0  0  0  0  0  0  0  0  0  0  0  0
    1.6397    1.4225   -5.6334 C   0  0  0  0  0  0  0  0  0  0  0  0
    1.0113    0.9478   -4.4891 C   0  0  0  0  0  0  0  0  0  0  0  0
    0.7430   -0.2891   -4.0244 O   0  0  0  0  0  0  0  0  0  0  0  0
    0.0747   -0.1876   -2.7829 N   0  0  0  0  0  0  0  0  0  0  0  0
    2.3759    3.2434   -6.9460 F   0  0  0  0  0  0  0  0  0  0  0  0
   -2.5026   -1.4887    5.5771 H   0  0  0  0  0  0  0  0  0  0  0  0
   -4.2766   -1.3631    5.5038 H   0  0  0  0  0  0  0  0  0  0  0  0
   -3.2930   -0.9070    4.0922 H   0  0  0  0  0  0  0  0  0  0  0  0
   -5.5535    4.1284    8.1492 H   0  0  0  0  0  0  0  0  0  0  0  0
   -5.1348    3.9443    9.8725 H   0  0  0  0  0  0  0  0  0  0  0  0
   -3.5954    5.5727    8.8915 H   0  0  0  0  0  0  0  0  0  0  0  0
   -2.6844    4.0714    9.2001 H   0  0  0  0  0  0  0  0  0  0  0  0
   -3.8569    5.0164    6.5538 H   0  0  0  0  0  0  0  0  0  0  0  0
   -2.1386    4.8274    6.9604 H   0  0  0  0  0  0  0  0  0  0  0  0
   -5.7058    0.6368    8.4923 H   0  0  0  0  0  0  0  0  0  0  0  0
   -1.6364    0.0376    3.6938 H   0  0  0  0  0  0  0  0  0  0  0  0
   -0.9568    1.6809    3.6183 H   0  0  0  0  0  0  0  0  0  0  0  0
   -3.0337    2.4899    2.5318 H   0  0  0  0  0  0  0  0  0  0  0  0
   -3.7133    0.8465    2.6072 H   0  0  0  0  0  0  0  0  0  0  0  0
   -0.2123    1.2083    2.1497 H   0  0  0  0  0  0  0  0  0  0  0  0
   -0.7329    2.6701    1.2781 H   0  0  0  0  0  0  0  0  0  0  0  0
    0.0021   -0.0041    0.0020 H   0  0  0  0  0  0  0  0  0  0  0  0
    1.0097    1.4637    0.0003 H   0  0  0  0  0  0  0  0  0  0  0  0
   -0.7361    2.6836   -1.2458 H   0  0  0  0  0  0  0  0  0  0  0  0
   -2.7508    1.5016   -2.0404 H   0  0  0  0  0  0  0  0  0  0  0  0
   -2.2257    0.0181   -1.2079 H   0  0  0  0  0  0  0  0  0  0  0  0
   -2.8535    2.6911    0.1271 H   0  0  0  0  0  0  0  0  0  0  0  0
   -3.8902    1.2447    0.1540 H   0  0  0  0  0  0  0  0  0  0  0  0
    0.2609    3.9389   -3.0445 H   0  0  0  0  0  0  0  0  0  0  0  0
    1.3702    4.7443   -5.0667 H   0  0  0  0  0  0  0  0  0  0  0  0
    2.0290    0.7297   -6.3647 H   0  0  0  0  0  0  0  0  0  0  0  0
   -2.1145    1.0579    1.2642 N   0  3  2  0  0  0  0  0  0  0  0  0
   -2.0840    0.0343    1.1891 H   0  0  0  0  0  0  0  0  0  0  0  0
  1  2  1  0  0  0  0
  1 32  1  0  0  0  0
  1 33  1  0  0  0  0
  1 34  1  0  0  0  0
  2  8  1  0  0  0  0
  2  3  2  0  0  0  0
  3  4  1  0  0  0  0
  3 15  1  0  0  0  0
  4  5  2  0  0  0  0
  4  6  1  0  0  0  0
  6 13  1  0  0  0  0
  6  7  1  0  0  0  0
  7  8  2  0  0  0  0
  7  9  1  0  0  0  0
  9 10  1  1  0  0  0
  9 11  1  0  0  0  0
  9 14  1  0  0  0  0
 11 12  1  0  0  0  0
 11 35  1  0  0  0  0
 11 36  1  0  0  0  0
 12 13  1  0  0  0  0
 12 37  1  0  0  0  0
 12 38  1  0  0  0  0
 13 39  1  0  0  0  0
 13 40  1  0  0  0  0
 14 41  1  0  0  0  0
 15 16  1  0  0  0  0
 15 42  1  0  0  0  0
 15 43  1  0  0  0  0
 16 44  1  0  0  0  0
 16 45  1  0  0  0  0
 16 58  1  0  0  0  0
 17 18  1  0  0  0  0
 17 46  1  0  0  0  0
 17 47  1  0  0  0  0
 17 58  1  0  0  0  0
 18 19  1  0  0  0  0
 18 48  1  0  0  0  0
 18 49  1  0  0  0  0
 19 20  1  0  0  0  0
 19 22  1  0  0  0  0
 19 50  1  6  0  0  0
 20 21  1  0  0  0  0
 20 51  1  0  0  0  0
 20 52  1  0  0  0  0
 21 53  1  0  0  0  0
 21 54  1  0  0  0  0
 21 58  1  0  0  0  0
 22 30  2  0  0  0  0
 22 23  1  0  0  0  0
 23 28  2  0  0  0  0
 23 24  1  0  0  0  0
 24 25  2  0  0  0  0
 24 55  1  0  0  0  0
 25 26  1  0  0  0  0
 25 56  1  0  0  0  0
 26 27  2  0  0  0  0
 26 31  1  0  0  0  0
 27 28  1  0  0  0  0
 27 57  1  0  0  0  0
 28 29  1  0  0  0  0
 29 30  1  0  0  0  0
 58 59  1  6  0  0  0
M  CHG  1  58   1
M  END
$$$$
