ZINC22016981
 OpenBabel08292219463D

 59 59  0  0  1  0  0  0  0  0999 V2000
   -0.0187    1.5258    0.0104 C   0  0  0  0  0  0  0  0  0  0  0  0
    0.0021   -0.0041    0.0020 C   0  0  1  0  0  0  0  0  0  0  0  0
   -1.0205   -0.3814    0.0098 H   0  0  0  0  0  0  0  0  0  0  0  0
    0.7182   -0.4975   -1.2568 C   0  0  0  0  0  0  0  0  0  0  0  0
    0.6338   -1.9624   -1.3257 N   0  0  0  0  0  0  0  0  0  0  0  0
    1.3864   -2.5853   -0.2286 C   0  0  0  0  0  0  0  0  0  0  0  0
    0.4103   -3.2254    0.7605 C   0  0  0  0  0  0  0  0  0  0  0  0
    0.7544   -4.6421    0.9407 N   0  3  2  0  0  0  0  0  0  0  0  0
   -0.4457   -5.4663    0.7452 C   0  0  0  0  0  0  0  0  0  0  0  0
   -0.1525   -6.5576   -0.2863 C   0  0  0  0  0  0  0  0  0  0  0  0
   -1.1278   -6.4709   -1.3814 N   0  0  0  0  0  0  0  0  0  0  0  0
   -0.4523   -6.4142   -2.6847 C   0  0  0  0  0  0  0  0  0  0  0  0
   -0.9677   -5.2092   -3.4742 C   0  0  0  0  0  0  0  0  0  0  0  0
    0.1643   -4.3560   -3.8598 N   0  3  2  0  0  0  0  0  0  0  0  0
   -0.0959   -2.9747   -3.4329 C   0  0  0  0  0  0  0  0  0  0  0  0
    1.0981   -2.4557   -2.6292 C   0  0  0  0  0  0  0  0  0  0  0  0
    0.3317   -4.3943   -5.3187 C   0  0  0  0  0  0  0  0  0  0  0  0
    0.7195   -5.7872   -5.7434 C   0  0  0  0  0  0  0  0  0  0  0  0
    0.8448   -6.6665   -4.9082 O   0  0  0  0  0  0  0  0  0  0  0  0
    0.9079   -6.0349   -6.9223 O   0  0  0  0  0  1  0  0  0  0  0  0
   -2.0784   -7.5897   -1.3295 C   0  0  0  0  0  0  0  0  0  0  0  0
   -3.2005   -7.3411   -2.3043 C   0  0  0  0  0  0  0  0  0  0  0  0
   -3.2076   -6.3261   -2.9797 O   0  0  0  0  0  0  0  0  0  0  0  0
   -4.1011   -8.1551   -2.4176 O   0  0  0  0  0  1  0  0  0  0  0  0
    1.2757   -4.8505    2.2982 C   0  0  0  0  0  0  0  0  0  0  0  0
    1.7429   -6.2758    2.4437 C   0  0  0  0  0  0  0  0  0  0  0  0
    1.6502   -7.0466    1.5036 O   0  0  0  0  0  0  0  0  0  0  0  0
    2.2135   -6.6582    3.5014 O   0  0  0  0  0  1  0  0  0  0  0  0
    0.6932   -0.4774    1.1597 O   0  0  0  0  0  0  0  0  0  0  0  0
    1.0039    1.9031    0.0027 H   0  0  0  0  0  0  0  0  0  0  0  0
   -0.5459    1.8868   -0.8726 H   0  0  0  0  0  0  0  0  0  0  0  0
   -0.5289    1.8773    0.9072 H   0  0  0  0  0  0  0  0  0  0  0  0
    0.2444   -0.0644   -2.1377 H   0  0  0  0  0  0  0  0  0  0  0  0
    1.7648   -0.1951   -1.2215 H   0  0  0  0  0  0  0  0  0  0  0  0
    2.0495   -3.3508   -0.6316 H   0  0  0  0  0  0  0  0  0  0  0  0
    1.9772   -1.8260    0.2837 H   0  0  0  0  0  0  0  0  0  0  0  0
    0.4749   -2.7109    1.7192 H   0  0  0  0  0  0  0  0  0  0  0  0
   -0.6052   -3.1447    0.3726 H   0  0  0  0  0  0  0  0  0  0  0  0
   -0.7280   -5.9274    1.6917 H   0  0  0  0  0  0  0  0  0  0  0  0
   -1.2629   -4.8393    0.3886 H   0  0  0  0  0  0  0  0  0  0  0  0
    0.8532   -6.4210   -0.6838 H   0  0  0  0  0  0  0  0  0  0  0  0
   -0.2257   -7.5358    0.1888 H   0  0  0  0  0  0  0  0  0  0  0  0
    0.6226   -6.3163   -2.5329 H   0  0  0  0  0  0  0  0  0  0  0  0
   -0.6589   -7.3284   -3.2411 H   0  0  0  0  0  0  0  0  0  0  0  0
   -1.4835   -5.5552   -4.3699 H   0  0  0  0  0  0  0  0  0  0  0  0
   -1.6589   -4.6377   -2.8548 H   0  0  0  0  0  0  0  0  0  0  0  0
   -0.2446   -2.3451   -4.3102 H   0  0  0  0  0  0  0  0  0  0  0  0
   -0.9910   -2.9490   -2.8113 H   0  0  0  0  0  0  0  0  0  0  0  0
    1.5781   -1.6435   -3.1751 H   0  0  0  0  0  0  0  0  0  0  0  0
    1.8133   -3.2643   -2.4780 H   0  0  0  0  0  0  0  0  0  0  0  0
   -0.6061   -4.1157   -5.7994 H   0  0  0  0  0  0  0  0  0  0  0  0
    1.1131   -3.6938   -5.6133 H   0  0  0  0  0  0  0  0  0  0  0  0
   -1.5658   -8.5146   -1.5937 H   0  0  0  0  0  0  0  0  0  0  0  0
   -2.4849   -7.6746   -0.3217 H   0  0  0  0  0  0  0  0  0  0  0  0
    2.1123   -4.1742    2.4740 H   0  0  0  0  0  0  0  0  0  0  0  0
    0.4880   -4.6504    3.0246 H   0  0  0  0  0  0  0  0  0  0  0  0
    0.2938   -0.2021    1.9962 H   0  0  0  0  0  0  0  0  0  0  0  0
    1.0056   -4.6924   -3.4158 H   0  0  0  0  0  0  0  0  0  0  0  0
    1.4572   -4.9060    0.2665 H   0  0  0  0  0  0  0  0  0  0  0  0
  1  2  1  0  0  0  0
  1 30  1  0  0  0  0
  1 31  1  0  0  0  0
  1 32  1  0  0  0  0
  2  3  1  1  0  0  0
  2  4  1  0  0  0  0
  2 29  1  0  0  0  0
  4  5  1  0  0  0  0
  4 33  1  0  0  0  0
  4 34  1  0  0  0  0
  5 16  1  0  0  0  0
  5  6  1  0  0  0  0
  6  7  1  0  0  0  0
  6 35  1  0  0  0  0
  6 36  1  0  0  0  0
  7  8  1  0  0  0  0
  7 37  1  0  0  0  0
  7 38  1  0  0  0  0
  8  9  1  0  0  0  0
  8 25  1  0  0  0  0
  8 59  1  6  0  0  0
  9 10  1  0  0  0  0
  9 39  1  0  0  0  0
  9 40  1  0  0  0  0
 10 11  1  0  0  0  0
 10 41  1  0  0  0  0
 10 42  1  0  0  0  0
 11 12  1  0  0  0  0
 11 21  1  0  0  0  0
 12 13  1  0  0  0  0
 12 43  1  0  0  0  0
 12 44  1  0  0  0  0
 13 14  1  0  0  0  0
 13 45  1  0  0  0  0
 13 46  1  0  0  0  0
 14 15  1  0  0  0  0
 14 17  1  0  0  0  0
 14 58  1  1  0  0  0
 15 16  1  0  0  0  0
 15 47  1  0  0  0  0
 15 48  1  0  0  0  0
 16 49  1  0  0  0  0
 16 50  1  0  0  0  0
 17 18  1  0  0  0  0
 17 51  1  0  0  0  0
 17 52  1  0  0  0  0
 18 19  2  0  0  0  0
 18 20  1  0  0  0  0
 21 22  1  0  0  0  0
 21 53  1  0  0  0  0
 21 54  1  0  0  0  0
 22 23  2  0  0  0  0
 22 24  1  0  0  0  0
 25 26  1  0  0  0  0
 25 55  1  0  0  0  0
 25 56  1  0  0  0  0
 26 27  2  0  0  0  0
 26 28  1  0  0  0  0
 29 57  1  0  0  0  0
M  CHG  2   8   1  14   1
M  END
$$$$
