ZINC00607971
 OpenBabel08292219463D

 40 42  0  0  1  0  0  0  0  0999 V2000
   -0.0167    1.3792    0.0096 C   0  0  0  0  0  0  0  0  0  0  0  0
    1.1708    2.0869    0.0021 C   0  0  0  0  0  0  0  0  0  0  0  0
    2.3773    1.4131   -0.0135 C   0  0  0  0  0  0  0  0  0  0  0  0
    2.3974    0.0294   -0.0212 C   0  0  0  0  0  0  0  0  0  0  0  0
    1.2096   -0.6792   -0.0132 C   0  0  0  0  0  0  0  0  0  0  0  0
    0.0021   -0.0041    0.0020 C   0  0  0  0  0  0  0  0  0  0  0  0
   -1.4893   -0.8926    0.0121 Cl  0  0  0  0  0  0  0  0  0  0  0  0
    3.9130   -0.8168   -0.0414 Cl  0  0  0  0  0  0  0  0  0  0  0  0
    3.6714    2.1853   -0.0227 C   0  0  0  0  0  0  0  0  0  0  0  0
    3.3901    3.5863   -0.0128 O   0  0  0  0  0  0  0  0  0  0  0  0
    4.5556    4.4132   -0.0205 C   0  0  2  0  0  0  0  0  0  0  0  0
    5.3616    3.9002   -0.5451 H   0  0  0  0  0  0  0  0  0  0  0  0
    4.9861    4.7010    1.4192 C   0  0  0  0  0  0  0  0  0  0  0  0
    5.4009    3.4525    2.0638 N   0  0  0  0  0  0  0  0  0  0  0  0
    4.5959    2.5906    2.7585 C   0  0  0  0  0  0  0  0  0  0  0  0
    5.3789    1.5784    3.1778 C   0  0  0  0  0  0  0  0  0  0  0  0
    6.6280    1.8158    2.7507 N   0  0  0  0  0  4  0  0  0  0  0  0
    6.6478    2.9340    2.0784 C   0  0  0  0  0  0  0  0  0  0  0  0
    4.2462    5.7110   -0.7212 C   0  0  0  0  0  0  0  0  0  0  0  0
    2.9457    6.1775   -0.7692 C   0  0  0  0  0  0  0  0  0  0  0  0
    2.6612    7.3675   -1.4116 C   0  0  0  0  0  0  0  0  0  0  0  0
    3.6781    8.0931   -2.0070 C   0  0  0  0  0  0  0  0  0  0  0  0
    4.9794    7.6271   -1.9589 C   0  0  0  0  0  0  0  0  0  0  0  0
    5.2644    6.4381   -1.3114 C   0  0  0  0  0  0  0  0  0  0  0  0
    6.8983    5.8554   -1.2454 Cl  0  0  0  0  0  0  0  0  0  0  0  0
    3.3204    9.5877   -2.8144 Cl  0  0  0  0  0  0  0  0  0  0  0  0
   -0.9592    1.9062    0.0260 H   0  0  0  0  0  0  0  0  0  0  0  0
    1.1557    3.1667    0.0080 H   0  0  0  0  0  0  0  0  0  0  0  0
    1.2248   -1.7590   -0.0191 H   0  0  0  0  0  0  0  0  0  0  0  0
    4.2557    1.9258    0.8601 H   0  0  0  0  0  0  0  0  0  0  0  0
    4.2377    1.9347   -0.9198 H   0  0  0  0  0  0  0  0  0  0  0  0
    5.8203    5.4026    1.4156 H   0  0  0  0  0  0  0  0  0  0  0  0
    4.1501    5.1334    1.9689 H   0  0  0  0  0  0  0  0  0  0  0  0
    3.5364    2.7013    2.9365 H   0  0  0  0  0  0  0  0  0  0  0  0
    5.0575    0.7251    3.7566 H   0  0  0  0  0  0  0  0  0  0  0  0
    7.5177    3.3735    1.6130 H   0  0  0  0  0  0  0  0  0  0  0  0
    2.1518    5.6116   -0.3047 H   0  0  0  0  0  0  0  0  0  0  0  0
    1.6450    7.7312   -1.4494 H   0  0  0  0  0  0  0  0  0  0  0  0
    5.7734    8.1930   -2.4234 H   0  0  0  0  0  0  0  0  0  0  0  0
    7.3950    1.2444    2.9128 H   0  0  0  0  0  0  0  0  0  0  0  0
  1  6  2  0  0  0  0
  1  2  1  0  0  0  0
  1 27  1  0  0  0  0
  2  3  2  0  0  0  0
  2 28  1  0  0  0  0
  3  4  1  0  0  0  0
  3  9  1  0  0  0  0
  4  5  2  0  0  0  0
  4  8  1  0  0  0  0
  5  6  1  0  0  0  0
  5 29  1  0  0  0  0
  6  7  1  0  0  0  0
  9 10  1  0  0  0  0
  9 30  1  0  0  0  0
  9 31  1  0  0  0  0
 10 11  1  0  0  0  0
 11 12  1  6  0  0  0
 11 13  1  0  0  0  0
 11 19  1  0  0  0  0
 13 14  1  0  0  0  0
 13 32  1  0  0  0  0
 13 33  1  0  0  0  0
 14 18  1  0  0  0  0
 14 15  1  0  0  0  0
 15 16  2  0  0  0  0
 15 34  1  0  0  0  0
 16 17  1  0  0  0  0
 16 35  1  0  0  0  0
 17 18  2  0  0  0  0
 17 40  1  0  0  0  0
 18 36  1  0  0  0  0
 19 24  2  0  0  0  0
 19 20  1  0  0  0  0
 20 21  2  0  0  0  0
 20 37  1  0  0  0  0
 21 22  1  0  0  0  0
 21 38  1  0  0  0  0
 22 23  2  0  0  0  0
 22 26  1  0  0  0  0
 23 24  1  0  0  0  0
 23 39  1  0  0  0  0
 24 25  1  0  0  0  0
M  END
$$$$
