ZINC00000294
 OpenBabel08292219463D

 33 33  0  0  1  0  0  0  0  0999 V2000
   -0.0187    1.5258    0.0104 C   0  0  0  0  0  0  0  0  0  0  0  0
    0.0021   -0.0041    0.0020 C   0  0  0  0  0  0  0  0  0  0  0  0
    0.6897   -0.4778   -1.2066 N   0  3  0  0  0  0  0  0  0  0  0  0
    0.7096   -1.9467   -1.2147 C   0  0  1  0  0  0  0  0  0  0  0  0
    1.1577   -2.3090   -0.2895 H   0  0  0  0  0  0  0  0  0  0  0  0
   -0.7215   -2.4755   -1.3296 C   0  0  0  0  0  0  0  0  0  0  0  0
    1.5325   -2.4390   -2.4069 C   0  0  0  0  0  0  0  0  0  0  0  0
    2.9699   -2.0217   -2.2317 C   0  0  0  0  0  0  0  0  0  0  0  0
    3.4015   -0.8045   -2.7253 C   0  0  0  0  0  0  0  0  0  0  0  0
    4.7198   -0.4219   -2.5646 C   0  0  0  0  0  0  0  0  0  0  0  0
    5.6069   -1.2561   -1.9098 C   0  0  0  0  0  0  0  0  0  0  0  0
    5.1753   -2.4725   -1.4156 C   0  0  0  0  0  0  0  0  0  0  0  0
    3.8555   -2.8534   -1.5726 C   0  0  0  0  0  0  0  0  0  0  0  0
    6.1423   -3.3820   -0.7024 C   0  0  0  0  0  0  0  0  0  0  0  0
    7.4059   -2.7826   -0.6659 F   0  0  0  0  0  0  0  0  0  0  0  0
    5.6946   -3.6062    0.6040 F   0  0  0  0  0  0  0  0  0  0  0  0
    6.2242   -4.6015   -1.3831 F   0  0  0  0  0  0  0  0  0  0  0  0
    1.0039    1.9031    0.0027 H   0  0  0  0  0  0  0  0  0  0  0  0
   -0.5459    1.8868   -0.8726 H   0  0  0  0  0  0  0  0  0  0  0  0
   -0.5289    1.8773    0.9072 H   0  0  0  0  0  0  0  0  0  0  0  0
    0.5293   -0.3651    0.8851 H   0  0  0  0  0  0  0  0  0  0  0  0
   -1.0205   -0.3814    0.0098 H   0  0  0  0  0  0  0  0  0  0  0  0
    0.2017   -0.1436   -2.0240 H   0  0  0  0  0  0  0  0  0  0  0  0
   -0.7067   -3.5654   -1.3356 H   0  0  0  0  0  0  0  0  0  0  0  0
   -1.3078   -2.1247   -0.4802 H   0  0  0  0  0  0  0  0  0  0  0  0
   -1.1696   -2.1131   -2.2548 H   0  0  0  0  0  0  0  0  0  0  0  0
    1.4741   -3.5259   -2.4646 H   0  0  0  0  0  0  0  0  0  0  0  0
    1.1374   -2.0046   -3.3252 H   0  0  0  0  0  0  0  0  0  0  0  0
    2.7085   -0.1529   -3.2367 H   0  0  0  0  0  0  0  0  0  0  0  0
    5.0571    0.5287   -2.9508 H   0  0  0  0  0  0  0  0  0  0  0  0
    6.6372   -0.9574   -1.7849 H   0  0  0  0  0  0  0  0  0  0  0  0
    3.5173   -3.8023   -1.1831 H   0  0  0  0  0  0  0  0  0  0  0  0
    1.6363   -0.1286   -1.2138 H   0  0  0  0  0  0  0  0  0  0  0  0
  1  2  1  0  0  0  0
  1 18  1  0  0  0  0
  1 19  1  0  0  0  0
  1 20  1  0  0  0  0
  2  3  1  0  0  0  0
  2 21  1  0  0  0  0
  2 22  1  0  0  0  0
  3  4  1  0  0  0  0
  3 23  1  0  0  0  0
  3 33  1  0  0  0  0
  4  5  1  1  0  0  0
  4  6  1  0  0  0  0
  4  7  1  0  0  0  0
  6 24  1  0  0  0  0
  6 25  1  0  0  0  0
  6 26  1  0  0  0  0
  7  8  1  0  0  0  0
  7 27  1  0  0  0  0
  7 28  1  0  0  0  0
  8 13  2  0  0  0  0
  8  9  1  0  0  0  0
  9 10  2  0  0  0  0
  9 29  1  0  0  0  0
 10 11  1  0  0  0  0
 10 30  1  0  0  0  0
 11 12  2  0  0  0  0
 11 31  1  0  0  0  0
 12 13  1  0  0  0  0
 12 14  1  0  0  0  0
 13 32  1  0  0  0  0
 14 15  1  0  0  0  0
 14 16  1  0  0  0  0
 14 17  1  0  0  0  0
M  CHG  1   3   1
M  END
$$$$
