ZINC00039906
 OpenBabel08292219463D

 28 29  0  0  1  0  0  0  0  0999 V2000
    1.0755   -0.5545   -0.4597 C   0  0  0  0  0  0  0  0  0  0  0  0
    2.2631    0.0958   -0.4735 C   0  0  0  0  0  0  0  0  0  0  0  0
    2.3268    1.3767   -0.0128 N   0  0  0  0  0  0  0  0  0  0  0  0
    1.2214    1.9882    0.4507 C   0  0  0  0  0  0  0  0  0  0  0  0
    1.2968    3.1353    0.8589 O   0  0  0  0  0  0  0  0  0  0  0  0
    0.0462    1.3618    0.4706 N   0  0  0  0  0  0  0  0  0  0  0  0
   -0.0640    0.1145    0.0323 C   0  0  0  0  0  0  0  0  0  0  0  0
   -1.2830   -0.5225    0.0577 N   0  0  0  0  0  0  0  0  0  0  0  0
    3.6056    2.0915   -0.0216 C   0  0  1  0  0  0  0  0  0  0  0  0
    3.4348    3.1523   -0.2050 H   0  0  0  0  0  0  0  0  0  0  0  0
    4.3205    1.9027    1.3336 C   0  0  0  0  0  0  0  0  0  0  0  0
    5.3198    0.7554    1.0221 C   0  0  0  0  0  0  0  0  0  0  0  0
    5.6762    1.0682   -0.4530 C   0  0  2  0  0  0  0  0  0  0  0  0
    6.4491    1.8353   -0.5010 H   0  0  0  0  0  0  0  0  0  0  0  0
    4.4562    1.5529   -1.0405 O   0  0  0  0  0  0  0  0  0  0  0  0
    6.1443   -0.2015   -1.1670 C   0  0  0  0  0  0  0  0  0  0  0  0
    6.5779    0.1274   -2.4883 O   0  0  0  0  0  0  0  0  0  0  0  0
    1.0013   -1.5685   -0.8242 H   0  0  0  0  0  0  0  0  0  0  0  0
    3.1502   -0.3954   -0.8451 H   0  0  0  0  0  0  0  0  0  0  0  0
   -1.3605   -1.4345   -0.2634 H   0  0  0  0  0  0  0  0  0  0  0  0
   -2.0651   -0.0596    0.3968 H   0  0  0  0  0  0  0  0  0  0  0  0
    4.8500    2.8105    1.6226 H   0  0  0  0  0  0  0  0  0  0  0  0
    3.6133    1.6020    2.1067 H   0  0  0  0  0  0  0  0  0  0  0  0
    6.2009    0.8176    1.6608 H   0  0  0  0  0  0  0  0  0  0  0  0
    4.8397   -0.2190    1.1121 H   0  0  0  0  0  0  0  0  0  0  0  0
    6.9713   -0.6458   -0.6132 H   0  0  0  0  0  0  0  0  0  0  0  0
    5.3199   -0.9125   -1.2215 H   0  0  0  0  0  0  0  0  0  0  0  0
    6.8891   -0.6315   -3.0004 H   0  0  0  0  0  0  0  0  0  0  0  0
  1  7  1  0  0  0  0
  1  2  2  0  0  0  0
  1 18  1  0  0  0  0
  2  3  1  0  0  0  0
  2 19  1  0  0  0  0
  3  4  1  0  0  0  0
  3  9  1  0  0  0  0
  4  5  2  0  0  0  0
  4  6  1  0  0  0  0
  6  7  2  0  0  0  0
  7  8  1  0  0  0  0
  8 20  1  0  0  0  0
  8 21  1  0  0  0  0
  9 10  1  6  0  0  0
  9 15  1  0  0  0  0
  9 11  1  0  0  0  0
 11 12  1  0  0  0  0
 11 22  1  0  0  0  0
 11 23  1  0  0  0  0
 12 13  1  0  0  0  0
 12 24  1  0  0  0  0
 12 25  1  0  0  0  0
 13 14  1  6  0  0  0
 13 15  1  0  0  0  0
 13 16  1  0  0  0  0
 16 17  1  0  0  0  0
 16 26  1  0  0  0  0
 16 27  1  0  0  0  0
 17 28  1  0  0  0  0
M  END
$$$$
