ZINC24629762
 OpenBabel08292219463D

  8  7  0  0  0  0  0  0  0  0999 V2000
   -0.8671    2.0608    1.5026 C   0  0  0  0  0  0  0  0  0  0  0  0
   -0.2818    2.7591    2.2962 O   0  0  0  0  0  0  0  0  0  0  0  0
   -2.1456    1.7179    1.7254 O   0  0  0  0  0  1  0  0  0  0  0  0
   -0.0180    1.4758    0.0102 P   0  0  2  0  0  0  0  0  0  0  0  0
    0.0021   -0.0041    0.0020 O   0  0  0  0  0  0  0  0  0  0  0  0
    1.4924    2.0330   -0.0013 O   0  0  0  0  0  1  0  0  0  0  0  0
   -0.7967    2.0091   -1.2942 O   0  0  0  0  0  0  0  0  0  0  0  0
   -0.4268    1.7539   -2.2982 H   0  0  0  0  0  0  0  0  0  0  0  0
  1  2  2  0  0  0  0
  1  3  1  0  0  0  0
  1  4  1  0  0  0  0
  4  5  2  6  0  0  0
  4  6  1  0  0  0  0
  4  7  1  0  0  0  0
  7  8  1  0  0  0  0
M  END
$$$$
