ZINC01482094
 OpenBabel08292219463D

 33 33  0  0  1  0  0  0  0  0999 V2000
   -0.0187    1.5258    0.0104 C   0  0  0  0  0  0  0  0  0  0  0  0
    0.0021   -0.0041    0.0020 C   0  0  2  0  0  0  0  0  0  0  0  0
    0.5123   -0.3556   -0.8948 H   0  0  0  0  0  0  0  0  0  0  0  0
   -1.4333   -0.5336    0.0129 C   0  0  0  0  0  0  0  0  0  0  0  0
   -1.4157   -2.0577   -0.1212 C   0  0  0  0  0  0  0  0  0  0  0  0
   -0.8525   -2.4427   -1.4907 C   0  0  0  0  0  0  0  0  0  0  0  0
   -0.8349   -3.9667   -1.6248 C   0  0  0  0  0  0  0  0  0  0  0  0
   -2.2598   -4.5071   -1.4890 C   0  0  0  0  0  0  0  0  0  0  0  0
   -2.8229   -4.1221   -0.1195 C   0  0  0  0  0  0  0  0  0  0  0  0
   -2.8406   -2.5981    0.0146 C   0  0  0  0  0  0  0  0  0  0  0  0
    0.7126   -0.4907    1.1921 N   0  3  0  0  0  0  0  0  0  0  0  0
    2.1220   -0.0825    1.1220 C   0  0  0  0  0  0  0  0  0  0  0  0
    1.0039    1.9031    0.0027 H   0  0  0  0  0  0  0  0  0  0  0  0
   -0.5459    1.8868   -0.8726 H   0  0  0  0  0  0  0  0  0  0  0  0
   -0.5289    1.8773    0.9072 H   0  0  0  0  0  0  0  0  0  0  0  0
   -1.9156   -0.2570    0.9504 H   0  0  0  0  0  0  0  0  0  0  0  0
   -1.9862   -0.1019   -0.8214 H   0  0  0  0  0  0  0  0  0  0  0  0
   -0.7891   -2.4841    0.6622 H   0  0  0  0  0  0  0  0  0  0  0  0
   -1.4791   -2.0162   -2.2741 H   0  0  0  0  0  0  0  0  0  0  0  0
    0.1626   -2.0576   -1.5875 H   0  0  0  0  0  0  0  0  0  0  0  0
   -0.4337   -4.2409   -2.6005 H   0  0  0  0  0  0  0  0  0  0  0  0
   -0.2084   -4.3931   -0.8414 H   0  0  0  0  0  0  0  0  0  0  0  0
   -2.8863   -4.0807   -2.2724 H   0  0  0  0  0  0  0  0  0  0  0  0
   -2.2472   -5.5929   -1.5845 H   0  0  0  0  0  0  0  0  0  0  0  0
   -3.8381   -4.5072   -0.0227 H   0  0  0  0  0  0  0  0  0  0  0  0
   -2.1964   -4.5486    0.6639 H   0  0  0  0  0  0  0  0  0  0  0  0
   -3.2417   -2.3238    0.9903 H   0  0  0  0  0  0  0  0  0  0  0  0
   -3.4671   -2.1717   -0.7688 H   0  0  0  0  0  0  0  0  0  0  0  0
    0.2896   -0.0986    2.0201 H   0  0  0  0  0  0  0  0  0  0  0  0
    2.6492   -0.4436    2.0051 H   0  0  0  0  0  0  0  0  0  0  0  0
    2.5788   -0.5061    0.2276 H   0  0  0  0  0  0  0  0  0  0  0  0
    2.1837    1.0050    1.0814 H   0  0  0  0  0  0  0  0  0  0  0  0
    0.6554   -1.4974    1.2298 H   0  0  0  0  0  0  0  0  0  0  0  0
  1  2  1  0  0  0  0
  1 13  1  0  0  0  0
  1 14  1  0  0  0  0
  1 15  1  0  0  0  0
  2  3  1  6  0  0  0
  2  4  1  0  0  0  0
  2 11  1  0  0  0  0
  4  5  1  0  0  0  0
  4 16  1  0  0  0  0
  4 17  1  0  0  0  0
  5 10  1  0  0  0  0
  5  6  1  0  0  0  0
  5 18  1  0  0  0  0
  6  7  1  0  0  0  0
  6 19  1  0  0  0  0
  6 20  1  0  0  0  0
  7  8  1  0  0  0  0
  7 21  1  0  0  0  0
  7 22  1  0  0  0  0
  8  9  1  0  0  0  0
  8 23  1  0  0  0  0
  8 24  1  0  0  0  0
  9 10  1  0  0  0  0
  9 25  1  0  0  0  0
  9 26  1  0  0  0  0
 10 27  1  0  0  0  0
 10 28  1  0  0  0  0
 11 12  1  0  0  0  0
 11 29  1  0  0  0  0
 11 33  1  0  0  0  0
 12 30  1  0  0  0  0
 12 31  1  0  0  0  0
 12 32  1  0  0  0  0
M  CHG  1  11   1
M  END
$$$$
