ZINC00897085
 OpenBabel08292219463D

 43 45  0  0  1  0  0  0  0  0999 V2000
   -0.0168    1.3889    0.0097 C   0  0  0  0  0  0  0  0  0  0  0  0
    1.1424    2.1034    0.0024 C   0  0  0  0  0  0  0  0  0  0  0  0
    2.3733    1.4284   -0.0129 C   0  0  0  0  0  0  0  0  0  0  0  0
    3.5939    2.1297   -0.0202 C   0  0  0  0  0  0  0  0  0  0  0  0
    4.7524    1.4066   -0.0348 C   0  0  0  0  0  0  0  0  0  0  0  0
    4.7030    0.0141   -0.0421 C   0  0  0  0  0  0  0  0  0  0  0  0
    3.5646   -0.6358   -0.0352 N   0  0  0  0  0  0  0  0  0  0  0  0
    2.3949    0.0115   -0.0208 C   0  0  0  0  0  0  0  0  0  0  0  0
    1.1773   -0.6905   -0.0134 C   0  0  0  0  0  0  0  0  0  0  0  0
    0.0021   -0.0041    0.0020 C   0  0  0  0  0  0  0  0  0  0  0  0
    1.1730   -2.1975   -0.0224 C   0  0  0  0  0  0  0  0  0  0  0  0
   -0.1473   -2.6601   -0.0125 F   0  0  0  0  0  0  0  0  0  0  0  0
    1.8201   -2.6588   -1.1737 F   0  0  0  0  0  0  0  0  0  0  0  0
    1.8420   -2.6725    1.1107 F   0  0  0  0  0  0  0  0  0  0  0  0
    5.9925   -0.7655   -0.0587 C   0  0  0  0  0  0  0  0  0  0  0  0
    6.4042   -1.0140    1.2550 F   0  0  0  0  0  0  0  0  0  0  0  0
    5.7943   -1.9806   -0.7231 F   0  0  0  0  0  0  0  0  0  0  0  0
    6.9762   -0.0255   -0.7236 F   0  0  0  0  0  0  0  0  0  0  0  0
    3.6215    3.6365   -0.0127 C   0  0  1  0  0  0  0  0  0  0  0  0
    2.7812    4.0181   -0.5926 H   0  0  0  0  0  0  0  0  0  0  0  0
    3.5180    4.1412    1.4280 C   0  0  1  0  0  0  0  0  0  0  0  0
    2.6287    3.7202    1.8970 H   0  0  0  0  0  0  0  0  0  0  0  0
    4.7599    3.7080    2.2100 C   0  0  0  0  0  0  0  0  0  0  0  0
    4.6517    4.2152    3.6509 C   0  0  0  0  0  0  0  0  0  0  0  0
    4.4776    5.7365    3.6345 C   0  0  0  0  0  0  0  0  0  0  0  0
    3.2461    6.0945    2.7997 C   0  0  0  0  0  0  0  0  0  0  0  0
    3.4230    5.6059    1.4269 N   0  3  0  0  0  0  0  0  0  0  0  0
    4.8459    4.0934   -0.5907 O   0  0  0  0  0  0  0  0  0  0  0  0
   -0.9632    1.9089    0.0261 H   0  0  0  0  0  0  0  0  0  0  0  0
    1.1150    3.1831    0.0081 H   0  0  0  0  0  0  0  0  0  0  0  0
    5.7060    1.9136   -0.0411 H   0  0  0  0  0  0  0  0  0  0  0  0
   -0.9309   -0.5481    0.0084 H   0  0  0  0  0  0  0  0  0  0  0  0
    4.8282    2.6202    2.2111 H   0  0  0  0  0  0  0  0  0  0  0  0
    5.6498    4.1288    1.7419 H   0  0  0  0  0  0  0  0  0  0  0  0
    3.7906    3.7549    4.1356 H   0  0  0  0  0  0  0  0  0  0  0  0
    5.5593    3.9580    4.1969 H   0  0  0  0  0  0  0  0  0  0  0  0
    4.3440    6.0986    4.6539 H   0  0  0  0  0  0  0  0  0  0  0  0
    5.3616    6.1994    3.1960 H   0  0  0  0  0  0  0  0  0  0  0  0
    2.3626    5.6314    3.2392 H   0  0  0  0  0  0  0  0  0  0  0  0
    3.1191    7.1770    2.7861 H   0  0  0  0  0  0  0  0  0  0  0  0
    4.2680    5.9965    1.0378 H   0  0  0  0  0  0  0  0  0  0  0  0
    5.6376    3.7911   -0.1249 H   0  0  0  0  0  0  0  0  0  0  0  0
    2.6340    5.8904    0.8659 H   0  0  0  0  0  0  0  0  0  0  0  0
  1 10  2  0  0  0  0
  1  2  1  0  0  0  0
  1 29  1  0  0  0  0
  2  3  2  0  0  0  0
  2 30  1  0  0  0  0
  3  8  1  0  0  0  0
  3  4  1  0  0  0  0
  4  5  2  0  0  0  0
  4 19  1  0  0  0  0
  5  6  1  0  0  0  0
  5 31  1  0  0  0  0
  6  7  2  0  0  0  0
  6 15  1  0  0  0  0
  7  8  1  0  0  0  0
  8  9  2  0  0  0  0
  9 10  1  0  0  0  0
  9 11  1  0  0  0  0
 10 32  1  0  0  0  0
 11 12  1  0  0  0  0
 11 13  1  0  0  0  0
 11 14  1  0  0  0  0
 15 16  1  0  0  0  0
 15 17  1  0  0  0  0
 15 18  1  0  0  0  0
 19 20  1  6  0  0  0
 19 21  1  0  0  0  0
 19 28  1  0  0  0  0
 21 22  1  1  0  0  0
 21 27  1  0  0  0  0
 21 23  1  0  0  0  0
 23 24  1  0  0  0  0
 23 33  1  0  0  0  0
 23 34  1  0  0  0  0
 24 25  1  0  0  0  0
 24 35  1  0  0  0  0
 24 36  1  0  0  0  0
 25 26  1  0  0  0  0
 25 37  1  0  0  0  0
 25 38  1  0  0  0  0
 26 27  1  0  0  0  0
 26 39  1  0  0  0  0
 26 40  1  0  0  0  0
 27 41  1  0  0  0  0
 27 43  1  0  0  0  0
 28 42  1  0  0  0  0
M  CHG  1  27   1
M  END
$$$$
