ZINC00896698
 OpenBabel08292219463D

 48 49  0  0  1  0  0  0  0  0999 V2000
   -0.1373    1.5249   -0.3559 C   0  0  0  0  0  0  0  0  0  0  0  0
   -0.1036    0.0620   -0.2268 N   0  3  0  0  0  0  0  0  0  0  0  0
   -1.4713   -0.4682   -0.3061 C   0  0  0  0  0  0  0  0  0  0  0  0
    0.7059   -0.5070   -1.3126 C   0  0  0  0  0  0  0  0  0  0  0  0
    2.1588   -0.0534   -1.1571 C   0  0  1  0  0  0  0  0  0  0  0  0
    2.1967    1.0350   -1.1111 H   0  0  0  0  0  0  0  0  0  0  0  0
    2.7320   -0.6300    0.1118 C   0  0  0  0  0  0  0  0  0  0  0  0
    2.6846   -1.9940    0.3330 C   0  0  0  0  0  0  0  0  0  0  0  0
    3.2089   -2.5250    1.4955 C   0  0  0  0  0  0  0  0  0  0  0  0
    3.7838   -1.6885    2.4412 C   0  0  0  0  0  0  0  0  0  0  0  0
    3.8306   -0.3203    2.2167 C   0  0  0  0  0  0  0  0  0  0  0  0
    3.3095    0.2053    1.0502 C   0  0  0  0  0  0  0  0  0  0  0  0
    4.2999   -2.2084    3.5859 O   0  0  0  0  0  0  0  0  0  0  0  0
    4.8761   -1.2877    4.5145 C   0  0  0  0  0  0  0  0  0  0  0  0
    2.9765   -0.5420   -2.3543 C   0  0  0  0  0  0  0  0  0  0  0  0
    4.4538   -0.2116   -2.1319 C   0  0  0  0  0  0  0  0  0  0  0  0
    5.2715   -0.7003   -3.3291 C   0  0  0  0  0  0  0  0  0  0  0  0
    4.7794   -0.0058   -4.6005 C   0  0  0  0  0  0  0  0  0  0  0  0
    3.3022   -0.3362   -4.8229 C   0  0  0  0  0  0  0  0  0  0  0  0
    2.4844    0.1524   -3.6257 C   0  0  0  0  0  0  0  0  0  0  0  0
    2.8203   -1.9557   -2.4928 O   0  0  0  0  0  0  0  0  0  0  0  0
    0.8775    1.9183   -0.2970 H   0  0  0  0  0  0  0  0  0  0  0  0
   -0.5765    1.7948   -1.3163 H   0  0  0  0  0  0  0  0  0  0  0  0
   -0.7380    1.9470    0.4497 H   0  0  0  0  0  0  0  0  0  0  0  0
   -1.9105   -0.1983   -1.2665 H   0  0  0  0  0  0  0  0  0  0  0  0
   -1.4463   -1.5537   -0.2103 H   0  0  0  0  0  0  0  0  0  0  0  0
   -2.0720   -0.0461    0.4996 H   0  0  0  0  0  0  0  0  0  0  0  0
    0.6583   -1.5951   -1.2694 H   0  0  0  0  0  0  0  0  0  0  0  0
    0.3189   -0.1642   -2.2722 H   0  0  0  0  0  0  0  0  0  0  0  0
    2.2369   -2.6448   -0.4035 H   0  0  0  0  0  0  0  0  0  0  0  0
    3.1710   -3.5905    1.6682 H   0  0  0  0  0  0  0  0  0  0  0  0
    4.2776    0.3330    2.9514 H   0  0  0  0  0  0  0  0  0  0  0  0
    3.3496    1.2699    0.8729 H   0  0  0  0  0  0  0  0  0  0  0  0
    5.6995   -0.7570    4.0365 H   0  0  0  0  0  0  0  0  0  0  0  0
    4.1188   -0.5716    4.8335 H   0  0  0  0  0  0  0  0  0  0  0  0
    5.2495   -1.8322    5.3818 H   0  0  0  0  0  0  0  0  0  0  0  0
    4.5730    0.8667   -2.0263 H   0  0  0  0  0  0  0  0  0  0  0  0
    4.8044   -0.7063   -1.2261 H   0  0  0  0  0  0  0  0  0  0  0  0
    6.3240   -0.4648   -3.1707 H   0  0  0  0  0  0  0  0  0  0  0  0
    5.1523   -1.7786   -3.4347 H   0  0  0  0  0  0  0  0  0  0  0  0
    4.8986    1.0725   -4.4949 H   0  0  0  0  0  0  0  0  0  0  0  0
    5.3620   -0.3539   -5.4534 H   0  0  0  0  0  0  0  0  0  0  0  0
    2.9515    0.1585   -5.7287 H   0  0  0  0  0  0  0  0  0  0  0  0
    3.1829   -1.4145   -4.9285 H   0  0  0  0  0  0  0  0  0  0  0  0
    1.4320   -0.0830   -3.7841 H   0  0  0  0  0  0  0  0  0  0  0  0
    2.6036    1.2307   -3.5201 H   0  0  0  0  0  0  0  0  0  0  0  0
    3.3122   -2.3351   -3.2338 H   0  0  0  0  0  0  0  0  0  0  0  0
    0.3029   -0.1879    0.6623 H   0  0  0  0  0  0  0  0  0  0  0  0
  1  2  1  0  0  0  0
  1 22  1  0  0  0  0
  1 23  1  0  0  0  0
  1 24  1  0  0  0  0
  2  3  1  0  0  0  0
  2  4  1  0  0  0  0
  2 48  1  0  0  0  0
  3 25  1  0  0  0  0
  3 26  1  0  0  0  0
  3 27  1  0  0  0  0
  4  5  1  0  0  0  0
  4 28  1  0  0  0  0
  4 29  1  0  0  0  0
  5  6  1  1  0  0  0
  5  7  1  0  0  0  0
  5 15  1  0  0  0  0
  7 12  2  0  0  0  0
  7  8  1  0  0  0  0
  8  9  2  0  0  0  0
  8 30  1  0  0  0  0
  9 10  1  0  0  0  0
  9 31  1  0  0  0  0
 10 11  2  0  0  0  0
 10 13  1  0  0  0  0
 11 12  1  0  0  0  0
 11 32  1  0  0  0  0
 12 33  1  0  0  0  0
 13 14  1  0  0  0  0
 14 34  1  0  0  0  0
 14 35  1  0  0  0  0
 14 36  1  0  0  0  0
 15 20  1  0  0  0  0
 15 16  1  0  0  0  0
 15 21  1  0  0  0  0
 16 17  1  0  0  0  0
 16 37  1  0  0  0  0
 16 38  1  0  0  0  0
 17 18  1  0  0  0  0
 17 39  1  0  0  0  0
 17 40  1  0  0  0  0
 18 19  1  0  0  0  0
 18 41  1  0  0  0  0
 18 42  1  0  0  0  0
 19 20  1  0  0  0  0
 19 43  1  0  0  0  0
 19 44  1  0  0  0  0
 20 45  1  0  0  0  0
 20 46  1  0  0  0  0
 21 47  1  0  0  0  0
M  CHG  1   2   1
M  END
$$$$
