ZINC01719652
 OpenBabel08292219463D

 53 54  0  0  1  0  0  0  0  0999 V2000
   -2.5137    0.9767    0.0193 C   0  0  0  0  0  0  0  0  0  0  0  0
   -1.2201    1.7497    0.0174 C   0  0  0  0  0  0  0  0  0  0  0  0
   -0.0126    1.0758    0.0080 C   0  0  0  0  0  0  0  0  0  0  0  0
    1.1758    1.7821    0.0004 C   0  0  0  0  0  0  0  0  0  0  0  0
    1.1597    3.1636    0.0080 C   0  0  0  0  0  0  0  0  0  0  0  0
   -0.0501    3.8419    0.0232 C   0  0  0  0  0  0  0  0  0  0  0  0
   -1.2415    3.1307    0.0307 C   0  0  0  0  0  0  0  0  0  0  0  0
   -0.0685    5.2008    0.0311 O   0  0  0  0  0  0  0  0  0  0  0  0
    1.1957    5.8668    0.0231 C   0  0  0  0  0  0  0  0  0  0  0  0
    0.9747    7.3807    0.0338 C   0  0  1  0  0  0  0  0  0  0  0  0
    0.3469    7.6503    0.8830 H   0  0  0  0  0  0  0  0  0  0  0  0
    2.3241    8.0923    0.1509 C   0  0  0  0  0  0  0  0  0  0  0  0
    3.3818   10.2564    0.3967 C   0  0  0  0  0  0  0  0  0  0  0  0
    3.1134   11.7567    0.5308 C   0  0  0  0  0  0  0  0  0  0  0  0
    4.4231   12.4928    0.6488 C   0  0  0  0  0  0  0  0  0  0  0  0
    4.9765   12.7203    1.8952 C   0  0  0  0  0  0  0  0  0  0  0  0
    6.1806   13.3900    2.0084 C   0  0  0  0  0  0  0  0  0  0  0  0
    6.8299   13.8448    0.8719 C   0  0  0  0  0  0  0  0  0  0  0  0
    6.2701   13.6208   -0.3822 C   0  0  0  0  0  0  0  0  0  0  0  0
    5.0658   12.9438   -0.4890 C   0  0  0  0  0  0  0  0  0  0  0  0
    6.9038   14.0648   -1.5005 O   0  0  0  0  0  0  0  0  0  0  0  0
    6.2709   13.7985   -2.7538 C   0  0  0  0  0  0  0  0  0  0  0  0
    8.0119   14.5083    0.9819 O   0  0  0  0  0  0  0  0  0  0  0  0
    8.5269   14.7020    2.3007 C   0  0  0  0  0  0  0  0  0  0  0  0
    0.3311    7.7767   -1.1791 O   0  0  0  0  0  0  0  0  0  0  0  0
   -2.8207    0.7847    1.0474 H   0  0  0  0  0  0  0  0  0  0  0  0
   -3.2846    1.5570   -0.4877 H   0  0  0  0  0  0  0  0  0  0  0  0
   -2.3715    0.0291   -0.5004 H   0  0  0  0  0  0  0  0  0  0  0  0
    0.0021   -0.0041    0.0020 H   0  0  0  0  0  0  0  0  0  0  0  0
    2.1175    1.2535   -0.0118 H   0  0  0  0  0  0  0  0  0  0  0  0
    2.0884    3.7150    0.0024 H   0  0  0  0  0  0  0  0  0  0  0  0
   -2.1848    3.6566    0.0426 H   0  0  0  0  0  0  0  0  0  0  0  0
    1.7650    5.5765    0.9061 H   0  0  0  0  0  0  0  0  0  0  0  0
    1.7483    5.5866   -0.8737 H   0  0  0  0  0  0  0  0  0  0  0  0
    2.8539    7.7242    1.0295 H   0  0  0  0  0  0  0  0  0  0  0  0
    2.9182    7.8939   -0.7412 H   0  0  0  0  0  0  0  0  0  0  0  0
    3.9189    9.9033    1.2770 H   0  0  0  0  0  0  0  0  0  0  0  0
    3.9832   10.0731   -0.4937 H   0  0  0  0  0  0  0  0  0  0  0  0
    2.5763   12.1098   -0.3495 H   0  0  0  0  0  0  0  0  0  0  0  0
    2.5120   11.9401    1.4212 H   0  0  0  0  0  0  0  0  0  0  0  0
    4.4692   12.3702    2.7820 H   0  0  0  0  0  0  0  0  0  0  0  0
    6.6130   13.5626    2.9829 H   0  0  0  0  0  0  0  0  0  0  0  0
    4.6290   12.7689   -1.4611 H   0  0  0  0  0  0  0  0  0  0  0  0
    6.8793   14.2049   -3.5617 H   0  0  0  0  0  0  0  0  0  0  0  0
    6.1643   12.7218   -2.8855 H   0  0  0  0  0  0  0  0  0  0  0  0
    5.2862   14.2658   -2.7700 H   0  0  0  0  0  0  0  0  0  0  0  0
    9.4716   15.2430    2.2461 H   0  0  0  0  0  0  0  0  0  0  0  0
    7.8122   15.2776    2.8890 H   0  0  0  0  0  0  0  0  0  0  0  0
    8.6897   13.7333    2.7731 H   0  0  0  0  0  0  0  0  0  0  0  0
    0.8343    7.5675   -1.9779 H   0  0  0  0  0  0  0  0  0  0  0  0
    2.0955    9.5437    0.2817 N   0  3  0  0  0  0  0  0  0  0  0  0
    1.5324    9.7236    1.1212 H   0  0  0  0  0  0  0  0  0  0  0  0
    1.5929    9.8834   -0.5467 H   0  0  0  0  0  0  0  0  0  0  0  0
  1  2  1  0  0  0  0
  1 26  1  0  0  0  0
  1 27  1  0  0  0  0
  1 28  1  0  0  0  0
  2  7  2  0  0  0  0
  2  3  1  0  0  0  0
  3  4  2  0  0  0  0
  3 29  1  0  0  0  0
  4  5  1  0  0  0  0
  4 30  1  0  0  0  0
  5  6  2  0  0  0  0
  5 31  1  0  0  0  0
  6  7  1  0  0  0  0
  6  8  1  0  0  0  0
  7 32  1  0  0  0  0
  8  9  1  0  0  0  0
  9 10  1  0  0  0  0
  9 33  1  0  0  0  0
  9 34  1  0  0  0  0
 10 11  1  1  0  0  0
 10 12  1  0  0  0  0
 10 25  1  0  0  0  0
 12 35  1  0  0  0  0
 12 36  1  0  0  0  0
 12 51  1  0  0  0  0
 13 14  1  0  0  0  0
 13 37  1  0  0  0  0
 13 38  1  0  0  0  0
 13 51  1  0  0  0  0
 14 15  1  0  0  0  0
 14 39  1  0  0  0  0
 14 40  1  0  0  0  0
 15 20  2  0  0  0  0
 15 16  1  0  0  0  0
 16 17  2  0  0  0  0
 16 41  1  0  0  0  0
 17 18  1  0  0  0  0
 17 42  1  0  0  0  0
 18 19  2  0  0  0  0
 18 23  1  0  0  0  0
 19 20  1  0  0  0  0
 19 21  1  0  0  0  0
 20 43  1  0  0  0  0
 21 22  1  0  0  0  0
 22 44  1  0  0  0  0
 22 45  1  0  0  0  0
 22 46  1  0  0  0  0
 23 24  1  0  0  0  0
 24 47  1  0  0  0  0
 24 48  1  0  0  0  0
 24 49  1  0  0  0  0
 25 50  1  0  0  0  0
 51 52  1  0  0  0  0
 51 53  1  0  0  0  0
M  CHG  1  51   1
M  END
$$$$
