ZINC03873936
 OpenBabel08292219463D

 68 72  0  0  1  0  0  0  0  0999 V2000
    6.1690    0.6138   -0.7308 C   0  0  0  0  0  0  0  0  0  0  0  0
    4.8123    0.0880   -0.2578 C   0  0  0  0  0  0  0  0  0  0  0  0
    4.5306    0.6021    1.1554 C   0  0  0  0  0  0  0  0  0  0  0  0
    2.4581   -0.0236   -0.8148 C   0  0  0  0  0  0  0  0  0  0  0  0
    1.4073    0.4270   -1.8323 C   0  0  0  0  0  0  0  0  0  0  0  0
    1.3389    1.8949   -1.8445 N   0  0  0  0  0  0  0  0  0  0  0  0
    2.6411    2.4770   -2.1985 C   0  0  0  0  0  0  0  0  0  0  0  0
    3.6918    2.0264   -1.1810 C   0  0  0  0  0  0  0  0  0  0  0  0
    0.3367    2.3431   -2.7123 C   0  0  0  0  0  0  0  0  0  0  0  0
   -0.4276    1.4271   -3.4228 C   0  0  0  0  0  0  0  0  0  0  0  0
   -1.4210    1.8700   -4.2740 C   0  0  0  0  0  0  0  0  0  0  0  0
   -1.6467    3.2298   -4.4289 C   0  0  0  0  0  0  0  0  0  0  0  0
   -0.8795    4.1456   -3.7242 C   0  0  0  0  0  0  0  0  0  0  0  0
    0.1098    3.7042   -2.8676 C   0  0  0  0  0  0  0  0  0  0  0  0
   -2.6210    3.6653   -5.2719 O   0  0  0  0  0  0  0  0  0  0  0  0
   -3.3725    2.6672   -5.9655 C   0  0  0  0  0  0  0  0  0  0  0  0
   -4.4141    3.3428   -6.8598 C   0  0  1  0  0  0  0  0  0  0  0  0
   -3.9348    4.0365   -7.5506 H   0  0  0  0  0  0  0  0  0  0  0  0
   -5.2445    2.2849   -7.6285 C   0  0  0  0  0  0  0  0  0  0  0  0
   -6.4825    2.9975   -7.8647 O   0  0  0  0  0  0  0  0  0  0  0  0
   -6.6787    3.7946   -6.6846 C   0  0  2  0  0  0  0  0  0  0  0  0
   -5.4066    4.0209   -6.0634 O   0  0  0  0  0  0  0  0  0  0  0  0
   -7.6012    3.0559   -5.7129 C   0  0  0  0  0  0  0  0  0  0  0  0
   -7.8493    3.8975   -4.5397 N   0  0  0  0  0  0  0  0  0  0  0  0
   -9.0447    4.3016   -4.0764 C   0  0  0  0  0  0  0  0  0  0  0  0
   -8.8409    5.0357   -3.0128 N   0  0  0  0  0  0  0  0  0  0  0  0
   -7.5341    5.1225   -2.7672 C   0  0  0  0  0  0  0  0  0  0  0  0
   -6.8858    4.4374   -3.6721 N   0  0  0  0  0  0  0  0  0  0  0  0
   -7.2995    5.1147   -7.0627 C   0  0  0  0  0  0  0  0  0  0  0  0
   -6.7207    6.2969   -6.6401 C   0  0  0  0  0  0  0  0  0  0  0  0
   -7.2892    7.5078   -6.9868 C   0  0  0  0  0  0  0  0  0  0  0  0
   -8.4383    7.5377   -7.7573 C   0  0  0  0  0  0  0  0  0  0  0  0
   -9.0178    6.3553   -8.1805 C   0  0  0  0  0  0  0  0  0  0  0  0
   -8.4452    5.1434   -7.8375 C   0  0  0  0  0  0  0  0  0  0  0  0
   -9.1681    3.6590   -8.3737 Cl  0  0  0  0  0  0  0  0  0  0  0  0
   -9.1526    9.0590   -8.1923 Cl  0  0  0  0  0  0  0  0  0  0  0  0
    6.1543    1.7037   -0.7369 H   0  0  0  0  0  0  0  0  0  0  0  0
    6.9497    0.2647   -0.0549 H   0  0  0  0  0  0  0  0  0  0  0  0
    6.3697    0.2476   -1.7377 H   0  0  0  0  0  0  0  0  0  0  0  0
    4.8270   -1.0018   -0.2518 H   0  0  0  0  0  0  0  0  0  0  0  0
    4.5159    1.6920    1.1493 H   0  0  0  0  0  0  0  0  0  0  0  0
    3.5640    0.2276    1.4924 H   0  0  0  0  0  0  0  0  0  0  0  0
    5.3112    0.2531    1.8313 H   0  0  0  0  0  0  0  0  0  0  0  0
    2.1680    0.3126    0.1807 H   0  0  0  0  0  0  0  0  0  0  0  0
    2.5311   -1.1111   -0.8248 H   0  0  0  0  0  0  0  0  0  0  0  0
    0.4349    0.0200   -1.5553 H   0  0  0  0  0  0  0  0  0  0  0  0
    1.6834    0.0676   -2.8236 H   0  0  0  0  0  0  0  0  0  0  0  0
    2.9311    2.1408   -3.1940 H   0  0  0  0  0  0  0  0  0  0  0  0
    2.5681    3.5645   -2.1885 H   0  0  0  0  0  0  0  0  0  0  0  0
    3.4158    2.3859   -0.1897 H   0  0  0  0  0  0  0  0  0  0  0  0
    4.6644    2.4334   -1.4576 H   0  0  0  0  0  0  0  0  0  0  0  0
   -0.2486    0.3684   -3.3063 H   0  0  0  0  0  0  0  0  0  0  0  0
   -2.0190    1.1576   -4.8228 H   0  0  0  0  0  0  0  0  0  0  0  0
   -1.0562    5.2042   -3.8451 H   0  0  0  0  0  0  0  0  0  0  0  0
    0.7066    4.4174   -2.3184 H   0  0  0  0  0  0  0  0  0  0  0  0
   -2.7005    2.0677   -6.5795 H   0  0  0  0  0  0  0  0  0  0  0  0
   -3.8758    2.0242   -5.2435 H   0  0  0  0  0  0  0  0  0  0  0  0
   -4.7622    2.0182   -8.5689 H   0  0  0  0  0  0  0  0  0  0  0  0
   -5.4144    1.4005   -7.0143 H   0  0  0  0  0  0  0  0  0  0  0  0
   -8.5468    2.8338   -6.2073 H   0  0  0  0  0  0  0  0  0  0  0  0
   -7.1280    2.1254   -5.3990 H   0  0  0  0  0  0  0  0  0  0  0  0
  -10.0058    4.0626   -4.5073 H   0  0  0  0  0  0  0  0  0  0  0  0
   -7.0839    5.6669   -1.9503 H   0  0  0  0  0  0  0  0  0  0  0  0
   -5.8242    6.2740   -6.0384 H   0  0  0  0  0  0  0  0  0  0  0  0
   -6.8364    8.4311   -6.6566 H   0  0  0  0  0  0  0  0  0  0  0  0
   -9.9148    6.3782   -8.7816 H   0  0  0  0  0  0  0  0  0  0  0  0
    3.7662    0.5503   -1.1948 N   0  3  1  0  0  0  0  0  0  0  0  0
    4.0055    0.2371   -2.1429 H   0  0  0  0  0  0  0  0  0  0  0  0
  1  2  1  0  0  0  0
  1 37  1  0  0  0  0
  1 38  1  0  0  0  0
  1 39  1  0  0  0  0
  2  3  1  0  0  0  0
  2 40  1  0  0  0  0
  2 67  1  0  0  0  0
  3 41  1  0  0  0  0
  3 42  1  0  0  0  0
  3 43  1  0  0  0  0
  4  5  1  0  0  0  0
  4 44  1  0  0  0  0
  4 45  1  0  0  0  0
  4 67  1  0  0  0  0
  5  6  1  0  0  0  0
  5 46  1  0  0  0  0
  5 47  1  0  0  0  0
  6  7  1  0  0  0  0
  6  9  1  0  0  0  0
  7  8  1  0  0  0  0
  7 48  1  0  0  0  0
  7 49  1  0  0  0  0
  8 50  1  0  0  0  0
  8 51  1  0  0  0  0
  8 67  1  0  0  0  0
  9 14  2  0  0  0  0
  9 10  1  0  0  0  0
 10 11  2  0  0  0  0
 10 52  1  0  0  0  0
 11 12  1  0  0  0  0
 11 53  1  0  0  0  0
 12 13  2  0  0  0  0
 12 15  1  0  0  0  0
 13 14  1  0  0  0  0
 13 54  1  0  0  0  0
 14 55  1  0  0  0  0
 15 16  1  0  0  0  0
 16 17  1  0  0  0  0
 16 56  1  0  0  0  0
 16 57  1  0  0  0  0
 17 18  1  6  0  0  0
 17 22  1  0  0  0  0
 17 19  1  0  0  0  0
 19 20  1  0  0  0  0
 19 58  1  0  0  0  0
 19 59  1  0  0  0  0
 20 21  1  0  0  0  0
 21 22  1  0  0  0  0
 21 23  1  1  0  0  0
 21 29  1  0  0  0  0
 23 24  1  0  0  0  0
 23 60  1  0  0  0  0
 23 61  1  0  0  0  0
 24 28  1  0  0  0  0
 24 25  1  0  0  0  0
 25 26  2  0  0  0  0
 25 62  1  0  0  0  0
 26 27  1  0  0  0  0
 27 28  2  0  0  0  0
 27 63  1  0  0  0  0
 29 34  2  0  0  0  0
 29 30  1  0  0  0  0
 30 31  2  0  0  0  0
 30 64  1  0  0  0  0
 31 32  1  0  0  0  0
 31 65  1  0  0  0  0
 32 33  2  0  0  0  0
 32 36  1  0  0  0  0
 33 34  1  0  0  0  0
 33 66  1  0  0  0  0
 34 35  1  0  0  0  0
 67 68  1  6  0  0  0
M  CHG  1  67   1
M  END
$$$$
