ZINC03914808
 OpenBabel08292219463D

 67 70  0  0  1  0  0  0  0  0999 V2000
   -0.2212    1.5072    0.1531 C   0  0  0  0  0  0  0  0  0  0  0  0
    0.0016    0.0010    0.0027 C   0  0  2  0  0  0  0  0  0  0  0  0
    0.5215   -0.1976   -0.9345 H   0  0  0  0  0  0  0  0  0  0  0  0
   -1.3498   -0.7165   -0.0018 C   0  0  0  0  0  0  0  0  0  0  0  0
   -2.1447   -0.2991   -1.2407 C   0  0  0  0  0  0  0  0  0  0  0  0
   -3.4757   -1.0058   -1.2451 C   0  0  0  0  0  0  0  0  0  0  0  0
   -3.7620   -1.7722   -0.3411 O   0  0  0  0  0  0  0  0  0  0  0  0
   -4.2663   -0.8111   -2.1526 O   0  0  0  0  0  1  0  0  0  0  0  0
    0.8459   -0.5090    1.1723 C   0  0  1  0  0  0  0  0  0  0  0  0
    0.3732   -0.2502    2.1197 H   0  0  0  0  0  0  0  0  0  0  0  0
    1.0357   -2.0430    1.0685 C   0  0  0  0  0  0  0  0  0  0  0  0
    2.5681   -2.2933    1.0317 C   0  0  0  0  0  0  0  0  0  0  0  0
    3.1358   -1.0444    1.7148 C   0  0  2  0  0  0  0  0  0  0  0  0
    2.9879   -1.1011    2.7932 H   0  0  0  0  0  0  0  0  0  0  0  0
    2.2516    0.0786    1.1050 C   0  0  2  0  0  0  0  0  0  0  0  0
    2.4977    1.3405    1.9084 C   0  0  0  0  0  0  0  0  0  0  0  0
    3.9687    1.7373    1.6975 C   0  0  0  0  0  0  0  0  0  0  0  0
    4.9117    0.6122    2.1096 C   0  0  1  0  0  0  0  0  0  0  0  0
    4.8124    0.4442    3.1820 H   0  0  0  0  0  0  0  0  0  0  0  0
    4.5826   -0.7160    1.3974 C   0  0  1  0  0  0  0  0  0  0  0  0
    4.7037   -0.5876    0.3217 H   0  0  0  0  0  0  0  0  0  0  0  0
    5.5046   -1.8218    1.9133 C   0  0  1  0  0  0  0  0  0  0  0  0
    5.2668   -2.7581    1.4084 H   0  0  0  0  0  0  0  0  0  0  0  0
    6.9603   -1.4452    1.6304 C   0  0  0  0  0  0  0  0  0  0  0  0
    7.2959   -0.1318    2.3400 C   0  0  1  0  0  0  0  0  0  0  0  0
    8.3338    0.1349    2.1405 H   0  0  0  0  0  0  0  0  0  0  0  0
    6.3582    1.0021    1.8026 C   0  0  2  0  0  0  0  0  0  0  0  0
    6.6940    2.3138    2.5159 C   0  0  0  0  0  0  0  0  0  0  0  0
    6.5085    2.1339    4.0240 C   0  0  0  0  0  0  0  0  0  0  0  0
    7.4413    1.0291    4.5246 C   0  0  2  0  0  0  0  0  0  0  0  0
    8.4752    1.3053    4.3178 H   0  0  0  0  0  0  0  0  0  0  0  0
    7.0925   -0.3015    3.8471 C   0  0  0  0  0  0  0  0  0  0  0  0
    7.2661    0.8597    5.9326 O   0  0  0  0  0  0  0  0  0  0  0  0
    6.5311    1.1775    0.2925 C   0  0  0  0  0  0  0  0  0  0  0  0
    5.3182   -1.9791    3.3213 O   0  0  0  0  0  0  0  0  0  0  0  0
    2.6458    0.3108   -0.3550 C   0  0  0  0  0  0  0  0  0  0  0  0
    0.7426    2.0125    0.2156 H   0  0  0  0  0  0  0  0  0  0  0  0
   -0.7722    1.8810   -0.7099 H   0  0  0  0  0  0  0  0  0  0  0  0
   -0.7926    1.7011    1.0608 H   0  0  0  0  0  0  0  0  0  0  0  0
   -1.1888   -1.7944   -0.0195 H   0  0  0  0  0  0  0  0  0  0  0  0
   -1.9072   -0.4470    0.8953 H   0  0  0  0  0  0  0  0  0  0  0  0
   -2.3056    0.7788   -1.2230 H   0  0  0  0  0  0  0  0  0  0  0  0
   -1.5873   -0.5686   -2.1378 H   0  0  0  0  0  0  0  0  0  0  0  0
    0.5972   -2.5338    1.9374 H   0  0  0  0  0  0  0  0  0  0  0  0
    0.5736   -2.4162    0.1546 H   0  0  0  0  0  0  0  0  0  0  0  0
    2.8259   -3.1911    1.5935 H   0  0  0  0  0  0  0  0  0  0  0  0
    2.9226   -2.3654    0.0035 H   0  0  0  0  0  0  0  0  0  0  0  0
    1.8441    2.1382    1.5555 H   0  0  0  0  0  0  0  0  0  0  0  0
    2.3131    1.1490    2.9655 H   0  0  0  0  0  0  0  0  0  0  0  0
    4.1282    1.9688    0.6444 H   0  0  0  0  0  0  0  0  0  0  0  0
    4.1882    2.6230    2.2936 H   0  0  0  0  0  0  0  0  0  0  0  0
    7.6173   -2.2341    1.9968 H   0  0  0  0  0  0  0  0  0  0  0  0
    7.1021   -1.3244    0.5565 H   0  0  0  0  0  0  0  0  0  0  0  0
    7.7283    2.5869    2.3068 H   0  0  0  0  0  0  0  0  0  0  0  0
    6.0304    3.1017    2.1594 H   0  0  0  0  0  0  0  0  0  0  0  0
    6.7456    3.0680    4.5332 H   0  0  0  0  0  0  0  0  0  0  0  0
    5.4747    1.8587    4.2326 H   0  0  0  0  0  0  0  0  0  0  0  0
    6.0547   -0.5693    4.0456 H   0  0  0  0  0  0  0  0  0  0  0  0
    7.7479   -1.0907    4.2154 H   0  0  0  0  0  0  0  0  0  0  0  0
    7.4590    1.6528    6.4512 H   0  0  0  0  0  0  0  0  0  0  0  0
    5.8612    1.9612   -0.0613 H   0  0  0  0  0  0  0  0  0  0  0  0
    7.5623    1.4554    0.0747 H   0  0  0  0  0  0  0  0  0  0  0  0
    6.2929    0.2410   -0.2117 H   0  0  0  0  0  0  0  0  0  0  0  0
    5.8724   -2.6655    3.7172 H   0  0  0  0  0  0  0  0  0  0  0  0
    2.0126    1.0878   -0.7831 H   0  0  0  0  0  0  0  0  0  0  0  0
    3.6887    0.6238   -0.4044 H   0  0  0  0  0  0  0  0  0  0  0  0
    2.5169   -0.6139   -0.9176 H   0  0  0  0  0  0  0  0  0  0  0  0
  1  2  1  0  0  0  0
  1 37  1  0  0  0  0
  1 38  1  0  0  0  0
  1 39  1  0  0  0  0
  2  3  1  6  0  0  0
  2  4  1  0  0  0  0
  2  9  1  0  0  0  0
  4  5  1  0  0  0  0
  4 40  1  0  0  0  0
  4 41  1  0  0  0  0
  5  6  1  0  0  0  0
  5 42  1  0  0  0  0
  5 43  1  0  0  0  0
  6  7  2  0  0  0  0
  6  8  1  0  0  0  0
  9 10  1  1  0  0  0
  9 15  1  0  0  0  0
  9 11  1  0  0  0  0
 11 12  1  0  0  0  0
 11 44  1  0  0  0  0
 11 45  1  0  0  0  0
 12 13  1  0  0  0  0
 12 46  1  0  0  0  0
 12 47  1  0  0  0  0
 13 14  1  1  0  0  0
 13 20  1  0  0  0  0
 13 15  1  0  0  0  0
 15 16  1  0  0  0  0
 15 36  1  6  0  0  0
 16 17  1  0  0  0  0
 16 48  1  0  0  0  0
 16 49  1  0  0  0  0
 17 18  1  0  0  0  0
 17 50  1  0  0  0  0
 17 51  1  0  0  0  0
 18 19  1  1  0  0  0
 18 27  1  0  0  0  0
 18 20  1  0  0  0  0
 20 21  1  6  0  0  0
 20 22  1  0  0  0  0
 22 23  1  6  0  0  0
 22 24  1  0  0  0  0
 22 35  1  0  0  0  0
 24 25  1  0  0  0  0
 24 52  1  0  0  0  0
 24 53  1  0  0  0  0
 25 26  1  6  0  0  0
 25 32  1  0  0  0  0
 25 27  1  0  0  0  0
 27 28  1  0  0  0  0
 27 34  1  6  0  0  0
 28 29  1  0  0  0  0
 28 54  1  0  0  0  0
 28 55  1  0  0  0  0
 29 30  1  0  0  0  0
 29 56  1  0  0  0  0
 29 57  1  0  0  0  0
 30 31  1  6  0  0  0
 30 32  1  0  0  0  0
 30 33  1  0  0  0  0
 32 58  1  0  0  0  0
 32 59  1  0  0  0  0
 33 60  1  0  0  0  0
 34 61  1  0  0  0  0
 34 62  1  0  0  0  0
 34 63  1  0  0  0  0
 35 64  1  0  0  0  0
 36 65  1  0  0  0  0
 36 66  1  0  0  0  0
 36 67  1  0  0  0  0
M  END
$$$$
