ZINC00000740
 OpenBabel08292219463D

 34 36  0  0  1  0  0  0  0  0999 V2000
    0.5655    1.4218    0.1930 C   0  0  0  0  0  0  0  0  0  0  0  0
    0.3241   -0.0205    0.1050 N   0  0  0  0  0  0  0  0  0  0  0  0
   -0.9922   -0.4528    0.1629 C   0  0  0  0  0  0  0  0  0  0  0  0
   -1.9451    0.2999   -0.5268 C   0  0  0  0  0  0  0  0  0  0  0  0
   -3.2728   -0.0659   -0.5143 C   0  0  0  0  0  0  0  0  0  0  0  0
   -3.6774   -1.1911    0.1870 C   0  0  0  0  0  0  0  0  0  0  0  0
   -2.7517   -1.9450    0.8722 C   0  0  0  0  0  0  0  0  0  0  0  0
   -1.3953   -1.5850    0.8676 C   0  0  0  0  0  0  0  0  0  0  0  0
   -0.4607   -2.4388    1.6175 C   0  0  0  0  0  0  0  0  0  0  0  0
    0.7148   -2.7718    1.2166 N   0  0  0  0  0  0  0  0  0  0  0  0
    1.2535   -2.3113   -0.0626 C   0  0  2  0  0  0  0  0  0  0  0  0
    2.2328   -2.7601   -0.2291 H   0  0  0  0  0  0  0  0  0  0  0  0
    1.3850   -0.8130   -0.0297 C   0  0  0  0  0  0  0  0  0  0  0  0
    2.4866   -0.3144   -0.1241 O   0  0  0  0  0  0  0  0  0  0  0  0
    0.3681   -2.6891   -1.1187 O   0  0  0  0  0  0  0  0  0  0  0  0
   -0.9076   -2.9538    2.9327 C   0  0  0  0  0  0  0  0  0  0  0  0
   -0.3330   -4.1079    3.4647 C   0  0  0  0  0  0  0  0  0  0  0  0
   -0.7535   -4.5827    4.6901 C   0  0  0  0  0  0  0  0  0  0  0  0
   -1.7429   -3.9163    5.3909 C   0  0  0  0  0  0  0  0  0  0  0  0
   -2.3166   -2.7710    4.8684 C   0  0  0  0  0  0  0  0  0  0  0  0
   -1.9005   -2.2832    3.6466 C   0  0  0  0  0  0  0  0  0  0  0  0
   -5.3518   -1.6491    0.2015 Cl  0  0  0  0  0  0  0  0  0  0  0  0
    1.6363    1.6155    0.1298 H   0  0  0  0  0  0  0  0  0  0  0  0
    0.0560    1.9263   -0.6279 H   0  0  0  0  0  0  0  0  0  0  0  0
    0.1840    1.7968    1.1427 H   0  0  0  0  0  0  0  0  0  0  0  0
   -1.6377    1.1780   -1.0753 H   0  0  0  0  0  0  0  0  0  0  0  0
   -3.9998    0.5247   -1.0520 H   0  0  0  0  0  0  0  0  0  0  0  0
   -3.0718   -2.8207    1.4173 H   0  0  0  0  0  0  0  0  0  0  0  0
    0.2311   -3.6434   -1.1946 H   0  0  0  0  0  0  0  0  0  0  0  0
    0.4392   -4.6292    2.9184 H   0  0  0  0  0  0  0  0  0  0  0  0
   -0.3096   -5.4765    5.1029 H   0  0  0  0  0  0  0  0  0  0  0  0
   -2.0690   -4.2920    6.3495 H   0  0  0  0  0  0  0  0  0  0  0  0
   -3.0889   -2.2553    5.4199 H   0  0  0  0  0  0  0  0  0  0  0  0
   -2.3460   -1.3865    3.2417 H   0  0  0  0  0  0  0  0  0  0  0  0
  1  2  1  0  0  0  0
  1 23  1  0  0  0  0
  1 24  1  0  0  0  0
  1 25  1  0  0  0  0
  2 13  1  0  0  0  0
  2  3  1  0  0  0  0
  3  8  2  0  0  0  0
  3  4  1  0  0  0  0
  4  5  2  0  0  0  0
  4 26  1  0  0  0  0
  5  6  1  0  0  0  0
  5 27  1  0  0  0  0
  6  7  2  0  0  0  0
  6 22  1  0  0  0  0
  7  8  1  0  0  0  0
  7 28  1  0  0  0  0
  8  9  1  0  0  0  0
  9 10  2  0  0  0  0
  9 16  1  0  0  0  0
 10 11  1  0  0  0  0
 11 12  1  6  0  0  0
 11 13  1  0  0  0  0
 11 15  1  0  0  0  0
 13 14  2  0  0  0  0
 15 29  1  0  0  0  0
 16 21  2  0  0  0  0
 16 17  1  0  0  0  0
 17 18  2  0  0  0  0
 17 30  1  0  0  0  0
 18 19  1  0  0  0  0
 18 31  1  0  0  0  0
 19 20  2  0  0  0  0
 19 32  1  0  0  0  0
 20 21  1  0  0  0  0
 20 33  1  0  0  0  0
 21 34  1  0  0  0  0
M  END
$$$$
