ZINC13513943
 OpenBabel08292219463D

 53 55  0  0  1  0  0  0  0  0999 V2000
   -1.6433    5.1588    2.8196 C   0  0  0  0  0  0  0  0  0  0  0  0
   -1.4997    3.8096    2.5904 C   0  0  0  0  0  0  0  0  0  0  0  0
   -0.8478    3.3622    1.4445 C   0  0  0  0  0  0  0  0  0  0  0  0
   -0.3343    4.2777    0.5300 C   0  0  0  0  0  0  0  0  0  0  0  0
   -0.4797    5.6282    0.7507 C   0  0  0  0  0  0  0  0  0  0  0  0
   -1.1337    6.0806    1.9004 C   0  0  0  0  0  0  0  0  0  0  0  0
   -1.2855    7.5277    2.1433 C   0  0  0  0  0  0  0  0  0  0  0  0
   -1.8543    7.9198    3.1439 O   0  0  0  0  0  0  0  0  0  0  0  0
   -0.7937    8.4152    1.2562 N   0  0  0  0  0  0  0  0  0  0  0  0
   -0.9445    9.8523    1.4974 C   0  0  1  0  0  0  0  0  0  0  0  0
   -0.8815   10.0147    2.5835 H   0  0  0  0  0  0  0  0  0  0  0  0
    0.1624   10.6115    0.7631 C   0  0  0  0  0  0  0  0  0  0  0  0
    1.5200   10.2405    1.3633 C   0  0  0  0  0  0  0  0  0  0  0  0
    2.6103   10.9884    0.6400 C   0  0  0  0  0  0  0  0  0  0  0  0
    2.3302   11.7409   -0.2629 O   0  0  0  0  0  0  0  0  0  0  0  0
    3.8925   10.8185    0.9988 O   0  0  0  0  0  1  0  0  0  0  0  0
   -2.2882   10.3085    0.9903 C   0  0  0  0  0  0  0  0  0  0  0  0
   -3.0426    9.5147    0.4797 O   0  0  0  0  0  0  0  0  0  0  0  0
   -2.6471   11.5968    1.1058 O   0  0  0  0  0  1  0  0  0  0  0  0
   -0.7044    1.9982    1.2158 N   0  0  0  0  0  0  0  0  0  0  0  0
   -0.0187    1.5258    0.0104 C   0  0  0  0  0  0  0  0  0  0  0  0
    0.0021   -0.0041    0.0020 C   0  0  2  0  0  0  0  0  0  0  0  0
    0.5788   -0.3802    0.8599 H   0  0  0  0  0  0  0  0  0  0  0  0
    0.5938   -0.5031   -1.3240 C   0  0  0  0  0  0  0  0  0  0  0  0
    0.6008   -1.9745   -1.2722 N   0  0  0  0  0  0  0  0  0  0  0  0
   -0.5027   -2.6101   -0.7330 C   0  0  0  0  0  0  0  0  0  0  0  0
   -1.4493   -1.9073   -0.0493 C   0  0  0  0  0  0  0  0  0  0  0  0
   -2.5509   -2.6110    0.4927 C   0  0  0  0  0  0  0  0  0  0  0  0
   -3.4144   -2.0119    1.1186 O   0  0  0  0  0  0  0  0  0  0  0  0
   -2.6441   -3.9373    0.3177 N   0  0  0  0  0  0  0  0  0  0  0  0
   -1.7256   -4.6011   -0.3505 C   0  0  0  0  0  0  0  0  0  0  0  0
   -0.6484   -3.9658   -0.8854 N   0  0  0  0  0  0  0  0  0  0  0  0
    0.1068   -4.5411   -1.4410 H   0  0  0  0  0  0  0  0  0  0  0  0
   -1.8567   -5.9568   -0.5108 N   0  0  0  0  0  0  0  0  0  0  0  0
   -1.3666   -0.5147    0.1328 N   0  0  0  0  0  0  0  0  0  0  0  0
   -2.1494    5.5053    3.7086 H   0  0  0  0  0  0  0  0  0  0  0  0
   -1.8929    3.0970    3.3004 H   0  0  0  0  0  0  0  0  0  0  0  0
    0.1751    3.9276   -0.3557 H   0  0  0  0  0  0  0  0  0  0  0  0
   -0.0853    6.3378    0.0385 H   0  0  0  0  0  0  0  0  0  0  0  0
   -0.2791    8.0605    0.3510 H   0  0  0  0  0  0  0  0  0  0  0  0
    0.1469   10.3417   -0.3032 H   0  0  0  0  0  0  0  0  0  0  0  0
   -0.0023   11.6938    0.8699 H   0  0  0  0  0  0  0  0  0  0  0  0
    1.5355   10.5102    2.4296 H   0  0  0  0  0  0  0  0  0  0  0  0
    1.6847    9.1582    1.2565 H   0  0  0  0  0  0  0  0  0  0  0  0
   -1.1057    1.2738    1.9398 H   0  0  0  0  0  0  0  0  0  0  0  0
   -0.5508    1.8902   -0.8807 H   0  0  0  0  0  0  0  0  0  0  0  0
    1.0132    1.9066    0.0025 H   0  0  0  0  0  0  0  0  0  0  0  0
   -0.0279   -0.1486   -2.1594 H   0  0  0  0  0  0  0  0  0  0  0  0
    1.6169   -0.1153   -1.4380 H   0  0  0  0  0  0  0  0  0  0  0  0
    1.4666   -2.5342   -1.6557 H   0  0  0  0  0  0  0  0  0  0  0  0
   -1.0942   -6.5210   -1.0678 H   0  0  0  0  0  0  0  0  0  0  0  0
   -2.7243   -6.4799   -0.0824 H   0  0  0  0  0  0  0  0  0  0  0  0
   -2.1932    0.1773    0.3514 H   0  0  0  0  0  0  0  0  0  0  0  0
  1  6  2  0  0  0  0
  1  2  1  0  0  0  0
  1 36  1  0  0  0  0
  2  3  2  0  0  0  0
  2 37  1  0  0  0  0
  3  4  1  0  0  0  0
  3 20  1  0  0  0  0
  4  5  2  0  0  0  0
  4 38  1  0  0  0  0
  5  6  1  0  0  0  0
  5 39  1  0  0  0  0
  6  7  1  0  0  0  0
  7  8  2  0  0  0  0
  7  9  1  0  0  0  0
  9 10  1  0  0  0  0
  9 40  1  0  0  0  0
 10 11  1  1  0  0  0
 10 12  1  0  0  0  0
 10 17  1  0  0  0  0
 12 13  1  0  0  0  0
 12 41  1  0  0  0  0
 12 42  1  0  0  0  0
 13 14  1  0  0  0  0
 13 43  1  0  0  0  0
 13 44  1  0  0  0  0
 14 15  2  0  0  0  0
 14 16  1  0  0  0  0
 17 18  2  0  0  0  0
 17 19  1  0  0  0  0
 20 21  1  0  0  0  0
 20 45  1  0  0  0  0
 21 22  1  0  0  0  0
 21 46  1  0  0  0  0
 21 47  1  0  0  0  0
 22 23  1  1  0  0  0
 22 35  1  0  0  0  0
 22 24  1  0  0  0  0
 24 25  1  0  0  0  0
 24 48  1  0  0  0  0
 24 49  1  0  0  0  0
 25 26  1  0  0  0  0
 25 50  1  0  0  0  0
 26 32  1  0  0  0  0
 26 27  2  0  0  0  0
 27 28  1  0  0  0  0
 27 35  1  0  0  0  0
 28 29  2  0  0  0  0
 28 30  1  0  0  0  0
 30 31  2  0  0  0  0
 31 32  1  0  0  0  0
 31 34  1  0  0  0  0
 32 33  1  0  0  0  0
 34 51  1  0  0  0  0
 34 52  1  0  0  0  0
 35 53  1  0  0  0  0
M  END
$$$$
