ZINC03812983
 OpenBabel08292219463D

 41 45  0  0  1  0  0  0  0  0999 V2000
    2.5532   -4.0281   -1.2929 C   0  0  0  0  0  0  0  0  0  0  0  0
    3.5947   -1.8745   -0.9415 C   0  0  0  0  0  0  0  0  0  0  0  0
    3.6019   -0.5992   -0.0995 C   0  0  0  0  0  0  0  0  0  0  0  0
    2.2189    0.0434   -0.2379 C   0  0  2  0  0  0  0  0  0  0  0  0
    1.9436    0.2694   -1.7033 C   0  0  0  0  0  0  0  0  0  0  0  0
    1.3321   -0.5987   -2.5755 C   0  0  0  0  0  0  0  0  0  0  0  0
    1.2190   -0.1564   -3.8812 C   0  0  0  0  0  0  0  0  0  0  0  0
    1.6669    1.1083   -4.2290 C   0  0  0  0  0  0  0  0  0  0  0  0
    2.2257    2.0020   -3.3175 C   0  0  0  0  0  0  0  0  0  0  0  0
    2.3451    1.5675   -1.9939 C   0  0  0  0  0  0  0  0  0  0  0  0
    2.7949    2.1721   -0.8702 O   0  0  0  0  0  0  0  0  0  0  0  0
    2.1727    1.4792    0.2740 C   0  0  1  0  0  0  0  0  0  0  0  0
    2.6983    1.6223    1.2181 H   0  0  0  0  0  0  0  0  0  0  0  0
    0.7367    2.0155    0.2661 C   0  0  2  0  0  0  0  0  0  0  0  0
    0.6482    2.7733    1.0446 H   0  0  0  0  0  0  0  0  0  0  0  0
   -0.3150    0.9908    0.4879 C   0  0  0  0  0  0  0  0  0  0  0  0
   -0.1527   -0.2942    0.4717 C   0  0  0  0  0  0  0  0  0  0  0  0
    1.1799   -0.9197    0.2862 C   0  0  1  0  0  0  0  0  0  0  0  0
    1.5192   -1.2471    1.2689 H   0  0  0  0  0  0  0  0  0  0  0  0
    1.1821   -2.1468   -0.6151 C   0  0  1  0  0  0  0  0  0  0  0  0
    0.4619   -2.8606   -0.2153 H   0  0  0  0  0  0  0  0  0  0  0  0
    0.8134   -1.9003   -2.0558 C   0  0  0  0  0  0  0  0  0  0  0  0
    0.4964    2.6425   -0.9953 O   0  0  0  0  0  0  0  0  0  0  0  0
    2.6371    3.2410   -3.6984 O   0  0  0  0  0  0  0  0  0  0  0  0
    2.4612   -3.8104   -2.3570 H   0  0  0  0  0  0  0  0  0  0  0  0
    3.4994   -4.5361   -1.1065 H   0  0  0  0  0  0  0  0  0  0  0  0
    1.7289   -4.6694   -0.9807 H   0  0  0  0  0  0  0  0  0  0  0  0
    4.5493   -2.3884   -0.8287 H   0  0  0  0  0  0  0  0  0  0  0  0
    3.4563   -1.6019   -1.9877 H   0  0  0  0  0  0  0  0  0  0  0  0
    4.3670    0.0825   -0.4709 H   0  0  0  0  0  0  0  0  0  0  0  0
    3.7955   -0.8428    0.9451 H   0  0  0  0  0  0  0  0  0  0  0  0
    0.7809   -0.7981   -4.6314 H   0  0  0  0  0  0  0  0  0  0  0  0
    1.5779    1.4173   -5.2600 H   0  0  0  0  0  0  0  0  0  0  0  0
   -1.3148    1.3526    0.6772 H   0  0  0  0  0  0  0  0  0  0  0  0
   -1.0158   -0.9312    0.5970 H   0  0  0  0  0  0  0  0  0  0  0  0
   -0.2725   -1.9066   -2.1492 H   0  0  0  0  0  0  0  0  0  0  0  0
    1.2210   -2.7075   -2.6645 H   0  0  0  0  0  0  0  0  0  0  0  0
   -0.3623    3.0826   -1.0586 H   0  0  0  0  0  0  0  0  0  0  0  0
    3.5594    3.2780   -3.9865 H   0  0  0  0  0  0  0  0  0  0  0  0
    2.5173   -2.7921   -0.4927 N   0  3  1  0  0  0  0  0  0  0  0  0
    2.6774   -3.0298    0.4933 H   0  0  0  0  0  0  0  0  0  0  0  0
  1 25  1  0  0  0  0
  1 26  1  0  0  0  0
  1 27  1  0  0  0  0
  1 40  1  0  0  0  0
  2  3  1  0  0  0  0
  2 28  1  0  0  0  0
  2 29  1  0  0  0  0
  2 40  1  0  0  0  0
  3  4  1  0  0  0  0
  3 30  1  0  0  0  0
  3 31  1  0  0  0  0
  4 12  1  0  0  0  0
  4 18  1  0  0  0  0
  4  5  1  6  0  0  0
  5 10  2  0  0  0  0
  5  6  1  0  0  0  0
  6 22  1  0  0  0  0
  6  7  2  0  0  0  0
  7  8  1  0  0  0  0
  7 32  1  0  0  0  0
  8  9  2  0  0  0  0
  8 33  1  0  0  0  0
  9 10  1  0  0  0  0
  9 24  1  0  0  0  0
 10 11  1  0  0  0  0
 11 12  1  0  0  0  0
 12 13  1  1  0  0  0
 12 14  1  0  0  0  0
 14 15  1  1  0  0  0
 14 16  1  0  0  0  0
 14 23  1  0  0  0  0
 16 17  2  0  0  0  0
 16 34  1  0  0  0  0
 17 18  1  0  0  0  0
 17 35  1  0  0  0  0
 18 19  1  1  0  0  0
 18 20  1  0  0  0  0
 20 21  1  1  0  0  0
 20 22  1  0  0  0  0
 20 40  1  0  0  0  0
 22 36  1  0  0  0  0
 22 37  1  0  0  0  0
 23 38  1  0  0  0  0
 24 39  1  0  0  0  0
 40 41  1  1  0  0  0
M  CHG  1  40   1
M  END
$$$$
