ZINC30690433
 OpenBabel08292219463D

 60 63  0  0  1  0  0  0  0  0999 V2000
   -0.2595    1.1637   -0.9852 C   0  0  0  0  0  0  0  0  0  0  0  0
   -0.2314   -0.2709   -0.6701 N   0  3  1  0  0  0  0  0  0  0  0  0
    0.1390   -1.0288   -1.8725 C   0  0  0  0  0  0  0  0  0  0  0  0
    0.1501   -2.5246   -1.5496 C   0  0  0  0  0  0  0  0  0  0  0  0
    1.1140   -2.7827   -0.4705 N   0  0  0  0  0  0  0  0  0  0  0  0
    0.7701   -2.0112    0.7322 C   0  0  0  0  0  0  0  0  0  0  0  0
    0.7539   -0.5197    0.3905 C   0  0  0  0  0  0  0  0  0  0  0  0
    1.1954   -4.2183   -0.1697 C   0  0  0  0  0  0  0  0  0  0  0  0
    2.3743   -4.4762    0.7709 C   0  0  0  0  0  0  0  0  0  0  0  0
    2.4578   -5.9489    1.0796 C   0  0  0  0  0  0  0  0  0  0  0  0
    3.6171   -6.6039    0.9155 C   0  0  0  0  0  0  0  0  0  0  0  0
    3.5945   -8.0745    0.8065 C   0  0  0  0  0  0  0  0  0  0  0  0
    2.5045   -8.7754    1.3310 C   0  0  0  0  0  0  0  0  0  0  0  0
    2.4574  -10.1498    1.2443 C   0  0  0  0  0  0  0  0  0  0  0  0
    3.4904  -10.8445    0.6372 C   0  0  0  0  0  0  0  0  0  0  0  0
    4.5710  -10.1660    0.1154 C   0  0  0  0  0  0  0  0  0  0  0  0
    4.6338   -8.7758    0.1930 C   0  0  0  0  0  0  0  0  0  0  0  0
    6.0241   -7.9437   -0.4888 S   0  0  0  0  0  0  0  0  0  0  0  0
    6.0146   -6.3435    0.2387 C   0  0  0  0  0  0  0  0  0  0  0  0
    4.8693   -5.8281    0.8445 C   0  0  0  0  0  0  0  0  0  0  0  0
    4.9049   -4.5479    1.4042 C   0  0  0  0  0  0  0  0  0  0  0  0
    6.0619   -3.8005    1.3528 C   0  0  0  0  0  0  0  0  0  0  0  0
    7.1955   -4.3144    0.7462 C   0  0  0  0  0  0  0  0  0  0  0  0
    7.1765   -5.5753    0.2013 C   0  0  0  0  0  0  0  0  0  0  0  0
    6.0982   -2.1872    2.0602 S   0  0  0  0  0  0  0  0  0  0  0  0
    7.1378   -1.4778    1.4005 O   0  0  0  0  0  0  0  0  0  0  0  0
    4.7551   -1.7235    2.0831 O   0  0  0  0  0  0  0  0  0  0  0  0
    6.5679   -2.3553    3.6392 N   0  0  0  0  0  0  0  0  0  0  0  0
    7.9894   -2.3045    3.9900 C   0  0  0  0  0  0  0  0  0  0  0  0
    5.5620   -2.5549    4.6854 C   0  0  0  0  0  0  0  0  0  0  0  0
    0.7269    1.4807   -1.3238 H   0  0  0  0  0  0  0  0  0  0  0  0
   -0.9906    1.3485   -1.7722 H   0  0  0  0  0  0  0  0  0  0  0  0
   -0.5356    1.7262   -0.0933 H   0  0  0  0  0  0  0  0  0  0  0  0
   -0.5856   -0.8331   -2.6629 H   0  0  0  0  0  0  0  0  0  0  0  0
    1.1307   -0.7215   -2.2046 H   0  0  0  0  0  0  0  0  0  0  0  0
   -0.8448   -2.8351   -1.2305 H   0  0  0  0  0  0  0  0  0  0  0  0
    0.4394   -3.0863   -2.4378 H   0  0  0  0  0  0  0  0  0  0  0  0
   -0.2145   -2.3133    1.0889 H   0  0  0  0  0  0  0  0  0  0  0  0
    1.5118   -2.1984    1.5088 H   0  0  0  0  0  0  0  0  0  0  0  0
    1.7424   -0.2149    0.0468 H   0  0  0  0  0  0  0  0  0  0  0  0
    0.4852    0.0535    1.2778 H   0  0  0  0  0  0  0  0  0  0  0  0
    0.2712   -4.5422    0.3089 H   0  0  0  0  0  0  0  0  0  0  0  0
    1.3402   -4.7758   -1.0950 H   0  0  0  0  0  0  0  0  0  0  0  0
    3.2985   -4.1523    0.2924 H   0  0  0  0  0  0  0  0  0  0  0  0
    2.2295   -3.9187    1.6963 H   0  0  0  0  0  0  0  0  0  0  0  0
    1.5845   -6.4770    1.4328 H   0  0  0  0  0  0  0  0  0  0  0  0
    1.6971   -8.2380    1.8059 H   0  0  0  0  0  0  0  0  0  0  0  0
    1.6131  -10.6866    1.6511 H   0  0  0  0  0  0  0  0  0  0  0  0
    3.4493  -11.9218    0.5727 H   0  0  0  0  0  0  0  0  0  0  0  0
    5.3730  -10.7144   -0.3562 H   0  0  0  0  0  0  0  0  0  0  0  0
    4.0231   -4.1429    1.8782 H   0  0  0  0  0  0  0  0  0  0  0  0
    8.0996   -3.7248    0.7085 H   0  0  0  0  0  0  0  0  0  0  0  0
    8.0653   -5.9682   -0.2698 H   0  0  0  0  0  0  0  0  0  0  0  0
    8.2739   -1.2746    4.2055 H   0  0  0  0  0  0  0  0  0  0  0  0
    8.1689   -2.9228    4.8695 H   0  0  0  0  0  0  0  0  0  0  0  0
    8.5830   -2.6784    3.1558 H   0  0  0  0  0  0  0  0  0  0  0  0
    4.5685   -2.5647    4.2371 H   0  0  0  0  0  0  0  0  0  0  0  0
    5.7435   -3.5052    5.1874 H   0  0  0  0  0  0  0  0  0  0  0  0
    5.6256   -1.7432    5.4101 H   0  0  0  0  0  0  0  0  0  0  0  0
   -1.1444   -0.5640   -0.3561 H   0  0  0  0  0  0  0  0  0  0  0  0
  1  2  1  0  0  0  0
  1 31  1  0  0  0  0
  1 32  1  0  0  0  0
  1 33  1  0  0  0  0
  2  7  1  0  0  0  0
  2  3  1  0  0  0  0
  2 60  1  1  0  0  0
  3  4  1  0  0  0  0
  3 34  1  0  0  0  0
  3 35  1  0  0  0  0
  4  5  1  0  0  0  0
  4 36  1  0  0  0  0
  4 37  1  0  0  0  0
  5  6  1  0  0  0  0
  5  8  1  0  0  0  0
  6  7  1  0  0  0  0
  6 38  1  0  0  0  0
  6 39  1  0  0  0  0
  7 40  1  0  0  0  0
  7 41  1  0  0  0  0
  8  9  1  0  0  0  0
  8 42  1  0  0  0  0
  8 43  1  0  0  0  0
  9 10  1  0  0  0  0
  9 44  1  0  0  0  0
  9 45  1  0  0  0  0
 10 11  2  0  0  0  0
 10 46  1  0  0  0  0
 11 20  1  0  0  0  0
 11 12  1  0  0  0  0
 12 17  2  0  0  0  0
 12 13  1  0  0  0  0
 13 14  2  0  0  0  0
 13 47  1  0  0  0  0
 14 15  1  0  0  0  0
 14 48  1  0  0  0  0
 15 16  2  0  0  0  0
 15 49  1  0  0  0  0
 16 17  1  0  0  0  0
 16 50  1  0  0  0  0
 17 18  1  0  0  0  0
 18 19  1  0  0  0  0
 19 24  2  0  0  0  0
 19 20  1  0  0  0  0
 20 21  2  0  0  0  0
 21 22  1  0  0  0  0
 21 51  1  0  0  0  0
 22 23  2  0  0  0  0
 22 25  1  0  0  0  0
 23 24  1  0  0  0  0
 23 52  1  0  0  0  0
 24 53  1  0  0  0  0
 25 26  2  0  0  0  0
 25 27  2  0  0  0  0
 25 28  1  0  0  0  0
 28 29  1  0  0  0  0
 28 30  1  0  0  0  0
 29 54  1  0  0  0  0
 29 55  1  0  0  0  0
 29 56  1  0  0  0  0
 30 57  1  0  0  0  0
 30 58  1  0  0  0  0
 30 59  1  0  0  0  0
M  CHG  1   2   1
M  END
$$$$
