ZINC14880002
 OpenBabel08292219463D

 81 88  0  0  1  0  0  0  0  0999 V2000
   -0.2476   -5.6651    3.7498 C   0  0  0  0  0  0  0  0  0  0  0  0
    0.7440   -4.7458    4.4657 C   0  0  2  0  0  0  0  0  0  0  0  0
    2.1158   -5.3842    4.5087 C   0  0  0  0  0  0  0  0  0  0  0  0
    2.6680   -5.9613    3.5960 O   0  0  0  0  0  0  0  0  0  0  0  0
    2.6104   -5.1918    5.7553 N   0  0  0  0  0  0  0  0  0  0  0  0
    3.9277   -5.6274    6.2094 C   0  0  2  0  0  0  0  0  0  0  0  0
    4.2173   -6.5241    5.6617 H   0  0  0  0  0  0  0  0  0  0  0  0
    3.8548   -5.9389    7.6804 C   0  0  0  0  0  0  0  0  0  0  0  0
    4.7810   -6.5108    8.2151 O   0  0  0  0  0  0  0  0  0  0  0  0
    2.7844   -5.5947    8.4091 N   0  0  0  0  0  0  0  0  0  0  0  0
    2.6911   -5.6392    9.8804 C   0  0  0  0  0  0  0  0  0  0  0  0
    1.6474   -4.5844   10.2966 C   0  0  0  0  0  0  0  0  0  0  0  0
    1.1424   -3.9731    8.9676 C   0  0  0  0  0  0  0  0  0  0  0  0
    1.4990   -5.0654    7.9342 C   0  0  1  0  0  0  0  0  0  0  0  0
    0.7474   -5.8548    7.9393 H   0  0  0  0  0  0  0  0  0  0  0  0
    1.6123   -4.4694    6.5451 C   0  0  2  0  0  0  0  0  0  0  0  0
    0.3630   -4.5762    5.8449 O   0  0  0  0  0  0  0  0  0  0  0  0
    1.9872   -3.0941    6.6451 O   0  0  0  0  0  0  0  0  0  0  0  0
    4.9630   -4.5263    5.9714 C   0  0  0  0  0  0  0  0  0  0  0  0
    5.1322   -4.3076    4.4900 C   0  0  0  0  0  0  0  0  0  0  0  0
    6.0018   -5.1040    3.7686 C   0  0  0  0  0  0  0  0  0  0  0  0
    6.1537   -4.9061    2.4089 C   0  0  0  0  0  0  0  0  0  0  0  0
    5.4428   -3.9060    1.7723 C   0  0  0  0  0  0  0  0  0  0  0  0
    4.5771   -3.1062    2.4947 C   0  0  0  0  0  0  0  0  0  0  0  0
    4.4220   -3.3069    3.8536 C   0  0  0  0  0  0  0  0  0  0  0  0
    0.8088   -3.4462    3.7925 N   0  0  0  0  0  0  0  0  0  0  0  0
   -0.2345   -2.5962    3.8666 C   0  0  0  0  0  0  0  0  0  0  0  0
   -1.1884   -2.8664    4.5651 O   0  0  0  0  0  0  0  0  0  0  0  0
   -0.2157   -1.3099    3.0815 C   0  0  2  0  0  0  0  0  0  0  0  0
    0.5925   -0.6743    3.4434 H   0  0  0  0  0  0  0  0  0  0  0  0
   -1.5531   -0.5847    3.2536 C   0  0  0  0  0  0  0  0  0  0  0  0
   -1.5503    0.6882    2.4050 C   0  0  1  0  0  0  0  0  0  0  0  0
   -2.5338    1.1522    2.4801 H   0  0  0  0  0  0  0  0  0  0  0  0
   -0.5209    1.6475    2.9177 C   0  0  0  0  0  0  0  0  0  0  0  0
   -0.0654    1.7985    4.1887 C   0  0  0  0  0  0  0  0  0  0  0  0
    0.8914    2.7688    4.4843 C   0  0  0  0  0  0  0  0  0  0  0  0
    1.4485    3.6268    3.5457 C   0  0  0  0  0  0  0  0  0  0  0  0
    1.0070    3.4927    2.2305 C   0  0  0  0  0  0  0  0  0  0  0  0
    0.0472    2.5071    1.9735 C   0  0  0  0  0  0  0  0  0  0  0  0
   -0.2668    2.5333    0.5448 C   0  0  0  0  0  0  0  0  0  0  0  0
    0.4843    3.4970    0.0347 C   0  0  0  0  0  0  0  0  0  0  0  0
    1.2550    4.0827    1.0280 N   0  0  0  0  0  0  0  0  0  0  0  0
    1.8802    4.8108    0.8868 H   0  0  0  0  0  0  0  0  0  0  0  0
   -1.2750    1.5486    0.0077 C   0  0  0  0  0  0  0  0  0  0  0  0
   -1.2823    0.3295    0.9426 C   0  0  1  0  0  0  0  0  0  0  0  0
   -2.0613   -0.3555    0.6082 H   0  0  0  0  0  0  0  0  0  0  0  0
    0.0020   -1.6192    1.5984 C   0  0  0  0  0  0  0  0  0  0  0  0
    0.3555   -0.6093   -0.5730 C   0  0  0  0  0  0  0  0  0  0  0  0
    0.0806   -5.8238    2.7226 H   0  0  0  0  0  0  0  0  0  0  0  0
   -0.2946   -6.6227    4.2683 H   0  0  0  0  0  0  0  0  0  0  0  0
   -1.2351   -5.2037    3.7486 H   0  0  0  0  0  0  0  0  0  0  0  0
    2.3688   -6.6291   10.2032 H   0  0  0  0  0  0  0  0  0  0  0  0
    3.6586   -5.4006   10.3221 H   0  0  0  0  0  0  0  0  0  0  0  0
    0.8245   -5.0569   10.8329 H   0  0  0  0  0  0  0  0  0  0  0  0
    2.1111   -3.8168   10.9162 H   0  0  0  0  0  0  0  0  0  0  0  0
    1.6677   -3.0443    8.7451 H   0  0  0  0  0  0  0  0  0  0  0  0
    0.0651   -3.8103    9.0018 H   0  0  0  0  0  0  0  0  0  0  0  0
    2.0900   -2.6515    5.7915 H   0  0  0  0  0  0  0  0  0  0  0  0
    4.6242   -3.6018    6.4389 H   0  0  0  0  0  0  0  0  0  0  0  0
    5.9171   -4.8247    6.4059 H   0  0  0  0  0  0  0  0  0  0  0  0
    6.5600   -5.8829    4.2667 H   0  0  0  0  0  0  0  0  0  0  0  0
    6.8298   -5.5312    1.8445 H   0  0  0  0  0  0  0  0  0  0  0  0
    5.5634   -3.7497    0.7105 H   0  0  0  0  0  0  0  0  0  0  0  0
    4.0217   -2.3249    1.9973 H   0  0  0  0  0  0  0  0  0  0  0  0
    3.7456   -2.6820    4.4179 H   0  0  0  0  0  0  0  0  0  0  0  0
    1.6025   -3.1976    3.2934 H   0  0  0  0  0  0  0  0  0  0  0  0
   -1.6927   -0.3226    4.3024 H   0  0  0  0  0  0  0  0  0  0  0  0
   -2.3647   -1.2362    2.9297 H   0  0  0  0  0  0  0  0  0  0  0  0
   -0.4516    1.1680    4.9759 H   0  0  0  0  0  0  0  0  0  0  0  0
    1.2228    2.8562    5.5085 H   0  0  0  0  0  0  0  0  0  0  0  0
    2.1891    4.3630    3.8215 H   0  0  0  0  0  0  0  0  0  0  0  0
    0.4949    3.7861   -1.0059 H   0  0  0  0  0  0  0  0  0  0  0  0
   -0.9908    1.2407   -0.9985 H   0  0  0  0  0  0  0  0  0  0  0  0
   -2.2646    2.0052   -0.0115 H   0  0  0  0  0  0  0  0  0  0  0  0
   -0.8020   -2.2616    1.2394 H   0  0  0  0  0  0  0  0  0  0  0  0
    0.9579   -2.1271    1.4696 H   0  0  0  0  0  0  0  0  0  0  0  0
    0.4263    0.3424   -1.0996 H   0  0  0  0  0  0  0  0  0  0  0  0
    1.3140   -1.1257   -0.6253 H   0  0  0  0  0  0  0  0  0  0  0  0
   -0.4148   -1.2251   -1.0373 H   0  0  0  0  0  0  0  0  0  0  0  0
    0.0283   -0.3479    0.8437 N   0  3  1  0  0  0  0  0  0  0  0  0
    0.7496    0.2627    1.2452 H   0  0  0  0  0  0  0  0  0  0  0  0
  1 49  1  0  0  0  0
  1 50  1  0  0  0  0
  1 51  1  0  0  0  0
  2  1  1  6  0  0  0
  2 17  1  0  0  0  0
  2  3  1  0  0  0  0
  2 26  1  0  0  0  0
  3  4  2  0  0  0  0
  3  5  1  0  0  0  0
  5 16  1  0  0  0  0
  5  6  1  0  0  0  0
  6  7  1  6  0  0  0
  6  8  1  0  0  0  0
  6 19  1  0  0  0  0
  8  9  2  0  0  0  0
  8 10  1  0  0  0  0
 10 14  1  0  0  0  0
 10 11  1  0  0  0  0
 11 12  1  0  0  0  0
 11 52  1  0  0  0  0
 11 53  1  0  0  0  0
 12 13  1  0  0  0  0
 12 54  1  0  0  0  0
 12 55  1  0  0  0  0
 13 14  1  0  0  0  0
 13 56  1  0  0  0  0
 13 57  1  0  0  0  0
 14 15  1  1  0  0  0
 14 16  1  0  0  0  0
 16 17  1  0  0  0  0
 16 18  1  1  0  0  0
 18 58  1  0  0  0  0
 19 20  1  0  0  0  0
 19 59  1  0  0  0  0
 19 60  1  0  0  0  0
 20 25  2  0  0  0  0
 20 21  1  0  0  0  0
 21 22  2  0  0  0  0
 21 61  1  0  0  0  0
 22 23  1  0  0  0  0
 22 62  1  0  0  0  0
 23 24  2  0  0  0  0
 23 63  1  0  0  0  0
 24 25  1  0  0  0  0
 24 64  1  0  0  0  0
 25 65  1  0  0  0  0
 26 27  1  0  0  0  0
 26 66  1  0  0  0  0
 27 28  2  0  0  0  0
 27 29  1  0  0  0  0
 29 30  1  1  0  0  0
 29 47  1  0  0  0  0
 29 31  1  0  0  0  0
 31 32  1  0  0  0  0
 31 67  1  0  0  0  0
 31 68  1  0  0  0  0
 32 33  1  1  0  0  0
 32 45  1  0  0  0  0
 32 34  1  0  0  0  0
 34 39  2  0  0  0  0
 34 35  1  0  0  0  0
 35 36  2  0  0  0  0
 35 69  1  0  0  0  0
 36 37  1  0  0  0  0
 36 70  1  0  0  0  0
 37 38  2  0  0  0  0
 37 71  1  0  0  0  0
 38 42  1  0  0  0  0
 38 39  1  0  0  0  0
 39 40  1  0  0  0  0
 40 41  2  0  0  0  0
 40 44  1  0  0  0  0
 41 42  1  0  0  0  0
 41 72  1  0  0  0  0
 42 43  1  0  0  0  0
 44 45  1  0  0  0  0
 44 73  1  0  0  0  0
 44 74  1  0  0  0  0
 45 46  1  6  0  0  0
 45 80  1  0  0  0  0
 47 75  1  0  0  0  0
 47 76  1  0  0  0  0
 47 80  1  0  0  0  0
 48 77  1  0  0  0  0
 48 78  1  0  0  0  0
 48 79  1  0  0  0  0
 48 80  1  0  0  0  0
 80 81  1  1  0  0  0
M  CHG  1  80   1
M  END
$$$$
