ZINC12404516
 OpenBabel08292219463D

 58 60  0  0  0  0  0  0  0  0999 V2000
    0.0045    2.0735    0.1701 C   0  0  0  0  0  0  0  0  0  0  0  0
    0.2920    0.6350    0.2475 N   0  3  0  0  0  0  0  0  0  0  0  0
    1.1097    0.2363   -0.9060 C   0  0  0  0  0  0  0  0  0  0  0  0
    1.0234    0.3479    1.4887 C   0  0  0  0  0  0  0  0  0  0  0  0
    0.1250    0.6464    2.6907 C   0  0  0  0  0  0  0  0  0  0  0  0
   -0.9859   -0.2525    2.6899 O   0  0  0  0  0  0  0  0  0  0  0  0
   -1.8866   -0.1208    3.6984 C   0  0  0  0  0  0  0  0  0  0  0  0
   -1.7052    0.8594    4.6655 C   0  0  0  0  0  0  0  0  0  0  0  0
   -2.6168    0.9961    5.6903 C   0  0  0  0  0  0  0  0  0  0  0  0
   -3.7235    0.1478    5.7553 C   0  0  0  0  0  0  0  0  0  0  0  0
   -3.9024   -0.8362    4.7814 C   0  0  0  0  0  0  0  0  0  0  0  0
   -2.9894   -0.9630    3.7565 C   0  0  0  0  0  0  0  0  0  0  0  0
   -4.7040    0.2909    6.8538 C   0  0  0  0  0  0  0  0  0  0  0  0
   -5.9779    0.6662    6.5808 C   0  0  0  0  0  0  0  0  0  0  0  0
   -7.0090    0.6877    7.6796 C   0  0  0  0  0  0  0  0  0  0  0  0
   -7.7716   -0.6387    7.6893 C   0  0  0  0  0  0  0  0  0  0  0  0
   -8.8993   -0.6732    9.0958 Cl  0  0  0  0  0  0  0  0  0  0  0  0
   -6.3534    1.0522    5.2124 C   0  0  0  0  0  0  0  0  0  0  0  0
   -5.7904    2.1891    4.6230 C   0  0  0  0  0  0  0  0  0  0  0  0
   -6.1478    2.5444    3.3396 C   0  0  0  0  0  0  0  0  0  0  0  0
   -7.0609    1.7795    2.6347 C   0  0  0  0  0  0  0  0  0  0  0  0
   -7.6228    0.6535    3.2109 C   0  0  0  0  0  0  0  0  0  0  0  0
   -7.2712    0.2813    4.4911 C   0  0  0  0  0  0  0  0  0  0  0  0
   -4.2944    0.0244    8.2506 C   0  0  0  0  0  0  0  0  0  0  0  0
   -4.2338    1.0686    9.1744 C   0  0  0  0  0  0  0  0  0  0  0  0
   -3.8517    0.8135   10.4752 C   0  0  0  0  0  0  0  0  0  0  0  0
   -3.5284   -0.4742   10.8645 C   0  0  0  0  0  0  0  0  0  0  0  0
   -3.5860   -1.5139    9.9534 C   0  0  0  0  0  0  0  0  0  0  0  0
   -3.9727   -1.2730    8.6511 C   0  0  0  0  0  0  0  0  0  0  0  0
    0.9405    2.6320    0.1777 H   0  0  0  0  0  0  0  0  0  0  0  0
   -0.5381    2.2865   -0.7510 H   0  0  0  0  0  0  0  0  0  0  0  0
   -0.6022    2.3693    1.0259 H   0  0  0  0  0  0  0  0  0  0  0  0
    2.0457    0.7948   -0.8983 H   0  0  0  0  0  0  0  0  0  0  0  0
    1.3230   -0.8311   -0.8485 H   0  0  0  0  0  0  0  0  0  0  0  0
    0.5670    0.4493   -1.8270 H   0  0  0  0  0  0  0  0  0  0  0  0
    1.3142   -0.7024    1.5045 H   0  0  0  0  0  0  0  0  0  0  0  0
    1.9152    0.9727    1.5377 H   0  0  0  0  0  0  0  0  0  0  0  0
    0.6950    0.5188    3.6109 H   0  0  0  0  0  0  0  0  0  0  0  0
   -0.2378    1.6723    2.6273 H   0  0  0  0  0  0  0  0  0  0  0  0
   -0.8485    1.5150    4.6147 H   0  0  0  0  0  0  0  0  0  0  0  0
   -2.4748    1.7583    6.4421 H   0  0  0  0  0  0  0  0  0  0  0  0
   -4.7574   -1.4943    4.8284 H   0  0  0  0  0  0  0  0  0  0  0  0
   -3.1294   -1.7211    3.0002 H   0  0  0  0  0  0  0  0  0  0  0  0
   -6.5134    0.8289    8.6401 H   0  0  0  0  0  0  0  0  0  0  0  0
   -7.7069    1.5069    7.5069 H   0  0  0  0  0  0  0  0  0  0  0  0
   -8.3406   -0.7374    6.7649 H   0  0  0  0  0  0  0  0  0  0  0  0
   -7.0642   -1.4640    7.7705 H   0  0  0  0  0  0  0  0  0  0  0  0
   -5.0781    2.7872    5.1718 H   0  0  0  0  0  0  0  0  0  0  0  0
   -5.7144    3.4220    2.8832 H   0  0  0  0  0  0  0  0  0  0  0  0
   -7.3368    2.0631    1.6297 H   0  0  0  0  0  0  0  0  0  0  0  0
   -8.3351    0.0623    2.6546 H   0  0  0  0  0  0  0  0  0  0  0  0
   -7.7068   -0.6003    4.9376 H   0  0  0  0  0  0  0  0  0  0  0  0
   -4.4853    2.0743    8.8715 H   0  0  0  0  0  0  0  0  0  0  0  0
   -3.8044    1.6207   11.1911 H   0  0  0  0  0  0  0  0  0  0  0  0
   -3.2295   -0.6687   11.8839 H   0  0  0  0  0  0  0  0  0  0  0  0
   -3.3317   -2.5167   10.2633 H   0  0  0  0  0  0  0  0  0  0  0  0
   -4.0219   -2.0861    7.9420 H   0  0  0  0  0  0  0  0  0  0  0  0
   -0.5744    0.1180    0.2404 H   0  0  0  0  0  0  0  0  0  0  0  0
  1  2  1  0  0  0  0
  1 30  1  0  0  0  0
  1 31  1  0  0  0  0
  1 32  1  0  0  0  0
  2  3  1  0  0  0  0
  2  4  1  0  0  0  0
  2 58  1  0  0  0  0
  3 33  1  0  0  0  0
  3 34  1  0  0  0  0
  3 35  1  0  0  0  0
  4  5  1  0  0  0  0
  4 36  1  0  0  0  0
  4 37  1  0  0  0  0
  5  6  1  0  0  0  0
  5 38  1  0  0  0  0
  5 39  1  0  0  0  0
  6  7  1  0  0  0  0
  7 12  2  0  0  0  0
  7  8  1  0  0  0  0
  8  9  2  0  0  0  0
  8 40  1  0  0  0  0
  9 10  1  0  0  0  0
  9 41  1  0  0  0  0
 10 11  2  0  0  0  0
 10 13  1  0  0  0  0
 11 12  1  0  0  0  0
 11 42  1  0  0  0  0
 12 43  1  0  0  0  0
 13 14  2  0  0  0  0
 13 24  1  0  0  0  0
 14 15  1  0  0  0  0
 14 18  1  0  0  0  0
 15 16  1  0  0  0  0
 15 44  1  0  0  0  0
 15 45  1  0  0  0  0
 16 17  1  0  0  0  0
 16 46  1  0  0  0  0
 16 47  1  0  0  0  0
 18 23  2  0  0  0  0
 18 19  1  0  0  0  0
 19 20  2  0  0  0  0
 19 48  1  0  0  0  0
 20 21  1  0  0  0  0
 20 49  1  0  0  0  0
 21 22  2  0  0  0  0
 21 50  1  0  0  0  0
 22 23  1  0  0  0  0
 22 51  1  0  0  0  0
 23 52  1  0  0  0  0
 24 29  2  0  0  0  0
 24 25  1  0  0  0  0
 25 26  2  0  0  0  0
 25 53  1  0  0  0  0
 26 27  1  0  0  0  0
 26 54  1  0  0  0  0
 27 28  2  0  0  0  0
 27 55  1  0  0  0  0
 28 29  1  0  0  0  0
 28 56  1  0  0  0  0
 29 57  1  0  0  0  0
M  CHG  1   2   1
M  END
$$$$
