ZINC03645145
 OpenBabel08292219463D

 22 21  0  0  1  0  0  0  0  0999 V2000
   -1.6083   -0.2830   -0.8285 C   0  0  0  0  0  0  0  0  0  0  0  0
   -0.1572   -0.0943   -0.3817 C   0  0  0  0  0  0  0  0  0  0  0  0
    0.0839   -0.8755    0.9116 C   0  0  0  0  0  0  0  0  0  0  0  0
    0.7835   -0.6106   -1.4723 C   0  0  0  0  0  0  0  0  0  0  0  0
    2.2304   -0.2918   -1.0907 C   0  0  1  0  0  0  0  0  0  0  0  0
    2.4421   -0.6946   -0.1002 H   0  0  0  0  0  0  0  0  0  0  0  0
    3.1641   -0.9147   -2.0964 C   0  0  0  0  0  0  0  0  0  0  0  0
    3.5015   -0.2868   -3.0855 O   0  0  0  0  0  0  0  0  0  0  0  0
    3.5820   -2.0465   -1.9208 O   0  0  0  0  0  1  0  0  0  0  0  0
    2.4243    1.1643   -1.0788 N   0  3  0  0  0  0  0  0  0  0  0  0
   -1.7831    0.2827   -1.7437 H   0  0  0  0  0  0  0  0  0  0  0  0
   -1.7969   -1.3405   -1.0134 H   0  0  0  0  0  0  0  0  0  0  0  0
   -2.2785    0.0744   -0.0468 H   0  0  0  0  0  0  0  0  0  0  0  0
    0.0347    0.9645   -0.2077 H   0  0  0  0  0  0  0  0  0  0  0  0
   -0.1079   -1.9343    0.7376 H   0  0  0  0  0  0  0  0  0  0  0  0
    1.1177   -0.7411    1.2299 H   0  0  0  0  0  0  0  0  0  0  0  0
   -0.5862   -0.5077    1.6885 H   0  0  0  0  0  0  0  0  0  0  0  0
    0.6639   -1.6892   -1.5746 H   0  0  0  0  0  0  0  0  0  0  0  0
    0.5424   -0.1270   -2.4189 H   0  0  0  0  0  0  0  0  0  0  0  0
    3.3997    1.3725   -0.9262 H   0  0  0  0  0  0  0  0  0  0  0  0
    2.1326    1.5497   -1.9646 H   0  0  0  0  0  0  0  0  0  0  0  0
    1.8736    1.5709   -0.3375 H   0  0  0  0  0  0  0  0  0  0  0  0
  1  2  1  0  0  0  0
  1 11  1  0  0  0  0
  1 12  1  0  0  0  0
  1 13  1  0  0  0  0
  2  3  1  0  0  0  0
  2  4  1  0  0  0  0
  2 14  1  0  0  0  0
  3 15  1  0  0  0  0
  3 16  1  0  0  0  0
  3 17  1  0  0  0  0
  4  5  1  0  0  0  0
  4 18  1  0  0  0  0
  4 19  1  0  0  0  0
  5  6  1  1  0  0  0
  5  7  1  0  0  0  0
  5 10  1  0  0  0  0
  7  8  2  0  0  0  0
  7  9  1  0  0  0  0
 10 20  1  0  0  0  0
 10 21  1  0  0  0  0
 10 22  1  0  0  0  0
M  CHG  1  10   1
M  END
$$$$
