ZINC96006022
 OpenBabel08292219463D

137139  0  0  0  0  0  0  0  0999 V2000
   -0.1074   -7.7298    4.3287 C   0  0  0  0  0  0  0  0  0  0  0  0
   -1.4483   -7.6997    3.6417 C   0  0  0  0  0  0  0  0  0  0  0  0
   -1.6251   -6.9368    2.5034 C   0  0  0  0  0  0  0  0  0  0  0  0
   -2.8551   -6.9084    1.8731 C   0  0  0  0  0  0  0  0  0  0  0  0
   -3.9114   -7.6434    2.3795 C   0  0  0  0  0  0  0  0  0  0  0  0
   -3.7397   -8.4079    3.5169 C   0  0  0  0  0  0  0  0  0  0  0  0
   -2.5047   -8.4423    4.1485 C   0  0  0  0  0  0  0  0  0  0  0  0
   -2.3317   -9.1982    5.2645 O   0  0  0  0  0  0  0  0  0  0  0  0
   -2.7013   -8.6074    6.5120 C   0  0  0  0  0  0  0  0  0  0  0  0
   -2.3221   -9.5507    7.6554 C   0  0  0  0  0  0  0  0  0  0  0  0
   -0.9112   -9.7767    7.6383 O   0  0  0  0  0  0  0  0  0  0  0  0
   -4.8912   -9.2086    4.0683 C   0  0  0  0  0  0  0  0  0  0  0  0
   -6.1370   -8.9087    3.2752 C   0  0  0  0  0  0  0  0  0  0  0  0
   -6.9683   -7.8738    3.6585 C   0  0  0  0  0  0  0  0  0  0  0  0
   -8.1115   -7.5985    2.9316 C   0  0  0  0  0  0  0  0  0  0  0  0
   -8.4258   -8.3573    1.8191 C   0  0  0  0  0  0  0  0  0  0  0  0
   -7.5978   -9.3927    1.4315 C   0  0  0  0  0  0  0  0  0  0  0  0
   -6.4471   -9.6677    2.1563 C   0  0  0  0  0  0  0  0  0  0  0  0
   -5.6279  -10.6823    1.7737 O   0  0  0  0  0  0  0  0  0  0  0  0
   -5.9608  -11.9936    2.2338 C   0  0  0  0  0  0  0  0  0  0  0  0
   -4.8665  -12.9756    1.8108 C   0  0  0  0  0  0  0  0  0  0  0  0
   -3.6768  -12.7138    2.5579 O   0  0  0  0  0  0  0  0  0  0  0  0
   -7.9410  -10.2193    0.2191 C   0  0  0  0  0  0  0  0  0  0  0  0
   -9.1575   -9.6400   -0.4559 C   0  0  0  0  0  0  0  0  0  0  0  0
   -9.0097   -8.7615   -1.5120 C   0  0  0  0  0  0  0  0  0  0  0  0
  -10.1253   -8.2293   -2.1313 C   0  0  0  0  0  0  0  0  0  0  0  0
  -11.3915   -8.5750   -1.6961 C   0  0  0  0  0  0  0  0  0  0  0  0
  -11.5447   -9.4533   -0.6411 C   0  0  0  0  0  0  0  0  0  0  0  0
  -10.4266   -9.9928   -0.0212 C   0  0  0  0  0  0  0  0  0  0  0  0
  -10.5747  -10.8615    1.0134 O   0  0  0  0  0  0  0  0  0  0  0  0
  -11.9071  -11.2646    1.3364 C   0  0  0  0  0  0  0  0  0  0  0  0
  -11.8657  -12.3295    2.4342 C   0  0  0  0  0  0  0  0  0  0  0  0
  -11.2394  -11.7885    3.5992 O   0  0  0  0  0  0  0  0  0  0  0  0
   -9.9611   -7.2705   -3.2823 C   0  0  0  0  0  0  0  0  0  0  0  0
   -9.1757   -6.0432   -2.8156 C   0  0  0  0  0  0  0  0  0  0  0  0
   -9.2016   -7.9610   -4.4168 C   0  0  0  0  0  0  0  0  0  0  0  0
  -11.3394   -6.8339   -3.7829 C   0  0  0  0  0  0  0  0  0  0  0  0
  -11.1771   -5.9720   -5.0366 C   0  0  0  0  0  0  0  0  0  0  0  0
  -10.3513   -6.7333   -6.0755 C   0  0  0  0  0  0  0  0  0  0  0  0
  -12.5560   -5.6511   -5.6168 C   0  0  0  0  0  0  0  0  0  0  0  0
  -10.4619   -4.6698   -4.6712 C   0  0  0  0  0  0  0  0  0  0  0  0
   -9.0169   -6.4697    3.3525 C   0  0  0  0  0  0  0  0  0  0  0  0
   -9.4327   -6.6665    4.8117 C   0  0  0  0  0  0  0  0  0  0  0  0
   -8.2746   -5.1396    3.2087 C   0  0  0  0  0  0  0  0  0  0  0  0
  -10.2628   -6.4570    2.4645 C   0  0  0  0  0  0  0  0  0  0  0  0
  -11.4207   -5.8014    3.2197 C   0  0  0  0  0  0  0  0  0  0  0  0
  -11.0106   -4.3949    3.6606 C   0  0  0  0  0  0  0  0  0  0  0  0
  -12.6423   -5.7125    2.3028 C   0  0  0  0  0  0  0  0  0  0  0  0
  -11.7671   -6.6411    4.4508 C   0  0  0  0  0  0  0  0  0  0  0  0
   -3.0454   -6.0746    0.6322 C   0  0  0  0  0  0  0  0  0  0  0  0
   -3.4587   -6.9784   -0.5311 C   0  0  0  0  0  0  0  0  0  0  0  0
   -4.1372   -5.0320    0.8808 C   0  0  0  0  0  0  0  0  0  0  0  0
   -1.7335   -5.3670    0.2872 C   0  0  0  0  0  0  0  0  0  0  0  0
   -1.9715   -4.3821   -0.8593 C   0  0  0  0  0  0  0  0  0  0  0  0
   -2.4284   -3.0375   -0.2899 C   0  0  0  0  0  0  0  0  0  0  0  0
   -0.6721   -4.1888   -1.6436 C   0  0  0  0  0  0  0  0  0  0  0  0
   -3.0520   -4.9352   -1.7907 C   0  0  0  0  0  0  0  0  0  0  0  0
    0.4970   -8.5350    3.9108 H   0  0  0  0  0  0  0  0  0  0  0  0
    0.4005   -6.7775    4.1761 H   0  0  0  0  0  0  0  0  0  0  0  0
   -0.2496   -7.8987    5.3961 H   0  0  0  0  0  0  0  0  0  0  0  0
   -0.8017   -6.3620    2.1060 H   0  0  0  0  0  0  0  0  0  0  0  0
   -4.8715   -7.6192    1.8855 H   0  0  0  0  0  0  0  0  0  0  0  0
   -2.1776   -7.6593    6.6343 H   0  0  0  0  0  0  0  0  0  0  0  0
   -3.7772   -8.4327    6.5267 H   0  0  0  0  0  0  0  0  0  0  0  0
   -2.6066   -9.1012    8.6068 H   0  0  0  0  0  0  0  0  0  0  0  0
   -2.8437  -10.4997    7.5315 H   0  0  0  0  0  0  0  0  0  0  0  0
   -0.5990  -10.3672    8.3376 H   0  0  0  0  0  0  0  0  0  0  0  0
   -4.6619  -10.2718    3.9965 H   0  0  0  0  0  0  0  0  0  0  0  0
   -5.0523   -8.9415    5.1127 H   0  0  0  0  0  0  0  0  0  0  0  0
   -6.7249   -7.2797    4.5269 H   0  0  0  0  0  0  0  0  0  0  0  0
   -9.3197   -8.1405    1.2531 H   0  0  0  0  0  0  0  0  0  0  0  0
   -6.0431  -11.9874    3.3207 H   0  0  0  0  0  0  0  0  0  0  0  0
   -6.9121  -12.3005    1.7992 H   0  0  0  0  0  0  0  0  0  0  0  0
   -5.1993  -13.9956    2.0033 H   0  0  0  0  0  0  0  0  0  0  0  0
   -4.6614  -12.8550    0.7471 H   0  0  0  0  0  0  0  0  0  0  0  0
   -2.9175  -13.2486    2.2885 H   0  0  0  0  0  0  0  0  0  0  0  0
   -7.1014  -10.2110   -0.4759 H   0  0  0  0  0  0  0  0  0  0  0  0
   -8.1491  -11.2445    0.5253 H   0  0  0  0  0  0  0  0  0  0  0  0
   -8.0218   -8.4899   -1.8537 H   0  0  0  0  0  0  0  0  0  0  0  0
  -12.2615   -8.1577   -2.1813 H   0  0  0  0  0  0  0  0  0  0  0  0
  -12.5338   -9.7229   -0.3015 H   0  0  0  0  0  0  0  0  0  0  0  0
  -12.4726  -10.4018    1.6882 H   0  0  0  0  0  0  0  0  0  0  0  0
  -12.3873  -11.6764    0.4487 H   0  0  0  0  0  0  0  0  0  0  0  0
  -12.8819  -12.6390    2.6786 H   0  0  0  0  0  0  0  0  0  0  0  0
  -11.2979  -13.1912    2.0834 H   0  0  0  0  0  0  0  0  0  0  0  0
  -11.2466  -12.3832    4.3617 H   0  0  0  0  0  0  0  0  0  0  0  0
   -8.3229   -6.3636   -2.2171 H   0  0  0  0  0  0  0  0  0  0  0  0
   -8.8220   -5.4867   -3.6835 H   0  0  0  0  0  0  0  0  0  0  0  0
   -9.8227   -5.4051   -2.2138 H   0  0  0  0  0  0  0  0  0  0  0  0
   -9.8954   -8.5596   -5.0070 H   0  0  0  0  0  0  0  0  0  0  0  0
   -8.7378   -7.2083   -5.0544 H   0  0  0  0  0  0  0  0  0  0  0  0
   -8.4303   -8.6070   -3.9974 H   0  0  0  0  0  0  0  0  0  0  0  0
  -11.9349   -7.7150   -4.0222 H   0  0  0  0  0  0  0  0  0  0  0  0
  -11.8414   -6.2559   -3.0070 H   0  0  0  0  0  0  0  0  0  0  0  0
  -10.6159   -7.7903   -6.0463 H   0  0  0  0  0  0  0  0  0  0  0  0
  -10.5590   -6.3340   -7.0682 H   0  0  0  0  0  0  0  0  0  0  0  0
   -9.2907   -6.6180   -5.8520 H   0  0  0  0  0  0  0  0  0  0  0  0
  -13.1444   -5.1087   -4.8766 H   0  0  0  0  0  0  0  0  0  0  0  0
  -12.4404   -5.0371   -6.5099 H   0  0  0  0  0  0  0  0  0  0  0  0
  -13.0656   -6.5788   -5.8771 H   0  0  0  0  0  0  0  0  0  0  0  0
   -9.4010   -4.8684   -4.5189 H   0  0  0  0  0  0  0  0  0  0  0  0
  -10.5843   -3.9489   -5.4795 H   0  0  0  0  0  0  0  0  0  0  0  0
  -10.8908   -4.2645   -3.7548 H   0  0  0  0  0  0  0  0  0  0  0  0
   -8.5480   -6.6425    5.4480 H   0  0  0  0  0  0  0  0  0  0  0  0
  -10.1138   -5.8681    5.1063 H   0  0  0  0  0  0  0  0  0  0  0  0
   -9.9324   -7.6291    4.9205 H   0  0  0  0  0  0  0  0  0  0  0  0
   -7.9585   -5.0100    2.1736 H   0  0  0  0  0  0  0  0  0  0  0  0
   -8.9369   -4.3214    3.4915 H   0  0  0  0  0  0  0  0  0  0  0  0
   -7.3994   -5.1399    3.8584 H   0  0  0  0  0  0  0  0  0  0  0  0
  -10.0555   -5.8921    1.5557 H   0  0  0  0  0  0  0  0  0  0  0  0
  -10.5328   -7.4801    2.2027 H   0  0  0  0  0  0  0  0  0  0  0  0
  -10.4760   -3.9011    2.8492 H   0  0  0  0  0  0  0  0  0  0  0  0
  -11.9011   -3.8189    3.9125 H   0  0  0  0  0  0  0  0  0  0  0  0
  -10.3625   -4.4626    4.5344 H   0  0  0  0  0  0  0  0  0  0  0  0
  -12.9345   -6.7145    1.9886 H   0  0  0  0  0  0  0  0  0  0  0  0
  -13.4672   -5.2454    2.8408 H   0  0  0  0  0  0  0  0  0  0  0  0
  -12.3955   -5.1143    1.4257 H   0  0  0  0  0  0  0  0  0  0  0  0
  -10.8776   -6.7646    5.0685 H   0  0  0  0  0  0  0  0  0  0  0  0
  -12.5429   -6.1375    5.0276 H   0  0  0  0  0  0  0  0  0  0  0  0
  -12.1278   -7.6196    4.1335 H   0  0  0  0  0  0  0  0  0  0  0  0
   -4.3956   -7.4791   -0.2871 H   0  0  0  0  0  0  0  0  0  0  0  0
   -3.5919   -6.3760   -1.4296 H   0  0  0  0  0  0  0  0  0  0  0  0
   -2.6829   -7.7241   -0.7052 H   0  0  0  0  0  0  0  0  0  0  0  0
   -3.6800   -4.0979    1.2073 H   0  0  0  0  0  0  0  0  0  0  0  0
   -4.6934   -4.8615   -0.0410 H   0  0  0  0  0  0  0  0  0  0  0  0
   -4.8160   -5.3937    1.6532 H   0  0  0  0  0  0  0  0  0  0  0  0
   -1.3715   -4.8262    1.1615 H   0  0  0  0  0  0  0  0  0  0  0  0
   -0.9913   -6.1054   -0.0163 H   0  0  0  0  0  0  0  0  0  0  0  0
   -1.6706   -2.6564    0.3946 H   0  0  0  0  0  0  0  0  0  0  0  0
   -2.5720   -2.3279   -1.1047 H   0  0  0  0  0  0  0  0  0  0  0  0
   -3.3682   -3.1704    0.2460 H   0  0  0  0  0  0  0  0  0  0  0  0
   -0.3466   -5.1467   -2.0492 H   0  0  0  0  0  0  0  0  0  0  0  0
   -0.8417   -3.4871   -2.4603 H   0  0  0  0  0  0  0  0  0  0  0  0
    0.0976   -3.7948   -0.9800 H   0  0  0  0  0  0  0  0  0  0  0  0
   -3.9757   -5.0794   -1.2304 H   0  0  0  0  0  0  0  0  0  0  0  0
   -3.2264   -4.2303   -2.6037 H   0  0  0  0  0  0  0  0  0  0  0  0
   -2.7235   -5.8898   -2.2017 H   0  0  0  0  0  0  0  0  0  0  0  0
  1  2  1  0  0  0  0
  1 58  1  0  0  0  0
  1 59  1  0  0  0  0
  1 60  1  0  0  0  0
  2  7  2  0  0  0  0
  2  3  1  0  0  0  0
  3  4  2  0  0  0  0
  3 61  1  0  0  0  0
  4  5  1  0  0  0  0
  4 50  1  0  0  0  0
  5  6  2  0  0  0  0
  5 62  1  0  0  0  0
  6  7  1  0  0  0  0
  6 12  1  0  0  0  0
  7  8  1  0  0  0  0
  8  9  1  0  0  0  0
  9 10  1  0  0  0  0
  9 63  1  0  0  0  0
  9 64  1  0  0  0  0
 10 11  1  0  0  0  0
 10 65  1  0  0  0  0
 10 66  1  0  0  0  0
 11 67  1  0  0  0  0
 12 13  1  0  0  0  0
 12 68  1  0  0  0  0
 12 69  1  0  0  0  0
 13 18  2  0  0  0  0
 13 14  1  0  0  0  0
 14 15  2  0  0  0  0
 14 70  1  0  0  0  0
 15 16  1  0  0  0  0
 15 42  1  0  0  0  0
 16 17  2  0  0  0  0
 16 71  1  0  0  0  0
 17 18  1  0  0  0  0
 17 23  1  0  0  0  0
 18 19  1  0  0  0  0
 19 20  1  0  0  0  0
 20 21  1  0  0  0  0
 20 72  1  0  0  0  0
 20 73  1  0  0  0  0
 21 22  1  0  0  0  0
 21 74  1  0  0  0  0
 21 75  1  0  0  0  0
 22 76  1  0  0  0  0
 23 24  1  0  0  0  0
 23 77  1  0  0  0  0
 23 78  1  0  0  0  0
 24 29  2  0  0  0  0
 24 25  1  0  0  0  0
 25 26  2  0  0  0  0
 25 79  1  0  0  0  0
 26 27  1  0  0  0  0
 26 34  1  0  0  0  0
 27 28  2  0  0  0  0
 27 80  1  0  0  0  0
 28 29  1  0  0  0  0
 28 81  1  0  0  0  0
 29 30  1  0  0  0  0
 30 31  1  0  0  0  0
 31 32  1  0  0  0  0
 31 82  1  0  0  0  0
 31 83  1  0  0  0  0
 32 33  1  0  0  0  0
 32 84  1  0  0  0  0
 32 85  1  0  0  0  0
 33 86  1  0  0  0  0
 34 35  1  0  0  0  0
 34 36  1  0  0  0  0
 34 37  1  0  0  0  0
 35 87  1  0  0  0  0
 35 88  1  0  0  0  0
 35 89  1  0  0  0  0
 36 90  1  0  0  0  0
 36 91  1  0  0  0  0
 36 92  1  0  0  0  0
 37 38  1  0  0  0  0
 37 93  1  0  0  0  0
 37 94  1  0  0  0  0
 38 39  1  0  0  0  0
 38 40  1  0  0  0  0
 38 41  1  0  0  0  0
 39 95  1  0  0  0  0
 39 96  1  0  0  0  0
 39 97  1  0  0  0  0
 40 98  1  0  0  0  0
 40 99  1  0  0  0  0
 40100  1  0  0  0  0
 41101  1  0  0  0  0
 41102  1  0  0  0  0
 41103  1  0  0  0  0
 42 43  1  0  0  0  0
 42 44  1  0  0  0  0
 42 45  1  0  0  0  0
 43104  1  0  0  0  0
 43105  1  0  0  0  0
 43106  1  0  0  0  0
 44107  1  0  0  0  0
 44108  1  0  0  0  0
 44109  1  0  0  0  0
 45 46  1  0  0  0  0
 45110  1  0  0  0  0
 45111  1  0  0  0  0
 46 47  1  0  0  0  0
 46 48  1  0  0  0  0
 46 49  1  0  0  0  0
 47112  1  0  0  0  0
 47113  1  0  0  0  0
 47114  1  0  0  0  0
 48115  1  0  0  0  0
 48116  1  0  0  0  0
 48117  1  0  0  0  0
 49118  1  0  0  0  0
 49119  1  0  0  0  0
 49120  1  0  0  0  0
 50 51  1  0  0  0  0
 50 52  1  0  0  0  0
 50 53  1  0  0  0  0
 51121  1  0  0  0  0
 51122  1  0  0  0  0
 51123  1  0  0  0  0
 52124  1  0  0  0  0
 52125  1  0  0  0  0
 52126  1  0  0  0  0
 53 54  1  0  0  0  0
 53127  1  0  0  0  0
 53128  1  0  0  0  0
 54 55  1  0  0  0  0
 54 56  1  0  0  0  0
 54 57  1  0  0  0  0
 55129  1  0  0  0  0
 55130  1  0  0  0  0
 55131  1  0  0  0  0
 56132  1  0  0  0  0
 56133  1  0  0  0  0
 56134  1  0  0  0  0
 57135  1  0  0  0  0
 57136  1  0  0  0  0
 57137  1  0  0  0  0
M  END
$$$$
