ZINC00967932
 OpenBabel08292219463D

 59 60  0  0  1  0  0  0  0  0999 V2000
   -0.0116    2.2388    0.4075 C   0  0  0  0  0  0  0  0  0  0  0  0
    0.0673    0.7374    0.1239 C   0  0  0  0  0  0  0  0  0  0  0  0
   -1.2906    0.1890    0.0080 N   0  3  0  0  0  0  0  0  0  0  0  0
   -1.9969    0.8587   -1.0923 C   0  0  0  0  0  0  0  0  0  0  0  0
   -1.2394    0.6259   -2.4011 C   0  0  0  0  0  0  0  0  0  0  0  0
   -1.2149   -1.2526   -0.2642 C   0  0  0  0  0  0  0  0  0  0  0  0
   -2.6292   -1.8238   -0.3850 C   0  0  0  0  0  0  0  0  0  0  0  0
   -2.0179    0.4125    1.2646 C   0  0  0  0  0  0  0  0  0  0  0  0
   -1.2823   -0.2850    2.4106 C   0  0  0  0  0  0  0  0  0  0  0  0
   -2.0398   -0.0522    3.7194 C   0  0  1  0  0  0  0  0  0  0  0  0
   -3.4328   -0.6148    3.6005 C   0  0  0  0  0  0  0  0  0  0  0  0
   -3.6157   -1.9684    3.3877 C   0  0  0  0  0  0  0  0  0  0  0  0
   -4.8935   -2.4844    3.2786 C   0  0  0  0  0  0  0  0  0  0  0  0
   -5.9883   -1.6469    3.3827 C   0  0  0  0  0  0  0  0  0  0  0  0
   -5.8054   -0.2935    3.5963 C   0  0  0  0  0  0  0  0  0  0  0  0
   -4.5278    0.2219    3.7097 C   0  0  0  0  0  0  0  0  0  0  0  0
   -1.3042   -0.7497    4.8654 C   0  0  0  0  0  0  0  0  0  0  0  0
   -2.0598   -0.5139    6.1747 C   0  0  0  0  0  0  0  0  0  0  0  0
   -1.3243   -1.2114    7.3208 C   0  0  0  0  0  0  0  0  0  0  0  0
    0.0912   -0.6427    7.4392 C   0  0  0  0  0  0  0  0  0  0  0  0
    0.8468   -0.8785    6.1299 C   0  0  0  0  0  0  0  0  0  0  0  0
    0.1112   -0.1810    4.9839 C   0  0  0  0  0  0  0  0  0  0  0  0
   -2.1134    1.3501    3.9842 O   0  0  0  0  0  0  0  0  0  0  0  0
    0.9960    2.6457    0.4935 H   0  0  0  0  0  0  0  0  0  0  0  0
   -0.5356    2.7357   -0.4090 H   0  0  0  0  0  0  0  0  0  0  0  0
   -0.5512    2.4046    1.3399 H   0  0  0  0  0  0  0  0  0  0  0  0
    0.6069    0.5715   -0.8085 H   0  0  0  0  0  0  0  0  0  0  0  0
    0.5913    0.2405    0.9404 H   0  0  0  0  0  0  0  0  0  0  0  0
   -3.0044    0.4518   -1.1783 H   0  0  0  0  0  0  0  0  0  0  0  0
   -2.0530    1.9283   -0.8903 H   0  0  0  0  0  0  0  0  0  0  0  0
   -0.2318    1.0328   -2.3151 H   0  0  0  0  0  0  0  0  0  0  0  0
   -1.1832   -0.4438   -2.6031 H   0  0  0  0  0  0  0  0  0  0  0  0
   -1.7634    1.1228   -3.2175 H   0  0  0  0  0  0  0  0  0  0  0  0
   -0.6752   -1.4184   -1.1966 H   0  0  0  0  0  0  0  0  0  0  0  0
   -0.6909   -1.7495    0.5522 H   0  0  0  0  0  0  0  0  0  0  0  0
   -2.5730   -2.8934   -0.5869 H   0  0  0  0  0  0  0  0  0  0  0  0
   -3.1688   -1.6579    0.5474 H   0  0  0  0  0  0  0  0  0  0  0  0
   -3.1532   -1.3269   -1.2014 H   0  0  0  0  0  0  0  0  0  0  0  0
   -2.0741    1.4821    1.4666 H   0  0  0  0  0  0  0  0  0  0  0  0
   -3.0254    0.0056    1.1786 H   0  0  0  0  0  0  0  0  0  0  0  0
   -1.2262   -1.3546    2.2086 H   0  0  0  0  0  0  0  0  0  0  0  0
   -0.2748    0.1219    2.4966 H   0  0  0  0  0  0  0  0  0  0  0  0
   -2.7603   -2.6226    3.3064 H   0  0  0  0  0  0  0  0  0  0  0  0
   -5.0364   -3.5418    3.1117 H   0  0  0  0  0  0  0  0  0  0  0  0
   -6.9866   -2.0500    3.2968 H   0  0  0  0  0  0  0  0  0  0  0  0
   -6.6608    0.3609    3.6773 H   0  0  0  0  0  0  0  0  0  0  0  0
   -4.3850    1.2787    3.8803 H   0  0  0  0  0  0  0  0  0  0  0  0
   -1.2503   -1.8197    4.6646 H   0  0  0  0  0  0  0  0  0  0  0  0
   -2.1138    0.5560    6.3755 H   0  0  0  0  0  0  0  0  0  0  0  0
   -3.0682   -0.9191    6.0903 H   0  0  0  0  0  0  0  0  0  0  0  0
   -1.8626   -1.0435    8.2536 H   0  0  0  0  0  0  0  0  0  0  0  0
   -1.2703   -2.2814    7.1200 H   0  0  0  0  0  0  0  0  0  0  0  0
    0.0372    0.4272    7.6400 H   0  0  0  0  0  0  0  0  0  0  0  0
    0.6152   -1.1396    8.2557 H   0  0  0  0  0  0  0  0  0  0  0  0
    1.8552   -0.4733    6.2143 H   0  0  0  0  0  0  0  0  0  0  0  0
    0.9007   -1.9485    5.9291 H   0  0  0  0  0  0  0  0  0  0  0  0
    0.6495   -0.3489    4.0511 H   0  0  0  0  0  0  0  0  0  0  0  0
    0.0572    0.8890    5.1847 H   0  0  0  0  0  0  0  0  0  0  0  0
   -1.2515    1.7794    4.0731 H   0  0  0  0  0  0  0  0  0  0  0  0
  1  2  1  0  0  0  0
  1 24  1  0  0  0  0
  1 25  1  0  0  0  0
  1 26  1  0  0  0  0
  2  3  1  0  0  0  0
  2 27  1  0  0  0  0
  2 28  1  0  0  0  0
  3  4  1  0  0  0  0
  3  6  1  0  0  0  0
  3  8  1  0  0  0  0
  4  5  1  0  0  0  0
  4 29  1  0  0  0  0
  4 30  1  0  0  0  0
  5 31  1  0  0  0  0
  5 32  1  0  0  0  0
  5 33  1  0  0  0  0
  6  7  1  0  0  0  0
  6 34  1  0  0  0  0
  6 35  1  0  0  0  0
  7 36  1  0  0  0  0
  7 37  1  0  0  0  0
  7 38  1  0  0  0  0
  8  9  1  0  0  0  0
  8 39  1  0  0  0  0
  8 40  1  0  0  0  0
  9 10  1  0  0  0  0
  9 41  1  0  0  0  0
  9 42  1  0  0  0  0
 10 11  1  0  0  0  0
 10 17  1  0  0  0  0
 10 23  1  1  0  0  0
 11 16  2  0  0  0  0
 11 12  1  0  0  0  0
 12 13  2  0  0  0  0
 12 43  1  0  0  0  0
 13 14  1  0  0  0  0
 13 44  1  0  0  0  0
 14 15  2  0  0  0  0
 14 45  1  0  0  0  0
 15 16  1  0  0  0  0
 15 46  1  0  0  0  0
 16 47  1  0  0  0  0
 17 22  1  0  0  0  0
 17 18  1  0  0  0  0
 17 48  1  0  0  0  0
 18 19  1  0  0  0  0
 18 49  1  0  0  0  0
 18 50  1  0  0  0  0
 19 20  1  0  0  0  0
 19 51  1  0  0  0  0
 19 52  1  0  0  0  0
 20 21  1  0  0  0  0
 20 53  1  0  0  0  0
 20 54  1  0  0  0  0
 21 22  1  0  0  0  0
 21 55  1  0  0  0  0
 21 56  1  0  0  0  0
 22 57  1  0  0  0  0
 22 58  1  0  0  0  0
 23 59  1  0  0  0  0
M  CHG  1   3   1
M  END
$$$$
