ZINC01530641
 OpenBabel08292219463D

 39 39  0  0  0  0  0  0  0  0999 V2000
   -0.0184    1.5028    0.0103 C   0  0  0  0  0  0  0  0  0  0  0  0
    0.0021   -0.0041    0.0020 C   0  0  0  0  0  0  0  0  0  0  0  0
    0.0057   -0.6883   -1.1997 C   0  0  0  0  0  0  0  0  0  0  0  0
    0.0244   -2.0706   -1.2107 C   0  0  0  0  0  0  0  0  0  0  0  0
    0.0391   -2.7719   -0.0203 C   0  0  0  0  0  0  0  0  0  0  0  0
    0.0355   -2.0879    1.1864 C   0  0  0  0  0  0  0  0  0  0  0  0
    0.0229   -0.7004    1.1947 C   0  0  0  0  0  0  0  0  0  0  0  0
    0.0500   -2.7755    2.3585 O   0  0  0  0  0  0  0  0  0  0  0  0
    0.0452   -2.0055    3.5624 C   0  0  0  0  0  0  0  0  0  0  0  0
    0.0632   -2.9458    4.7692 C   0  0  0  0  0  0  0  0  0  0  0  0
    0.0581   -2.1215    6.0581 C   0  0  0  0  0  0  0  0  0  0  0  0
    0.0761   -3.0618    7.2650 C   0  0  0  0  0  0  0  0  0  0  0  0
   -1.1615   -3.9607    7.2296 C   0  0  0  0  0  0  0  0  0  0  0  0
    1.3367   -3.9275    7.2182 C   0  0  0  0  0  0  0  0  0  0  0  0
    0.0710   -2.2498    8.5345 C   0  0  0  0  0  0  0  0  0  0  0  0
   -0.4464   -2.6986    9.5431 O   0  0  0  0  0  0  0  0  0  0  0  0
    0.5844   -1.1441    8.5530 O   0  0  0  0  0  1  0  0  0  0  0  0
    0.0585   -4.2788   -0.0330 C   0  0  0  0  0  0  0  0  0  0  0  0
    1.0042    1.8801    0.0026 H   0  0  0  0  0  0  0  0  0  0  0  0
   -0.5455    1.8639   -0.8728 H   0  0  0  0  0  0  0  0  0  0  0  0
   -0.5286    1.8543    0.9071 H   0  0  0  0  0  0  0  0  0  0  0  0
   -0.0065   -0.1419   -2.1312 H   0  0  0  0  0  0  0  0  0  0  0  0
    0.0272   -2.6027   -2.1505 H   0  0  0  0  0  0  0  0  0  0  0  0
    0.0248   -0.1655    2.1329 H   0  0  0  0  0  0  0  0  0  0  0  0
    0.9269   -1.3651    3.5876 H   0  0  0  0  0  0  0  0  0  0  0  0
   -0.8529   -1.3888    3.5957 H   0  0  0  0  0  0  0  0  0  0  0  0
   -0.8185   -3.5862    4.7440 H   0  0  0  0  0  0  0  0  0  0  0  0
    0.9613   -3.5626    4.7359 H   0  0  0  0  0  0  0  0  0  0  0  0
    0.9398   -1.4811    6.0833 H   0  0  0  0  0  0  0  0  0  0  0  0
   -0.8400   -1.5047    6.0914 H   0  0  0  0  0  0  0  0  0  0  0  0
   -1.1579   -4.5480    6.3113 H   0  0  0  0  0  0  0  0  0  0  0  0
   -1.1487   -4.6306    8.0893 H   0  0  0  0  0  0  0  0  0  0  0  0
   -2.0596   -3.3440    7.2629 H   0  0  0  0  0  0  0  0  0  0  0  0
    2.2184   -3.2871    7.2434 H   0  0  0  0  0  0  0  0  0  0  0  0
    1.3495   -4.5974    8.0780 H   0  0  0  0  0  0  0  0  0  0  0  0
    1.3404   -4.5148    6.3000 H   0  0  0  0  0  0  0  0  0  0  0  0
    1.0908   -4.6288   -0.0409 H   0  0  0  0  0  0  0  0  0  0  0  0
   -0.4463   -4.6561    0.8563 H   0  0  0  0  0  0  0  0  0  0  0  0
   -0.4549   -4.6412   -0.9236 H   0  0  0  0  0  0  0  0  0  0  0  0
  1  2  1  0  0  0  0
  1 19  1  0  0  0  0
  1 20  1  0  0  0  0
  1 21  1  0  0  0  0
  2  7  2  0  0  0  0
  2  3  1  0  0  0  0
  3  4  2  0  0  0  0
  3 22  1  0  0  0  0
  4  5  1  0  0  0  0
  4 23  1  0  0  0  0
  5  6  2  0  0  0  0
  5 18  1  0  0  0  0
  6  7  1  0  0  0  0
  6  8  1  0  0  0  0
  7 24  1  0  0  0  0
  8  9  1  0  0  0  0
  9 10  1  0  0  0  0
  9 25  1  0  0  0  0
  9 26  1  0  0  0  0
 10 11  1  0  0  0  0
 10 27  1  0  0  0  0
 10 28  1  0  0  0  0
 11 12  1  0  0  0  0
 11 29  1  0  0  0  0
 11 30  1  0  0  0  0
 12 13  1  0  0  0  0
 12 14  1  0  0  0  0
 12 15  1  0  0  0  0
 13 31  1  0  0  0  0
 13 32  1  0  0  0  0
 13 33  1  0  0  0  0
 14 34  1  0  0  0  0
 14 35  1  0  0  0  0
 14 36  1  0  0  0  0
 15 16  2  0  0  0  0
 15 17  1  0  0  0  0
 18 37  1  0  0  0  0
 18 38  1  0  0  0  0
 18 39  1  0  0  0  0
M  END
$$$$
