ZINC03861768
 OpenBabel08292219463D

 30 31  0  0  1  0  0  0  0  0999 V2000
   -0.0162    1.3468    0.0094 C   0  0  0  0  0  0  0  0  0  0  0  0
    1.1088    2.0171    0.0023 N   0  0  0  0  0  4  0  0  0  0  0  0
    2.2838    1.3716   -0.0128 C   0  0  0  0  0  0  0  0  0  0  0  0
    2.3216    0.0465   -0.0207 N   0  0  0  0  0  0  0  0  0  0  0  0
    1.1841   -0.6540   -0.0131 C   0  0  0  0  0  0  0  0  0  0  0  0
    1.2141   -1.8729   -0.0203 O   0  0  0  0  0  0  0  0  0  0  0  0
    0.0021   -0.0041    0.0020 N   0  0  0  0  0  0  0  0  0  0  0  0
   -1.2538   -0.7583    0.0104 C   0  0  1  0  0  0  0  0  0  0  0  0
   -2.1010   -0.0820    0.1239 H   0  0  0  0  0  0  0  0  0  0  0  0
   -1.3944   -1.5832   -1.2882 C   0  0  1  0  0  0  0  0  0  0  0  0
   -0.4146   -1.7817   -1.7225 H   0  0  0  0  0  0  0  0  0  0  0  0
   -2.0589   -2.8995   -0.8267 C   0  0  1  0  0  0  0  0  0  0  0  0
   -1.4075   -3.7489   -1.0329 H   0  0  0  0  0  0  0  0  0  0  0  0
   -2.2411   -2.7143    0.6961 C   0  0  2  0  0  0  0  0  0  0  0  0
   -3.2407   -2.3394    0.9158 H   0  0  0  0  0  0  0  0  0  0  0  0
   -1.2456   -1.7367    1.0727 O   0  0  0  0  0  0  0  0  0  0  0  0
   -1.9968   -4.0364    1.4264 C   0  0  0  0  0  0  0  0  0  0  0  0
   -2.2831   -3.8724    2.8168 O   0  0  0  0  0  0  0  0  0  0  0  0
   -3.3242   -3.0733   -1.4677 O   0  0  0  0  0  0  0  0  0  0  0  0
   -2.2279   -0.9007   -2.2271 O   0  0  0  0  0  0  0  0  0  0  0  0
    3.4549    2.0873   -0.0206 N   0  0  0  0  0  0  0  0  0  0  0  0
   -0.9587    1.8740    0.0258 H   0  0  0  0  0  0  0  0  0  0  0  0
   -2.6459   -4.8067    1.0102 H   0  0  0  0  0  0  0  0  0  0  0  0
   -0.9553   -4.3329    1.3024 H   0  0  0  0  0  0  0  0  0  0  0  0
   -2.1497   -4.6727    3.3429 H   0  0  0  0  0  0  0  0  0  0  0  0
   -3.7854   -3.8845   -1.2142 H   0  0  0  0  0  0  0  0  0  0  0  0
   -2.3504   -1.3743   -3.0612 H   0  0  0  0  0  0  0  0  0  0  0  0
    3.4308    3.0570   -0.0152 H   0  0  0  0  0  0  0  0  0  0  0  0
    4.3068    1.6235   -0.0315 H   0  0  0  0  0  0  0  0  0  0  0  0
    1.0919    2.9869    0.0076 H   0  0  0  0  0  0  0  0  0  0  0  0
  1  7  1  0  0  0  0
  1  2  2  0  0  0  0
  1 22  1  0  0  0  0
  2  3  1  0  0  0  0
  2 30  1  0  0  0  0
  3  4  2  0  0  0  0
  3 21  1  0  0  0  0
  4  5  1  0  0  0  0
  5  6  2  0  0  0  0
  5  7  1  0  0  0  0
  7  8  1  0  0  0  0
  8  9  1  1  0  0  0
  8 16  1  0  0  0  0
  8 10  1  0  0  0  0
 10 11  1  6  0  0  0
 10 12  1  0  0  0  0
 10 20  1  0  0  0  0
 12 13  1  6  0  0  0
 12 14  1  0  0  0  0
 12 19  1  0  0  0  0
 14 15  1  1  0  0  0
 14 16  1  0  0  0  0
 14 17  1  0  0  0  0
 17 18  1  0  0  0  0
 17 23  1  0  0  0  0
 17 24  1  0  0  0  0
 18 25  1  0  0  0  0
 19 26  1  0  0  0  0
 20 27  1  0  0  0  0
 21 28  1  0  0  0  0
 21 29  1  0  0  0  0
M  END
$$$$
