ZINC00000882
 OpenBabel08292219463D

 15 16  0  0  0  0  0  0  0  0999 V2000
   -0.0156    1.2972    0.0092 C   0  0  0  0  0  0  0  0  0  0  0  0
    1.2591    1.7803   -0.0004 N   0  0  0  0  0  0  0  0  0  0  0  0
    1.5187    2.7149    0.0024 H   0  0  0  0  0  0  0  0  0  0  0  0
    2.1075    0.7022   -0.0143 C   0  0  0  0  0  0  0  0  0  0  0  0
    1.2855   -0.4376   -0.0126 C   0  0  0  0  0  0  0  0  0  0  0  0
    0.0021   -0.0041    0.0020 N   0  0  0  0  0  0  0  0  0  0  0  0
    1.9020   -1.7001   -0.0252 C   0  0  0  0  0  0  0  0  0  0  0  0
    3.2299   -1.7563   -0.0382 N   0  0  0  0  0  0  0  0  0  0  0  0
    3.9609   -0.6567   -0.0393 C   0  0  0  0  0  0  0  0  0  0  0  0
    3.4272    0.5466   -0.0277 N   0  0  0  0  0  0  0  0  0  0  0  0
    1.1443   -2.8581   -0.0238 N   0  0  0  0  0  0  0  0  0  0  0  0
   -0.9084    1.9047    0.0251 H   0  0  0  0  0  0  0  0  0  0  0  0
    5.0370   -0.7480   -0.0501 H   0  0  0  0  0  0  0  0  0  0  0  0
    0.1759   -2.8041   -0.0139 H   0  0  0  0  0  0  0  0  0  0  0  0
    1.5816   -3.7239   -0.0326 H   0  0  0  0  0  0  0  0  0  0  0  0
  1  6  2  0  0  0  0
  1  2  1  0  0  0  0
  1 12  1  0  0  0  0
  2  3  1  0  0  0  0
  2  4  1  0  0  0  0
  4 10  2  0  0  0  0
  4  5  1  0  0  0  0
  5  6  1  0  0  0  0
  5  7  2  0  0  0  0
  7  8  1  0  0  0  0
  7 11  1  0  0  0  0
  8  9  2  0  0  0  0
  9 10  1  0  0  0  0
  9 13  1  0  0  0  0
 11 14  1  0  0  0  0
 11 15  1  0  0  0  0
M  END
$$$$
