ZINC05763835
 OpenBabel08292219463D

 57 60  0  0  1  0  0  0  0  0999 V2000
   -0.0955    1.6387   -0.1425 C   0  0  0  0  0  0  0  0  0  0  0  0
   -0.1189    0.1089   -0.1465 C   0  0  1  0  0  0  0  0  0  0  0  0
   -1.1500   -0.2406   -0.2011 H   0  0  0  0  0  0  0  0  0  0  0  0
    0.6641   -0.4129   -1.3531 C   0  0  0  0  0  0  0  0  0  0  0  0
    0.7400   -1.9409   -1.2817 C   0  0  2  0  0  0  0  0  0  0  0  0
   -0.2634   -2.3608   -1.2111 H   0  0  0  0  0  0  0  0  0  0  0  0
    1.5654   -2.3428   -0.0508 C   0  0  2  0  0  0  0  0  0  0  0  0
    2.5409   -1.8596   -0.1047 H   0  0  0  0  0  0  0  0  0  0  0  0
    1.7634   -3.8536    0.0299 C   0  0  0  0  0  0  0  0  0  0  0  0
    2.3629   -4.4186   -1.2676 C   0  0  0  0  0  0  0  0  0  0  0  0
    1.4246   -4.0375   -2.3967 C   0  0  1  0  0  0  0  0  0  0  0  0
    1.4414   -2.4775   -2.5162 C   0  0  1  0  0  0  0  0  0  0  0  0
    2.4650   -2.1056   -2.5619 H   0  0  0  0  0  0  0  0  0  0  0  0
    0.7149   -2.2499   -3.8467 C   0  0  0  0  0  0  0  0  0  0  0  0
    1.3102   -3.3553   -4.7609 C   0  0  0  0  0  0  0  0  0  0  0  0
    1.8234   -4.4948   -3.7961 C   0  0  2  0  0  0  0  0  0  0  0  0
    1.1505   -5.8012   -4.1301 C   0  0  0  0  0  0  0  0  0  0  0  0
    0.1126   -5.8053   -4.7474 O   0  0  0  0  0  0  0  0  0  0  0  0
    1.7729   -7.1025   -3.6938 C   0  0  0  0  0  0  0  0  0  0  0  0
    3.2431   -4.6305   -3.8867 O   0  0  0  0  0  0  0  0  0  0  0  0
    0.0075   -4.5186   -2.0780 C   0  0  0  0  0  0  0  0  0  0  0  0
    0.8464   -1.8742    1.2204 C   0  0  2  0  0  0  0  0  0  0  0  0
    0.5287   -0.4132    1.1231 C   0  0  0  0  0  0  0  0  0  0  0  0
    0.7767    0.4621    2.0971 C   0  0  0  0  0  0  0  0  0  0  0  0
    1.3866    0.0102    3.3523 C   0  0  0  0  0  0  0  0  0  0  0  0
    1.9694    0.7759    4.0913 O   0  0  0  0  0  0  0  0  0  0  0  0
    1.2497   -1.4644    3.6776 C   0  0  0  0  0  0  0  0  0  0  0  0
    1.6820   -2.2477    2.4321 C   0  0  0  0  0  0  0  0  0  0  0  0
   -0.4839   -2.6243    1.3132 C   0  0  0  0  0  0  0  0  0  0  0  0
    0.9362    1.9861   -0.0878 H   0  0  0  0  0  0  0  0  0  0  0  0
   -0.5565    2.0116   -1.0571 H   0  0  0  0  0  0  0  0  0  0  0  0
   -0.6495    2.0083    0.7204 H   0  0  0  0  0  0  0  0  0  0  0  0
    0.1581   -0.1159   -2.2717 H   0  0  0  0  0  0  0  0  0  0  0  0
    1.6717    0.0027   -1.3407 H   0  0  0  0  0  0  0  0  0  0  0  0
    2.4334   -4.0804    0.8592 H   0  0  0  0  0  0  0  0  0  0  0  0
    0.7998   -4.3291    0.2128 H   0  0  0  0  0  0  0  0  0  0  0  0
    3.3479   -3.9854   -1.4410 H   0  0  0  0  0  0  0  0  0  0  0  0
    2.4402   -5.5037   -1.1992 H   0  0  0  0  0  0  0  0  0  0  0  0
   -0.3600   -2.3855   -3.7273 H   0  0  0  0  0  0  0  0  0  0  0  0
    0.9381   -1.2595   -4.2435 H   0  0  0  0  0  0  0  0  0  0  0  0
    0.5391   -3.7481   -5.4236 H   0  0  0  0  0  0  0  0  0  0  0  0
    2.1369   -2.9520   -5.3457 H   0  0  0  0  0  0  0  0  0  0  0  0
    1.3980   -7.3714   -2.7063 H   0  0  0  0  0  0  0  0  0  0  0  0
    1.5144   -7.8858   -4.4063 H   0  0  0  0  0  0  0  0  0  0  0  0
    2.8565   -6.9914   -3.6532 H   0  0  0  0  0  0  0  0  0  0  0  0
    3.5559   -4.9192   -4.7550 H   0  0  0  0  0  0  0  0  0  0  0  0
   -0.3201   -4.0835   -1.1339 H   0  0  0  0  0  0  0  0  0  0  0  0
   -0.6689   -4.2093   -2.8748 H   0  0  0  0  0  0  0  0  0  0  0  0
    0.0022   -5.6056   -1.9983 H   0  0  0  0  0  0  0  0  0  0  0  0
    0.5289    1.5046    1.9620 H   0  0  0  0  0  0  0  0  0  0  0  0
    1.8961   -1.7202    4.5171 H   0  0  0  0  0  0  0  0  0  0  0  0
    0.2131   -1.6949    3.9235 H   0  0  0  0  0  0  0  0  0  0  0  0
    1.5672   -3.3138    2.6280 H   0  0  0  0  0  0  0  0  0  0  0  0
    2.7302   -2.0377    2.2193 H   0  0  0  0  0  0  0  0  0  0  0  0
   -0.2938   -3.6965    1.3613 H   0  0  0  0  0  0  0  0  0  0  0  0
   -1.0168   -2.3092    2.2104 H   0  0  0  0  0  0  0  0  0  0  0  0
   -1.0888   -2.4015    0.4342 H   0  0  0  0  0  0  0  0  0  0  0  0
  1  2  1  0  0  0  0
  1 30  1  0  0  0  0
  1 31  1  0  0  0  0
  1 32  1  0  0  0  0
  2  3  1  6  0  0  0
  2 23  1  0  0  0  0
  2  4  1  0  0  0  0
  4  5  1  0  0  0  0
  4 33  1  0  0  0  0
  4 34  1  0  0  0  0
  5  6  1  1  0  0  0
  5 12  1  0  0  0  0
  5  7  1  0  0  0  0
  7  8  1  6  0  0  0
  7  9  1  0  0  0  0
  7 22  1  0  0  0  0
  9 10  1  0  0  0  0
  9 35  1  0  0  0  0
  9 36  1  0  0  0  0
 10 11  1  0  0  0  0
 10 37  1  0  0  0  0
 10 38  1  0  0  0  0
 11 16  1  0  0  0  0
 11 12  1  0  0  0  0
 11 21  1  1  0  0  0
 12 13  1  6  0  0  0
 12 14  1  0  0  0  0
 14 15  1  0  0  0  0
 14 39  1  0  0  0  0
 14 40  1  0  0  0  0
 15 16  1  0  0  0  0
 15 41  1  0  0  0  0
 15 42  1  0  0  0  0
 16 17  1  6  0  0  0
 16 20  1  0  0  0  0
 17 18  2  0  0  0  0
 17 19  1  0  0  0  0
 19 43  1  0  0  0  0
 19 44  1  0  0  0  0
 19 45  1  0  0  0  0
 20 46  1  0  0  0  0
 21 47  1  0  0  0  0
 21 48  1  0  0  0  0
 21 49  1  0  0  0  0
 22 28  1  0  0  0  0
 22 23  1  0  0  0  0
 22 29  1  1  0  0  0
 23 24  2  0  0  0  0
 24 25  1  0  0  0  0
 24 50  1  0  0  0  0
 25 26  2  0  0  0  0
 25 27  1  0  0  0  0
 27 28  1  0  0  0  0
 27 51  1  0  0  0  0
 27 52  1  0  0  0  0
 28 53  1  0  0  0  0
 28 54  1  0  0  0  0
 29 55  1  0  0  0  0
 29 56  1  0  0  0  0
 29 57  1  0  0  0  0
M  END
$$$$
