ZINC03977777
 OpenBabel08292219463D

 71 76  0  0  1  0  0  0  0  0999 V2000
   -1.9545    1.1136   -4.4146 C   0  0  0  0  0  0  0  0  0  0  0  0
   -1.9420   -0.3745   -4.1765 C   0  0  0  0  0  0  0  0  0  0  0  0
   -1.6432   -1.1272   -5.0732 O   0  0  0  0  0  0  0  0  0  0  0  0
   -2.2627   -0.8636   -2.9684 O   0  0  0  0  0  0  0  0  0  0  0  0
   -2.2298   -2.2839   -2.8139 C   0  0  0  0  0  0  0  0  0  0  0  0
   -2.6159   -2.6447   -1.4026 C   0  0  0  0  0  0  0  0  0  0  0  0
   -2.8027   -1.7745   -0.5865 O   0  0  0  0  0  0  0  0  0  0  0  0
   -2.7690   -4.0916   -1.0098 C   0  0  1  0  0  0  0  0  0  0  0  0
   -2.5003   -4.3144    0.5083 C   0  0  1  0  0  0  0  0  0  0  0  0
   -2.2895   -3.3836    1.0350 H   0  0  0  0  0  0  0  0  0  0  0  0
   -3.7558   -5.0383    1.0668 C   0  0  0  0  0  0  0  0  0  0  0  0
   -4.3488   -5.7136   -0.1744 C   0  0  2  0  0  0  0  0  0  0  0  0
   -3.7636   -6.5926   -0.4446 H   0  0  0  0  0  0  0  0  0  0  0  0
   -4.1880   -4.5948   -1.2440 C   0  0  2  0  0  0  0  0  0  0  0  0
   -4.4650   -5.2309   -2.5932 C   0  0  0  0  0  0  0  0  0  0  0  0
   -5.9405   -5.6604   -2.5988 C   0  0  1  0  0  0  0  0  0  0  0  0
   -6.1635   -6.1539   -3.5448 H   0  0  0  0  0  0  0  0  0  0  0  0
   -6.2537   -6.6172   -1.4524 C   0  0  1  0  0  0  0  0  0  0  0  0
   -5.8228   -6.0662   -0.0909 C   0  0  1  0  0  0  0  0  0  0  0  0
   -6.4045   -5.1678    0.1156 H   0  0  0  0  0  0  0  0  0  0  0  0
   -6.0466   -7.1099    1.0052 C   0  0  0  0  0  0  0  0  0  0  0  0
   -7.5412   -7.4282    1.1158 C   0  0  0  0  0  0  0  0  0  0  0  0
   -8.0358   -7.8555   -0.2534 C   0  0  0  0  0  0  0  0  0  0  0  0
   -8.7107   -8.9911   -0.3667 C   0  0  0  0  0  0  0  0  0  0  0  0
   -9.1885   -9.4490   -1.6806 C   0  0  0  0  0  0  0  0  0  0  0  0
   -9.8428  -10.4698   -1.7835 O   0  0  0  0  0  0  0  0  0  0  0  0
   -8.8577   -8.6437   -2.8684 C   0  0  0  0  0  0  0  0  0  0  0  0
   -8.1883   -7.5099   -2.7307 C   0  0  0  0  0  0  0  0  0  0  0  0
   -7.7583   -6.9032   -1.4286 C   0  0  2  0  0  0  0  0  0  0  0  0
   -8.4818   -5.5707   -1.2238 C   0  0  0  0  0  0  0  0  0  0  0  0
   -5.5601   -7.8159   -1.6502 F   0  0  0  0  0  0  0  0  0  0  0  0
   -6.7643   -4.4995   -2.4735 O   0  0  0  0  0  0  0  0  0  0  0  0
   -5.1878   -3.4661   -0.9845 C   0  0  0  0  0  0  0  0  0  0  0  0
   -1.3885   -5.2346    0.5507 O   0  0  0  0  0  0  0  0  0  0  0  0
   -0.7507   -5.1051   -0.7265 C   0  0  0  0  0  0  0  0  0  0  0  0
   -1.8248   -4.9366   -1.6977 O   0  0  0  0  0  0  0  0  0  0  0  0
    0.1985   -3.8991   -0.7437 C   0  0  0  0  0  0  0  0  0  0  0  0
    1.5973   -4.5182   -0.4896 C   0  0  0  0  0  0  0  0  0  0  0  0
    1.5296   -5.8550   -1.2704 C   0  0  0  0  0  0  0  0  0  0  0  0
    0.0820   -6.3481   -1.0529 C   0  0  0  0  0  0  0  0  0  0  0  0
   -1.6690    1.3189   -5.4463 H   0  0  0  0  0  0  0  0  0  0  0  0
   -2.9559    1.5026   -4.2303 H   0  0  0  0  0  0  0  0  0  0  0  0
   -1.2475    1.5955   -3.7392 H   0  0  0  0  0  0  0  0  0  0  0  0
   -2.9319   -2.7415   -3.5110 H   0  0  0  0  0  0  0  0  0  0  0  0
   -1.2235   -2.6486   -3.0198 H   0  0  0  0  0  0  0  0  0  0  0  0
   -3.4720   -5.7821    1.8113 H   0  0  0  0  0  0  0  0  0  0  0  0
   -4.4593   -4.3197    1.4874 H   0  0  0  0  0  0  0  0  0  0  0  0
   -4.2860   -4.5073   -3.3885 H   0  0  0  0  0  0  0  0  0  0  0  0
   -3.8243   -6.1019   -2.7314 H   0  0  0  0  0  0  0  0  0  0  0  0
   -5.4993   -8.0194    0.7574 H   0  0  0  0  0  0  0  0  0  0  0  0
   -5.6875   -6.7190    1.9572 H   0  0  0  0  0  0  0  0  0  0  0  0
   -7.6933   -8.2368    1.8308 H   0  0  0  0  0  0  0  0  0  0  0  0
   -8.0832   -6.5407    1.4423 H   0  0  0  0  0  0  0  0  0  0  0  0
   -8.9109   -9.5851    0.5127 H   0  0  0  0  0  0  0  0  0  0  0  0
   -9.1602   -8.9777   -3.8499 H   0  0  0  0  0  0  0  0  0  0  0  0
   -7.9555   -6.9474   -3.6227 H   0  0  0  0  0  0  0  0  0  0  0  0
   -8.5282   -5.0331   -2.1708 H   0  0  0  0  0  0  0  0  0  0  0  0
   -9.4929   -5.7582   -0.8624 H   0  0  0  0  0  0  0  0  0  0  0  0
   -7.9397   -4.9717   -0.4921 H   0  0  0  0  0  0  0  0  0  0  0  0
   -6.6477   -3.8557   -3.1855 H   0  0  0  0  0  0  0  0  0  0  0  0
   -5.1939   -2.7836   -1.8344 H   0  0  0  0  0  0  0  0  0  0  0  0
   -6.1841   -3.8871   -0.8496 H   0  0  0  0  0  0  0  0  0  0  0  0
   -4.8977   -2.9235   -0.0848 H   0  0  0  0  0  0  0  0  0  0  0  0
    0.1702   -3.4045   -1.7146 H   0  0  0  0  0  0  0  0  0  0  0  0
   -0.0593   -3.1987    0.0506 H   0  0  0  0  0  0  0  0  0  0  0  0
    2.3820   -3.8765   -0.8904 H   0  0  0  0  0  0  0  0  0  0  0  0
    1.7516   -4.6998    0.5740 H   0  0  0  0  0  0  0  0  0  0  0  0
    1.7204   -5.6877   -2.3304 H   0  0  0  0  0  0  0  0  0  0  0  0
    2.2421   -6.5717   -0.8621 H   0  0  0  0  0  0  0  0  0  0  0  0
    0.0470   -7.0514   -0.2209 H   0  0  0  0  0  0  0  0  0  0  0  0
   -0.2924   -6.8220   -1.9603 H   0  0  0  0  0  0  0  0  0  0  0  0
  1  2  1  0  0  0  0
  1 41  1  0  0  0  0
  1 42  1  0  0  0  0
  1 43  1  0  0  0  0
  2  3  2  0  0  0  0
  2  4  1  0  0  0  0
  4  5  1  0  0  0  0
  5  6  1  0  0  0  0
  5 44  1  0  0  0  0
  5 45  1  0  0  0  0
  6  7  2  0  0  0  0
  8  6  1  6  0  0  0
  8 14  1  0  0  0  0
  8 36  1  0  0  0  0
  8  9  1  0  0  0  0
  9 10  1  1  0  0  0
  9 11  1  0  0  0  0
  9 34  1  0  0  0  0
 11 12  1  0  0  0  0
 11 46  1  0  0  0  0
 11 47  1  0  0  0  0
 12 13  1  6  0  0  0
 12 19  1  0  0  0  0
 12 14  1  0  0  0  0
 14 15  1  0  0  0  0
 14 33  1  1  0  0  0
 15 16  1  0  0  0  0
 15 48  1  0  0  0  0
 15 49  1  0  0  0  0
 16 17  1  6  0  0  0
 16 18  1  0  0  0  0
 16 32  1  0  0  0  0
 18 29  1  0  0  0  0
 18 19  1  0  0  0  0
 18 31  1  6  0  0  0
 19 20  1  1  0  0  0
 19 21  1  0  0  0  0
 21 22  1  0  0  0  0
 21 50  1  0  0  0  0
 21 51  1  0  0  0  0
 22 23  1  0  0  0  0
 22 52  1  0  0  0  0
 22 53  1  0  0  0  0
 23 29  1  0  0  0  0
 23 24  2  0  0  0  0
 24 25  1  0  0  0  0
 24 54  1  0  0  0  0
 25 26  2  0  0  0  0
 25 27  1  0  0  0  0
 27 28  2  0  0  0  0
 27 55  1  0  0  0  0
 28 29  1  0  0  0  0
 28 56  1  0  0  0  0
 29 30  1  1  0  0  0
 30 57  1  0  0  0  0
 30 58  1  0  0  0  0
 30 59  1  0  0  0  0
 32 60  1  0  0  0  0
 33 61  1  0  0  0  0
 33 62  1  0  0  0  0
 33 63  1  0  0  0  0
 34 35  1  0  0  0  0
 35 40  1  0  0  0  0
 35 36  1  0  0  0  0
 35 37  1  0  0  0  0
 37 38  1  0  0  0  0
 37 64  1  0  0  0  0
 37 65  1  0  0  0  0
 38 39  1  0  0  0  0
 38 66  1  0  0  0  0
 38 67  1  0  0  0  0
 39 40  1  0  0  0  0
 39 68  1  0  0  0  0
 39 69  1  0  0  0  0
 40 70  1  0  0  0  0
 40 71  1  0  0  0  0
M  END
$$$$
