ZINC14263142
 OpenBabel08292219463D

 47 50  0  0  1  0  0  0  0  0999 V2000
    0.0762    1.1431    2.5143 C   0  0  0  0  0  0  0  0  0  0  0  0
   -0.7197    1.5752    1.2811 C   0  0  2  0  0  0  0  0  0  0  0  0
   -1.7266    1.1603    1.3269 H   0  0  0  0  0  0  0  0  0  0  0  0
   -0.0127    1.0858    0.0080 C   0  0  0  0  0  0  0  0  0  0  0  0
   -0.7393    1.5857   -1.2382 C   0  0  0  0  0  0  0  0  0  0  0  0
   -0.8626    3.1161   -1.2278 C   0  0  1  0  0  0  0  0  0  0  0  0
    0.1276    3.5712   -1.2040 H   0  0  0  0  0  0  0  0  0  0  0  0
   -1.6167    3.5664   -2.4794 C   0  0  2  0  0  0  0  0  0  0  0  0
   -1.3752    4.6071   -2.6955 H   0  0  0  0  0  0  0  0  0  0  0  0
   -3.1207    3.4308   -2.2362 C   0  0  2  0  0  0  0  0  0  0  0  0
   -3.5103    4.3660   -1.8340 H   0  0  0  0  0  0  0  0  0  0  0  0
   -3.3529    2.3759   -1.3030 O   0  0  0  0  0  0  0  0  0  0  0  0
   -2.9547    2.6739    0.0368 C   0  0  1  0  0  0  0  0  0  0  0  0
   -2.7774    1.7440    0.5770 H   0  0  0  0  0  0  0  0  0  0  0  0
   -1.6665    3.5004    0.0232 C   0  0  1  0  0  0  0  0  0  0  0  0
   -0.7897    3.0895    1.2208 C   0  0  1  0  0  0  0  0  0  0  0  0
    0.2149    3.4583    1.0134 H   0  0  0  0  0  0  0  0  0  0  0  0
   -1.2744    3.7649    2.4931 C   0  0  0  0  0  0  0  0  0  0  0  0
   -2.7471    3.3705    2.7256 C   0  0  0  0  0  0  0  0  0  0  0  0
   -3.5886    4.2193    1.7613 C   0  0  2  0  0  0  0  0  0  0  0  0
   -4.0084    3.3976    0.6723 O   0  0  0  0  0  0  0  0  0  0  0  0
   -2.7627    5.2748    1.2491 O   0  0  0  0  0  0  0  0  0  0  0  0
   -1.9647    4.8835    0.0733 O   0  0  0  0  0  0  0  0  0  0  0  0
   -4.8072    4.7899    2.4896 C   0  0  0  0  0  0  0  0  0  0  0  0
   -3.7784    3.1308   -3.4689 O   0  0  0  0  0  0  0  0  0  0  0  0
   -5.2038    3.2051   -3.4003 C   0  0  0  0  0  0  0  0  0  0  0  0
   -1.2095    2.6891   -3.6649 C   0  0  0  0  0  0  0  0  0  0  0  0
    1.0770    1.5728    2.4698 H   0  0  0  0  0  0  0  0  0  0  0  0
   -0.4297    1.4928    3.4142 H   0  0  0  0  0  0  0  0  0  0  0  0
    0.1485    0.0557    2.5374 H   0  0  0  0  0  0  0  0  0  0  0  0
    0.0021   -0.0041    0.0020 H   0  0  0  0  0  0  0  0  0  0  0  0
    1.0115    1.4587    0.0002 H   0  0  0  0  0  0  0  0  0  0  0  0
   -0.1838    1.2775   -2.1240 H   0  0  0  0  0  0  0  0  0  0  0  0
   -1.7367    1.1473   -1.2710 H   0  0  0  0  0  0  0  0  0  0  0  0
   -1.1976    4.8468    2.3855 H   0  0  0  0  0  0  0  0  0  0  0  0
   -0.6690    3.4339    3.3369 H   0  0  0  0  0  0  0  0  0  0  0  0
   -3.0320    3.5837    3.7559 H   0  0  0  0  0  0  0  0  0  0  0  0
   -2.8893    2.3112    2.5113 H   0  0  0  0  0  0  0  0  0  0  0  0
   -5.4172    3.9720    2.8730 H   0  0  0  0  0  0  0  0  0  0  0  0
   -4.4752    5.4152    3.3184 H   0  0  0  0  0  0  0  0  0  0  0  0
   -5.3973    5.3891    1.7961 H   0  0  0  0  0  0  0  0  0  0  0  0
   -5.6276    2.9640   -4.3752 H   0  0  0  0  0  0  0  0  0  0  0  0
   -5.5694    2.4941   -2.6594 H   0  0  0  0  0  0  0  0  0  0  0  0
   -5.5017    4.2137   -3.1140 H   0  0  0  0  0  0  0  0  0  0  0  0
   -1.4540    1.6492   -3.4483 H   0  0  0  0  0  0  0  0  0  0  0  0
   -1.7475    3.0107   -4.5567 H   0  0  0  0  0  0  0  0  0  0  0  0
   -0.1368    2.7824   -3.8343 H   0  0  0  0  0  0  0  0  0  0  0  0
  1  2  1  0  0  0  0
  1 28  1  0  0  0  0
  1 29  1  0  0  0  0
  1 30  1  0  0  0  0
  2  3  1  1  0  0  0
  2 16  1  0  0  0  0
  2  4  1  0  0  0  0
  4  5  1  0  0  0  0
  4 31  1  0  0  0  0
  4 32  1  0  0  0  0
  5  6  1  0  0  0  0
  5 33  1  0  0  0  0
  5 34  1  0  0  0  0
  6  7  1  1  0  0  0
  6 15  1  0  0  0  0
  6  8  1  0  0  0  0
  8  9  1  6  0  0  0
  8 10  1  0  0  0  0
  8 27  1  0  0  0  0
 10 11  1  1  0  0  0
 10 12  1  0  0  0  0
 10 25  1  0  0  0  0
 12 13  1  0  0  0  0
 13 14  1  1  0  0  0
 13 21  1  0  0  0  0
 13 15  1  0  0  0  0
 15 23  1  1  0  0  0
 15 16  1  0  0  0  0
 16 17  1  6  0  0  0
 16 18  1  0  0  0  0
 18 19  1  0  0  0  0
 18 35  1  0  0  0  0
 18 36  1  0  0  0  0
 19 20  1  0  0  0  0
 19 37  1  0  0  0  0
 19 38  1  0  0  0  0
 20 21  1  0  0  0  0
 20 22  1  0  0  0  0
 20 24  1  1  0  0  0
 22 23  1  0  0  0  0
 24 39  1  0  0  0  0
 24 40  1  0  0  0  0
 24 41  1  0  0  0  0
 25 26  1  0  0  0  0
 26 42  1  0  0  0  0
 26 43  1  0  0  0  0
 26 44  1  0  0  0  0
 27 45  1  0  0  0  0
 27 46  1  0  0  0  0
 27 47  1  0  0  0  0
M  END
$$$$
