ZINC00020245
 OpenBabel08292219463D

 46 48  0  0  0  0  0  0  0  0999 V2000
   -5.6836    1.3838    0.0162 C   0  0  0  0  0  0  0  0  0  0  0  0
   -5.6620   -0.0833   -0.0564 N   0  3  0  0  0  0  0  0  0  0  0  0
   -6.3713   -0.5242   -1.2649 C   0  0  0  0  0  0  0  0  0  0  0  0
   -4.2702   -0.5505   -0.1076 C   0  0  0  0  0  0  0  0  0  0  0  0
   -4.2434   -2.0795   -0.0575 C   0  0  0  0  0  0  0  0  0  0  0  0
   -2.7938   -2.5661   -0.1108 C   0  0  0  0  0  0  0  0  0  0  0  0
   -2.7704   -4.0309   -0.1190 N   0  0  0  0  0  0  0  0  0  0  0  0
   -2.7295   -4.7451   -1.3212 C   0  0  0  0  0  0  0  0  0  0  0  0
   -1.6865   -4.4783   -2.2022 C   0  0  0  0  0  0  0  0  0  0  0  0
   -1.5734   -5.1772   -3.3856 C   0  0  0  0  0  0  0  0  0  0  0  0
   -2.5089   -6.1508   -3.6854 C   0  0  0  0  0  0  0  0  0  0  0  0
   -3.5489   -6.4041   -2.8209 C   0  0  0  0  0  0  0  0  0  0  0  0
   -3.6933   -5.6947   -1.6266 C   0  0  0  0  0  0  0  0  0  0  0  0
   -4.9357   -6.0340   -0.8354 C   0  0  0  0  0  0  0  0  0  0  0  0
   -5.1005   -5.1892    0.4158 C   0  0  0  0  0  0  0  0  0  0  0  0
   -3.9592   -5.4030    1.3779 C   0  0  0  0  0  0  0  0  0  0  0  0
   -2.7824   -4.7590    1.0748 C   0  0  0  0  0  0  0  0  0  0  0  0
   -1.6837   -4.8488    1.9126 C   0  0  0  0  0  0  0  0  0  0  0  0
   -1.7825   -5.6251    3.0560 C   0  0  0  0  0  0  0  0  0  0  0  0
   -2.9565   -6.2950    3.3488 C   0  0  0  0  0  0  0  0  0  0  0  0
   -4.0679   -6.1865    2.5030 C   0  0  0  0  0  0  0  0  0  0  0  0
   -6.7163    1.7305    0.0542 H   0  0  0  0  0  0  0  0  0  0  0  0
   -5.1573    1.7109    0.9129 H   0  0  0  0  0  0  0  0  0  0  0  0
   -5.1933    1.7984   -0.8646 H   0  0  0  0  0  0  0  0  0  0  0  0
   -6.3552   -1.6128   -1.3188 H   0  0  0  0  0  0  0  0  0  0  0  0
   -7.4040   -0.1775   -1.2269 H   0  0  0  0  0  0  0  0  0  0  0  0
   -5.8810   -0.1096   -2.1457 H   0  0  0  0  0  0  0  0  0  0  0  0
   -3.8061   -0.2091   -1.0329 H   0  0  0  0  0  0  0  0  0  0  0  0
   -3.7207   -0.1494    0.7440 H   0  0  0  0  0  0  0  0  0  0  0  0
   -4.7075   -2.4209    0.8678 H   0  0  0  0  0  0  0  0  0  0  0  0
   -4.7929   -2.4806   -0.9091 H   0  0  0  0  0  0  0  0  0  0  0  0
   -2.3174   -2.1901   -1.0161 H   0  0  0  0  0  0  0  0  0  0  0  0
   -2.2550   -2.1990    0.7627 H   0  0  0  0  0  0  0  0  0  0  0  0
   -0.9599   -3.7176   -1.9576 H   0  0  0  0  0  0  0  0  0  0  0  0
   -0.7646   -4.9667   -4.0697 H   0  0  0  0  0  0  0  0  0  0  0  0
   -2.4229   -6.7145   -4.6025 H   0  0  0  0  0  0  0  0  0  0  0  0
   -4.2693   -7.1687   -3.0712 H   0  0  0  0  0  0  0  0  0  0  0  0
   -5.8074   -5.8880   -1.4734 H   0  0  0  0  0  0  0  0  0  0  0  0
   -4.8898   -7.0837   -0.5452 H   0  0  0  0  0  0  0  0  0  0  0  0
   -5.1365   -4.1371    0.1334 H   0  0  0  0  0  0  0  0  0  0  0  0
   -6.0358   -5.4578    0.9068 H   0  0  0  0  0  0  0  0  0  0  0  0
   -0.7686   -4.3248    1.6795 H   0  0  0  0  0  0  0  0  0  0  0  0
   -0.9372   -5.7074    3.7231 H   0  0  0  0  0  0  0  0  0  0  0  0
   -3.0178   -6.9071    4.2365 H   0  0  0  0  0  0  0  0  0  0  0  0
   -4.9880   -6.7067    2.7249 H   0  0  0  0  0  0  0  0  0  0  0  0
   -6.1159   -0.4671    0.7589 H   0  0  0  0  0  0  0  0  0  0  0  0
  1  2  1  0  0  0  0
  1 22  1  0  0  0  0
  1 23  1  0  0  0  0
  1 24  1  0  0  0  0
  2  3  1  0  0  0  0
  2  4  1  0  0  0  0
  2 46  1  0  0  0  0
  3 25  1  0  0  0  0
  3 26  1  0  0  0  0
  3 27  1  0  0  0  0
  4  5  1  0  0  0  0
  4 28  1  0  0  0  0
  4 29  1  0  0  0  0
  5  6  1  0  0  0  0
  5 30  1  0  0  0  0
  5 31  1  0  0  0  0
  6  7  1  0  0  0  0
  6 32  1  0  0  0  0
  6 33  1  0  0  0  0
  7 17  1  0  0  0  0
  7  8  1  0  0  0  0
  8 13  2  0  0  0  0
  8  9  1  0  0  0  0
  9 10  2  0  0  0  0
  9 34  1  0  0  0  0
 10 11  1  0  0  0  0
 10 35  1  0  0  0  0
 11 12  2  0  0  0  0
 11 36  1  0  0  0  0
 12 13  1  0  0  0  0
 12 37  1  0  0  0  0
 13 14  1  0  0  0  0
 14 15  1  0  0  0  0
 14 38  1  0  0  0  0
 14 39  1  0  0  0  0
 15 16  1  0  0  0  0
 15 40  1  0  0  0  0
 15 41  1  0  0  0  0
 16 21  2  0  0  0  0
 16 17  1  0  0  0  0
 17 18  2  0  0  0  0
 18 19  1  0  0  0  0
 18 42  1  0  0  0  0
 19 20  2  0  0  0  0
 19 43  1  0  0  0  0
 20 21  1  0  0  0  0
 20 44  1  0  0  0  0
 21 45  1  0  0  0  0
M  CHG  1   2   1
M  END
$$$$
