ZINC00056645
 OpenBabel08292219463D

 39 40  0  0  1  0  0  0  0  0999 V2000
   -0.0187    1.5258    0.0104 C   0  0  0  0  0  0  0  0  0  0  0  0
    0.0021   -0.0041    0.0020 C   0  0  0  0  0  0  0  0  0  0  0  0
    0.7421   -0.5109    1.2415 C   0  0  0  0  0  0  0  0  0  0  0  0
   -1.3761   -0.5125    0.0124 N   0  3  0  0  0  0  0  0  0  0  0  0
   -1.3591   -1.9758   -0.1163 C   0  0  0  0  0  0  0  0  0  0  0  0
   -2.7945   -2.5054   -0.1054 C   0  0  1  0  0  0  0  0  0  0  0  0
   -3.3474   -2.0736   -0.9397 H   0  0  0  0  0  0  0  0  0  0  0  0
   -2.7769   -4.0294   -0.2395 C   0  0  0  0  0  0  0  0  0  0  0  0
   -4.1170   -4.5137   -0.3464 O   0  0  0  0  0  0  0  0  0  0  0  0
   -4.2793   -5.8568   -0.4731 C   0  0  0  0  0  0  0  0  0  0  0  0
   -3.1787   -6.6919   -0.4886 C   0  0  0  0  0  0  0  0  0  0  0  0
   -3.3422   -8.0637   -0.6174 C   0  0  0  0  0  0  0  0  0  0  0  0
   -4.5995   -8.6149   -0.7320 C   0  0  0  0  0  0  0  0  0  0  0  0
   -5.7235   -7.7942   -0.7190 C   0  0  0  0  0  0  0  0  0  0  0  0
   -5.5633   -6.4043   -0.5830 C   0  0  0  0  0  0  0  0  0  0  0  0
   -6.9136   -5.8364   -0.5977 C   0  0  0  0  0  0  0  0  0  0  0  0
   -7.7690   -6.8622   -0.7292 C   0  0  0  0  0  0  0  0  0  0  0  0
   -7.0752   -8.0399   -0.8117 N   0  0  0  0  0  0  0  0  0  0  0  0
   -7.4766   -8.9175   -0.9103 H   0  0  0  0  0  0  0  0  0  0  0  0
   -3.4268   -2.1426    1.1237 O   0  0  0  0  0  0  0  0  0  0  0  0
    1.0039    1.9031    0.0027 H   0  0  0  0  0  0  0  0  0  0  0  0
   -0.5459    1.8868   -0.8726 H   0  0  0  0  0  0  0  0  0  0  0  0
   -0.5289    1.8773    0.9072 H   0  0  0  0  0  0  0  0  0  0  0  0
    0.5123   -0.3556   -0.8948 H   0  0  0  0  0  0  0  0  0  0  0  0
    0.2319   -0.1594    2.1383 H   0  0  0  0  0  0  0  0  0  0  0  0
    0.7568   -1.6008    1.2356 H   0  0  0  0  0  0  0  0  0  0  0  0
    1.7647   -0.1336    1.2338 H   0  0  0  0  0  0  0  0  0  0  0  0
   -1.8225   -0.2564    0.8803 H   0  0  0  0  0  0  0  0  0  0  0  0
   -0.8769   -2.2525   -1.0538 H   0  0  0  0  0  0  0  0  0  0  0  0
   -0.8062   -2.4075    0.7180 H   0  0  0  0  0  0  0  0  0  0  0  0
   -2.2171   -4.3091   -1.1320 H   0  0  0  0  0  0  0  0  0  0  0  0
   -2.3018   -4.4659    0.6390 H   0  0  0  0  0  0  0  0  0  0  0  0
   -2.1864   -6.2749   -0.4005 H   0  0  0  0  0  0  0  0  0  0  0  0
   -2.4743   -8.7063   -0.6282 H   0  0  0  0  0  0  0  0  0  0  0  0
   -4.7130   -9.6842   -0.8324 H   0  0  0  0  0  0  0  0  0  0  0  0
   -7.1717   -4.7908   -0.5174 H   0  0  0  0  0  0  0  0  0  0  0  0
   -8.8443   -6.7714   -0.7728 H   0  0  0  0  0  0  0  0  0  0  0  0
   -2.9873   -2.4932    1.9105 H   0  0  0  0  0  0  0  0  0  0  0  0
   -1.8879   -0.1129   -0.7598 H   0  0  0  0  0  0  0  0  0  0  0  0
  1  2  1  0  0  0  0
  1 21  1  0  0  0  0
  1 22  1  0  0  0  0
  1 23  1  0  0  0  0
  2  3  1  0  0  0  0
  2  4  1  0  0  0  0
  2 24  1  0  0  0  0
  3 25  1  0  0  0  0
  3 26  1  0  0  0  0
  3 27  1  0  0  0  0
  4  5  1  0  0  0  0
  4 28  1  0  0  0  0
  4 39  1  0  0  0  0
  5  6  1  0  0  0  0
  5 29  1  0  0  0  0
  5 30  1  0  0  0  0
  6  7  1  6  0  0  0
  6  8  1  0  0  0  0
  6 20  1  0  0  0  0
  8  9  1  0  0  0  0
  8 31  1  0  0  0  0
  8 32  1  0  0  0  0
  9 10  1  0  0  0  0
 10 15  2  0  0  0  0
 10 11  1  0  0  0  0
 11 12  2  0  0  0  0
 11 33  1  0  0  0  0
 12 13  1  0  0  0  0
 12 34  1  0  0  0  0
 13 14  2  0  0  0  0
 13 35  1  0  0  0  0
 14 18  1  0  0  0  0
 14 15  1  0  0  0  0
 15 16  1  0  0  0  0
 16 17  2  0  0  0  0
 16 36  1  0  0  0  0
 17 18  1  0  0  0  0
 17 37  1  0  0  0  0
 18 19  1  0  0  0  0
 20 38  1  0  0  0  0
M  CHG  1   4   1
M  END
$$$$
