ZINC00057253
 OpenBabel08292219463D

 41 42  0  0  1  0  0  0  0  0999 V2000
    1.4860   -0.8149   -1.7186 C   0  0  0  0  0  0  0  0  0  0  0  0
    0.6586   -2.0215   -1.5866 N   0  3  0  0  0  0  0  0  0  0  0  0
    1.3965   -3.0408   -0.8287 C   0  0  0  0  0  0  0  0  0  0  0  0
   -0.5839   -1.6880   -0.8775 C   0  0  0  0  0  0  0  0  0  0  0  0
   -1.4997   -2.9134   -0.8494 C   0  0  0  0  0  0  0  0  0  0  0  0
   -2.7938   -2.5661   -0.1108 C   0  0  1  0  0  0  0  0  0  0  0  0
   -3.6426   -3.8040    0.0246 C   0  0  0  0  0  0  0  0  0  0  0  0
   -3.1837   -4.8795    0.7617 C   0  0  0  0  0  0  0  0  0  0  0  0
   -3.9623   -6.0150    0.8859 C   0  0  0  0  0  0  0  0  0  0  0  0
   -5.2000   -6.0747    0.2733 C   0  0  0  0  0  0  0  0  0  0  0  0
   -5.6594   -4.9988   -0.4631 C   0  0  0  0  0  0  0  0  0  0  0  0
   -4.8826   -3.8617   -0.5837 C   0  0  0  0  0  0  0  0  0  0  0  0
   -2.4627   -2.0319    1.2589 C   0  0  0  0  0  0  0  0  0  0  0  0
   -1.2081   -2.2444    1.7991 C   0  0  0  0  0  0  0  0  0  0  0  0
   -0.9042   -1.7544    3.0553 C   0  0  0  0  0  0  0  0  0  0  0  0
   -1.8547   -1.0515    3.7723 C   0  0  0  0  0  0  0  0  0  0  0  0
   -3.1092   -0.8385    3.2334 C   0  0  0  0  0  0  0  0  0  0  0  0
   -3.4122   -1.3238    1.9734 C   0  0  0  0  0  0  0  0  0  0  0  0
   -4.9858   -1.0509    1.2930 Cl  0  0  0  0  0  0  0  0  0  0  0  0
   -3.5117   -1.5746   -0.8481 O   0  0  0  0  0  0  0  0  0  0  0  0
    2.4080   -1.0623   -2.2447 H   0  0  0  0  0  0  0  0  0  0  0  0
    0.9385   -0.0585   -2.2809 H   0  0  0  0  0  0  0  0  0  0  0  0
    1.7255   -0.4284   -0.7279 H   0  0  0  0  0  0  0  0  0  0  0  0
    1.6361   -2.6544    0.1620 H   0  0  0  0  0  0  0  0  0  0  0  0
    0.7826   -3.9361   -0.7308 H   0  0  0  0  0  0  0  0  0  0  0  0
    2.3185   -3.2882   -1.3549 H   0  0  0  0  0  0  0  0  0  0  0  0
   -0.3498   -1.3859    0.1433 H   0  0  0  0  0  0  0  0  0  0  0  0
   -1.0876   -0.8698   -1.3922 H   0  0  0  0  0  0  0  0  0  0  0  0
   -1.7338   -3.2156   -1.8701 H   0  0  0  0  0  0  0  0  0  0  0  0
   -0.9960   -3.7317   -0.3347 H   0  0  0  0  0  0  0  0  0  0  0  0
   -2.2166   -4.8329    1.2403 H   0  0  0  0  0  0  0  0  0  0  0  0
   -3.6034   -6.8556    1.4612 H   0  0  0  0  0  0  0  0  0  0  0  0
   -5.8080   -6.9621    0.3697 H   0  0  0  0  0  0  0  0  0  0  0  0
   -6.6263   -5.0455   -0.9420 H   0  0  0  0  0  0  0  0  0  0  0  0
   -5.2431   -3.0196   -1.1560 H   0  0  0  0  0  0  0  0  0  0  0  0
   -0.4653   -2.7936    1.2396 H   0  0  0  0  0  0  0  0  0  0  0  0
    0.0760   -1.9210    3.4770 H   0  0  0  0  0  0  0  0  0  0  0  0
   -1.6168   -0.6692    4.7540 H   0  0  0  0  0  0  0  0  0  0  0  0
   -3.8517   -0.2897    3.7937 H   0  0  0  0  0  0  0  0  0  0  0  0
   -3.7582   -1.8506   -1.7415 H   0  0  0  0  0  0  0  0  0  0  0  0
    0.4369   -2.3792   -2.5037 H   0  0  0  0  0  0  0  0  0  0  0  0
  1  2  1  0  0  0  0
  1 21  1  0  0  0  0
  1 22  1  0  0  0  0
  1 23  1  0  0  0  0
  2  3  1  0  0  0  0
  2  4  1  0  0  0  0
  2 41  1  0  0  0  0
  3 24  1  0  0  0  0
  3 25  1  0  0  0  0
  3 26  1  0  0  0  0
  4  5  1  0  0  0  0
  4 27  1  0  0  0  0
  4 28  1  0  0  0  0
  5  6  1  0  0  0  0
  5 29  1  0  0  0  0
  5 30  1  0  0  0  0
  6  7  1  0  0  0  0
  6 13  1  0  0  0  0
  6 20  1  6  0  0  0
  7 12  2  0  0  0  0
  7  8  1  0  0  0  0
  8  9  2  0  0  0  0
  8 31  1  0  0  0  0
  9 10  1  0  0  0  0
  9 32  1  0  0  0  0
 10 11  2  0  0  0  0
 10 33  1  0  0  0  0
 11 12  1  0  0  0  0
 11 34  1  0  0  0  0
 12 35  1  0  0  0  0
 13 18  2  0  0  0  0
 13 14  1  0  0  0  0
 14 15  2  0  0  0  0
 14 36  1  0  0  0  0
 15 16  1  0  0  0  0
 15 37  1  0  0  0  0
 16 17  2  0  0  0  0
 16 38  1  0  0  0  0
 17 18  1  0  0  0  0
 17 39  1  0  0  0  0
 18 19  1  0  0  0  0
 20 40  1  0  0  0  0
M  CHG  1   2   1
M  END
$$$$
