ZINC00538507
 OpenBabel08292219463D

 44 46  0  0  0  0  0  0  0  0999 V2000
   -5.6316    1.3383    0.7084 C   0  0  0  0  0  0  0  0  0  0  0  0
   -5.6281   -0.1096    0.4606 N   0  3  0  0  0  0  0  0  0  0  0  0
   -6.4322   -0.4041   -0.7330 C   0  0  0  0  0  0  0  0  0  0  0  0
   -4.2484   -0.5664    0.2464 C   0  0  0  0  0  0  0  0  0  0  0  0
   -4.2308   -2.0904    0.1123 C   0  0  0  0  0  0  0  0  0  0  0  0
   -2.7938   -2.5661   -0.1108 C   0  0  0  0  0  0  0  0  0  0  0  0
   -2.7769   -4.0254   -0.2392 N   0  0  0  0  0  0  0  0  0  0  0  0
   -2.9202   -4.5605   -1.5166 C   0  0  0  0  0  0  0  0  0  0  0  0
   -3.5484   -3.7983   -2.4964 C   0  0  0  0  0  0  0  0  0  0  0  0
   -3.7022   -4.2959   -3.7762 C   0  0  0  0  0  0  0  0  0  0  0  0
   -3.2330   -5.5564   -4.0936 C   0  0  0  0  0  0  0  0  0  0  0  0
   -2.6086   -6.3238   -3.1274 C   0  0  0  0  0  0  0  0  0  0  0  0
   -2.4523   -5.8311   -1.8396 C   0  0  0  0  0  0  0  0  0  0  0  0
   -1.6633   -6.8269   -0.6196 S   0  0  0  0  0  0  0  0  0  0  0  0
   -2.1155   -6.0701    0.9053 C   0  0  0  0  0  0  0  0  0  0  0  0
   -2.6132   -4.7717    0.9248 C   0  0  0  0  0  0  0  0  0  0  0  0
   -2.9622   -4.1990    2.1432 C   0  0  0  0  0  0  0  0  0  0  0  0
   -2.8082   -4.9099    3.3186 C   0  0  0  0  0  0  0  0  0  0  0  0
   -2.3054   -6.1964    3.2925 C   0  0  0  0  0  0  0  0  0  0  0  0
   -1.9672   -6.7771    2.0896 C   0  0  0  0  0  0  0  0  0  0  0  0
   -3.1895   -4.2792    4.6330 C   0  0  0  0  0  0  0  0  0  0  0  0
   -4.5313   -4.5593    4.9128 F   0  0  0  0  0  0  0  0  0  0  0  0
   -2.3826   -4.7987    5.6510 F   0  0  0  0  0  0  0  0  0  0  0  0
   -3.0086   -2.8941    4.5556 F   0  0  0  0  0  0  0  0  0  0  0  0
   -6.6553    1.6773    0.8673 H   0  0  0  0  0  0  0  0  0  0  0  0
   -5.0349    1.5568    1.5940 H   0  0  0  0  0  0  0  0  0  0  0  0
   -5.2072    1.8553   -0.1523 H   0  0  0  0  0  0  0  0  0  0  0  0
   -6.4296   -1.4784   -0.9169 H   0  0  0  0  0  0  0  0  0  0  0  0
   -7.4559   -0.0651   -0.5741 H   0  0  0  0  0  0  0  0  0  0  0  0
   -6.0078    0.1129   -1.5937 H   0  0  0  0  0  0  0  0  0  0  0  0
   -3.8542   -0.1169   -0.6650 H   0  0  0  0  0  0  0  0  0  0  0  0
   -3.6315   -0.2691    1.0944 H   0  0  0  0  0  0  0  0  0  0  0  0
   -4.6250   -2.5399    1.0237 H   0  0  0  0  0  0  0  0  0  0  0  0
   -4.8477   -2.3877   -0.7357 H   0  0  0  0  0  0  0  0  0  0  0  0
   -2.3996   -2.1166   -1.0222 H   0  0  0  0  0  0  0  0  0  0  0  0
   -2.1769   -2.2688    0.7372 H   0  0  0  0  0  0  0  0  0  0  0  0
   -3.9181   -2.8127   -2.2552 H   0  0  0  0  0  0  0  0  0  0  0  0
   -4.1911   -3.6978   -4.5310 H   0  0  0  0  0  0  0  0  0  0  0  0
   -3.3541   -5.9420   -5.0952 H   0  0  0  0  0  0  0  0  0  0  0  0
   -2.2419   -7.3088   -3.3756 H   0  0  0  0  0  0  0  0  0  0  0  0
   -3.3561   -3.1938    2.1711 H   0  0  0  0  0  0  0  0  0  0  0  0
   -2.1846   -6.7484    4.2129 H   0  0  0  0  0  0  0  0  0  0  0  0
   -1.5749   -7.7831    2.0709 H   0  0  0  0  0  0  0  0  0  0  0  0
   -6.0209   -0.5882    1.2573 H   0  0  0  0  0  0  0  0  0  0  0  0
  1  2  1  0  0  0  0
  1 25  1  0  0  0  0
  1 26  1  0  0  0  0
  1 27  1  0  0  0  0
  2  3  1  0  0  0  0
  2  4  1  0  0  0  0
  2 44  1  0  0  0  0
  3 28  1  0  0  0  0
  3 29  1  0  0  0  0
  3 30  1  0  0  0  0
  4  5  1  0  0  0  0
  4 31  1  0  0  0  0
  4 32  1  0  0  0  0
  5  6  1  0  0  0  0
  5 33  1  0  0  0  0
  5 34  1  0  0  0  0
  6  7  1  0  0  0  0
  6 35  1  0  0  0  0
  6 36  1  0  0  0  0
  7 16  1  0  0  0  0
  7  8  1  0  0  0  0
  8 13  2  0  0  0  0
  8  9  1  0  0  0  0
  9 10  2  0  0  0  0
  9 37  1  0  0  0  0
 10 11  1  0  0  0  0
 10 38  1  0  0  0  0
 11 12  2  0  0  0  0
 11 39  1  0  0  0  0
 12 13  1  0  0  0  0
 12 40  1  0  0  0  0
 13 14  1  0  0  0  0
 14 15  1  0  0  0  0
 15 20  2  0  0  0  0
 15 16  1  0  0  0  0
 16 17  2  0  0  0  0
 17 18  1  0  0  0  0
 17 41  1  0  0  0  0
 18 19  2  0  0  0  0
 18 21  1  0  0  0  0
 19 20  1  0  0  0  0
 19 42  1  0  0  0  0
 20 43  1  0  0  0  0
 21 22  1  0  0  0  0
 21 23  1  0  0  0  0
 21 24  1  0  0  0  0
M  CHG  1   2   1
M  END
$$$$
