ZINC01853550
 OpenBabel08292219463D

 38 40  0  0  1  0  0  0  0  0999 V2000
   -0.0178    1.4648    0.0101 C   0  0  0  0  0  0  0  0  0  0  0  0
    0.0021   -0.0041    0.0020 N   0  3  0  0  0  0  0  0  0  0  0  0
    0.6897   -0.4778   -1.2066 C   0  0  1  0  0  0  0  0  0  0  0  0
    1.6810   -0.0273   -1.2560 H   0  0  0  0  0  0  0  0  0  0  0  0
    0.8296   -1.9974   -1.1435 C   0  0  0  0  0  0  0  0  0  0  0  0
   -0.5641   -2.6182   -1.2954 C   0  0  0  0  0  0  0  0  0  0  0  0
   -1.0346   -2.3993   -2.7320 C   0  0  2  0  0  0  0  0  0  0  0  0
   -0.4321   -3.0099   -3.4045 H   0  0  0  0  0  0  0  0  0  0  0  0
   -0.8968   -0.9502   -3.1192 C   0  0  0  0  0  0  0  0  0  0  0  0
   -0.1025   -0.0695   -2.4210 C   0  0  0  0  0  0  0  0  0  0  0  0
   -0.0151    1.2530   -2.8354 C   0  0  0  0  0  0  0  0  0  0  0  0
   -0.7202    1.6905   -3.9378 C   0  0  0  0  0  0  0  0  0  0  0  0
   -1.5207    0.8060   -4.6358 C   0  0  0  0  0  0  0  0  0  0  0  0
   -1.6068   -0.5067   -4.2273 C   0  0  0  0  0  0  0  0  0  0  0  0
   -2.4800   -2.8091   -2.8494 C   0  0  0  0  0  0  0  0  0  0  0  0
   -3.4420   -2.1762   -2.0841 C   0  0  0  0  0  0  0  0  0  0  0  0
   -4.7679   -2.5513   -2.1906 C   0  0  0  0  0  0  0  0  0  0  0  0
   -5.1333   -3.5604   -3.0636 C   0  0  0  0  0  0  0  0  0  0  0  0
   -4.1702   -4.1939   -3.8302 C   0  0  0  0  0  0  0  0  0  0  0  0
   -2.8441   -3.8135   -3.7262 C   0  0  0  0  0  0  0  0  0  0  0  0
   -4.6269   -5.4607   -4.9257 Cl  0  0  0  0  0  0  0  0  0  0  0  0
   -6.7985   -4.0325   -3.1973 Cl  0  0  0  0  0  0  0  0  0  0  0  0
    1.0047    1.8421    0.0024 H   0  0  0  0  0  0  0  0  0  0  0  0
   -0.5450    1.8259   -0.8730 H   0  0  0  0  0  0  0  0  0  0  0  0
   -0.5280    1.8163    0.9069 H   0  0  0  0  0  0  0  0  0  0  0  0
    0.4901   -0.3383    0.8195 H   0  0  0  0  0  0  0  0  0  0  0  0
    1.4745   -2.3406   -1.9524 H   0  0  0  0  0  0  0  0  0  0  0  0
    1.2578   -2.2871   -0.1839 H   0  0  0  0  0  0  0  0  0  0  0  0
   -0.5154   -3.6863   -1.0837 H   0  0  0  0  0  0  0  0  0  0  0  0
   -1.2573   -2.1378   -0.6049 H   0  0  0  0  0  0  0  0  0  0  0  0
    0.6097    1.9449   -2.2902 H   0  0  0  0  0  0  0  0  0  0  0  0
   -0.6466    2.7205   -4.2543 H   0  0  0  0  0  0  0  0  0  0  0  0
   -2.0769    1.1431   -5.4980 H   0  0  0  0  0  0  0  0  0  0  0  0
   -2.2325   -1.1968   -4.7738 H   0  0  0  0  0  0  0  0  0  0  0  0
   -3.1571   -1.3884   -1.4025 H   0  0  0  0  0  0  0  0  0  0  0  0
   -5.5187   -2.0570   -1.5920 H   0  0  0  0  0  0  0  0  0  0  0  0
   -2.0927   -4.3045   -4.3269 H   0  0  0  0  0  0  0  0  0  0  0  0
   -0.9445   -0.3533    0.0092 H   0  0  0  0  0  0  0  0  0  0  0  0
  1  2  1  0  0  0  0
  1 23  1  0  0  0  0
  1 24  1  0  0  0  0
  1 25  1  0  0  0  0
  2  3  1  0  0  0  0
  2 26  1  0  0  0  0
  2 38  1  0  0  0  0
  3  4  1  6  0  0  0
  3 10  1  0  0  0  0
  3  5  1  0  0  0  0
  5  6  1  0  0  0  0
  5 27  1  0  0  0  0
  5 28  1  0  0  0  0
  6  7  1  0  0  0  0
  6 29  1  0  0  0  0
  6 30  1  0  0  0  0
  7  8  1  6  0  0  0
  7  9  1  0  0  0  0
  7 15  1  0  0  0  0
  9 14  2  0  0  0  0
  9 10  1  0  0  0  0
 10 11  2  0  0  0  0
 11 12  1  0  0  0  0
 11 31  1  0  0  0  0
 12 13  2  0  0  0  0
 12 32  1  0  0  0  0
 13 14  1  0  0  0  0
 13 33  1  0  0  0  0
 14 34  1  0  0  0  0
 15 20  2  0  0  0  0
 15 16  1  0  0  0  0
 16 17  2  0  0  0  0
 16 35  1  0  0  0  0
 17 18  1  0  0  0  0
 17 36  1  0  0  0  0
 18 19  2  0  0  0  0
 18 22  1  0  0  0  0
 19 20  1  0  0  0  0
 19 21  1  0  0  0  0
 20 37  1  0  0  0  0
M  CHG  1   2   1
M  END
$$$$
