ZINC21985879
 OpenBabel08292219463D

 47 49  0  0  1  0  0  0  0  0999 V2000
   -1.2190    1.7506    0.0173 C   0  0  0  0  0  0  0  0  0  0  0  0
   -0.0126    1.0758    0.0080 C   0  0  0  0  0  0  0  0  0  0  0  0
    1.1750    1.7832    0.0004 C   0  0  0  0  0  0  0  0  0  0  0  0
    1.1563    3.1654    0.0076 C   0  0  0  0  0  0  0  0  0  0  0  0
   -0.0501    3.8402    0.0228 C   0  0  0  0  0  0  0  0  0  0  0  0
   -1.2377    3.1328    0.0299 C   0  0  0  0  0  0  0  0  0  0  0  0
    2.4510    3.9366   -0.0006 C   0  0  0  0  0  0  0  0  0  0  0  0
    2.8756    4.2049   -1.4458 C   0  0  2  0  0  0  0  0  0  0  0  0
    2.9175    3.2586   -2.0051 H   0  0  0  0  0  0  0  0  0  0  0  0
    4.2499    4.8772   -1.4571 C   0  0  0  0  0  0  0  0  0  0  0  0
    4.7227    5.0301   -2.8799 C   0  0  0  0  0  0  0  0  0  0  0  0
    4.0287    4.6398   -3.7947 O   0  0  0  0  0  0  0  0  0  0  0  0
    5.9166    5.6006   -3.1356 N   0  0  0  0  0  0  0  0  0  0  0  0
    6.4921    5.8087   -4.4716 C   0  0  0  0  0  0  0  0  0  0  0  0
    7.8493    6.5283   -4.2808 C   0  0  1  0  0  0  0  0  0  0  0  0
    8.6541    6.2269   -4.9674 H   0  0  0  0  0  0  0  0  0  0  0  0
    7.6071    8.0240   -4.4861 C   0  0  0  0  0  0  0  0  0  0  0  0
    8.8258    8.8133   -4.0086 C   0  0  0  0  0  0  0  0  0  0  0  0
    8.9669    8.6247   -2.5002 C   0  0  0  0  0  0  0  0  0  0  0  0
    9.1544    7.1614   -2.1558 C   0  0  0  0  0  0  0  0  0  0  0  0
    8.2111    6.2157   -2.8290 C   0  0  1  0  0  0  0  0  0  0  0  0
    8.8236    5.3037   -2.7736 H   0  0  0  0  0  0  0  0  0  0  0  0
    6.8487    6.1201   -2.1210 C   0  0  0  0  0  0  0  0  0  0  0  0
    1.8679    5.1106   -2.1056 C   0  0  0  0  0  0  0  0  0  0  0  0
    0.9085    5.5014   -1.4837 O   0  0  0  0  0  0  0  0  0  0  0  0
    2.0361    5.4832   -3.3841 O   0  0  0  0  0  1  0  0  0  0  0  0
   -2.1469    1.1980    0.0188 H   0  0  0  0  0  0  0  0  0  0  0  0
    0.0021   -0.0041    0.0020 H   0  0  0  0  0  0  0  0  0  0  0  0
    2.1175    1.2560   -0.0115 H   0  0  0  0  0  0  0  0  0  0  0  0
   -0.0647    4.9201    0.0288 H   0  0  0  0  0  0  0  0  0  0  0  0
   -2.1802    3.6600    0.0414 H   0  0  0  0  0  0  0  0  0  0  0  0
    2.3113    4.8932    0.5242 H   0  0  0  0  0  0  0  0  0  0  0  0
    3.2304    3.3500    0.5077 H   0  0  0  0  0  0  0  0  0  0  0  0
    4.1769    5.8687   -0.9864 H   0  0  0  0  0  0  0  0  0  0  0  0
    4.9659    4.2575   -0.8974 H   0  0  0  0  0  0  0  0  0  0  0  0
    6.6367    4.8358   -4.9641 H   0  0  0  0  0  0  0  0  0  0  0  0
    5.8088    6.4262   -5.0731 H   0  0  0  0  0  0  0  0  0  0  0  0
    7.4382    8.2248   -5.5543 H   0  0  0  0  0  0  0  0  0  0  0  0
    6.7228    8.3347   -3.9103 H   0  0  0  0  0  0  0  0  0  0  0  0
    9.7265    8.4411   -4.5187 H   0  0  0  0  0  0  0  0  0  0  0  0
    8.6866    9.8793   -4.2416 H   0  0  0  0  0  0  0  0  0  0  0  0
    9.8404    9.1882   -2.1404 H   0  0  0  0  0  0  0  0  0  0  0  0
    8.0603    8.9936   -1.9981 H   0  0  0  0  0  0  0  0  0  0  0  0
   10.1682    6.8444   -2.4417 H   0  0  0  0  0  0  0  0  0  0  0  0
    9.0171    7.0189   -1.0737 H   0  0  0  0  0  0  0  0  0  0  0  0
    6.5037    7.1063   -1.7769 H   0  0  0  0  0  0  0  0  0  0  0  0
    6.8860    5.4266   -1.2680 H   0  0  0  0  0  0  0  0  0  0  0  0
  1  6  2  0  0  0  0
  1  2  1  0  0  0  0
  1 27  1  0  0  0  0
  2  3  2  0  0  0  0
  2 28  1  0  0  0  0
  3  4  1  0  0  0  0
  3 29  1  0  0  0  0
  4  5  2  0  0  0  0
  4  7  1  0  0  0  0
  5  6  1  0  0  0  0
  5 30  1  0  0  0  0
  6 31  1  0  0  0  0
  7  8  1  0  0  0  0
  7 32  1  0  0  0  0
  7 33  1  0  0  0  0
  8  9  1  6  0  0  0
  8 10  1  0  0  0  0
  8 24  1  0  0  0  0
 10 11  1  0  0  0  0
 10 34  1  0  0  0  0
 10 35  1  0  0  0  0
 11 12  2  0  0  0  0
 11 13  1  0  0  0  0
 13 23  1  0  0  0  0
 13 14  1  0  0  0  0
 14 15  1  0  0  0  0
 14 36  1  0  0  0  0
 14 37  1  0  0  0  0
 15 16  1  6  0  0  0
 15 21  1  0  0  0  0
 15 17  1  0  0  0  0
 17 18  1  0  0  0  0
 17 38  1  0  0  0  0
 17 39  1  0  0  0  0
 18 19  1  0  0  0  0
 18 40  1  0  0  0  0
 18 41  1  0  0  0  0
 19 20  1  0  0  0  0
 19 42  1  0  0  0  0
 19 43  1  0  0  0  0
 20 21  1  0  0  0  0
 20 44  1  0  0  0  0
 20 45  1  0  0  0  0
 21 22  1  1  0  0  0
 21 23  1  0  0  0  0
 23 46  1  0  0  0  0
 23 47  1  0  0  0  0
 24 25  2  0  0  0  0
 24 26  1  0  0  0  0
M  END
$$$$
