ZINC96006010
 OpenBabel08292219463D

 20 19  0  0  0  0  0  0  0  0999 V2000
   -0.0180    1.4597   -0.0129 C   0  0  0  0  0  0  0  0  0  0  0  0
    0.0015   -0.0052   -0.0142 N   0  0  0  0  0  0  0  0  0  0  0  0
    1.2798   -0.7207   -0.0170 C   0  0  0  0  0  0  0  0  0  0  0  0
   -1.1797   -0.7083   -0.0128 C   0  0  0  0  0  0  0  0  0  0  0  0
   -2.3163   -0.0721   -0.0103 N   0  0  0  0  0  0  0  0  0  0  0  0
   -1.1614   -2.0876   -0.0140 N   0  0  0  0  0  0  0  0  0  0  0  0
   -2.3397   -2.7931    0.1135 C   0  0  0  0  0  0  0  0  0  0  0  0
   -2.3135   -4.0911    0.2194 N   0  0  0  0  0  0  0  0  0  0  0  0
   -3.5418   -2.1265    0.1289 N   0  0  0  0  0  0  0  0  0  0  0  0
    1.0047    1.8367   -0.0143 H   0  0  0  0  0  0  0  0  0  0  0  0
   -0.5382    1.8169   -0.9017 H   0  0  0  0  0  0  0  0  0  0  0  0
   -0.5352    1.8154    0.8783 H   0  0  0  0  0  0  0  0  0  0  0  0
    1.5987   -0.8991    1.0100 H   0  0  0  0  0  0  0  0  0  0  0  0
    1.1613   -1.6743   -0.5315 H   0  0  0  0  0  0  0  0  0  0  0  0
    2.0307   -0.1211   -0.5316 H   0  0  0  0  0  0  0  0  0  0  0  0
   -2.3292    0.8978   -0.0094 H   0  0  0  0  0  0  0  0  0  0  0  0
   -0.3198   -2.5613   -0.1046 H   0  0  0  0  0  0  0  0  0  0  0  0
   -3.5585   -1.1566    0.1344 H   0  0  0  0  0  0  0  0  0  0  0  0
   -4.3733   -2.6259    0.1342 H   0  0  0  0  0  0  0  0  0  0  0  0
   -1.4642   -4.5555    0.2817 H   0  0  0  0  0  0  0  0  0  0  0  0
  1  2  1  0  0  0  0
  1 10  1  0  0  0  0
  1 11  1  0  0  0  0
  1 12  1  0  0  0  0
  2  3  1  0  0  0  0
  2  4  1  0  0  0  0
  3 13  1  0  0  0  0
  3 14  1  0  0  0  0
  3 15  1  0  0  0  0
  4  5  2  0  0  0  0
  4  6  1  0  0  0  0
  5 16  1  0  0  0  0
  6  7  1  0  0  0  0
  6 17  1  0  0  0  0
  7  8  2  0  0  0  0
  7  9  1  0  0  0  0
  8 20  1  0  0  0  0
  9 18  1  0  0  0  0
  9 19  1  0  0  0  0
M  END
$$$$
