ZINC04474460
 OpenBabel08292219463D

 72 74  0  0  1  0  0  0  0  0999 V2000
   -0.2768    0.9131   -0.1144 C   0  0  0  0  0  0  0  0  0  0  0  0
    0.0766   -0.5716   -0.0062 C   0  0  2  0  0  0  0  0  0  0  0  0
    0.6700   -0.8678   -0.8712 H   0  0  0  0  0  0  0  0  0  0  0  0
   -1.2090   -1.4000    0.0381 C   0  0  0  0  0  0  0  0  0  0  0  0
   -1.9539   -1.2570   -1.2906 C   0  0  0  0  0  0  0  0  0  0  0  0
   -3.2395   -2.0854   -1.2462 C   0  0  0  0  0  0  0  0  0  0  0  0
   -3.9845   -1.9424   -2.5749 C   0  0  0  0  0  0  0  0  0  0  0  0
   -5.2038   -2.8667   -2.5780 C   0  0  0  0  0  0  0  0  0  0  0  0
   -4.4427   -0.4931   -2.7494 C   0  0  0  0  0  0  0  0  0  0  0  0
    0.8827   -0.8122    1.2718 C   0  0  1  0  0  0  0  0  0  0  0  0
    0.2964   -0.5317    2.1468 H   0  0  0  0  0  0  0  0  0  0  0  0
    1.3128   -2.2995    1.3655 C   0  0  0  0  0  0  0  0  0  0  0  0
    2.8636   -2.2994    1.4782 C   0  0  0  0  0  0  0  0  0  0  0  0
    3.1605   -0.9132    2.0549 C   0  0  2  0  0  0  0  0  0  0  0  0
    2.9173   -0.8768    3.1168 H   0  0  0  0  0  0  0  0  0  0  0  0
    2.1829   -0.0244    1.2324 C   0  0  2  0  0  0  0  0  0  0  0  0
    2.2015    1.3600    1.8373 C   0  0  0  0  0  0  0  0  0  0  0  0
    3.5883    1.9665    1.5650 C   0  0  0  0  0  0  0  0  0  0  0  0
    4.7064    1.1167    2.1657 C   0  0  0  0  0  0  0  0  0  0  0  0
    4.5320   -0.3598    1.8060 C   0  0  0  0  0  0  0  0  0  0  0  0
    5.5192   -1.0988    1.3001 C   0  0  0  0  0  0  0  0  0  0  0  0
    6.8394   -0.5043    1.0783 C   0  0  0  0  0  0  0  0  0  0  0  0
    7.8385   -1.2523    0.5663 C   0  0  0  0  0  0  0  0  0  0  0  0
    9.2201   -0.6764    0.3277 C   0  0  0  0  0  0  0  0  0  0  0  0
    9.6812   -1.0925   -1.0728 C   0  0  2  0  0  0  0  0  0  0  0  0
    9.0062   -0.6699   -1.8170 H   0  0  0  0  0  0  0  0  0  0  0  0
    9.6752   -2.6173   -1.1885 C   0  0  0  0  0  0  0  0  0  0  0  0
    8.2372   -3.1388   -1.1015 C   0  0  0  0  0  0  0  0  0  0  0  0
    7.6406   -2.6744    0.2166 C   0  0  0  0  0  0  0  0  0  0  0  0
    6.9710   -3.5040    1.0166 C   0  0  0  0  0  0  0  0  0  0  0  0
   11.0050   -0.6053   -1.3013 O   0  0  0  0  0  0  0  0  0  0  0  0
    2.6778    0.0616   -0.2128 C   0  0  0  0  0  0  0  0  0  0  0  0
    0.6390    1.5032   -0.1460 H   0  0  0  0  0  0  0  0  0  0  0  0
   -0.8511    1.0844   -1.0249 H   0  0  0  0  0  0  0  0  0  0  0  0
   -0.8703    1.2093    0.7506 H   0  0  0  0  0  0  0  0  0  0  0  0
   -0.9603   -2.4481    0.2043 H   0  0  0  0  0  0  0  0  0  0  0  0
   -1.8429   -1.0438    0.8502 H   0  0  0  0  0  0  0  0  0  0  0  0
   -2.2027   -0.2089   -1.4567 H   0  0  0  0  0  0  0  0  0  0  0  0
   -1.3201   -1.6132   -2.1026 H   0  0  0  0  0  0  0  0  0  0  0  0
   -2.9908   -3.1336   -1.0800 H   0  0  0  0  0  0  0  0  0  0  0  0
   -3.8734   -1.7292   -0.4341 H   0  0  0  0  0  0  0  0  0  0  0  0
   -3.3201   -2.2147   -3.3951 H   0  0  0  0  0  0  0  0  0  0  0  0
   -5.8681   -2.5944   -1.7579 H   0  0  0  0  0  0  0  0  0  0  0  0
   -5.7345   -2.7648   -3.5246 H   0  0  0  0  0  0  0  0  0  0  0  0
   -4.8774   -3.8992   -2.4537 H   0  0  0  0  0  0  0  0  0  0  0  0
   -3.5740    0.1653   -2.7472 H   0  0  0  0  0  0  0  0  0  0  0  0
   -4.9734   -0.3913   -3.6960 H   0  0  0  0  0  0  0  0  0  0  0  0
   -5.1070   -0.2209   -1.9292 H   0  0  0  0  0  0  0  0  0  0  0  0
    0.8733   -2.7613    2.2496 H   0  0  0  0  0  0  0  0  0  0  0  0
    1.0027   -2.8361    0.4689 H   0  0  0  0  0  0  0  0  0  0  0  0
    3.2015   -3.0812    2.1585 H   0  0  0  0  0  0  0  0  0  0  0  0
    3.3223   -2.4155    0.4963 H   0  0  0  0  0  0  0  0  0  0  0  0
    1.4308    1.9763    1.3745 H   0  0  0  0  0  0  0  0  0  0  0  0
    2.0299    1.2965    2.9118 H   0  0  0  0  0  0  0  0  0  0  0  0
    3.7382    2.0409    0.4879 H   0  0  0  0  0  0  0  0  0  0  0  0
    3.6301    2.9660    1.9980 H   0  0  0  0  0  0  0  0  0  0  0  0
    5.6665    1.4673    1.7871 H   0  0  0  0  0  0  0  0  0  0  0  0
    4.6906    1.2178    3.2509 H   0  0  0  0  0  0  0  0  0  0  0  0
    5.3457   -2.1359    1.0538 H   0  0  0  0  0  0  0  0  0  0  0  0
    7.0129    0.5328    1.3246 H   0  0  0  0  0  0  0  0  0  0  0  0
    9.1810    0.4109    0.3935 H   0  0  0  0  0  0  0  0  0  0  0  0
    9.9137   -1.0651    1.0733 H   0  0  0  0  0  0  0  0  0  0  0  0
   10.1094   -2.9098   -2.1445 H   0  0  0  0  0  0  0  0  0  0  0  0
   10.2652   -3.0445   -0.3778 H   0  0  0  0  0  0  0  0  0  0  0  0
    7.6525   -2.7440   -1.9324 H   0  0  0  0  0  0  0  0  0  0  0  0
    8.2389   -4.2281   -1.1380 H   0  0  0  0  0  0  0  0  0  0  0  0
    6.5576   -3.1415    1.9462 H   0  0  0  0  0  0  0  0  0  0  0  0
    6.8418   -4.5387    0.7353 H   0  0  0  0  0  0  0  0  0  0  0  0
   11.0846    0.3569   -1.2483 H   0  0  0  0  0  0  0  0  0  0  0  0
    2.0012    0.6902   -0.7918 H   0  0  0  0  0  0  0  0  0  0  0  0
    3.6784    0.4936   -0.2292 H   0  0  0  0  0  0  0  0  0  0  0  0
    2.7064   -0.9377   -0.6472 H   0  0  0  0  0  0  0  0  0  0  0  0
  1  2  1  0  0  0  0
  1 33  1  0  0  0  0
  1 34  1  0  0  0  0
  1 35  1  0  0  0  0
  2  3  1  6  0  0  0
  2  4  1  0  0  0  0
  2 10  1  0  0  0  0
  4  5  1  0  0  0  0
  4 36  1  0  0  0  0
  4 37  1  0  0  0  0
  5  6  1  0  0  0  0
  5 38  1  0  0  0  0
  5 39  1  0  0  0  0
  6  7  1  0  0  0  0
  6 40  1  0  0  0  0
  6 41  1  0  0  0  0
  7  8  1  0  0  0  0
  7  9  1  0  0  0  0
  7 42  1  0  0  0  0
  8 43  1  0  0  0  0
  8 44  1  0  0  0  0
  8 45  1  0  0  0  0
  9 46  1  0  0  0  0
  9 47  1  0  0  0  0
  9 48  1  0  0  0  0
 10 11  1  1  0  0  0
 10 16  1  0  0  0  0
 10 12  1  0  0  0  0
 12 13  1  0  0  0  0
 12 49  1  0  0  0  0
 12 50  1  0  0  0  0
 13 14  1  0  0  0  0
 13 51  1  0  0  0  0
 13 52  1  0  0  0  0
 14 15  1  1  0  0  0
 14 20  1  0  0  0  0
 14 16  1  0  0  0  0
 16 17  1  0  0  0  0
 16 32  1  6  0  0  0
 17 18  1  0  0  0  0
 17 53  1  0  0  0  0
 17 54  1  0  0  0  0
 18 19  1  0  0  0  0
 18 55  1  0  0  0  0
 18 56  1  0  0  0  0
 19 20  1  0  0  0  0
 19 57  1  0  0  0  0
 19 58  1  0  0  0  0
 20 21  2  0  0  0  0
 21 22  1  0  0  0  0
 21 59  1  0  0  0  0
 22 23  2  0  0  0  0
 22 60  1  0  0  0  0
 23 29  1  0  0  0  0
 23 24  1  0  0  0  0
 24 25  1  0  0  0  0
 24 61  1  0  0  0  0
 24 62  1  0  0  0  0
 25 26  1  6  0  0  0
 25 27  1  0  0  0  0
 25 31  1  0  0  0  0
 27 28  1  0  0  0  0
 27 63  1  0  0  0  0
 27 64  1  0  0  0  0
 28 29  1  0  0  0  0
 28 65  1  0  0  0  0
 28 66  1  0  0  0  0
 29 30  2  0  0  0  0
 30 67  1  0  0  0  0
 30 68  1  0  0  0  0
 31 69  1  0  0  0  0
 32 70  1  0  0  0  0
 32 71  1  0  0  0  0
 32 72  1  0  0  0  0
M  END
$$$$
