ZINC00537804
 OpenBabel08292219463D

 57 59  0  0  0  0  0  0  0  0999 V2000
   -0.0184    1.5028    0.0103 C   0  0  0  0  0  0  0  0  0  0  0  0
    0.0021   -0.0041    0.0020 C   0  0  0  0  0  0  0  0  0  0  0  0
   -1.0772   -0.8073    0.0026 C   0  0  0  0  0  0  0  0  0  0  0  0
   -0.6253   -2.1486   -0.0076 C   0  0  0  0  0  0  0  0  0  0  0  0
    0.6855   -2.1296   -0.0140 N   0  0  0  0  0  0  0  0  0  0  0  0
    1.0995   -0.7754   -0.0131 O   0  0  0  0  0  0  0  0  0  0  0  0
   -1.4820   -3.3596   -0.0101 C   0  0  0  0  0  0  0  0  0  0  0  0
   -2.6918   -3.2479   -0.0031 O   0  0  0  0  0  0  0  0  0  0  0  0
   -0.9183   -4.5838   -0.0203 N   0  0  0  0  0  0  0  0  0  0  0  0
   -1.7644   -5.7798   -0.0228 C   0  0  0  0  0  0  0  0  0  0  0  0
   -0.8813   -7.0291   -0.0347 C   0  0  0  0  0  0  0  0  0  0  0  0
   -1.7516   -8.2594   -0.0373 C   0  0  0  0  0  0  0  0  0  0  0  0
   -2.1491   -8.8274    1.1587 C   0  0  0  0  0  0  0  0  0  0  0  0
   -2.9474   -9.9559    1.1563 C   0  0  0  0  0  0  0  0  0  0  0  0
   -3.3486  -10.5162   -0.0420 C   0  0  0  0  0  0  0  0  0  0  0  0
   -2.9519   -9.9477   -1.2380 C   0  0  0  0  0  0  0  0  0  0  0  0
   -2.1571   -8.8167   -1.2356 C   0  0  0  0  0  0  0  0  0  0  0  0
   -4.3653  -11.9553   -0.0450 S   0  0  0  0  0  0  0  0  0  0  0  0
   -4.1522  -12.6005   -1.2930 O   0  0  0  0  0  0  0  0  0  0  0  0
   -4.1471  -12.6092    1.1976 O   0  0  0  0  0  0  0  0  0  0  0  0
   -5.9398  -11.4425   -0.0399 N   0  0  0  0  0  0  0  0  0  0  0  0
   -6.9073  -12.3124   -0.0410 C   0  0  0  0  0  0  0  0  0  0  0  0
   -6.6273  -13.6340   -0.0463 O   0  5  0  0  0  0  0  0  0  0  0  0
   -8.2131  -11.8871   -0.0369 N   0  0  0  0  0  0  0  0  0  0  0  0
   -8.4962  -10.5507   -0.0316 N   0  0  0  0  0  0  0  0  0  0  0  0
   -9.0887  -10.1405    1.2569 C   0  0  0  0  0  0  0  0  0  0  0  0
   -8.7124   -8.7017    1.5072 C   0  0  0  0  0  0  0  0  0  0  0  0
   -9.8128   -7.7371    1.0329 C   0  0  0  0  0  0  0  0  0  0  0  0
  -10.4199   -8.1733   -0.3155 C   0  0  0  0  0  0  0  0  0  0  0  0
   -9.3777   -8.6593   -1.2904 C   0  0  0  0  0  0  0  0  0  0  0  0
   -9.2406  -10.1919   -1.1589 C   0  0  0  0  0  0  0  0  0  0  0  0
    1.0042    1.8801    0.0026 H   0  0  0  0  0  0  0  0  0  0  0  0
   -0.5455    1.8639   -0.8728 H   0  0  0  0  0  0  0  0  0  0  0  0
   -0.5286    1.8543    0.9071 H   0  0  0  0  0  0  0  0  0  0  0  0
   -2.1080   -0.4851    0.0096 H   0  0  0  0  0  0  0  0  0  0  0  0
    0.0476   -4.6729   -0.0259 H   0  0  0  0  0  0  0  0  0  0  0  0
   -2.3889   -5.7848    0.8705 H   0  0  0  0  0  0  0  0  0  0  0  0
   -2.3984   -5.7745   -0.9094 H   0  0  0  0  0  0  0  0  0  0  0  0
   -0.2567   -7.0241   -0.9280 H   0  0  0  0  0  0  0  0  0  0  0  0
   -0.2473   -7.0344    0.8519 H   0  0  0  0  0  0  0  0  0  0  0  0
   -1.8356   -8.3896    2.0949 H   0  0  0  0  0  0  0  0  0  0  0  0
   -3.2573  -10.4000    2.0907 H   0  0  0  0  0  0  0  0  0  0  0  0
   -3.2651  -10.3857   -2.1742 H   0  0  0  0  0  0  0  0  0  0  0  0
   -1.8502   -8.3704   -2.1699 H   0  0  0  0  0  0  0  0  0  0  0  0
   -8.9344  -12.5356   -0.0377 H   0  0  0  0  0  0  0  0  0  0  0  0
  -10.1737  -10.2346    1.2099 H   0  0  0  0  0  0  0  0  0  0  0  0
   -8.6984  -10.7680    2.0581 H   0  0  0  0  0  0  0  0  0  0  0  0
   -8.5490   -8.5573    2.5752 H   0  0  0  0  0  0  0  0  0  0  0  0
   -7.7887   -8.4776    0.9738 H   0  0  0  0  0  0  0  0  0  0  0  0
  -10.6027   -7.7039    1.7832 H   0  0  0  0  0  0  0  0  0  0  0  0
   -9.3871   -6.7396    0.9240 H   0  0  0  0  0  0  0  0  0  0  0  0
  -11.1360   -8.9753   -0.1365 H   0  0  0  0  0  0  0  0  0  0  0  0
  -10.9459   -7.3260   -0.7555 H   0  0  0  0  0  0  0  0  0  0  0  0
   -9.6823   -8.4063   -2.3059 H   0  0  0  0  0  0  0  0  0  0  0  0
   -8.4211   -8.1871   -1.0669 H   0  0  0  0  0  0  0  0  0  0  0  0
   -8.7475  -10.5822   -2.0492 H   0  0  0  0  0  0  0  0  0  0  0  0
  -10.2348  -10.6324   -1.0831 H   0  0  0  0  0  0  0  0  0  0  0  0
  1  2  1  0  0  0  0
  1 32  1  0  0  0  0
  1 33  1  0  0  0  0
  1 34  1  0  0  0  0
  2  6  1  0  0  0  0
  2  3  2  0  0  0  0
  3  4  1  0  0  0  0
  3 35  1  0  0  0  0
  4  5  2  0  0  0  0
  4  7  1  0  0  0  0
  5  6  1  0  0  0  0
  7  8  2  0  0  0  0
  7  9  1  0  0  0  0
  9 10  1  0  0  0  0
  9 36  1  0  0  0  0
 10 11  1  0  0  0  0
 10 37  1  0  0  0  0
 10 38  1  0  0  0  0
 11 12  1  0  0  0  0
 11 39  1  0  0  0  0
 11 40  1  0  0  0  0
 12 17  2  0  0  0  0
 12 13  1  0  0  0  0
 13 14  2  0  0  0  0
 13 41  1  0  0  0  0
 14 15  1  0  0  0  0
 14 42  1  0  0  0  0
 15 16  2  0  0  0  0
 15 18  1  0  0  0  0
 16 17  1  0  0  0  0
 16 43  1  0  0  0  0
 17 44  1  0  0  0  0
 18 19  2  0  0  0  0
 18 20  2  0  0  0  0
 18 21  1  0  0  0  0
 21 22  2  0  0  0  0
 22 23  1  0  0  0  0
 22 24  1  0  0  0  0
 24 25  1  0  0  0  0
 24 45  1  0  0  0  0
 25 31  1  0  0  0  0
 25 26  1  0  0  0  0
 26 27  1  0  0  0  0
 26 46  1  0  0  0  0
 26 47  1  0  0  0  0
 27 28  1  0  0  0  0
 27 48  1  0  0  0  0
 27 49  1  0  0  0  0
 28 29  1  0  0  0  0
 28 50  1  0  0  0  0
 28 51  1  0  0  0  0
 29 30  1  0  0  0  0
 29 52  1  0  0  0  0
 29 53  1  0  0  0  0
 30 31  1  0  0  0  0
 30 54  1  0  0  0  0
 30 55  1  0  0  0  0
 31 56  1  0  0  0  0
 31 57  1  0  0  0  0
M  CHG  1  23  -1
M  END
$$$$
