ZINC12503303
 OpenBabel08292219463D

 45 47  0  0  1  0  0  0  0  0999 V2000
   -0.0173    1.4248    0.0099 C   0  0  0  0  0  0  0  0  0  0  0  0
    0.0021   -0.0041    0.0020 O   0  0  0  0  0  0  0  0  0  0  0  0
    0.6250   -0.6175    1.0401 C   0  0  0  0  0  0  0  0  0  0  0  0
    1.1972    0.1377    2.0426 C   0  0  0  0  0  0  0  0  0  0  0  0
    1.8354   -0.4894    3.1072 C   0  0  0  0  0  0  0  0  0  0  0  0
    1.9012   -1.8948    3.1681 C   0  0  0  0  0  0  0  0  0  0  0  0
    1.3211   -2.6568    2.1519 C   0  0  0  0  0  0  0  0  0  0  0  0
    0.6805   -2.0228    1.0941 C   0  0  0  0  0  0  0  0  0  0  0  0
    0.0619   -2.8247    0.0221 C   0  0  0  0  0  0  0  0  0  0  0  0
   -0.4950   -2.2717   -0.9067 O   0  0  0  0  0  0  0  0  0  0  0  0
    0.1139   -4.1706    0.0718 N   0  0  0  0  0  0  0  0  0  0  0  0
   -0.5006   -4.9672   -0.9931 C   0  0  0  0  0  0  0  0  0  0  0  0
   -0.3010   -6.4549   -0.6970 C   0  0  1  0  0  0  0  0  0  0  0  0
   -0.8502   -6.7306    0.2033 H   0  0  0  0  0  0  0  0  0  0  0  0
   -0.7935   -7.2987   -1.8915 C   0  0  0  0  0  0  0  0  0  0  0  0
    0.5118   -7.5840   -2.6798 C   0  0  0  0  0  0  0  0  0  0  0  0
    1.5418   -7.7405   -1.5334 C   0  0  0  0  0  0  0  0  0  0  0  0
    1.1339   -6.7424   -0.5169 N   0  3  2  0  0  0  0  0  0  0  0  0
    1.3650   -7.2811    0.8301 C   0  0  0  0  0  0  0  0  0  0  0  0
    2.8448   -7.4580    1.0533 C   0  0  0  0  0  0  0  0  0  0  0  0
    3.4233   -6.8964    2.0858 C   0  0  0  0  0  0  0  0  0  0  0  0
    2.5720   -2.2235    4.2989 N   0  0  0  0  0  0  0  0  0  0  0  0
    2.9209   -1.1597    4.9322 N   0  0  0  0  0  0  0  0  0  0  0  0
    2.4831   -0.0293    4.2276 N   0  0  0  0  0  0  0  0  0  0  0  0
    2.6126    0.8977    4.4820 H   0  0  0  0  0  0  0  0  0  0  0  0
    1.0053    1.8021    0.0021 H   0  0  0  0  0  0  0  0  0  0  0  0
   -0.5445    1.7859   -0.8732 H   0  0  0  0  0  0  0  0  0  0  0  0
   -0.5275    1.7763    0.9067 H   0  0  0  0  0  0  0  0  0  0  0  0
    1.1498    1.2158    2.0005 H   0  0  0  0  0  0  0  0  0  0  0  0
    1.3668   -3.7352    2.1897 H   0  0  0  0  0  0  0  0  0  0  0  0
    0.5581   -4.6117    0.8127 H   0  0  0  0  0  0  0  0  0  0  0  0
   -1.5669   -4.7465   -1.0428 H   0  0  0  0  0  0  0  0  0  0  0  0
   -0.0337   -4.7207   -1.9467 H   0  0  0  0  0  0  0  0  0  0  0  0
   -1.2461   -8.2282   -1.5461 H   0  0  0  0  0  0  0  0  0  0  0  0
   -1.4957   -6.7303   -2.5014 H   0  0  0  0  0  0  0  0  0  0  0  0
    0.4264   -8.5050   -3.2563 H   0  0  0  0  0  0  0  0  0  0  0  0
    0.7700   -6.7440   -3.3247 H   0  0  0  0  0  0  0  0  0  0  0  0
    1.4949   -8.7462   -1.1157 H   0  0  0  0  0  0  0  0  0  0  0  0
    2.5474   -7.5252   -1.8947 H   0  0  0  0  0  0  0  0  0  0  0  0
    0.9659   -6.5889    1.5716 H   0  0  0  0  0  0  0  0  0  0  0  0
    0.8652   -8.2449    0.9266 H   0  0  0  0  0  0  0  0  0  0  0  0
    3.4285   -8.0478    0.3620 H   0  0  0  0  0  0  0  0  0  0  0  0
    2.8396   -6.3066    2.7771 H   0  0  0  0  0  0  0  0  0  0  0  0
    4.4838   -7.0232    2.2458 H   0  0  0  0  0  0  0  0  0  0  0  0
    1.6679   -5.8950   -0.6387 H   0  0  0  0  0  0  0  0  0  0  0  0
  1  2  1  0  0  0  0
  1 26  1  0  0  0  0
  1 27  1  0  0  0  0
  1 28  1  0  0  0  0
  2  3  1  0  0  0  0
  3  8  2  0  0  0  0
  3  4  1  0  0  0  0
  4  5  2  0  0  0  0
  4 29  1  0  0  0  0
  5 24  1  0  0  0  0
  5  6  1  0  0  0  0
  6  7  2  0  0  0  0
  6 22  1  0  0  0  0
  7  8  1  0  0  0  0
  7 30  1  0  0  0  0
  8  9  1  0  0  0  0
  9 10  2  0  0  0  0
  9 11  1  0  0  0  0
 11 12  1  0  0  0  0
 11 31  1  0  0  0  0
 12 13  1  0  0  0  0
 12 32  1  0  0  0  0
 12 33  1  0  0  0  0
 13 14  1  1  0  0  0
 13 18  1  0  0  0  0
 13 15  1  0  0  0  0
 15 16  1  0  0  0  0
 15 34  1  0  0  0  0
 15 35  1  0  0  0  0
 16 17  1  0  0  0  0
 16 36  1  0  0  0  0
 16 37  1  0  0  0  0
 17 18  1  0  0  0  0
 17 38  1  0  0  0  0
 17 39  1  0  0  0  0
 18 19  1  0  0  0  0
 18 45  1  6  0  0  0
 19 20  1  0  0  0  0
 19 40  1  0  0  0  0
 19 41  1  0  0  0  0
 20 21  2  0  0  0  0
 20 42  1  0  0  0  0
 21 43  1  0  0  0  0
 21 44  1  0  0  0  0
 22 23  2  0  0  0  0
 23 24  1  0  0  0  0
 24 25  1  0  0  0  0
M  CHG  1  18   1
M  END
$$$$
