ZINC00114127
 OpenBabel08292219463D

 20 19  0  0  1  0  0  0  0  0999 V2000
   -0.0187    1.5258    0.0104 C   0  0  0  0  0  0  0  0  0  0  0  0
    0.0021   -0.0041    0.0020 C   0  0  0  0  0  0  0  0  0  0  0  0
    0.7421   -0.5109    1.2415 C   0  0  0  0  0  0  0  0  0  0  0  0
   -1.4333   -0.5336    0.0129 C   0  0  2  0  0  0  0  0  0  0  0  0
   -1.9334   -0.2470   -0.9122 H   0  0  0  0  0  0  0  0  0  0  0  0
   -2.1755    0.0508    1.1870 C   0  0  0  0  0  0  0  0  0  0  0  0
   -2.4660    1.2349    1.1965 O   0  0  0  0  0  0  0  0  0  0  0  0
   -2.4855   -0.6605    2.1275 O   0  0  0  0  0  1  0  0  0  0  0  0
   -1.4141   -1.9982    0.1255 N   0  3  0  0  0  0  0  0  0  0  0  0
    0.8511   -0.5891   -1.4904 S   0  0  0  0  0  0  0  0  0  0  0  0
    1.0039    1.9031    0.0027 H   0  0  0  0  0  0  0  0  0  0  0  0
   -0.5459    1.8868   -0.8726 H   0  0  0  0  0  0  0  0  0  0  0  0
   -0.5289    1.8773    0.9072 H   0  0  0  0  0  0  0  0  0  0  0  0
    0.2319   -0.1594    2.1383 H   0  0  0  0  0  0  0  0  0  0  0  0
    0.7568   -1.6008    1.2356 H   0  0  0  0  0  0  0  0  0  0  0  0
    1.7647   -0.1336    1.2338 H   0  0  0  0  0  0  0  0  0  0  0  0
   -2.3607   -2.3474    0.1327 H   0  0  0  0  0  0  0  0  0  0  0  0
   -0.9171   -2.3895   -0.6606 H   0  0  0  0  0  0  0  0  0  0  0  0
    2.0861   -0.0661   -1.3884 H   0  0  0  0  0  0  0  0  0  0  0  0
   -0.9512   -2.2636    0.9819 H   0  0  0  0  0  0  0  0  0  0  0  0
  1  2  1  0  0  0  0
  1 11  1  0  0  0  0
  1 12  1  0  0  0  0
  1 13  1  0  0  0  0
  2  3  1  0  0  0  0
  2  4  1  0  0  0  0
  2 10  1  0  0  0  0
  3 14  1  0  0  0  0
  3 15  1  0  0  0  0
  3 16  1  0  0  0  0
  4  5  1  6  0  0  0
  4  6  1  0  0  0  0
  4  9  1  0  0  0  0
  6  7  2  0  0  0  0
  6  8  1  0  0  0  0
  9 17  1  0  0  0  0
  9 18  1  0  0  0  0
  9 20  1  0  0  0  0
 10 19  1  0  0  0  0
M  CHG  1   9   1
M  END
$$$$
