ZINC12503237
 OpenBabel08292219463D

 33 33  0  0  1  0  0  0  0  0999 V2000
    2.3518    2.7398   -5.2242 C   0  0  0  0  0  0  0  0  0  0  0  0
    1.5985    3.0755   -3.9629 C   0  0  0  0  0  0  0  0  0  0  0  0
    1.0415    2.1214   -3.2590 C   0  0  0  0  0  0  0  0  0  0  0  0
    0.2882    2.4571   -1.9977 C   0  0  0  0  0  0  0  0  0  0  0  0
   -1.1080    1.8962   -2.0820 C   0  0  0  0  0  0  0  0  0  0  0  0
   -1.5647    1.1292   -1.1232 C   0  0  0  0  0  0  0  0  0  0  0  0
   -0.7574    0.9333    0.1341 C   0  0  0  0  0  0  0  0  0  0  0  0
   -1.6295    1.2406    1.3532 C   0  0  0  0  0  0  0  0  0  0  0  0
   -0.8222    1.0446    2.6105 C   0  0  0  0  0  0  0  0  0  0  0  0
    0.3011    0.6063    2.5447 O   0  0  0  0  0  0  0  0  0  0  0  0
   -1.4167    1.3957    3.9500 C   0  0  2  0  0  0  0  0  0  0  0  0
   -2.4101    1.4715    3.8642 H   0  0  0  0  0  0  0  0  0  0  0  0
   -0.5918    2.2812    4.8862 C   0  0  1  0  0  0  0  0  0  0  0  0
   -1.1285    2.9774    5.5306 H   0  0  0  0  0  0  0  0  0  0  0  0
   -0.7738    0.8831    5.1188 O   0  0  0  0  0  0  0  0  0  0  0  0
    0.7599    2.7430    4.4059 C   0  0  0  0  0  0  0  0  0  0  0  0
    1.7662    2.3496    4.9570 O   0  0  0  0  0  0  0  0  0  0  0  0
    0.8506    3.5931    3.3640 N   0  0  0  0  0  0  0  0  0  0  0  0
    3.1789    2.0709   -4.9863 H   0  0  0  0  0  0  0  0  0  0  0  0
    1.6799    2.2503   -5.9293 H   0  0  0  0  0  0  0  0  0  0  0  0
    2.7414    3.6553   -5.6693 H   0  0  0  0  0  0  0  0  0  0  0  0
    1.5179    4.1027   -3.6393 H   0  0  0  0  0  0  0  0  0  0  0  0
    1.1221    1.0942   -3.5826 H   0  0  0  0  0  0  0  0  0  0  0  0
    0.2384    3.5398   -1.8815 H   0  0  0  0  0  0  0  0  0  0  0  0
    0.8030    2.0230   -1.1406 H   0  0  0  0  0  0  0  0  0  0  0  0
   -1.7320    2.1265   -2.9329 H   0  0  0  0  0  0  0  0  0  0  0  0
   -2.5198    0.6374   -1.2339 H   0  0  0  0  0  0  0  0  0  0  0  0
   -0.4109   -0.0989    0.1862 H   0  0  0  0  0  0  0  0  0  0  0  0
    0.1011    1.6047    0.1230 H   0  0  0  0  0  0  0  0  0  0  0  0
   -1.9475    2.1875    1.3054 H   0  0  0  0  0  0  0  0  0  0  0  0
   -2.4880    0.5692    1.3643 H   0  0  0  0  0  0  0  0  0  0  0  0
    0.0460    3.9644    2.9696 H   0  0  0  0  0  0  0  0  0  0  0  0
    1.7205    3.8335    3.0085 H   0  0  0  0  0  0  0  0  0  0  0  0
  1  2  1  0  0  0  0
  1 19  1  0  0  0  0
  1 20  1  0  0  0  0
  1 21  1  0  0  0  0
  2  3  2  0  0  0  0
  2 22  1  0  0  0  0
  3  4  1  0  0  0  0
  3 23  1  0  0  0  0
  4  5  1  0  0  0  0
  4 24  1  0  0  0  0
  4 25  1  0  0  0  0
  5  6  2  0  0  0  0
  5 26  1  0  0  0  0
  6  7  1  0  0  0  0
  6 27  1  0  0  0  0
  7  8  1  0  0  0  0
  7 28  1  0  0  0  0
  7 29  1  0  0  0  0
  8  9  1  0  0  0  0
  8 30  1  0  0  0  0
  8 31  1  0  0  0  0
  9 10  2  0  0  0  0
  9 11  1  0  0  0  0
 11 12  1  1  0  0  0
 11 15  1  0  0  0  0
 11 13  1  0  0  0  0
 13 14  1  1  0  0  0
 13 15  1  0  0  0  0
 13 16  1  0  0  0  0
 16 17  2  0  0  0  0
 16 18  1  0  0  0  0
 18 32  1  0  0  0  0
 18 33  1  0  0  0  0
M  END
$$$$
