ZINC01481815
 OpenBabel08292219463D

 42 45  0  0  0  0  0  0  0  0999 V2000
   -0.1402    1.2979    0.6035 C   0  0  0  0  0  0  0  0  0  0  0  0
    1.0185    2.0532    0.5565 C   0  0  0  0  0  0  0  0  0  0  0  0
    2.2419    1.4417    0.3597 C   0  0  0  0  0  0  0  0  0  0  0  0
    2.3140    0.0660    0.2082 C   0  0  0  0  0  0  0  0  0  0  0  0
    1.1452   -0.6996    0.2552 C   0  0  0  0  0  0  0  0  0  0  0  0
   -0.0830   -0.0727    0.4542 C   0  0  0  0  0  0  0  0  0  0  0  0
    1.2124   -2.1723    0.0936 C   0  0  0  0  0  0  0  0  0  0  0  0
    0.1640   -3.0036    0.1153 N   0  0  0  0  0  0  0  0  0  0  0  0
    0.5750   -4.2426   -0.0575 C   0  0  0  0  0  0  0  0  0  0  0  0
    1.9309   -4.2174   -0.1957 N   0  0  0  0  0  0  0  0  0  0  0  0
    2.3117   -2.8691   -0.0995 N   0  0  0  0  0  0  0  0  0  0  0  0
    2.7722   -5.3125   -0.3977 C   0  0  0  0  0  0  0  0  0  0  0  0
    2.4069   -6.3122   -1.2940 C   0  0  0  0  0  0  0  0  0  0  0  0
    3.2341   -7.3936   -1.4963 C   0  0  0  0  0  0  0  0  0  0  0  0
    4.4434   -7.4867   -0.7994 C   0  0  0  0  0  0  0  0  0  0  0  0
    4.8070   -6.4796    0.1008 C   0  0  0  0  0  0  0  0  0  0  0  0
    3.9768   -5.3989    0.2936 C   0  0  0  0  0  0  0  0  0  0  0  0
    5.3313   -8.6425   -1.0126 C   0  0  0  0  0  0  0  0  0  0  0  0
    5.0116   -9.5225   -1.7999 O   0  0  0  0  0  0  0  0  0  0  0  0
    6.3885   -8.7224   -0.4023 O   0  0  0  0  0  1  0  0  0  0  0  0
   -0.2814   -5.4465   -0.0942 C   0  0  0  0  0  0  0  0  0  0  0  0
    0.0515   -6.5675    0.6673 C   0  0  0  0  0  0  0  0  0  0  0  0
   -0.7514   -7.6881    0.6290 C   0  0  0  0  0  0  0  0  0  0  0  0
   -1.8871   -7.7061   -0.1627 C   0  0  0  0  0  0  0  0  0  0  0  0
   -2.2271   -6.6025   -0.9212 C   0  0  0  0  0  0  0  0  0  0  0  0
   -1.4340   -5.4663   -0.8888 C   0  0  0  0  0  0  0  0  0  0  0  0
   -1.7702   -4.3790   -1.6294 O   0  0  0  0  0  0  0  0  0  0  0  0
    3.5160   -0.5362    0.0143 O   0  0  0  0  0  0  0  0  0  0  0  0
   -1.0923    1.7826    0.7621 H   0  0  0  0  0  0  0  0  0  0  0  0
    0.9663    3.1255    0.6738 H   0  0  0  0  0  0  0  0  0  0  0  0
    3.1427    2.0364    0.3236 H   0  0  0  0  0  0  0  0  0  0  0  0
   -0.9892   -0.6589    0.4918 H   0  0  0  0  0  0  0  0  0  0  0  0
    1.4729   -6.2398   -1.8314 H   0  0  0  0  0  0  0  0  0  0  0  0
    2.9497   -8.1693   -2.1919 H   0  0  0  0  0  0  0  0  0  0  0  0
    5.7399   -6.5480    0.6408 H   0  0  0  0  0  0  0  0  0  0  0  0
    4.2589   -4.6187    0.9851 H   0  0  0  0  0  0  0  0  0  0  0  0
    0.9369   -6.5576    1.2857 H   0  0  0  0  0  0  0  0  0  0  0  0
   -0.4931   -8.5552    1.2187 H   0  0  0  0  0  0  0  0  0  0  0  0
   -2.5104   -8.5878   -0.1879 H   0  0  0  0  0  0  0  0  0  0  0  0
   -3.1142   -6.6236   -1.5368 H   0  0  0  0  0  0  0  0  0  0  0  0
   -1.3955   -4.3792   -2.5209 H   0  0  0  0  0  0  0  0  0  0  0  0
    3.9593   -0.8018    0.8316 H   0  0  0  0  0  0  0  0  0  0  0  0
  1  6  2  0  0  0  0
  1  2  1  0  0  0  0
  1 29  1  0  0  0  0
  2  3  2  0  0  0  0
  2 30  1  0  0  0  0
  3  4  1  0  0  0  0
  3 31  1  0  0  0  0
  4  5  2  0  0  0  0
  4 28  1  0  0  0  0
  5  6  1  0  0  0  0
  5  7  1  0  0  0  0
  6 32  1  0  0  0  0
  7 11  2  0  0  0  0
  7  8  1  0  0  0  0
  8  9  2  0  0  0  0
  9 10  1  0  0  0  0
  9 21  1  0  0  0  0
 10 11  1  0  0  0  0
 10 12  1  0  0  0  0
 12 17  2  0  0  0  0
 12 13  1  0  0  0  0
 13 14  2  0  0  0  0
 13 33  1  0  0  0  0
 14 15  1  0  0  0  0
 14 34  1  0  0  0  0
 15 16  2  0  0  0  0
 15 18  1  0  0  0  0
 16 17  1  0  0  0  0
 16 35  1  0  0  0  0
 17 36  1  0  0  0  0
 18 19  2  0  0  0  0
 18 20  1  0  0  0  0
 21 26  2  0  0  0  0
 21 22  1  0  0  0  0
 22 23  2  0  0  0  0
 22 37  1  0  0  0  0
 23 24  1  0  0  0  0
 23 38  1  0  0  0  0
 24 25  2  0  0  0  0
 24 39  1  0  0  0  0
 25 26  1  0  0  0  0
 25 40  1  0  0  0  0
 26 27  1  0  0  0  0
 27 41  1  0  0  0  0
 28 42  1  0  0  0  0
M  END
$$$$
