ZINC52955754
 OpenBabel08292219463D

 78 85  0  0  1  0  0  0  0  0999 V2000
   -0.0187    1.5258    0.0104 C   0  0  0  0  0  0  0  0  0  0  0  0
    0.0021   -0.0041    0.0020 C   0  0  2  0  0  0  0  0  0  0  0  0
   -1.4086   -0.5377    0.0380 C   0  0  0  0  0  0  0  0  0  0  0  0
   -2.2623   -0.3468   -0.8020 O   0  0  0  0  0  0  0  0  0  0  0  0
   -1.5558   -1.2594    1.1573 N   0  0  0  0  0  0  0  0  0  0  0  0
   -2.7811   -1.9072    1.6465 C   0  0  2  0  0  0  0  0  0  0  0  0
   -3.6534   -1.4191    1.2119 H   0  0  0  0  0  0  0  0  0  0  0  0
   -2.8196   -1.7737    3.1514 C   0  0  0  0  0  0  0  0  0  0  0  0
   -3.8398   -2.0375    3.7517 O   0  0  0  0  0  0  0  0  0  0  0  0
   -1.7377   -1.3673    3.8288 N   0  0  0  0  0  0  0  0  0  0  0  0
   -1.4988   -1.5056    5.2814 C   0  0  0  0  0  0  0  0  0  0  0  0
   -0.0115   -1.9469    5.3401 C   0  0  0  0  0  0  0  0  0  0  0  0
    0.6366   -1.0970    4.2194 C   0  0  0  0  0  0  0  0  0  0  0  0
   -0.5254   -0.7335    3.2794 C   0  0  1  0  0  0  0  0  0  0  0  0
   -0.6515    0.3483    3.2363 H   0  0  0  0  0  0  0  0  0  0  0  0
   -0.2721   -1.3061    1.8801 C   0  0  2  0  0  0  0  0  0  0  0  0
    0.6632   -0.4897    1.1757 O   0  0  0  0  0  0  0  0  0  0  0  0
    0.1968   -2.6529    1.9727 O   0  0  0  0  0  0  0  0  0  0  0  0
   -2.7719   -3.3873    1.2591 C   0  0  0  0  0  0  0  0  0  0  0  0
   -2.8289   -3.5142   -0.2414 C   0  0  0  0  0  0  0  0  0  0  0  0
   -4.0511   -3.5865   -0.8831 C   0  0  0  0  0  0  0  0  0  0  0  0
   -4.1034   -3.7029   -2.2595 C   0  0  0  0  0  0  0  0  0  0  0  0
   -2.9333   -3.7466   -2.9944 C   0  0  0  0  0  0  0  0  0  0  0  0
   -1.7111   -3.6735   -2.3528 C   0  0  0  0  0  0  0  0  0  0  0  0
   -1.6589   -3.5527   -0.9767 C   0  0  0  0  0  0  0  0  0  0  0  0
    0.6928   -0.4872   -1.1962 N   0  0  0  0  0  0  0  0  0  0  0  0
    0.2164   -0.1795   -2.4188 C   0  0  0  0  0  0  0  0  0  0  0  0
   -0.7840    0.4974   -2.5271 O   0  0  0  0  0  0  0  0  0  0  0  0
    0.9270   -0.6765   -3.6514 C   0  0  1  0  0  0  0  0  0  0  0  0
    0.9504   -1.7663   -3.6472 H   0  0  0  0  0  0  0  0  0  0  0  0
    0.1958   -0.1806   -4.9041 C   0  0  0  0  0  0  0  0  0  0  0  0
    0.9628   -0.5942   -6.0830 N   0  0  0  0  0  0  0  0  0  0  0  0
    2.2749    0.0353   -6.1576 C   0  0  2  0  0  0  0  0  0  0  0  0
    2.1214    1.0445   -6.5397 H   0  0  0  0  0  0  0  0  0  0  0  0
    3.1440   -0.7043   -7.1841 C   0  0  0  0  0  0  0  0  0  0  0  0
    4.5347   -0.1256   -7.1705 C   0  0  0  0  0  0  0  0  0  0  0  0
    5.5321   -0.0509   -8.0454 C   0  0  0  0  0  0  0  0  0  0  0  0
    6.6182    0.6012   -7.4823 N   0  0  0  0  0  0  0  0  0  0  0  0
    7.4585    0.7703   -7.9365 H   0  0  0  0  0  0  0  0  0  0  0  0
    6.3388    0.9715   -6.2015 C   0  0  0  0  0  0  0  0  0  0  0  0
    5.0313    0.5354   -5.9692 C   0  0  0  0  0  0  0  0  0  0  0  0
    4.3076    0.7145   -4.7717 C   0  0  0  0  0  0  0  0  0  0  0  0
    4.9810    1.3610   -3.7605 C   0  0  0  0  0  0  0  0  0  0  0  0
    6.2881    1.7959   -3.9689 C   0  0  0  0  0  0  0  0  0  0  0  0
    6.9904    1.6250   -5.1564 C   0  0  0  0  0  0  0  0  0  0  0  0
    2.9379    0.1689   -4.8123 C   0  0  0  0  0  0  0  0  0  0  0  0
    2.3326   -0.1393   -3.6774 C   0  0  0  0  0  0  0  0  0  0  0  0
    0.1978   -0.3645   -7.3159 C   0  0  0  0  0  0  0  0  0  0  0  0
    1.0039    1.9031    0.0027 H   0  0  0  0  0  0  0  0  0  0  0  0
   -0.5459    1.8868   -0.8726 H   0  0  0  0  0  0  0  0  0  0  0  0
   -0.5289    1.8773    0.9072 H   0  0  0  0  0  0  0  0  0  0  0  0
   -1.6393   -0.5513    5.7890 H   0  0  0  0  0  0  0  0  0  0  0  0
   -2.1465   -2.2711    5.7087 H   0  0  0  0  0  0  0  0  0  0  0  0
    0.4254   -1.7068    6.3094 H   0  0  0  0  0  0  0  0  0  0  0  0
    0.0852   -3.0108    5.1238 H   0  0  0  0  0  0  0  0  0  0  0  0
    1.0829   -0.1947    4.6375 H   0  0  0  0  0  0  0  0  0  0  0  0
    1.3872   -1.6807    3.6865 H   0  0  0  0  0  0  0  0  0  0  0  0
    0.3344   -3.0811    1.1167 H   0  0  0  0  0  0  0  0  0  0  0  0
   -1.8589   -3.8540    1.6289 H   0  0  0  0  0  0  0  0  0  0  0  0
   -3.6372   -3.8833    1.6988 H   0  0  0  0  0  0  0  0  0  0  0  0
   -4.9653   -3.5523   -0.3090 H   0  0  0  0  0  0  0  0  0  0  0  0
   -5.0583   -3.7601   -2.7608 H   0  0  0  0  0  0  0  0  0  0  0  0
   -2.9741   -3.8383   -4.0697 H   0  0  0  0  0  0  0  0  0  0  0  0
   -0.7969   -3.7080   -2.9269 H   0  0  0  0  0  0  0  0  0  0  0  0
   -0.7041   -3.4918   -0.4758 H   0  0  0  0  0  0  0  0  0  0  0  0
    1.4930   -1.0287   -1.1096 H   0  0  0  0  0  0  0  0  0  0  0  0
   -0.8016   -0.6185   -4.9437 H   0  0  0  0  0  0  0  0  0  0  0  0
    0.1212    0.9066   -4.8785 H   0  0  0  0  0  0  0  0  0  0  0  0
    3.1881   -1.7628   -6.9279 H   0  0  0  0  0  0  0  0  0  0  0  0
    2.7115   -0.5880   -8.1778 H   0  0  0  0  0  0  0  0  0  0  0  0
    5.5011   -0.4425   -9.0514 H   0  0  0  0  0  0  0  0  0  0  0  0
    4.4981    1.5309   -2.8095 H   0  0  0  0  0  0  0  0  0  0  0  0
    6.7885    2.2989   -3.1547 H   0  0  0  0  0  0  0  0  0  0  0  0
    8.0028    1.9848   -5.2653 H   0  0  0  0  0  0  0  0  0  0  0  0
    2.8644   -0.0119   -2.7461 H   0  0  0  0  0  0  0  0  0  0  0  0
    0.0241    0.7041   -7.4419 H   0  0  0  0  0  0  0  0  0  0  0  0
    0.7605   -0.7442   -8.1687 H   0  0  0  0  0  0  0  0  0  0  0  0
   -0.7588   -0.8831   -7.2519 H   0  0  0  0  0  0  0  0  0  0  0  0
  1 49  1  0  0  0  0
  1 50  1  0  0  0  0
  1 51  1  0  0  0  0
  2  1  1  1  0  0  0
  2 17  1  0  0  0  0
  2  3  1  0  0  0  0
  2 26  1  0  0  0  0
  3  4  2  0  0  0  0
  3  5  1  0  0  0  0
  5 16  1  0  0  0  0
  5  6  1  0  0  0  0
  6  7  1  6  0  0  0
  6  8  1  0  0  0  0
  6 19  1  0  0  0  0
  8  9  2  0  0  0  0
  8 10  1  0  0  0  0
 10 14  1  0  0  0  0
 10 11  1  0  0  0  0
 11 12  1  0  0  0  0
 11 52  1  0  0  0  0
 11 53  1  0  0  0  0
 12 13  1  0  0  0  0
 12 54  1  0  0  0  0
 12 55  1  0  0  0  0
 13 14  1  0  0  0  0
 13 56  1  0  0  0  0
 13 57  1  0  0  0  0
 14 15  1  6  0  0  0
 14 16  1  0  0  0  0
 16 17  1  0  0  0  0
 16 18  1  1  0  0  0
 18 58  1  0  0  0  0
 19 20  1  0  0  0  0
 19 59  1  0  0  0  0
 19 60  1  0  0  0  0
 20 25  2  0  0  0  0
 20 21  1  0  0  0  0
 21 22  2  0  0  0  0
 21 61  1  0  0  0  0
 22 23  1  0  0  0  0
 22 62  1  0  0  0  0
 23 24  2  0  0  0  0
 23 63  1  0  0  0  0
 24 25  1  0  0  0  0
 24 64  1  0  0  0  0
 25 65  1  0  0  0  0
 26 27  1  0  0  0  0
 26 66  1  0  0  0  0
 27 28  2  0  0  0  0
 27 29  1  0  0  0  0
 29 30  1  1  0  0  0
 29 47  1  0  0  0  0
 29 31  1  0  0  0  0
 31 32  1  0  0  0  0
 31 67  1  0  0  0  0
 31 68  1  0  0  0  0
 32 33  1  0  0  0  0
 32 48  1  0  0  0  0
 33 34  1  6  0  0  0
 33 46  1  0  0  0  0
 33 35  1  0  0  0  0
 35 36  1  0  0  0  0
 35 69  1  0  0  0  0
 35 70  1  0  0  0  0
 36 41  1  0  0  0  0
 36 37  2  0  0  0  0
 37 38  1  0  0  0  0
 37 71  1  0  0  0  0
 38 39  1  0  0  0  0
 38 40  1  0  0  0  0
 40 45  2  0  0  0  0
 40 41  1  0  0  0  0
 41 42  2  0  0  0  0
 42 43  1  0  0  0  0
 42 46  1  0  0  0  0
 43 44  2  0  0  0  0
 43 72  1  0  0  0  0
 44 45  1  0  0  0  0
 44 73  1  0  0  0  0
 45 74  1  0  0  0  0
 46 47  2  0  0  0  0
 47 75  1  0  0  0  0
 48 76  1  0  0  0  0
 48 77  1  0  0  0  0
 48 78  1  0  0  0  0
M  END
$$$$
