ZINC00896968
 OpenBabel08292219463D

 51 53  0  0  1  0  0  0  0  0999 V2000
   -0.7683    2.3255    1.8090 C   0  0  0  0  0  0  0  0  0  0  0  0
   -0.7454    0.9107    1.4143 N   0  3  0  0  0  0  0  0  0  0  0  0
   -2.1018    0.3365    1.5421 C   0  0  0  0  0  0  0  0  0  0  0  0
   -1.8721   -1.1166    2.0273 C   0  0  0  0  0  0  0  0  0  0  0  0
   -0.6662   -0.9395    2.9872 C   0  0  2  0  0  0  0  0  0  0  0  0
   -1.0018   -0.6122    3.9713 H   0  0  0  0  0  0  0  0  0  0  0  0
    0.1662    0.1632    2.2999 C   0  0  0  0  0  0  0  0  0  0  0  0
    0.0816   -2.1530    3.0882 O   0  0  0  0  0  0  0  0  0  0  0  0
   -0.2621   -3.0007    4.0705 C   0  0  0  0  0  0  0  0  0  0  0  0
   -1.1680   -2.7217    4.8199 O   0  0  0  0  0  0  0  0  0  0  0  0
    0.4817   -4.3005    4.2388 C   0  0  2  0  0  0  0  0  0  0  0  0
   -0.4068   -5.3019    4.9308 C   0  0  0  0  0  0  0  0  0  0  0  0
   -1.0042   -4.9798    6.1351 C   0  0  0  0  0  0  0  0  0  0  0  0
   -1.8193   -5.8983    6.7698 C   0  0  0  0  0  0  0  0  0  0  0  0
   -2.0373   -7.1388    6.2000 C   0  0  0  0  0  0  0  0  0  0  0  0
   -1.4406   -7.4605    4.9953 C   0  0  0  0  0  0  0  0  0  0  0  0
   -0.6290   -6.5404    4.3585 C   0  0  0  0  0  0  0  0  0  0  0  0
    1.7368   -4.0644    5.0814 C   0  0  0  0  0  0  0  0  0  0  0  0
    1.3833   -3.3318    6.3995 C   0  0  0  0  0  0  0  0  0  0  0  0
    2.6995   -2.6419    6.8136 C   0  0  0  0  0  0  0  0  0  0  0  0
    3.5297   -2.4721    5.5293 C   0  0  0  0  0  0  0  0  0  0  0  0
    2.6891   -3.0647    4.3795 C   0  0  0  0  0  0  0  0  0  0  0  0
    0.8574   -4.8040    2.9553 O   0  0  0  0  0  0  0  0  0  0  0  0
   -0.2904    0.7919    0.0226 C   0  0  0  0  0  0  0  0  0  0  0  0
    0.2360    2.7415    1.7284 H   0  0  0  0  0  0  0  0  0  0  0  0
   -1.4430    2.8749    1.1525 H   0  0  0  0  0  0  0  0  0  0  0  0
   -1.1149    2.4098    2.8390 H   0  0  0  0  0  0  0  0  0  0  0  0
   -2.6824    0.8945    2.2766 H   0  0  0  0  0  0  0  0  0  0  0  0
   -2.6073    0.3386    0.5764 H   0  0  0  0  0  0  0  0  0  0  0  0
   -2.7446   -1.4923    2.5617 H   0  0  0  0  0  0  0  0  0  0  0  0
   -1.6151   -1.7705    1.1940 H   0  0  0  0  0  0  0  0  0  0  0  0
    0.9664   -0.2877    1.7130 H   0  0  0  0  0  0  0  0  0  0  0  0
    0.5861    0.8330    3.0504 H   0  0  0  0  0  0  0  0  0  0  0  0
   -0.8339   -4.0106    6.5802 H   0  0  0  0  0  0  0  0  0  0  0  0
   -2.2854   -5.6469    7.7110 H   0  0  0  0  0  0  0  0  0  0  0  0
   -2.6735   -7.8566    6.6963 H   0  0  0  0  0  0  0  0  0  0  0  0
   -1.6107   -8.4298    4.5503 H   0  0  0  0  0  0  0  0  0  0  0  0
   -0.1658   -6.7904    3.4154 H   0  0  0  0  0  0  0  0  0  0  0  0
    2.2468   -5.0062    5.2844 H   0  0  0  0  0  0  0  0  0  0  0  0
    0.6024   -2.5913    6.2267 H   0  0  0  0  0  0  0  0  0  0  0  0
    1.0710   -4.0463    7.1611 H   0  0  0  0  0  0  0  0  0  0  0  0
    2.4879   -1.6671    7.2531 H   0  0  0  0  0  0  0  0  0  0  0  0
    3.2389   -3.2646    7.5273 H   0  0  0  0  0  0  0  0  0  0  0  0
    3.7211   -1.4149    5.3454 H   0  0  0  0  0  0  0  0  0  0  0  0
    4.4721   -3.0123    5.6197 H   0  0  0  0  0  0  0  0  0  0  0  0
    3.3299   -3.5842    3.6670 H   0  0  0  0  0  0  0  0  0  0  0  0
    2.1191   -2.2810    3.8805 H   0  0  0  0  0  0  0  0  0  0  0  0
    0.1101   -4.9771    2.3666 H   0  0  0  0  0  0  0  0  0  0  0  0
    0.7182    1.1956   -0.0656 H   0  0  0  0  0  0  0  0  0  0  0  0
   -0.2885   -0.2579   -0.2706 H   0  0  0  0  0  0  0  0  0  0  0  0
   -0.9634    1.3498   -0.6285 H   0  0  0  0  0  0  0  0  0  0  0  0
  1  2  1  0  0  0  0
  1 25  1  0  0  0  0
  1 26  1  0  0  0  0
  1 27  1  0  0  0  0
  2  7  1  0  0  0  0
  2  3  1  0  0  0  0
  2 24  1  0  0  0  0
  3  4  1  0  0  0  0
  3 28  1  0  0  0  0
  3 29  1  0  0  0  0
  4  5  1  0  0  0  0
  4 30  1  0  0  0  0
  4 31  1  0  0  0  0
  5  6  1  1  0  0  0
  5  7  1  0  0  0  0
  5  8  1  0  0  0  0
  7 32  1  0  0  0  0
  7 33  1  0  0  0  0
  8  9  1  0  0  0  0
  9 10  2  0  0  0  0
 11  9  1  6  0  0  0
 11 12  1  0  0  0  0
 11 18  1  0  0  0  0
 11 23  1  0  0  0  0
 12 17  2  0  0  0  0
 12 13  1  0  0  0  0
 13 14  2  0  0  0  0
 13 34  1  0  0  0  0
 14 15  1  0  0  0  0
 14 35  1  0  0  0  0
 15 16  2  0  0  0  0
 15 36  1  0  0  0  0
 16 17  1  0  0  0  0
 16 37  1  0  0  0  0
 17 38  1  0  0  0  0
 18 22  1  0  0  0  0
 18 19  1  0  0  0  0
 18 39  1  0  0  0  0
 19 20  1  0  0  0  0
 19 40  1  0  0  0  0
 19 41  1  0  0  0  0
 20 21  1  0  0  0  0
 20 42  1  0  0  0  0
 20 43  1  0  0  0  0
 21 22  1  0  0  0  0
 21 44  1  0  0  0  0
 21 45  1  0  0  0  0
 22 46  1  0  0  0  0
 22 47  1  0  0  0  0
 23 48  1  0  0  0  0
 24 49  1  0  0  0  0
 24 50  1  0  0  0  0
 24 51  1  0  0  0  0
M  CHG  1   2   1
M  END
$$$$
