ZINC33965961
 OpenBabel08292219463D

 64 64  0  0  1  0  0  0  0  0999 V2000
    1.4837    1.2318    1.1632 C   0  0  0  0  0  0  0  0  0  0  0  0
    2.2847    2.0637    1.9229 C   0  0  0  0  0  0  0  0  0  0  0  0
    3.6516    1.8615    1.9608 C   0  0  0  0  0  0  0  0  0  0  0  0
    4.2176    0.8271    1.2393 C   0  0  0  0  0  0  0  0  0  0  0  0
    3.4165   -0.0054    0.4803 C   0  0  0  0  0  0  0  0  0  0  0  0
    2.0497    0.1976    0.4413 C   0  0  0  0  0  0  0  0  0  0  0  0
    5.7079    0.6073    1.2798 C   0  0  0  0  0  0  0  0  0  0  0  0
    6.0292   -0.2823    2.3509 O   0  0  0  0  0  0  0  0  0  0  0  0
    7.4255   -0.5588    2.4778 C   0  0  0  0  0  0  0  0  0  0  0  0
    7.6514   -1.5162    3.6497 C   0  0  2  0  0  0  0  0  0  0  0  0
    8.6962   -1.8260    3.6696 H   0  0  0  0  0  0  0  0  0  0  0  0
    6.7711   -2.7282    3.4850 C   0  0  0  0  0  0  0  0  0  0  0  0
    7.1967   -3.7178    2.9139 O   0  0  0  0  0  0  0  0  0  0  0  0
    5.6332   -2.7193    3.9229 O   0  0  0  0  0  1  0  0  0  0  0  0
    7.3182   -0.8364    4.9086 N   0  0  0  0  0  0  0  0  0  0  0  0
    7.8527   -1.5726    6.0619 C   0  0  0  0  0  0  0  0  0  0  0  0
    7.8707   -0.6571    7.2876 C   0  0  0  0  0  0  0  0  0  0  0  0
    8.5156   -1.3529    8.4092 N   0  0  0  0  0  0  0  0  0  0  0  0
    8.7652   -0.4323    9.5264 C   0  0  0  0  0  0  0  0  0  0  0  0
    9.8438    0.5759    9.1252 C   0  0  0  0  0  0  0  0  0  0  0  0
   10.1750    1.4235   10.2784 N   0  3  0  0  0  0  0  0  0  0  0  0
   10.7460    0.5941   11.3479 C   0  0  0  0  0  0  0  0  0  0  0  0
   11.9647   -0.1251   10.8295 C   0  0  0  0  0  0  0  0  0  0  0  0
   12.3634    0.0892    9.6974 O   0  0  0  0  0  0  0  0  0  0  0  0
   12.5520   -0.9211   11.5422 O   0  0  0  0  0  1  0  0  0  0  0  0
   11.1534    2.4415    9.8729 C   0  0  0  0  0  0  0  0  0  0  0  0
   11.3791    3.4029   11.0113 C   0  0  0  0  0  0  0  0  0  0  0  0
   10.6955    3.3270   12.0179 O   0  0  0  0  0  0  0  0  0  0  0  0
   12.2452    4.2567   10.9255 O   0  0  0  0  0  1  0  0  0  0  0  0
    7.7143   -2.5045    8.8449 C   0  0  0  0  0  0  0  0  0  0  0  0
    8.5541   -3.3983    9.7207 C   0  0  0  0  0  0  0  0  0  0  0  0
    9.7416   -3.1651    9.8689 O   0  0  0  0  0  0  0  0  0  0  0  0
    8.0461   -4.3546   10.2809 O   0  0  0  0  0  1  0  0  0  0  0  0
    5.8675   -0.6425    5.0342 C   0  0  0  0  0  0  0  0  0  0  0  0
    5.5944    0.5530    5.9102 C   0  0  0  0  0  0  0  0  0  0  0  0
    6.5056    1.2630    6.2645 O   0  0  0  0  0  0  0  0  0  0  0  0
    4.3390    0.8289    6.2969 O   0  0  0  0  0  0  0  0  0  0  0  0
    0.4152    1.3870    1.1372 H   0  0  0  0  0  0  0  0  0  0  0  0
    1.8425    2.8719    2.4866 H   0  0  0  0  0  0  0  0  0  0  0  0
    4.2775    2.5119    2.5538 H   0  0  0  0  0  0  0  0  0  0  0  0
    3.8587   -0.8134   -0.0837 H   0  0  0  0  0  0  0  0  0  0  0  0
    1.4239   -0.4525   -0.1520 H   0  0  0  0  0  0  0  0  0  0  0  0
    6.0369    0.1730    0.3357 H   0  0  0  0  0  0  0  0  0  0  0  0
    6.2117    1.5611    1.4360 H   0  0  0  0  0  0  0  0  0  0  0  0
    7.7901   -1.0173    1.5586 H   0  0  0  0  0  0  0  0  0  0  0  0
    7.9650    0.3708    2.6590 H   0  0  0  0  0  0  0  0  0  0  0  0
    7.2222   -2.4384    6.2643 H   0  0  0  0  0  0  0  0  0  0  0  0
    8.8671   -1.9054    5.8421 H   0  0  0  0  0  0  0  0  0  0  0  0
    8.4274    0.2507    7.0549 H   0  0  0  0  0  0  0  0  0  0  0  0
    6.8484   -0.3962    7.5613 H   0  0  0  0  0  0  0  0  0  0  0  0
    7.8454    0.0983    9.7724 H   0  0  0  0  0  0  0  0  0  0  0  0
    9.1017   -0.9981   10.3952 H   0  0  0  0  0  0  0  0  0  0  0  0
   10.7363    0.0423    8.7983 H   0  0  0  0  0  0  0  0  0  0  0  0
    9.4741    1.1987    8.3107 H   0  0  0  0  0  0  0  0  0  0  0  0
   11.0284    1.2284   12.1881 H   0  0  0  0  0  0  0  0  0  0  0  0
   10.0058   -0.1356   11.6762 H   0  0  0  0  0  0  0  0  0  0  0  0
   12.0951    1.9575    9.6140 H   0  0  0  0  0  0  0  0  0  0  0  0
   10.7745    2.9854    9.0077 H   0  0  0  0  0  0  0  0  0  0  0  0
    6.8494   -2.1533    9.4076 H   0  0  0  0  0  0  0  0  0  0  0  0
    7.3773   -3.0638    7.9721 H   0  0  0  0  0  0  0  0  0  0  0  0
    5.4364   -0.4756    4.0471 H   0  0  0  0  0  0  0  0  0  0  0  0
    5.4196   -1.5302    5.4810 H   0  0  0  0  0  0  0  0  0  0  0  0
    4.2634    1.6141    6.8563 H   0  0  0  0  0  0  0  0  0  0  0  0
    9.3382    1.8763   10.6143 H   0  0  0  0  0  0  0  0  0  0  0  0
  1  6  2  0  0  0  0
  1  2  1  0  0  0  0
  1 38  1  0  0  0  0
  2  3  2  0  0  0  0
  2 39  1  0  0  0  0
  3  4  1  0  0  0  0
  3 40  1  0  0  0  0
  4  5  2  0  0  0  0
  4  7  1  0  0  0  0
  5  6  1  0  0  0  0
  5 41  1  0  0  0  0
  6 42  1  0  0  0  0
  7  8  1  0  0  0  0
  7 43  1  0  0  0  0
  7 44  1  0  0  0  0
  8  9  1  0  0  0  0
  9 10  1  0  0  0  0
  9 45  1  0  0  0  0
  9 46  1  0  0  0  0
 10 11  1  1  0  0  0
 10 12  1  0  0  0  0
 10 15  1  0  0  0  0
 12 13  2  0  0  0  0
 12 14  1  0  0  0  0
 15 16  1  0  0  0  0
 15 34  1  0  0  0  0
 16 17  1  0  0  0  0
 16 47  1  0  0  0  0
 16 48  1  0  0  0  0
 17 18  1  0  0  0  0
 17 49  1  0  0  0  0
 17 50  1  0  0  0  0
 18 19  1  0  0  0  0
 18 30  1  0  0  0  0
 19 20  1  0  0  0  0
 19 51  1  0  0  0  0
 19 52  1  0  0  0  0
 20 21  1  0  0  0  0
 20 53  1  0  0  0  0
 20 54  1  0  0  0  0
 21 22  1  0  0  0  0
 21 26  1  0  0  0  0
 21 64  1  0  0  0  0
 22 23  1  0  0  0  0
 22 55  1  0  0  0  0
 22 56  1  0  0  0  0
 23 24  2  0  0  0  0
 23 25  1  0  0  0  0
 26 27  1  0  0  0  0
 26 57  1  0  0  0  0
 26 58  1  0  0  0  0
 27 28  2  0  0  0  0
 27 29  1  0  0  0  0
 30 31  1  0  0  0  0
 30 59  1  0  0  0  0
 30 60  1  0  0  0  0
 31 32  2  0  0  0  0
 31 33  1  0  0  0  0
 34 35  1  0  0  0  0
 34 61  1  0  0  0  0
 34 62  1  0  0  0  0
 35 36  2  0  0  0  0
 35 37  1  0  0  0  0
 37 63  1  0  0  0  0
M  CHG  1  21   1
M  END
$$$$
