ZINC00403567
 OpenBabel08292219463D

 24 25  0  0  0  0  0  0  0  0999 V2000
   -0.0187    1.5258    0.0104 C   0  0  0  0  0  0  0  0  0  0  0  0
    0.0021   -0.0041    0.0020 C   0  0  0  0  0  0  0  0  0  0  0  0
    0.7182   -0.4975   -1.2568 C   0  0  0  0  0  0  0  0  0  0  0  0
    0.7381   -1.9623   -1.2648 N   0  0  0  0  0  0  0  0  0  0  0  0
    1.7899   -2.6430   -0.6733 C   0  0  0  0  0  0  0  0  0  0  0  0
    1.7858   -4.0321   -0.6940 C   0  0  0  0  0  0  0  0  0  0  0  0
    0.7133   -4.7075   -1.3154 C   0  0  0  0  0  0  0  0  0  0  0  0
    0.6868   -5.9248   -1.3462 O   0  0  0  0  0  0  0  0  0  0  0  0
   -0.2825   -3.9887   -1.8744 N   0  0  0  0  0  0  0  0  0  0  0  0
   -1.0215   -4.4487   -2.3024 H   0  0  0  0  0  0  0  0  0  0  0  0
   -0.2685   -2.6450   -1.8422 C   0  0  0  0  0  0  0  0  0  0  0  0
   -1.1858   -2.0304   -2.3516 O   0  0  0  0  0  0  0  0  0  0  0  0
    2.9356   -4.4316   -0.0428 N   0  0  0  0  0  0  0  0  0  0  0  0
    3.2248   -5.3448    0.1097 H   0  0  0  0  0  0  0  0  0  0  0  0
    3.5803   -3.3122    0.3401 C   0  0  0  0  0  0  0  0  0  0  0  0
    2.8987   -2.2600   -0.0352 N   0  0  0  0  0  0  0  0  0  0  0  0
    1.0039    1.9031    0.0027 H   0  0  0  0  0  0  0  0  0  0  0  0
   -0.5459    1.8868   -0.8726 H   0  0  0  0  0  0  0  0  0  0  0  0
   -0.5289    1.8773    0.9072 H   0  0  0  0  0  0  0  0  0  0  0  0
    0.5293   -0.3651    0.8851 H   0  0  0  0  0  0  0  0  0  0  0  0
   -1.0205   -0.3814    0.0098 H   0  0  0  0  0  0  0  0  0  0  0  0
    0.1910   -0.1364   -2.1398 H   0  0  0  0  0  0  0  0  0  0  0  0
    1.7408   -0.1202   -1.2645 H   0  0  0  0  0  0  0  0  0  0  0  0
    4.5175   -3.2871    0.8762 H   0  0  0  0  0  0  0  0  0  0  0  0
  1  2  1  0  0  0  0
  1 17  1  0  0  0  0
  1 18  1  0  0  0  0
  1 19  1  0  0  0  0
  2  3  1  0  0  0  0
  2 20  1  0  0  0  0
  2 21  1  0  0  0  0
  3  4  1  0  0  0  0
  3 22  1  0  0  0  0
  3 23  1  0  0  0  0
  4 11  1  0  0  0  0
  4  5  1  0  0  0  0
  5 16  1  0  0  0  0
  5  6  2  0  0  0  0
  6  7  1  0  0  0  0
  6 13  1  0  0  0  0
  7  8  2  0  0  0  0
  7  9  1  0  0  0  0
  9 10  1  0  0  0  0
  9 11  1  0  0  0  0
 11 12  2  0  0  0  0
 13 14  1  0  0  0  0
 13 15  1  0  0  0  0
 15 16  2  0  0  0  0
 15 24  1  0  0  0  0
M  END
$$$$
