ZINC03830405
 OpenBabel08292219463D

 42 45  0  0  1  0  0  0  0  0999 V2000
    0.0503    1.5043   -0.0208 C   0  0  0  0  0  0  0  0  0  0  0  0
    0.0609   -0.0027   -0.0242 C   0  0  0  0  0  0  0  0  0  0  0  0
    0.0300   -0.8471   -1.0351 N   0  0  0  0  0  0  0  0  0  0  0  0
    0.0450   -2.0971   -0.8676 N   0  0  0  0  0  0  0  0  0  0  0  0
    0.0930   -2.6398    0.3425 C   0  0  0  0  0  0  0  0  0  0  0  0
    0.1270   -1.1558    1.3440 S   0  0  0  0  0  0  0  0  0  0  0  0
    0.1221   -4.3342    0.8250 S   0  0  0  0  0  0  0  0  0  0  0  0
    0.0714   -5.2389   -0.7465 C   0  0  0  0  0  0  0  0  0  0  0  0
    0.0915   -6.7208   -0.4738 C   0  0  0  0  0  0  0  0  0  0  0  0
   -1.0736   -7.3442   -0.5710 C   0  0  0  0  0  0  0  0  0  0  0  0
   -1.1614   -8.7345   -0.3838 N   0  0  0  0  0  0  0  0  0  0  0  0
   -0.1495   -9.6175    0.2523 C   0  0  1  0  0  0  0  0  0  0  0  0
   -0.1931   -9.6783    1.3397 H   0  0  0  0  0  0  0  0  0  0  0  0
   -0.8235  -10.7551   -0.4845 C   0  0  1  0  0  0  0  0  0  0  0  0
   -1.0907  -11.5995    0.1509 H   0  0  0  0  0  0  0  0  0  0  0  0
   -1.9372   -9.7646   -0.6885 C   0  0  0  0  0  0  0  0  0  0  0  0
   -3.1021   -9.8691   -1.0098 O   0  0  0  0  0  0  0  0  0  0  0  0
   -0.1416  -11.1548   -1.7180 N   0  0  0  0  0  0  0  0  0  0  0  0
   -0.2935  -12.4054   -2.1970 C   0  0  0  0  0  0  0  0  0  0  0  0
   -0.9947  -13.1998   -1.6070 O   0  0  0  0  0  0  0  0  0  0  0  0
    0.4079  -12.8166   -3.4659 C   0  0  0  0  0  0  0  0  0  0  0  0
    0.0843  -14.2121   -3.7725 N   0  0  0  0  0  0  0  0  0  0  0  0
   -0.4330  -14.6783   -4.9243 C   0  0  0  0  0  0  0  0  0  0  0  0
   -0.5661  -15.9742   -4.7797 N   0  0  0  0  0  0  0  0  0  0  0  0
   -0.1522  -16.2876   -3.6005 N   0  0  0  0  0  0  0  0  0  0  0  0
    0.2468  -15.2259   -2.9913 N   0  0  0  0  0  0  0  0  0  0  0  0
    1.4701   -9.0907   -0.4046 S   0  0  0  0  0  0  0  0  0  0  0  0
    1.4242   -7.3053   -0.1332 C   0  0  0  0  0  0  0  0  0  0  0  0
   -2.2889   -6.5726   -0.8777 C   0  0  0  0  0  0  0  0  0  0  0  0
   -2.6760   -6.4751   -2.0343 O   0  0  0  0  0  0  0  0  0  0  0  0
   -2.9120   -6.0286    0.0238 O   0  0  0  0  0  1  0  0  0  0  0  0
    1.0744    1.8749   -0.0634 H   0  0  0  0  0  0  0  0  0  0  0  0
   -0.5033    1.8657   -0.8874 H   0  0  0  0  0  0  0  0  0  0  0  0
   -0.4280    1.8622    0.8909 H   0  0  0  0  0  0  0  0  0  0  0  0
   -0.8405   -4.9808   -1.2850 H   0  0  0  0  0  0  0  0  0  0  0  0
    0.9383   -4.9686   -1.3495 H   0  0  0  0  0  0  0  0  0  0  0  0
    0.4192  -10.5195   -2.1899 H   0  0  0  0  0  0  0  0  0  0  0  0
    0.0788  -12.1786   -4.2861 H   0  0  0  0  0  0  0  0  0  0  0  0
    1.4851  -12.7137   -3.3352 H   0  0  0  0  0  0  0  0  0  0  0  0
   -0.6893  -14.0973   -5.7979 H   0  0  0  0  0  0  0  0  0  0  0  0
    2.1885   -6.8286   -0.7469 H   0  0  0  0  0  0  0  0  0  0  0  0
    1.6403   -7.1089    0.9169 H   0  0  0  0  0  0  0  0  0  0  0  0
  1  2  1  0  0  0  0
  1 32  1  0  0  0  0
  1 33  1  0  0  0  0
  1 34  1  0  0  0  0
  2  6  1  0  0  0  0
  2  3  2  0  0  0  0
  3  4  1  0  0  0  0
  4  5  2  0  0  0  0
  5  6  1  0  0  0  0
  5  7  1  0  0  0  0
  7  8  1  0  0  0  0
  8  9  1  0  0  0  0
  8 35  1  0  0  0  0
  8 36  1  0  0  0  0
  9 28  1  0  0  0  0
  9 10  2  0  0  0  0
 10 11  1  0  0  0  0
 10 29  1  0  0  0  0
 11 16  1  0  0  0  0
 11 12  1  0  0  0  0
 12 13  1  1  0  0  0
 12 14  1  0  0  0  0
 12 27  1  0  0  0  0
 14 15  1  1  0  0  0
 14 16  1  0  0  0  0
 14 18  1  0  0  0  0
 16 17  2  0  0  0  0
 18 19  1  0  0  0  0
 18 37  1  0  0  0  0
 19 20  2  0  0  0  0
 19 21  1  0  0  0  0
 21 22  1  0  0  0  0
 21 38  1  0  0  0  0
 21 39  1  0  0  0  0
 22 26  1  0  0  0  0
 22 23  1  0  0  0  0
 23 24  2  0  0  0  0
 23 40  1  0  0  0  0
 24 25  1  0  0  0  0
 25 26  2  0  0  0  0
 27 28  1  0  0  0  0
 28 41  1  0  0  0  0
 28 42  1  0  0  0  0
 29 30  2  0  0  0  0
 29 31  1  0  0  0  0
M  END
$$$$
