ZINC09212654
 OpenBabel08292219463D

 49 49  0  0  0  0  0  0  0  0999 V2000
    8.8562    2.7351    1.9597 C   0  0  0  0  0  0  0  0  0  0  0  0
   10.0104    3.2936    1.1679 C   0  0  0  0  0  0  0  0  0  0  0  0
    9.8895    4.5093    0.6619 C   0  0  0  0  0  0  0  0  0  0  0  0
   10.9537    5.1801   -0.1570 C   0  0  0  0  0  0  0  0  0  0  0  0
   12.2980    4.4761    0.0510 C   0  0  0  0  0  0  0  0  0  0  0  0
   12.0916    2.9700   -0.1507 C   0  0  0  0  0  0  0  0  0  0  0  0
   11.2325    2.4387    0.9985 C   0  0  0  0  0  0  0  0  0  0  0  0
   10.5682    5.1207   -1.6364 C   0  0  0  0  0  0  0  0  0  0  0  0
   11.0782    6.6431    0.2735 C   0  0  0  0  0  0  0  0  0  0  0  0
    8.6844    5.2168    0.9015 C   0  0  0  0  0  0  0  0  0  0  0  0
    7.4935    4.6722    0.5397 C   0  0  0  0  0  0  0  0  0  0  0  0
    6.3049    5.4047    0.7090 C   0  0  0  0  0  0  0  0  0  0  0  0
    5.1092    4.8579    0.3457 C   0  0  0  0  0  0  0  0  0  0  0  0
    5.0651    3.5649   -0.1969 C   0  0  0  0  0  0  0  0  0  0  0  0
    3.8730    3.0329   -0.5978 C   0  0  0  0  0  0  0  0  0  0  0  0
    2.6782    3.7266   -0.3546 C   0  0  0  0  0  0  0  0  0  0  0  0
    1.9397    4.1998   -1.3989 C   0  0  0  0  0  0  0  0  0  0  0  0
    2.3209    3.9034   -2.7233 C   0  0  0  0  0  0  0  0  0  0  0  0
    3.3617    3.3094   -2.9387 O   0  0  0  0  0  0  0  0  0  0  0  0
    2.2107    3.9489    1.0607 C   0  0  0  0  0  0  0  0  0  0  0  0
    6.3522    6.7936    1.2919 C   0  0  0  0  0  0  0  0  0  0  0  0
    8.1805    2.2024    1.2905 H   0  0  0  0  0  0  0  0  0  0  0  0
    9.2338    2.0482    2.7171 H   0  0  0  0  0  0  0  0  0  0  0  0
    8.3194    3.5508    2.4441 H   0  0  0  0  0  0  0  0  0  0  0  0
   12.6611    4.6639    1.0614 H   0  0  0  0  0  0  0  0  0  0  0  0
   13.0233    4.8465   -0.6735 H   0  0  0  0  0  0  0  0  0  0  0  0
   13.0574    2.4647   -0.1497 H   0  0  0  0  0  0  0  0  0  0  0  0
   11.5840    2.7937   -1.0991 H   0  0  0  0  0  0  0  0  0  0  0  0
   11.8137    2.4525    1.9205 H   0  0  0  0  0  0  0  0  0  0  0  0
   10.9297    1.4147    0.7798 H   0  0  0  0  0  0  0  0  0  0  0  0
    9.6174    5.6325   -1.7850 H   0  0  0  0  0  0  0  0  0  0  0  0
   11.3399    5.6074   -2.2328 H   0  0  0  0  0  0  0  0  0  0  0  0
   10.4727    4.0798   -1.9455 H   0  0  0  0  0  0  0  0  0  0  0  0
   11.4108    6.6896    1.3105 H   0  0  0  0  0  0  0  0  0  0  0  0
   11.8036    7.1488   -0.3638 H   0  0  0  0  0  0  0  0  0  0  0  0
   10.1089    7.1329    0.1804 H   0  0  0  0  0  0  0  0  0  0  0  0
    8.7132    6.1887    1.3717 H   0  0  0  0  0  0  0  0  0  0  0  0
    7.4596    3.6769    0.1220 H   0  0  0  0  0  0  0  0  0  0  0  0
    4.1964    5.4204    0.4757 H   0  0  0  0  0  0  0  0  0  0  0  0
    5.9740    2.9902   -0.2976 H   0  0  0  0  0  0  0  0  0  0  0  0
    3.8501    2.0782   -1.1021 H   0  0  0  0  0  0  0  0  0  0  0  0
    1.0627    4.8017   -1.2113 H   0  0  0  0  0  0  0  0  0  0  0  0
    1.5278    3.1492    1.3476 H   0  0  0  0  0  0  0  0  0  0  0  0
    3.0701    3.9508    1.7312 H   0  0  0  0  0  0  0  0  0  0  0  0
    1.6960    4.9074    1.1270 H   0  0  0  0  0  0  0  0  0  0  0  0
    6.2563    6.7361    2.3761 H   0  0  0  0  0  0  0  0  0  0  0  0
    7.3020    7.2630    1.0355 H   0  0  0  0  0  0  0  0  0  0  0  0
    5.5327    7.3863    0.8855 H   0  0  0  0  0  0  0  0  0  0  0  0
    1.5318    4.2782   -3.7532 O   0  0  0  0  0  1  0  0  0  0  0  0
  1  2  1  0  0  0  0
  1 22  1  0  0  0  0
  1 23  1  0  0  0  0
  1 24  1  0  0  0  0
  2  7  1  0  0  0  0
  2  3  2  0  0  0  0
  3  4  1  0  0  0  0
  3 10  1  0  0  0  0
  4  5  1  0  0  0  0
  4  8  1  0  0  0  0
  4  9  1  0  0  0  0
  5  6  1  0  0  0  0
  5 25  1  0  0  0  0
  5 26  1  0  0  0  0
  6  7  1  0  0  0  0
  6 27  1  0  0  0  0
  6 28  1  0  0  0  0
  7 29  1  0  0  0  0
  7 30  1  0  0  0  0
  8 31  1  0  0  0  0
  8 32  1  0  0  0  0
  8 33  1  0  0  0  0
  9 34  1  0  0  0  0
  9 35  1  0  0  0  0
  9 36  1  0  0  0  0
 10 11  2  0  0  0  0
 10 37  1  0  0  0  0
 11 12  1  0  0  0  0
 11 38  1  0  0  0  0
 12 13  2  0  0  0  0
 12 21  1  0  0  0  0
 13 14  1  0  0  0  0
 13 39  1  0  0  0  0
 14 15  2  0  0  0  0
 14 40  1  0  0  0  0
 15 16  1  0  0  0  0
 15 41  1  0  0  0  0
 16 17  2  0  0  0  0
 16 20  1  0  0  0  0
 17 18  1  0  0  0  0
 17 42  1  0  0  0  0
 18 19  2  0  0  0  0
 18 49  1  0  0  0  0
 20 43  1  0  0  0  0
 20 44  1  0  0  0  0
 20 45  1  0  0  0  0
 21 46  1  0  0  0  0
 21 47  1  0  0  0  0
 21 48  1  0  0  0  0
M  END
$$$$
