ZINC01544157
 OpenBabel08292219463D

 52 51  0  0  1  0  0  0  0  0999 V2000
    3.0091    4.5674    0.8752 C   0  0  0  0  0  0  0  0  0  0  0  0
    2.8370    3.3040    1.7207 C   0  0  0  0  0  0  0  0  0  0  0  0
    3.7850    3.3601    2.9204 C   0  0  0  0  0  0  0  0  0  0  0  0
    1.3922    3.2147    2.2162 C   0  0  0  0  0  0  0  0  0  0  0  0
    0.4588    2.9800    1.0268 C   0  0  2  0  0  0  0  0  0  0  0  0
   -0.5517    2.7917    1.3896 H   0  0  0  0  0  0  0  0  0  0  0  0
    0.9468    1.7708    0.2264 C   0  0  1  0  0  0  0  0  0  0  0  0
    1.9895    1.9182   -0.0550 H   0  0  0  0  0  0  0  0  0  0  0  0
    0.8250    0.5278    1.0698 C   0  0  0  0  0  0  0  0  0  0  0  0
   -0.0196   -0.3023    0.8080 O   0  0  0  0  0  0  0  0  0  0  0  0
    1.6547    0.3386    2.1149 N   0  0  0  0  0  0  0  0  0  0  0  0
    1.6054   -0.8719    2.8479 O   0  0  0  0  0  0  0  0  0  0  0  0
    0.1511    1.6269   -0.9518 O   0  0  0  0  0  0  0  0  0  0  0  0
    0.4558    4.2000    0.1421 C   0  0  0  0  0  0  0  0  0  0  0  0
    0.7344    4.0970   -1.0337 O   0  0  0  0  0  0  0  0  0  0  0  0
    0.1435    5.4054    0.6577 N   0  0  0  0  0  0  0  0  0  0  0  0
    0.0346    6.5722   -0.2215 C   0  0  2  0  0  0  0  0  0  0  0  0
    0.7694    6.4932   -1.0227 H   0  0  0  0  0  0  0  0  0  0  0  0
    0.2914    7.8262    0.5738 C   0  0  0  0  0  0  0  0  0  0  0  0
    0.1388    7.8231    1.7769 O   0  0  0  0  0  0  0  0  0  0  0  0
    0.6907    8.9512   -0.0520 N   0  0  0  0  0  0  0  0  0  0  0  0
    1.0400   10.1397    0.7300 C   0  0  0  0  0  0  0  0  0  0  0  0
   -1.3712    6.6284   -0.8226 C   0  0  0  0  0  0  0  0  0  0  0  0
   -2.3961    6.8315    0.2951 C   0  0  0  0  0  0  0  0  0  0  0  0
   -1.4571    7.7931   -1.8111 C   0  0  0  0  0  0  0  0  0  0  0  0
   -1.6664    5.3168   -1.5531 C   0  0  0  0  0  0  0  0  0  0  0  0
    2.5718    5.4175    1.3989 H   0  0  0  0  0  0  0  0  0  0  0  0
    4.0704    4.7508    0.7077 H   0  0  0  0  0  0  0  0  0  0  0  0
    2.5076    4.4342   -0.0834 H   0  0  0  0  0  0  0  0  0  0  0  0
    3.0684    2.4275    1.1155 H   0  0  0  0  0  0  0  0  0  0  0  0
    3.6624    2.4600    3.5228 H   0  0  0  0  0  0  0  0  0  0  0  0
    4.8143    3.4237    2.5674 H   0  0  0  0  0  0  0  0  0  0  0  0
    3.5536    4.2366    3.5256 H   0  0  0  0  0  0  0  0  0  0  0  0
    1.1203    4.1460    2.7131 H   0  0  0  0  0  0  0  0  0  0  0  0
    1.2997    2.3871    2.9195 H   0  0  0  0  0  0  0  0  0  0  0  0
    2.2857    1.0316    2.3649 H   0  0  0  0  0  0  0  0  0  0  0  0
    2.2374   -0.9154    3.5784 H   0  0  0  0  0  0  0  0  0  0  0  0
   -0.7903    1.4920   -0.7766 H   0  0  0  0  0  0  0  0  0  0  0  0
   -0.0092    5.5005    1.6109 H   0  0  0  0  0  0  0  0  0  0  0  0
    0.7467    8.9738   -1.0201 H   0  0  0  0  0  0  0  0  0  0  0  0
    0.1766   10.4562    1.3153 H   0  0  0  0  0  0  0  0  0  0  0  0
    1.8665    9.9037    1.4002 H   0  0  0  0  0  0  0  0  0  0  0  0
    1.3367   10.9436    0.0563 H   0  0  0  0  0  0  0  0  0  0  0  0
   -2.1858    7.7659    0.8155 H   0  0  0  0  0  0  0  0  0  0  0  0
   -3.3976    6.8716   -0.1331 H   0  0  0  0  0  0  0  0  0  0  0  0
   -2.3349    6.0018    0.9993 H   0  0  0  0  0  0  0  0  0  0  0  0
   -0.7527    7.6300   -2.6268 H   0  0  0  0  0  0  0  0  0  0  0  0
   -2.4688    7.8559   -2.2117 H   0  0  0  0  0  0  0  0  0  0  0  0
   -1.2108    8.7232   -1.2989 H   0  0  0  0  0  0  0  0  0  0  0  0
   -1.6053    4.4871   -0.8489 H   0  0  0  0  0  0  0  0  0  0  0  0
   -2.6680    5.3569   -1.9813 H   0  0  0  0  0  0  0  0  0  0  0  0
   -0.9363    5.1721   -2.3494 H   0  0  0  0  0  0  0  0  0  0  0  0
  1  2  1  0  0  0  0
  1 27  1  0  0  0  0
  1 28  1  0  0  0  0
  1 29  1  0  0  0  0
  2  3  1  0  0  0  0
  2  4  1  0  0  0  0
  2 30  1  0  0  0  0
  3 31  1  0  0  0  0
  3 32  1  0  0  0  0
  3 33  1  0  0  0  0
  4  5  1  0  0  0  0
  4 34  1  0  0  0  0
  4 35  1  0  0  0  0
  5  6  1  1  0  0  0
  5  7  1  0  0  0  0
  5 14  1  0  0  0  0
  7  8  1  6  0  0  0
  7  9  1  0  0  0  0
  7 13  1  0  0  0  0
  9 10  2  0  0  0  0
  9 11  1  0  0  0  0
 11 12  1  0  0  0  0
 11 36  1  0  0  0  0
 12 37  1  0  0  0  0
 13 38  1  0  0  0  0
 14 15  2  0  0  0  0
 14 16  1  0  0  0  0
 16 17  1  0  0  0  0
 16 39  1  0  0  0  0
 17 18  1  6  0  0  0
 17 19  1  0  0  0  0
 17 23  1  0  0  0  0
 19 20  2  0  0  0  0
 19 21  1  0  0  0  0
 21 22  1  0  0  0  0
 21 40  1  0  0  0  0
 22 41  1  0  0  0  0
 22 42  1  0  0  0  0
 22 43  1  0  0  0  0
 23 24  1  0  0  0  0
 23 25  1  0  0  0  0
 23 26  1  0  0  0  0
 24 44  1  0  0  0  0
 24 45  1  0  0  0  0
 24 46  1  0  0  0  0
 25 47  1  0  0  0  0
 25 48  1  0  0  0  0
 25 49  1  0  0  0  0
 26 50  1  0  0  0  0
 26 51  1  0  0  0  0
 26 52  1  0  0  0  0
M  END
$$$$
