ZINC53230301
 OpenBabel08292219463D

 71 74  0  0  1  0  0  0  0  0999 V2000
    1.5215   -2.5610   -7.5840 C   0  0  0  0  0  0  0  0  0  0  0  0
    0.8816   -3.0318   -6.2764 C   0  0  0  0  0  0  0  0  0  0  0  0
    0.7746   -1.9017   -5.3504 N   0  0  0  0  0  0  0  0  0  0  0  0
    0.3301   -2.1000   -4.0936 C   0  0  0  0  0  0  0  0  0  0  0  0
    0.1118   -3.2280   -3.6971 O   0  0  0  0  0  0  0  0  0  0  0  0
    0.1278   -1.0476   -3.2764 N   0  0  0  0  0  0  0  0  0  0  0  0
   -0.4052   -1.2588   -1.9282 C   0  0  0  0  0  0  0  0  0  0  0  0
    0.7219   -1.7160   -1.0001 C   0  0  0  0  0  0  0  0  0  0  0  0
    0.2092   -1.7614    0.4408 C   0  0  0  0  0  0  0  0  0  0  0  0
    1.2914   -2.2004    1.3320 N   0  3  0  0  0  0  0  0  0  0  0  0
    0.8362   -2.1295    2.7268 C   0  0  0  0  0  0  0  0  0  0  0  0
    1.6619   -3.5844    1.0075 C   0  0  0  0  0  0  0  0  0  0  0  0
    0.4158    0.1992   -3.6994 C   0  0  0  0  0  0  0  0  0  0  0  0
    0.7409    0.3883   -4.8520 O   0  0  0  0  0  0  0  0  0  0  0  0
    0.3338    1.3583   -2.7398 C   0  0  2  0  0  0  0  0  0  0  0  0
   -0.4650    1.1793   -2.0201 H   0  0  0  0  0  0  0  0  0  0  0  0
    0.0438    2.6455   -3.5162 C   0  0  0  0  0  0  0  0  0  0  0  0
    0.0205    3.8279   -2.5431 C   0  0  2  0  0  0  0  0  0  0  0  0
   -0.7826    3.6817   -1.8208 H   0  0  0  0  0  0  0  0  0  0  0  0
   -0.2220    5.0988   -3.2991 C   0  0  0  0  0  0  0  0  0  0  0  0
   -0.9292    5.2742   -4.4463 C   0  0  0  0  0  0  0  0  0  0  0  0
   -1.0545    6.5431   -5.0102 C   0  0  0  0  0  0  0  0  0  0  0  0
   -0.4935    7.6945   -4.4744 C   0  0  0  0  0  0  0  0  0  0  0  0
    0.2394    7.5479   -3.2979 C   0  0  0  0  0  0  0  0  0  0  0  0
    0.3451    6.2582   -2.7645 C   0  0  0  0  0  0  0  0  0  0  0  0
    1.1588    6.3292   -1.5508 C   0  0  0  0  0  0  0  0  0  0  0  0
    1.4804    7.6062   -1.4135 C   0  0  0  0  0  0  0  0  0  0  0  0
    0.9365    8.3526   -2.4482 N   0  0  0  0  0  0  0  0  0  0  0  0
    1.0389    9.3115   -2.5526 H   0  0  0  0  0  0  0  0  0  0  0  0
    1.4372    5.0561   -0.7926 C   0  0  0  0  0  0  0  0  0  0  0  0
    1.3562    3.9018   -1.8020 C   0  0  1  0  0  0  0  0  0  0  0  0
    2.1515    4.0138   -2.5390 H   0  0  0  0  0  0  0  0  0  0  0  0
    1.5896    2.6452   -1.0784 N   0  0  0  0  0  0  0  0  0  0  0  0
    1.6655    1.5045   -1.9997 C   0  0  0  0  0  0  0  0  0  0  0  0
    2.7983    2.7324   -0.2481 C   0  0  0  0  0  0  0  0  0  0  0  0
    3.9807    3.0764   -1.1168 C   0  0  0  0  0  0  0  0  0  0  0  0
    4.6538    4.1792   -0.9002 C   0  0  0  0  0  0  0  0  0  0  0  0
    0.8609   -1.8466   -8.0752 H   0  0  0  0  0  0  0  0  0  0  0  0
    2.4776   -2.0836   -7.3693 H   0  0  0  0  0  0  0  0  0  0  0  0
    1.6820   -3.4173   -8.2390 H   0  0  0  0  0  0  0  0  0  0  0  0
   -0.1125   -3.4294   -6.4810 H   0  0  0  0  0  0  0  0  0  0  0  0
    1.4994   -3.8106   -5.8294 H   0  0  0  0  0  0  0  0  0  0  0  0
    1.0235   -1.0106   -5.6418 H   0  0  0  0  0  0  0  0  0  0  0  0
   -0.8280   -0.3263   -1.5544 H   0  0  0  0  0  0  0  0  0  0  0  0
   -1.1820   -2.0228   -1.9602 H   0  0  0  0  0  0  0  0  0  0  0  0
    1.0574   -2.7094   -1.2978 H   0  0  0  0  0  0  0  0  0  0  0  0
    1.5546   -1.0159   -1.0675 H   0  0  0  0  0  0  0  0  0  0  0  0
   -0.1262   -0.7680    0.7386 H   0  0  0  0  0  0  0  0  0  0  0  0
   -0.6235   -2.4615    0.5082 H   0  0  0  0  0  0  0  0  0  0  0  0
   -0.0297   -2.7781    2.8598 H   0  0  0  0  0  0  0  0  0  0  0  0
    1.6391   -2.4552    3.3881 H   0  0  0  0  0  0  0  0  0  0  0  0
    0.5612   -1.1026    2.9676 H   0  0  0  0  0  0  0  0  0  0  0  0
    2.4649   -3.9101    1.6688 H   0  0  0  0  0  0  0  0  0  0  0  0
    0.7961   -4.2330    1.1405 H   0  0  0  0  0  0  0  0  0  0  0  0
    1.9997   -3.6369   -0.0275 H   0  0  0  0  0  0  0  0  0  0  0  0
    0.8222    2.8036   -4.2626 H   0  0  0  0  0  0  0  0  0  0  0  0
   -0.9240    2.5620   -4.0108 H   0  0  0  0  0  0  0  0  0  0  0  0
   -1.3966    4.4258   -4.9240 H   0  0  0  0  0  0  0  0  0  0  0  0
   -1.6244    6.6363   -5.9229 H   0  0  0  0  0  0  0  0  0  0  0  0
   -0.6186    8.6576   -4.9468 H   0  0  0  0  0  0  0  0  0  0  0  0
    2.0798    8.0090   -0.6104 H   0  0  0  0  0  0  0  0  0  0  0  0
    2.4366    5.0959   -0.3594 H   0  0  0  0  0  0  0  0  0  0  0  0
    0.6969    4.9278   -0.0028 H   0  0  0  0  0  0  0  0  0  0  0  0
    1.8700    0.5941   -1.4362 H   0  0  0  0  0  0  0  0  0  0  0  0
    2.4654    1.6732   -2.7206 H   0  0  0  0  0  0  0  0  0  0  0  0
    2.6650    3.5068    0.5074 H   0  0  0  0  0  0  0  0  0  0  0  0
    2.9732    1.7741    0.2408 H   0  0  0  0  0  0  0  0  0  0  0  0
    4.2731    2.4138   -1.9179 H   0  0  0  0  0  0  0  0  0  0  0  0
    4.3614    4.8418   -0.0990 H   0  0  0  0  0  0  0  0  0  0  0  0
    5.5012    4.4257   -1.5227 H   0  0  0  0  0  0  0  0  0  0  0  0
    2.0929   -1.6000    1.2088 H   0  0  0  0  0  0  0  0  0  0  0  0
  1  2  1  0  0  0  0
  1 38  1  0  0  0  0
  1 39  1  0  0  0  0
  1 40  1  0  0  0  0
  2  3  1  0  0  0  0
  2 41  1  0  0  0  0
  2 42  1  0  0  0  0
  3  4  1  0  0  0  0
  3 43  1  0  0  0  0
  4  5  2  0  0  0  0
  4  6  1  0  0  0  0
  6  7  1  0  0  0  0
  6 13  1  0  0  0  0
  7  8  1  0  0  0  0
  7 44  1  0  0  0  0
  7 45  1  0  0  0  0
  8  9  1  0  0  0  0
  8 46  1  0  0  0  0
  8 47  1  0  0  0  0
  9 10  1  0  0  0  0
  9 48  1  0  0  0  0
  9 49  1  0  0  0  0
 10 11  1  0  0  0  0
 10 12  1  0  0  0  0
 10 71  1  0  0  0  0
 11 50  1  0  0  0  0
 11 51  1  0  0  0  0
 11 52  1  0  0  0  0
 12 53  1  0  0  0  0
 12 54  1  0  0  0  0
 12 55  1  0  0  0  0
 13 14  2  0  0  0  0
 13 15  1  0  0  0  0
 15 16  1  1  0  0  0
 15 34  1  0  0  0  0
 15 17  1  0  0  0  0
 17 18  1  0  0  0  0
 17 56  1  0  0  0  0
 17 57  1  0  0  0  0
 18 19  1  1  0  0  0
 18 31  1  0  0  0  0
 18 20  1  0  0  0  0
 20 25  2  0  0  0  0
 20 21  1  0  0  0  0
 21 22  2  0  0  0  0
 21 58  1  0  0  0  0
 22 23  1  0  0  0  0
 22 59  1  0  0  0  0
 23 24  2  0  0  0  0
 23 60  1  0  0  0  0
 24 28  1  0  0  0  0
 24 25  1  0  0  0  0
 25 26  1  0  0  0  0
 26 27  2  0  0  0  0
 26 30  1  0  0  0  0
 27 28  1  0  0  0  0
 27 61  1  0  0  0  0
 28 29  1  0  0  0  0
 30 31  1  0  0  0  0
 30 62  1  0  0  0  0
 30 63  1  0  0  0  0
 31 32  1  6  0  0  0
 31 33  1  0  0  0  0
 33 34  1  0  0  0  0
 33 35  1  0  0  0  0
 34 64  1  0  0  0  0
 34 65  1  0  0  0  0
 35 36  1  0  0  0  0
 35 66  1  0  0  0  0
 35 67  1  0  0  0  0
 36 37  2  0  0  0  0
 36 68  1  0  0  0  0
 37 69  1  0  0  0  0
 37 70  1  0  0  0  0
M  CHG  1  10   1
M  END
$$$$
