ZINC03932831
 OpenBabel08292219463D

 67 71  0  0  1  0  0  0  0  0999 V2000
   -2.2154    1.1874   -1.1039 C   0  0  0  0  0  0  0  0  0  0  0  0
   -0.7522    1.6221   -1.2100 C   0  0  2  0  0  0  0  0  0  0  0  0
    0.0192    1.1219   -0.0048 C   0  0  0  0  0  0  0  0  0  0  0  0
   -0.7096    1.6297    1.2510 C   0  0  0  0  0  0  0  0  0  0  0  0
   -0.8294    3.1497    1.2473 C   0  0  1  0  0  0  0  0  0  0  0  0
    0.1718    3.5749    1.3169 H   0  0  0  0  0  0  0  0  0  0  0  0
   -1.5014    3.6599   -0.0388 C   0  0  2  0  0  0  0  0  0  0  0  0
   -2.5121    3.2598   -0.1192 H   0  0  0  0  0  0  0  0  0  0  0  0
   -0.6656    3.1726   -1.2069 C   0  0  2  0  0  0  0  0  0  0  0  0
    0.3704    3.4968   -1.1080 H   0  0  0  0  0  0  0  0  0  0  0  0
   -1.2022    3.5152   -2.6012 C   0  0  0  0  0  0  0  0  0  0  0  0
   -0.5379    2.4397   -3.5034 C   0  0  0  0  0  0  0  0  0  0  0  0
   -0.2002    1.2427   -2.5799 C   0  0  2  0  0  0  0  0  0  0  0  0
    0.8791    1.1001   -2.5259 H   0  0  0  0  0  0  0  0  0  0  0  0
   -0.8672   -0.0116   -3.0827 C   0  0  0  0  0  0  0  0  0  0  0  0
   -1.8272    0.0658   -3.8198 O   0  0  0  0  0  0  0  0  0  0  0  0
   -0.3970   -1.2194   -2.7131 N   0  0  0  0  0  0  0  0  0  0  0  0
   -0.9413   -2.3823   -3.2694 C   0  0  0  0  0  0  0  0  0  0  0  0
   -1.5560   -2.3365   -4.5141 C   0  0  0  0  0  0  0  0  0  0  0  0
   -2.0870   -3.4870   -5.0629 C   0  0  0  0  0  0  0  0  0  0  0  0
   -2.0179   -4.6816   -4.3693 C   0  0  0  0  0  0  0  0  0  0  0  0
   -1.4114   -4.7294   -3.1277 C   0  0  0  0  0  0  0  0  0  0  0  0
   -0.8731   -3.5832   -2.5758 C   0  0  0  0  0  0  0  0  0  0  0  0
   -0.2122   -3.6362   -1.2225 C   0  0  0  0  0  0  0  0  0  0  0  0
   -0.2673   -4.9435   -0.7275 F   0  0  0  0  0  0  0  0  0  0  0  0
    1.1238   -3.2380   -1.3401 F   0  0  0  0  0  0  0  0  0  0  0  0
   -0.8795   -2.7763   -0.3436 F   0  0  0  0  0  0  0  0  0  0  0  0
   -2.7491   -3.4395   -6.4159 C   0  0  0  0  0  0  0  0  0  0  0  0
   -3.2119   -4.7158   -6.7537 F   0  0  0  0  0  0  0  0  0  0  0  0
   -3.8265   -2.5480   -6.3767 F   0  0  0  0  0  0  0  0  0  0  0  0
   -1.8234   -3.0106   -7.3731 F   0  0  0  0  0  0  0  0  0  0  0  0
   -1.5536    5.1870   -0.0177 C   0  0  0  0  0  0  0  0  0  0  0  0
   -2.3515    5.6620    1.2008 C   0  0  0  0  0  0  0  0  0  0  0  0
   -1.6762    5.1472    2.4705 C   0  0  2  0  0  0  0  0  0  0  0  0
   -0.6534    5.5219    2.5102 H   0  0  0  0  0  0  0  0  0  0  0  0
   -1.6517    3.6173    2.4458 C   0  0  2  0  0  0  0  0  0  0  0  0
   -1.0490    3.1105    3.7285 C   0  0  0  0  0  0  0  0  0  0  0  0
   -1.3295    3.7518    4.8659 C   0  0  0  0  0  0  0  0  0  0  0  0
   -2.2261    4.9215    4.8255 C   0  0  0  0  0  0  0  0  0  0  0  0
   -2.8282    5.2670    5.8241 O   0  0  0  0  0  0  0  0  0  0  0  0
   -2.3846    5.6062    3.6636 N   0  0  0  0  0  0  0  0  0  0  0  0
   -3.0820    3.0900    2.3153 C   0  0  0  0  0  0  0  0  0  0  0  0
   -2.6282    1.5298   -0.1549 H   0  0  0  0  0  0  0  0  0  0  0  0
   -2.7842    1.6225   -1.9256 H   0  0  0  0  0  0  0  0  0  0  0  0
   -2.2761    0.1003   -1.1555 H   0  0  0  0  0  0  0  0  0  0  0  0
    0.0417    0.0321   -0.0051 H   0  0  0  0  0  0  0  0  0  0  0  0
    1.0362    1.5135   -0.0270 H   0  0  0  0  0  0  0  0  0  0  0  0
   -1.7083    1.1944    1.2842 H   0  0  0  0  0  0  0  0  0  0  0  0
   -0.1556    1.3166    2.1359 H   0  0  0  0  0  0  0  0  0  0  0  0
   -0.8893    4.5158   -2.8996 H   0  0  0  0  0  0  0  0  0  0  0  0
   -2.2881    3.4251   -2.6293 H   0  0  0  0  0  0  0  0  0  0  0  0
    0.3738    2.8369   -3.9496 H   0  0  0  0  0  0  0  0  0  0  0  0
   -1.2311    2.1261   -4.2839 H   0  0  0  0  0  0  0  0  0  0  0  0
    0.3187   -1.2826   -2.0614 H   0  0  0  0  0  0  0  0  0  0  0  0
   -1.6148   -1.4030   -5.0539 H   0  0  0  0  0  0  0  0  0  0  0  0
   -2.4383   -5.5790   -4.7985 H   0  0  0  0  0  0  0  0  0  0  0  0
   -1.3587   -5.6638   -2.5888 H   0  0  0  0  0  0  0  0  0  0  0  0
   -0.5398    5.5836    0.0360 H   0  0  0  0  0  0  0  0  0  0  0  0
   -2.0353    5.5458   -0.9273 H   0  0  0  0  0  0  0  0  0  0  0  0
   -2.3772    6.7516    1.2177 H   0  0  0  0  0  0  0  0  0  0  0  0
   -3.3686    5.2741    1.1444 H   0  0  0  0  0  0  0  0  0  0  0  0
   -0.4021    2.2456    3.7291 H   0  0  0  0  0  0  0  0  0  0  0  0
   -0.9060    3.4181    5.8017 H   0  0  0  0  0  0  0  0  0  0  0  0
   -2.9479    6.3949    3.6256 H   0  0  0  0  0  0  0  0  0  0  0  0
   -3.5237    3.4626    1.3911 H   0  0  0  0  0  0  0  0  0  0  0  0
   -3.0673    2.0003    2.2975 H   0  0  0  0  0  0  0  0  0  0  0  0
   -3.6741    3.4316    3.1644 H   0  0  0  0  0  0  0  0  0  0  0  0
  1 43  1  0  0  0  0
  1 44  1  0  0  0  0
  1 45  1  0  0  0  0
  2  1  1  1  0  0  0
  2  9  1  0  0  0  0
  2 13  1  0  0  0  0
  2  3  1  0  0  0  0
  3  4  1  0  0  0  0
  3 46  1  0  0  0  0
  3 47  1  0  0  0  0
  4  5  1  0  0  0  0
  4 48  1  0  0  0  0
  4 49  1  0  0  0  0
  5  6  1  1  0  0  0
  5 36  1  0  0  0  0
  5  7  1  0  0  0  0
  7  8  1  6  0  0  0
  7  9  1  0  0  0  0
  7 32  1  0  0  0  0
  9 10  1  1  0  0  0
  9 11  1  0  0  0  0
 11 12  1  0  0  0  0
 11 50  1  0  0  0  0
 11 51  1  0  0  0  0
 12 13  1  0  0  0  0
 12 52  1  0  0  0  0
 12 53  1  0  0  0  0
 13 14  1  1  0  0  0
 13 15  1  0  0  0  0
 15 16  2  0  0  0  0
 15 17  1  0  0  0  0
 17 18  1  0  0  0  0
 17 54  1  0  0  0  0
 18 23  2  0  0  0  0
 18 19  1  0  0  0  0
 19 20  2  0  0  0  0
 19 55  1  0  0  0  0
 20 21  1  0  0  0  0
 20 28  1  0  0  0  0
 21 22  2  0  0  0  0
 21 56  1  0  0  0  0
 22 23  1  0  0  0  0
 22 57  1  0  0  0  0
 23 24  1  0  0  0  0
 24 25  1  0  0  0  0
 24 26  1  0  0  0  0
 24 27  1  0  0  0  0
 28 29  1  0  0  0  0
 28 30  1  0  0  0  0
 28 31  1  0  0  0  0
 32 33  1  0  0  0  0
 32 58  1  0  0  0  0
 32 59  1  0  0  0  0
 33 34  1  0  0  0  0
 33 60  1  0  0  0  0
 33 61  1  0  0  0  0
 34 35  1  1  0  0  0
 34 41  1  0  0  0  0
 34 36  1  0  0  0  0
 36 37  1  0  0  0  0
 36 42  1  6  0  0  0
 37 38  2  0  0  0  0
 37 62  1  0  0  0  0
 38 39  1  0  0  0  0
 38 63  1  0  0  0  0
 39 40  2  0  0  0  0
 39 41  1  0  0  0  0
 41 64  1  0  0  0  0
 42 65  1  0  0  0  0
 42 66  1  0  0  0  0
 42 67  1  0  0  0  0
M  END
$$$$
