ZINC43450326
 OpenBabel08292219463D

 78 82  0  0  1  0  0  0  0  0999 V2000
   -0.0187    1.5258    0.0104 C   0  0  0  0  0  0  0  0  0  0  0  0
    0.0021   -0.0041    0.0020 C   0  0  0  0  0  0  0  0  0  0  0  0
    0.7421   -0.5109    1.2415 C   0  0  0  0  0  0  0  0  0  0  0  0
   -1.4333   -0.5336    0.0129 C   0  0  0  0  0  0  0  0  0  0  0  0
   -1.4133   -2.0590    0.1302 C   0  0  0  0  0  0  0  0  0  0  0  0
   -2.8486   -2.5886    0.1411 C   0  0  0  0  0  0  0  0  0  0  0  0
   -2.8286   -4.1140    0.2584 C   0  0  2  0  0  0  0  0  0  0  0  0
   -1.9704   -4.7006   -0.8642 C   0  0  0  0  0  0  0  0  0  0  0  0
   -2.0496   -6.2049   -0.8232 C   0  0  0  0  0  0  0  0  0  0  0  0
   -2.7233   -6.7518    0.0176 O   0  0  0  0  0  0  0  0  0  0  0  0
   -1.3716   -6.9374   -1.7208 O   0  0  0  0  0  0  0  0  0  0  0  0
   -1.4925   -8.3579   -1.6231 C   0  0  0  0  0  0  0  0  0  0  0  0
   -4.2344   -4.6450    0.1458 C   0  0  0  0  0  0  0  0  0  0  0  0
   -5.0764   -4.0062   -0.4400 O   0  0  0  0  0  0  0  0  0  0  0  0
   -4.5513   -5.8275    0.6962 O   0  0  0  0  0  0  0  0  0  0  0  0
   -5.9025   -6.2695    0.5509 C   0  0  1  0  0  0  0  0  0  0  0  0
   -6.3333   -5.8774   -0.3704 H   0  0  0  0  0  0  0  0  0  0  0  0
   -5.9695   -7.8133    0.5636 C   0  0  2  0  0  0  0  0  0  0  0  0
   -5.1284   -8.2400    1.1100 H   0  0  0  0  0  0  0  0  0  0  0  0
   -6.0234   -8.3413   -0.8426 C   0  0  0  0  0  0  0  0  0  0  0  0
   -5.5909   -7.4985   -1.8660 C   0  0  0  0  0  0  0  0  0  0  0  0
   -5.6150   -7.9892   -3.1607 C   0  0  0  0  0  0  0  0  0  0  0  0
   -6.0605   -9.2936   -3.4259 C   0  0  0  0  0  0  0  0  0  0  0  0
   -6.4961  -10.1187   -2.4036 C   0  0  0  0  0  0  0  0  0  0  0  0
   -6.4803   -9.6143   -1.0999 C   0  0  0  0  0  0  0  0  0  0  0  0
   -7.0189  -10.5258   -0.0232 C   0  0  0  0  0  0  0  0  0  0  0  0
   -6.3811  -10.2642    1.3355 C   0  0  0  0  0  0  0  0  0  0  0  0
   -7.2155   -9.2849    2.0732 N   0  0  1  0  0  0  0  0  0  0  0  0
   -7.2897   -8.0502    1.3056 C   0  0  2  0  0  0  0  0  0  0  0  0
   -8.4731   -8.2521    0.3465 C   0  0  0  0  0  0  0  0  0  0  0  0
   -9.4810   -8.9763    1.2847 C   0  0  0  0  0  0  0  0  0  0  0  0
   -8.5905   -9.8451    2.1467 C   0  0  0  0  0  0  0  0  0  0  0  0
   -7.4945   -6.8335    2.1624 C   0  0  0  0  0  0  0  0  0  0  0  0
   -6.7296   -5.8424    1.7448 C   0  0  0  0  0  0  0  0  0  0  0  0
   -6.6871   -4.6094    2.3091 O   0  0  0  0  0  0  0  0  0  0  0  0
   -7.5390   -4.3807    3.4334 C   0  0  0  0  0  0  0  0  0  0  0  0
   -5.9730   -9.5206   -4.7566 O   0  0  0  0  0  0  0  0  0  0  0  0
   -5.8468   -8.2174   -5.3628 C   0  0  0  0  0  0  0  0  0  0  0  0
   -5.2588   -7.4040   -4.3262 O   0  0  0  0  0  0  0  0  0  0  0  0
   -2.2784   -4.4872    1.5233 O   0  0  0  0  0  0  0  0  0  0  0  0
    0.6709   -0.4649   -1.1737 O   0  0  0  0  0  0  0  0  0  0  0  0
    1.0039    1.9031    0.0027 H   0  0  0  0  0  0  0  0  0  0  0  0
   -0.5459    1.8868   -0.8726 H   0  0  0  0  0  0  0  0  0  0  0  0
   -0.5289    1.8773    0.9072 H   0  0  0  0  0  0  0  0  0  0  0  0
    0.2319   -0.1594    2.1383 H   0  0  0  0  0  0  0  0  0  0  0  0
    0.7568   -1.6008    1.2356 H   0  0  0  0  0  0  0  0  0  0  0  0
    1.7647   -0.1336    1.2338 H   0  0  0  0  0  0  0  0  0  0  0  0
   -1.9701   -0.1109    0.8621 H   0  0  0  0  0  0  0  0  0  0  0  0
   -1.9334   -0.2470   -0.9122 H   0  0  0  0  0  0  0  0  0  0  0  0
   -0.8764   -2.4817   -0.7190 H   0  0  0  0  0  0  0  0  0  0  0  0
   -0.9132   -2.3457    1.0553 H   0  0  0  0  0  0  0  0  0  0  0  0
   -3.3855   -2.1659    0.9903 H   0  0  0  0  0  0  0  0  0  0  0  0
   -3.3487   -2.3019   -0.7840 H   0  0  0  0  0  0  0  0  0  0  0  0
   -2.3373   -4.3435   -1.8264 H   0  0  0  0  0  0  0  0  0  0  0  0
   -0.9348   -4.3875   -0.7313 H   0  0  0  0  0  0  0  0  0  0  0  0
   -0.8964   -8.8279   -2.4053 H   0  0  0  0  0  0  0  0  0  0  0  0
   -1.1354   -8.6867   -0.6471 H   0  0  0  0  0  0  0  0  0  0  0  0
   -2.5379   -8.6427   -1.7423 H   0  0  0  0  0  0  0  0  0  0  0  0
   -5.2488   -6.4959   -1.6558 H   0  0  0  0  0  0  0  0  0  0  0  0
   -6.8378  -11.1228   -2.6071 H   0  0  0  0  0  0  0  0  0  0  0  0
   -8.0957  -10.3775    0.0583 H   0  0  0  0  0  0  0  0  0  0  0  0
   -6.8281  -11.5603   -0.3090 H   0  0  0  0  0  0  0  0  0  0  0  0
   -6.3264  -11.1957    1.8991 H   0  0  0  0  0  0  0  0  0  0  0  0
   -5.3787   -9.8591    1.1968 H   0  0  0  0  0  0  0  0  0  0  0  0
   -8.8702   -7.2965    0.0041 H   0  0  0  0  0  0  0  0  0  0  0  0
   -8.1941   -8.8851   -0.4959 H   0  0  0  0  0  0  0  0  0  0  0  0
  -10.0341   -8.2545    1.8857 H   0  0  0  0  0  0  0  0  0  0  0  0
  -10.1631   -9.6008    0.7077 H   0  0  0  0  0  0  0  0  0  0  0  0
   -8.5905  -10.8752    1.7903 H   0  0  0  0  0  0  0  0  0  0  0  0
   -8.9520   -9.8064    3.1743 H   0  0  0  0  0  0  0  0  0  0  0  0
   -8.1733   -6.7767    3.0005 H   0  0  0  0  0  0  0  0  0  0  0  0
   -8.5775   -4.5325    3.1392 H   0  0  0  0  0  0  0  0  0  0  0  0
   -7.2819   -5.0772    4.2316 H   0  0  0  0  0  0  0  0  0  0  0  0
   -7.4072   -3.3582    3.7871 H   0  0  0  0  0  0  0  0  0  0  0  0
   -5.1901   -8.2623   -6.2316 H   0  0  0  0  0  0  0  0  0  0  0  0
   -6.8264   -7.8300   -5.6428 H   0  0  0  0  0  0  0  0  0  0  0  0
   -2.7728   -4.1491    2.2825 H   0  0  0  0  0  0  0  0  0  0  0  0
    1.5879   -0.1667   -1.2470 H   0  0  0  0  0  0  0  0  0  0  0  0
  1  2  1  0  0  0  0
  1 42  1  0  0  0  0
  1 43  1  0  0  0  0
  1 44  1  0  0  0  0
  2  3  1  0  0  0  0
  2  4  1  0  0  0  0
  2 41  1  0  0  0  0
  3 45  1  0  0  0  0
  3 46  1  0  0  0  0
  3 47  1  0  0  0  0
  4  5  1  0  0  0  0
  4 48  1  0  0  0  0
  4 49  1  0  0  0  0
  5  6  1  0  0  0  0
  5 50  1  0  0  0  0
  5 51  1  0  0  0  0
  6  7  1  0  0  0  0
  6 52  1  0  0  0  0
  6 53  1  0  0  0  0
  7  8  1  0  0  0  0
  7 13  1  6  0  0  0
  7 40  1  0  0  0  0
  8  9  1  0  0  0  0
  8 54  1  0  0  0  0
  8 55  1  0  0  0  0
  9 10  2  0  0  0  0
  9 11  1  0  0  0  0
 11 12  1  0  0  0  0
 12 56  1  0  0  0  0
 12 57  1  0  0  0  0
 12 58  1  0  0  0  0
 13 14  2  0  0  0  0
 13 15  1  0  0  0  0
 15 16  1  0  0  0  0
 16 17  1  6  0  0  0
 16 34  1  0  0  0  0
 16 18  1  0  0  0  0
 18 19  1  1  0  0  0
 18 29  1  0  0  0  0
 18 20  1  0  0  0  0
 20 25  2  0  0  0  0
 20 21  1  0  0  0  0
 21 22  2  0  0  0  0
 21 59  1  0  0  0  0
 22 39  1  0  0  0  0
 22 23  1  0  0  0  0
 23 24  2  0  0  0  0
 23 37  1  0  0  0  0
 24 25  1  0  0  0  0
 24 60  1  0  0  0  0
 25 26  1  0  0  0  0
 26 27  1  0  0  0  0
 26 61  1  0  0  0  0
 26 62  1  0  0  0  0
 27 63  1  0  0  0  0
 27 64  1  0  0  0  0
 28 27  1  6  0  0  0
 28 32  1  0  0  0  0
 28 29  1  0  0  0  0
 29 30  1  0  0  0  0
 29 33  1  1  0  0  0
 30 31  1  0  0  0  0
 30 65  1  0  0  0  0
 30 66  1  0  0  0  0
 31 32  1  0  0  0  0
 31 67  1  0  0  0  0
 31 68  1  0  0  0  0
 32 69  1  0  0  0  0
 32 70  1  0  0  0  0
 33 34  2  0  0  0  0
 33 71  1  0  0  0  0
 34 35  1  0  0  0  0
 35 36  1  0  0  0  0
 36 72  1  0  0  0  0
 36 73  1  0  0  0  0
 36 74  1  0  0  0  0
 37 38  1  0  0  0  0
 38 39  1  0  0  0  0
 38 75  1  0  0  0  0
 38 76  1  0  0  0  0
 40 77  1  0  0  0  0
 41 78  1  0  0  0  0
M  END
$$$$
