ZINC03831552
 OpenBabel08292219463D

 54 56  0  0  1  0  0  0  0  0999 V2000
   -1.4316   -0.4914    0.0006 C   0  0  0  0  0  0  0  0  0  0  0  0
    0.0352   -0.0579    0.0406 C   0  0  0  0  0  0  0  0  0  0  0  0
    0.7720   -0.6393   -1.1676 C   0  0  1  0  0  0  0  0  0  0  0  0
    1.7862   -0.2447   -1.1074 H   0  0  0  0  0  0  0  0  0  0  0  0
    0.8802   -2.1281   -0.9231 C   0  0  0  0  0  0  0  0  0  0  0  0
    1.4924   -2.4426    0.2632 C   0  0  0  0  0  0  0  0  0  0  0  0
    1.6582   -3.7779    0.6150 C   0  0  0  0  0  0  0  0  0  0  0  0
    1.2063   -4.7891   -0.2315 C   0  0  0  0  0  0  0  0  0  0  0  0
    0.5889   -4.4742   -1.4289 C   0  0  0  0  0  0  0  0  0  0  0  0
    0.4226   -3.1361   -1.7805 C   0  0  0  0  0  0  0  0  0  0  0  0
   -0.2511   -2.9582   -3.0821 C   0  0  0  0  0  0  0  0  0  0  0  0
   -0.5579   -1.8414   -3.7002 N   0  0  0  0  0  0  0  0  0  0  0  0
   -0.3906   -0.6091   -3.4073 N   0  0  0  0  0  0  0  0  0  0  0  0
    0.1418   -0.0085   -2.3948 C   0  0  0  0  0  0  0  0  0  0  0  0
    0.1368    1.4978   -2.4396 C   0  0  0  0  0  0  0  0  0  0  0  0
   -0.6298   -4.2021   -3.7822 C   0  0  0  0  0  0  0  0  0  0  0  0
   -1.9171   -4.7246   -3.6344 C   0  0  0  0  0  0  0  0  0  0  0  0
   -2.2689   -5.8857   -4.2885 C   0  0  0  0  0  0  0  0  0  0  0  0
   -1.3466   -6.5388   -5.0944 C   0  0  0  0  0  0  0  0  0  0  0  0
   -0.0605   -6.0234   -5.2459 C   0  0  0  0  0  0  0  0  0  0  0  0
    0.2967   -4.8561   -4.5984 C   0  0  0  0  0  0  0  0  0  0  0  0
    0.8409   -6.6659   -6.0359 O   0  0  0  0  0  0  0  0  0  0  0  0
    2.1403   -6.0815   -6.1455 C   0  0  0  0  0  0  0  0  0  0  0  0
   -1.6981   -7.6833   -5.7367 O   0  0  0  0  0  0  0  0  0  0  0  0
   -3.0318   -8.1559   -5.5369 C   0  0  0  0  0  0  0  0  0  0  0  0
    1.3736   -6.0919    0.1212 O   0  0  0  0  0  0  0  0  0  0  0  0
    0.8877   -7.0785   -0.7912 C   0  0  0  0  0  0  0  0  0  0  0  0
    2.2636   -4.0982    1.7885 O   0  0  0  0  0  0  0  0  0  0  0  0
    2.7034   -3.0138    2.6087 C   0  0  0  0  0  0  0  0  0  0  0  0
   -1.9165   -0.0524   -0.8714 H   0  0  0  0  0  0  0  0  0  0  0  0
   -1.4878   -1.5782   -0.0612 H   0  0  0  0  0  0  0  0  0  0  0  0
   -1.9355   -0.1523    0.9057 H   0  0  0  0  0  0  0  0  0  0  0  0
    0.0934    1.0302    0.0126 H   0  0  0  0  0  0  0  0  0  0  0  0
    0.4970   -0.4230    0.9580 H   0  0  0  0  0  0  0  0  0  0  0  0
    1.8432   -1.6594    0.9189 H   0  0  0  0  0  0  0  0  0  0  0  0
    0.2392   -5.2578   -2.0848 H   0  0  0  0  0  0  0  0  0  0  0  0
    1.0884    1.8526   -2.8354 H   0  0  0  0  0  0  0  0  0  0  0  0
   -0.6743    1.8395   -3.0826 H   0  0  0  0  0  0  0  0  0  0  0  0
   -0.0072    1.8907   -1.4331 H   0  0  0  0  0  0  0  0  0  0  0  0
   -2.6365   -4.2188   -3.0074 H   0  0  0  0  0  0  0  0  0  0  0  0
   -3.2644   -6.2885   -4.1735 H   0  0  0  0  0  0  0  0  0  0  0  0
    1.2913   -4.4529   -4.7190 H   0  0  0  0  0  0  0  0  0  0  0  0
    2.0530   -5.0765   -6.5584 H   0  0  0  0  0  0  0  0  0  0  0  0
    2.6000   -6.0301   -5.1586 H   0  0  0  0  0  0  0  0  0  0  0  0
    2.7590   -6.6920   -6.8032 H   0  0  0  0  0  0  0  0  0  0  0  0
   -3.7399   -7.4001   -5.8766 H   0  0  0  0  0  0  0  0  0  0  0  0
   -3.1807   -9.0745   -6.1045 H   0  0  0  0  0  0  0  0  0  0  0  0
   -3.1922   -8.3537   -4.4770 H   0  0  0  0  0  0  0  0  0  0  0  0
   -0.1855   -6.9481   -0.9298 H   0  0  0  0  0  0  0  0  0  0  0  0
    1.3941   -6.9674   -1.7500 H   0  0  0  0  0  0  0  0  0  0  0  0
    1.0841   -8.0727   -0.3897 H   0  0  0  0  0  0  0  0  0  0  0  0
    3.4285   -2.4135    2.0593 H   0  0  0  0  0  0  0  0  0  0  0  0
    1.8490   -2.3936    2.8797 H   0  0  0  0  0  0  0  0  0  0  0  0
    3.1680   -3.4073    3.5128 H   0  0  0  0  0  0  0  0  0  0  0  0
  1  2  1  0  0  0  0
  1 30  1  0  0  0  0
  1 31  1  0  0  0  0
  1 32  1  0  0  0  0
  2  3  1  0  0  0  0
  2 33  1  0  0  0  0
  2 34  1  0  0  0  0
  3  4  1  1  0  0  0
  3 14  1  0  0  0  0
  3  5  1  0  0  0  0
  5 10  2  0  0  0  0
  5  6  1  0  0  0  0
  6  7  2  0  0  0  0
  6 35  1  0  0  0  0
  7  8  1  0  0  0  0
  7 28  1  0  0  0  0
  8  9  2  0  0  0  0
  8 26  1  0  0  0  0
  9 10  1  0  0  0  0
  9 36  1  0  0  0  0
 10 11  1  0  0  0  0
 11 12  2  0  0  0  0
 11 16  1  0  0  0  0
 12 13  1  0  0  0  0
 13 14  2  0  0  0  0
 14 15  1  0  0  0  0
 15 37  1  0  0  0  0
 15 38  1  0  0  0  0
 15 39  1  0  0  0  0
 16 21  2  0  0  0  0
 16 17  1  0  0  0  0
 17 18  2  0  0  0  0
 17 40  1  0  0  0  0
 18 19  1  0  0  0  0
 18 41  1  0  0  0  0
 19 20  2  0  0  0  0
 19 24  1  0  0  0  0
 20 21  1  0  0  0  0
 20 22  1  0  0  0  0
 21 42  1  0  0  0  0
 22 23  1  0  0  0  0
 23 43  1  0  0  0  0
 23 44  1  0  0  0  0
 23 45  1  0  0  0  0
 24 25  1  0  0  0  0
 25 46  1  0  0  0  0
 25 47  1  0  0  0  0
 25 48  1  0  0  0  0
 26 27  1  0  0  0  0
 27 49  1  0  0  0  0
 27 50  1  0  0  0  0
 27 51  1  0  0  0  0
 28 29  1  0  0  0  0
 29 52  1  0  0  0  0
 29 53  1  0  0  0  0
 29 54  1  0  0  0  0
M  END
$$$$
