ZINC03830445
 OpenBabel08292219463D

 57 60  0  0  1  0  0  0  0  0999 V2000
    1.8921    1.0293   -1.4680 C   0  0  0  0  0  0  0  0  0  0  0  0
   -0.4297    0.9166   -0.7903 C   0  0  0  0  0  0  0  0  0  0  0  0
    1.3252    0.7635    0.8709 C   0  0  0  0  0  0  0  0  0  0  0  0
    0.4391    1.3195    1.9874 C   0  0  0  0  0  0  0  0  0  0  0  0
    0.8414    0.7328    3.2681 N   0  0  0  0  0  0  0  0  0  0  0  0
    0.3672   -0.3999    3.8385 C   0  0  0  0  0  0  0  0  0  0  0  0
    1.0052   -0.5551    4.9784 N   0  0  0  0  0  0  0  0  0  0  0  0
    1.8369    0.4059    5.1627 N   0  0  0  0  0  0  0  0  0  0  0  0
    1.7981    1.2285    4.1711 N   0  0  0  0  0  0  0  0  0  0  0  0
   -0.8684   -1.4674    3.1766 S   0  0  0  0  0  0  0  0  0  0  0  0
   -0.9415   -2.7140    4.4868 C   0  0  0  0  0  0  0  0  0  0  0  0
   -1.9634   -3.7616    4.1270 C   0  0  0  0  0  0  0  0  0  0  0  0
   -1.5387   -4.7378    3.3376 C   0  0  0  0  0  0  0  0  0  0  0  0
   -2.3980   -5.7902    2.9920 N   0  0  0  0  0  0  0  0  0  0  0  0
   -3.8829   -5.8115    3.0853 C   0  0  1  0  0  0  0  0  0  0  0  0
   -4.3996   -5.3221    2.2597 H   0  0  0  0  0  0  0  0  0  0  0  0
   -3.8465   -7.3269    3.0136 C   0  0  1  0  0  0  0  0  0  0  0  0
   -4.4352   -7.7530    2.2013 H   0  0  0  0  0  0  0  0  0  0  0  0
   -2.3970   -7.0782    2.6691 C   0  0  0  0  0  0  0  0  0  0  0  0
   -1.5270   -7.8078    2.2424 O   0  0  0  0  0  0  0  0  0  0  0  0
   -4.0558   -7.9981    4.2989 N   0  0  0  0  0  0  0  0  0  0  0  0
   -4.5419   -9.2547    4.3316 C   0  0  0  0  0  0  0  0  0  0  0  0
   -4.8060   -9.8299    3.2970 O   0  0  0  0  0  0  0  0  0  0  0  0
   -4.7572   -9.9452    5.6537 C   0  0  0  0  0  0  0  0  0  0  0  0
   -5.3035  -11.3292    5.4145 C   0  0  0  0  0  0  0  0  0  0  0  0
   -4.6819  -12.4175    5.9279 C   0  0  0  0  0  0  0  0  0  0  0  0
   -5.7493  -13.7214    5.3336 S   0  0  0  0  0  0  0  0  0  0  0  0
   -6.8836  -12.7166    4.4856 C   0  0  0  0  0  0  0  0  0  0  0  0
   -6.4016  -11.5081    4.7044 N   0  0  0  0  0  0  0  0  0  0  0  0
   -8.0097  -13.0884    3.7681 N   0  0  0  0  0  0  0  0  0  0  0  0
   -4.2887   -5.1112    4.7213 S   0  0  0  0  0  0  0  0  0  0  0  0
   -3.3291   -3.5653    4.7006 C   0  0  0  0  0  0  0  0  0  0  0  0
   -0.1566   -4.7193    2.8253 C   0  0  0  0  0  0  0  0  0  0  0  0
    0.2777   -5.6756    2.2142 O   0  0  0  0  0  0  0  0  0  0  0  0
    1.9564   -0.0526   -1.5841 H   0  0  0  0  0  0  0  0  0  0  0  0
    1.5692    1.4769   -2.4079 H   0  0  0  0  0  0  0  0  0  0  0  0
    2.8706    1.4242   -1.1947 H   0  0  0  0  0  0  0  0  0  0  0  0
   -1.1391    1.2297   -0.0242 H   0  0  0  0  0  0  0  0  0  0  0  0
   -0.7033    1.3667   -1.7446 H   0  0  0  0  0  0  0  0  0  0  0  0
   -0.4495   -0.1693   -0.8818 H   0  0  0  0  0  0  0  0  0  0  0  0
    1.2147   -0.3199    0.8249 H   0  0  0  0  0  0  0  0  0  0  0  0
    2.3662    1.0142    1.0744 H   0  0  0  0  0  0  0  0  0  0  0  0
    0.5495    2.4029    2.0334 H   0  0  0  0  0  0  0  0  0  0  0  0
   -0.6020    1.0688    1.7839 H   0  0  0  0  0  0  0  0  0  0  0  0
    0.0362   -3.1830    4.5970 H   0  0  0  0  0  0  0  0  0  0  0  0
   -1.2241   -2.2381    5.4258 H   0  0  0  0  0  0  0  0  0  0  0  0
   -3.8445   -7.5381    5.1263 H   0  0  0  0  0  0  0  0  0  0  0  0
   -3.8083  -10.0160    6.1854 H   0  0  0  0  0  0  0  0  0  0  0  0
   -5.4667   -9.3728    6.2512 H   0  0  0  0  0  0  0  0  0  0  0  0
   -3.7881  -12.4799    6.5308 H   0  0  0  0  0  0  0  0  0  0  0  0
   -8.2495  -14.0253    3.6929 H   0  0  0  0  0  0  0  0  0  0  0  0
   -8.5581  -12.4117    3.3411 H   0  0  0  0  0  0  0  0  0  0  0  0
   -3.2349   -3.1930    5.7207 H   0  0  0  0  0  0  0  0  0  0  0  0
   -3.8616   -2.8255    4.1029 H   0  0  0  0  0  0  0  0  0  0  0  0
    0.9213    1.3803   -0.4101 N   0  3  0  0  0  0  0  0  0  0  0  0
    0.9045    2.4008   -0.2983 H   0  0  0  0  0  0  0  0  0  0  0  0
    0.6254   -3.6418    3.0347 O   0  0  0  0  0  1  0  0  0  0  0  0
  1 35  1  0  0  0  0
  1 36  1  0  0  0  0
  1 37  1  0  0  0  0
  1 55  1  0  0  0  0
  2 38  1  0  0  0  0
  2 39  1  0  0  0  0
  2 40  1  0  0  0  0
  2 55  1  0  0  0  0
  3  4  1  0  0  0  0
  3 41  1  0  0  0  0
  3 42  1  0  0  0  0
  3 55  1  0  0  0  0
  4  5  1  0  0  0  0
  4 43  1  0  0  0  0
  4 44  1  0  0  0  0
  5  9  1  0  0  0  0
  5  6  1  0  0  0  0
  6  7  2  0  0  0  0
  6 10  1  0  0  0  0
  7  8  1  0  0  0  0
  8  9  2  0  0  0  0
 10 11  1  0  0  0  0
 11 12  1  0  0  0  0
 11 45  1  0  0  0  0
 11 46  1  0  0  0  0
 12 32  1  0  0  0  0
 12 13  2  0  0  0  0
 13 14  1  0  0  0  0
 13 33  1  0  0  0  0
 14 19  1  0  0  0  0
 14 15  1  0  0  0  0
 15 16  1  6  0  0  0
 15 17  1  0  0  0  0
 15 31  1  0  0  0  0
 17 18  1  6  0  0  0
 17 19  1  0  0  0  0
 17 21  1  0  0  0  0
 19 20  2  0  0  0  0
 21 22  1  0  0  0  0
 21 47  1  0  0  0  0
 22 23  2  0  0  0  0
 22 24  1  0  0  0  0
 24 25  1  0  0  0  0
 24 48  1  0  0  0  0
 24 49  1  0  0  0  0
 25 29  1  0  0  0  0
 25 26  2  0  0  0  0
 26 27  1  0  0  0  0
 26 50  1  0  0  0  0
 27 28  1  0  0  0  0
 28 29  2  0  0  0  0
 28 30  1  0  0  0  0
 30 51  1  0  0  0  0
 30 52  1  0  0  0  0
 31 32  1  0  0  0  0
 32 53  1  0  0  0  0
 32 54  1  0  0  0  0
 33 34  2  0  0  0  0
 33 57  1  0  0  0  0
 55 56  1  0  0  0  0
M  CHG  1  55   1
M  END
$$$$
