ZINC01530860
 OpenBabel08292219463D

 50 51  0  0  1  0  0  0  0  0999 V2000
    0.0823    1.4510   -0.2163 C   0  0  0  0  0  0  0  0  0  0  0  0
    0.0237   -0.0664   -0.0289 C   0  0  0  0  0  0  0  0  0  0  0  0
   -1.3740   -0.4850    0.1418 N   0  3  0  0  0  0  0  0  0  0  0  0
   -2.1159   -0.2330   -1.1009 C   0  0  0  0  0  0  0  0  0  0  0  0
   -3.5996   -0.5332   -0.8788 C   0  0  0  0  0  0  0  0  0  0  0  0
   -1.4206   -1.9189    0.4577 C   0  0  0  0  0  0  0  0  0  0  0  0
   -0.7562   -2.1642    1.8139 C   0  0  0  0  0  0  0  0  0  0  0  0
   -0.8047   -3.6576    2.1429 C   0  0  0  0  0  0  0  0  0  0  0  0
   -0.1402   -3.9029    3.4991 C   0  0  1  0  0  0  0  0  0  0  0  0
   -0.6138   -3.2758    4.2544 H   0  0  0  0  0  0  0  0  0  0  0  0
   -0.2985   -5.3747    3.8858 C   0  0  0  0  0  0  0  0  0  0  0  0
    1.2841   -3.5713    3.4121 N   0  0  0  0  0  0  0  0  0  0  0  0
    1.9824   -3.2088    4.5537 C   0  0  0  0  0  0  0  0  0  0  0  0
    1.3560   -3.1586    5.7895 C   0  0  0  0  0  0  0  0  0  0  0  0
    2.0821   -2.7926    6.9140 C   0  0  0  0  0  0  0  0  0  0  0  0
    3.3577   -2.4886    6.8466 N   0  0  0  0  0  0  0  0  0  0  0  0
    4.0259   -2.5152    5.6879 C   0  0  0  0  0  3  0  0  0  0  0  0
    3.3585   -2.8841    4.4953 C   0  0  0  0  0  0  0  0  0  0  0  0
    4.0649   -2.9157    3.2847 C   0  0  0  0  0  0  0  0  0  0  0  0
    5.3889   -2.5961    3.2686 C   0  0  0  0  0  0  0  0  0  0  0  0
    6.0512   -2.2380    4.4418 C   0  0  0  0  0  0  0  0  0  0  0  0
    5.3910   -2.1860    5.6326 C   0  0  0  0  0  0  0  0  0  0  0  0
    7.7395   -1.8382    4.3823 Cl  0  0  0  0  0  0  0  0  0  0  0  0
    1.1228    1.7753   -0.2311 H   0  0  0  0  0  0  0  0  0  0  0  0
   -0.3953    1.7194   -1.1586 H   0  0  0  0  0  0  0  0  0  0  0  0
   -0.4388    1.9392    0.6072 H   0  0  0  0  0  0  0  0  0  0  0  0
    0.4455   -0.5574   -0.9059 H   0  0  0  0  0  0  0  0  0  0  0  0
    0.5971   -0.3457    0.8550 H   0  0  0  0  0  0  0  0  0  0  0  0
   -1.9958    0.8109   -1.3904 H   0  0  0  0  0  0  0  0  0  0  0  0
   -1.7294   -0.8761   -1.8915 H   0  0  0  0  0  0  0  0  0  0  0  0
   -4.1656   -0.2421   -1.7637 H   0  0  0  0  0  0  0  0  0  0  0  0
   -3.7314   -1.6000   -0.6980 H   0  0  0  0  0  0  0  0  0  0  0  0
   -3.9590    0.0285   -0.0166 H   0  0  0  0  0  0  0  0  0  0  0  0
   -2.4588   -2.2488    0.4968 H   0  0  0  0  0  0  0  0  0  0  0  0
   -0.8905   -2.4782   -0.3132 H   0  0  0  0  0  0  0  0  0  0  0  0
    0.2820   -1.8343    1.7748 H   0  0  0  0  0  0  0  0  0  0  0  0
   -1.2864   -1.6049    2.5847 H   0  0  0  0  0  0  0  0  0  0  0  0
   -1.8428   -3.9875    2.1820 H   0  0  0  0  0  0  0  0  0  0  0  0
   -0.2745   -4.2169    1.3720 H   0  0  0  0  0  0  0  0  0  0  0  0
    0.1751   -6.0018    3.1304 H   0  0  0  0  0  0  0  0  0  0  0  0
    0.1749   -5.5495    4.8519 H   0  0  0  0  0  0  0  0  0  0  0  0
   -1.3582   -5.6215    3.9505 H   0  0  0  0  0  0  0  0  0  0  0  0
    1.7386   -3.6053    2.5558 H   0  0  0  0  0  0  0  0  0  0  0  0
    0.3076   -3.4029    5.8765 H   0  0  0  0  0  0  0  0  0  0  0  0
    1.5839   -2.7565    7.8715 H   0  0  0  0  0  0  0  0  0  0  0  0
    3.5620   -3.1923    2.3699 H   0  0  0  0  0  0  0  0  0  0  0  0
    5.9323   -2.6207    2.3356 H   0  0  0  0  0  0  0  0  0  0  0  0
    5.9179   -1.9061    6.5327 H   0  0  0  0  0  0  0  0  0  0  0  0
   -1.7925    0.0392    0.8955 H   0  0  0  0  0  0  0  0  0  0  0  0
    3.8273   -2.2380    7.6575 H   0  0  0  0  0  0  0  0  0  0  0  0
  1  2  1  0  0  0  0
  1 24  1  0  0  0  0
  1 25  1  0  0  0  0
  1 26  1  0  0  0  0
  2  3  1  0  0  0  0
  2 27  1  0  0  0  0
  2 28  1  0  0  0  0
  3  4  1  0  0  0  0
  3  6  1  0  0  0  0
  3 49  1  0  0  0  0
  4  5  1  0  0  0  0
  4 29  1  0  0  0  0
  4 30  1  0  0  0  0
  5 31  1  0  0  0  0
  5 32  1  0  0  0  0
  5 33  1  0  0  0  0
  6  7  1  0  0  0  0
  6 34  1  0  0  0  0
  6 35  1  0  0  0  0
  7  8  1  0  0  0  0
  7 36  1  0  0  0  0
  7 37  1  0  0  0  0
  8  9  1  0  0  0  0
  8 38  1  0  0  0  0
  8 39  1  0  0  0  0
  9 10  1  1  0  0  0
  9 11  1  0  0  0  0
  9 12  1  0  0  0  0
 11 40  1  0  0  0  0
 11 41  1  0  0  0  0
 11 42  1  0  0  0  0
 12 13  1  0  0  0  0
 12 43  1  0  0  0  0
 13 18  2  0  0  0  0
 13 14  1  0  0  0  0
 14 15  2  0  0  0  0
 14 44  1  0  0  0  0
 15 16  1  0  0  0  0
 15 45  1  0  0  0  0
 16 17  1  0  0  0  0
 16 50  1  0  0  0  0
 17 22  1  0  0  0  0
 17 18  1  0  0  0  0
 18 19  1  0  0  0  0
 19 20  2  0  0  0  0
 19 46  1  0  0  0  0
 20 21  1  0  0  0  0
 20 47  1  0  0  0  0
 21 22  2  0  0  0  0
 21 23  1  0  0  0  0
 22 48  1  0  0  0  0
M  CHG  1   3   1
M  END
$$$$
