ZINC00537811
 OpenBabel08292219463D

 36 38  0  0  0  0  0  0  0  0999 V2000
    3.6446    5.7272   -2.4306 C   0  0  0  0  0  0  0  0  0  0  0  0
    4.3170    5.7200   -1.2215 C   0  0  0  0  0  0  0  0  0  0  0  0
    4.3129    4.5874   -0.4334 C   0  0  0  0  0  0  0  0  0  0  0  0
    3.6292    3.4483   -0.8579 C   0  0  0  0  0  0  0  0  0  0  0  0
    2.9580    3.4599   -2.0804 C   0  0  0  0  0  0  0  0  0  0  0  0
    2.9642    4.6005   -2.8569 C   0  0  0  0  0  0  0  0  0  0  0  0
    3.6208    2.2291   -0.0164 C   0  0  0  0  0  0  0  0  0  0  0  0
    4.5823    2.0800    0.8244 N   0  0  0  0  0  0  0  0  0  0  0  0
    4.6713    0.9092    1.6960 C   0  0  0  0  0  0  0  0  0  0  0  0
    4.8514   -0.3186    0.8456 C   0  0  0  0  0  0  0  0  0  0  0  0
    5.8729   -0.9642    0.9492 O   0  0  0  0  0  0  0  0  0  0  0  0
    3.9190   -0.7146   -0.0178 N   0  0  0  0  0  0  0  0  0  0  0  0
    2.6873   -0.1033   -0.1975 C   0  0  0  0  0  0  0  0  0  0  0  0
    2.5131    1.2793   -0.2052 C   0  0  0  0  0  0  0  0  0  0  0  0
    1.2284    1.8090   -0.3990 C   0  0  0  0  0  0  0  0  0  0  0  0
    0.1478    0.9748   -0.5782 C   0  0  0  0  0  0  0  0  0  0  0  0
    0.3242   -0.3997   -0.5680 C   0  0  0  0  0  0  0  0  0  0  0  0
    1.5802   -0.9338   -0.3803 C   0  0  0  0  0  0  0  0  0  0  0  0
   -1.4347    1.6449   -0.8238 Cl  0  0  0  0  0  0  0  0  0  0  0  0
    4.2171   -1.8882   -0.8425 C   0  0  0  0  0  0  0  0  0  0  0  0
    4.8929   -1.4413   -2.1403 C   0  0  0  0  0  0  0  0  0  0  0  0
    6.0821   -0.7687   -1.8392 F   0  0  0  0  0  0  0  0  0  0  0  0
    5.1776   -2.5620   -2.9278 F   0  0  0  0  0  0  0  0  0  0  0  0
    4.0371   -0.5845   -2.8407 F   0  0  0  0  0  0  0  0  0  0  0  0
    3.6507    6.6160   -3.0440 H   0  0  0  0  0  0  0  0  0  0  0  0
    4.8464    6.6025   -0.8940 H   0  0  0  0  0  0  0  0  0  0  0  0
    4.8378    4.5831    0.5105 H   0  0  0  0  0  0  0  0  0  0  0  0
    2.4305    2.5794   -2.4165 H   0  0  0  0  0  0  0  0  0  0  0  0
    2.4406    4.6124   -3.8013 H   0  0  0  0  0  0  0  0  0  0  0  0
    3.7551    0.8179    2.2795 H   0  0  0  0  0  0  0  0  0  0  0  0
    5.5229    1.0160    2.3680 H   0  0  0  0  0  0  0  0  0  0  0  0
    1.0861    2.8796   -0.4082 H   0  0  0  0  0  0  0  0  0  0  0  0
   -0.5243   -1.0532   -0.7072 H   0  0  0  0  0  0  0  0  0  0  0  0
    1.7095   -2.0060   -0.3741 H   0  0  0  0  0  0  0  0  0  0  0  0
    4.8840   -2.5558   -0.2968 H   0  0  0  0  0  0  0  0  0  0  0  0
    3.2906   -2.4123   -1.0771 H   0  0  0  0  0  0  0  0  0  0  0  0
  1  6  2  0  0  0  0
  1  2  1  0  0  0  0
  1 25  1  0  0  0  0
  2  3  2  0  0  0  0
  2 26  1  0  0  0  0
  3  4  1  0  0  0  0
  3 27  1  0  0  0  0
  4  5  2  0  0  0  0
  4  7  1  0  0  0  0
  5  6  1  0  0  0  0
  5 28  1  0  0  0  0
  6 29  1  0  0  0  0
  7 14  1  0  0  0  0
  7  8  2  0  0  0  0
  8  9  1  0  0  0  0
  9 10  1  0  0  0  0
  9 30  1  0  0  0  0
  9 31  1  0  0  0  0
 10 11  2  0  0  0  0
 10 12  1  0  0  0  0
 12 13  1  0  0  0  0
 12 20  1  0  0  0  0
 13 18  2  0  0  0  0
 13 14  1  0  0  0  0
 14 15  2  0  0  0  0
 15 16  1  0  0  0  0
 15 32  1  0  0  0  0
 16 17  2  0  0  0  0
 16 19  1  0  0  0  0
 17 18  1  0  0  0  0
 17 33  1  0  0  0  0
 18 34  1  0  0  0  0
 20 21  1  0  0  0  0
 20 35  1  0  0  0  0
 20 36  1  0  0  0  0
 21 22  1  0  0  0  0
 21 23  1  0  0  0  0
 21 24  1  0  0  0  0
M  END
$$$$
