ZINC00621853
 OpenBabel08292219463D

 54 56  0  0  1  0  0  0  0  0999 V2000
   -0.0284    1.4293   -0.4778 C   0  0  0  0  0  0  0  0  0  0  0  0
   -0.0129   -0.0745   -0.3804 C   0  0  0  0  0  0  0  0  0  0  0  0
    1.0419   -0.6727   -0.4014 O   0  0  0  0  0  0  0  0  0  0  0  0
   -1.1713   -0.7546   -0.2699 N   0  0  0  0  0  0  0  0  0  0  0  0
   -1.1562   -2.2164   -0.1752 C   0  0  1  0  0  0  0  0  0  0  0  0
   -0.2762   -2.5266    0.3883 H   0  0  0  0  0  0  0  0  0  0  0  0
   -2.3999   -2.6766    0.5586 C   0  0  0  0  0  0  0  0  0  0  0  0
   -2.6213   -4.1756    0.3776 C   0  0  0  0  0  0  0  0  0  0  0  0
   -1.3153   -4.9067    0.5534 C   0  0  0  0  0  0  0  0  0  0  0  0
   -1.0582   -5.5960    1.7202 C   0  0  0  0  0  0  0  0  0  0  0  0
    0.1423   -6.2778    1.8745 C   0  0  0  0  0  0  0  0  0  0  0  0
    1.0898   -6.2717    0.8565 C   0  0  0  0  0  0  0  0  0  0  0  0
    0.8389   -5.5766   -0.3193 C   0  0  0  0  0  0  0  0  0  0  0  0
   -0.3691   -4.8877   -0.4655 C   0  0  0  0  0  0  0  0  0  0  0  0
   -0.6334   -4.1159   -1.7162 C   0  0  0  0  0  0  0  0  0  0  0  0
   -1.0800   -2.8009   -1.5711 C   0  0  0  0  0  0  0  0  0  0  0  0
   -1.4567   -1.9931   -2.5770 C   0  0  0  0  0  0  0  0  0  0  0  0
   -1.4974   -2.1542   -3.9332 C   0  0  0  0  0  0  0  0  0  0  0  0
   -1.9764   -1.2222   -4.5653 O   0  0  0  0  0  0  0  0  0  0  0  0
   -1.0654   -3.2383   -4.6895 C   0  0  0  0  0  0  0  0  0  0  0  0
   -0.5761   -4.4044   -4.1889 C   0  0  0  0  0  0  0  0  0  0  0  0
   -0.4083   -4.7668   -2.9017 C   0  0  0  0  0  0  0  0  0  0  0  0
   -1.1385   -3.1234   -6.0380 O   0  0  0  0  0  0  0  0  0  0  0  0
   -0.6931   -4.2409   -6.8094 C   0  0  0  0  0  0  0  0  0  0  0  0
    1.7595   -5.5657   -1.3188 O   0  0  0  0  0  0  0  0  0  0  0  0
    2.8002   -4.5904   -1.2317 C   0  0  0  0  0  0  0  0  0  0  0  0
    2.2617   -6.9458    1.0126 O   0  0  0  0  0  0  0  0  0  0  0  0
    2.2856   -8.3114    0.5923 C   0  0  0  0  0  0  0  0  0  0  0  0
    0.3920   -6.9547    3.0264 O   0  0  0  0  0  0  0  0  0  0  0  0
   -0.6230   -6.9211    4.0317 C   0  0  0  0  0  0  0  0  0  0  0  0
    0.9938    1.7986   -0.5602 H   0  0  0  0  0  0  0  0  0  0  0  0
   -0.5957    1.7305   -1.3585 H   0  0  0  0  0  0  0  0  0  0  0  0
   -0.4946    1.8464    0.4148 H   0  0  0  0  0  0  0  0  0  0  0  0
   -2.0149   -0.2761   -0.2531 H   0  0  0  0  0  0  0  0  0  0  0  0
   -2.2905   -2.4569    1.6206 H   0  0  0  0  0  0  0  0  0  0  0  0
   -3.2642   -2.1380    0.1701 H   0  0  0  0  0  0  0  0  0  0  0  0
   -3.3373   -4.5286    1.1197 H   0  0  0  0  0  0  0  0  0  0  0  0
   -3.0121   -4.3664   -0.6219 H   0  0  0  0  0  0  0  0  0  0  0  0
   -1.7902   -5.6054    2.5142 H   0  0  0  0  0  0  0  0  0  0  0  0
   -1.7954   -1.0220   -2.2473 H   0  0  0  0  0  0  0  0  0  0  0  0
   -0.2789   -5.1392   -4.9226 H   0  0  0  0  0  0  0  0  0  0  0  0
   -0.0246   -5.7689   -2.7793 H   0  0  0  0  0  0  0  0  0  0  0  0
   -1.2900   -5.1174   -6.5574 H   0  0  0  0  0  0  0  0  0  0  0  0
   -0.8052   -4.0177   -7.8704 H   0  0  0  0  0  0  0  0  0  0  0  0
    0.3557   -4.4397   -6.5888 H   0  0  0  0  0  0  0  0  0  0  0  0
    3.4194   -4.7966   -0.3586 H   0  0  0  0  0  0  0  0  0  0  0  0
    3.4145   -4.6331   -2.1311 H   0  0  0  0  0  0  0  0  0  0  0  0
    2.3606   -3.5973   -1.1389 H   0  0  0  0  0  0  0  0  0  0  0  0
    1.9730   -8.3763   -0.4499 H   0  0  0  0  0  0  0  0  0  0  0  0
    3.2970   -8.7050    0.6934 H   0  0  0  0  0  0  0  0  0  0  0  0
    1.6051   -8.8945    1.2127 H   0  0  0  0  0  0  0  0  0  0  0  0
   -1.5429   -7.3495    3.6338 H   0  0  0  0  0  0  0  0  0  0  0  0
   -0.2973   -7.4993    4.8964 H   0  0  0  0  0  0  0  0  0  0  0  0
   -0.8031   -5.8888    4.3318 H   0  0  0  0  0  0  0  0  0  0  0  0
  1  2  1  0  0  0  0
  1 31  1  0  0  0  0
  1 32  1  0  0  0  0
  1 33  1  0  0  0  0
  2  3  2  0  0  0  0
  2  4  1  0  0  0  0
  4  5  1  0  0  0  0
  4 34  1  0  0  0  0
  5  6  1  1  0  0  0
  5 16  1  0  0  0  0
  5  7  1  0  0  0  0
  7  8  1  0  0  0  0
  7 35  1  0  0  0  0
  7 36  1  0  0  0  0
  8  9  1  0  0  0  0
  8 37  1  0  0  0  0
  8 38  1  0  0  0  0
  9 14  2  0  0  0  0
  9 10  1  0  0  0  0
 10 11  2  0  0  0  0
 10 39  1  0  0  0  0
 11 12  1  0  0  0  0
 11 29  1  0  0  0  0
 12 13  2  0  0  0  0
 12 27  1  0  0  0  0
 13 14  1  0  0  0  0
 13 25  1  0  0  0  0
 14 15  1  0  0  0  0
 15 22  2  0  0  0  0
 15 16  1  0  0  0  0
 16 17  2  0  0  0  0
 17 18  1  0  0  0  0
 17 40  1  0  0  0  0
 18 19  2  0  0  0  0
 18 20  1  0  0  0  0
 20 21  2  0  0  0  0
 20 23  1  0  0  0  0
 21 22  1  0  0  0  0
 21 41  1  0  0  0  0
 22 42  1  0  0  0  0
 23 24  1  0  0  0  0
 24 43  1  0  0  0  0
 24 44  1  0  0  0  0
 24 45  1  0  0  0  0
 25 26  1  0  0  0  0
 26 46  1  0  0  0  0
 26 47  1  0  0  0  0
 26 48  1  0  0  0  0
 27 28  1  0  0  0  0
 28 49  1  0  0  0  0
 28 50  1  0  0  0  0
 28 51  1  0  0  0  0
 29 30  1  0  0  0  0
 30 52  1  0  0  0  0
 30 53  1  0  0  0  0
 30 54  1  0  0  0  0
M  END
$$$$
