ZINC02016052
 OpenBabel08292219463D

 10 10  0  0  1  0  0  0  0  0999 V2000
   -0.0173    1.4248    0.0099 C   0  0  0  0  0  0  0  0  0  0  0  0
    1.2859    0.6234   -0.0069 C   0  0  1  0  0  0  0  0  0  0  0  0
    1.8737    0.5904    0.9105 H   0  0  0  0  0  0  0  0  0  0  0  0
    0.0021   -0.0041    0.0020 O   0  0  0  0  0  0  0  0  0  0  0  0
    2.0869    0.5921   -1.3101 C   0  0  0  0  0  0  0  0  0  0  0  0
    3.6396   -0.2839   -1.0403 Cl  0  0  0  0  0  0  0  0  0  0  0  0
   -0.2948    1.9239    0.9383 H   0  0  0  0  0  0  0  0  0  0  0  0
   -0.3124    1.9338   -0.9077 H   0  0  0  0  0  0  0  0  0  0  0  0
    1.5094    0.0794   -2.0793 H   0  0  0  0  0  0  0  0  0  0  0  0
    2.2965    1.6121   -1.6323 H   0  0  0  0  0  0  0  0  0  0  0  0
  1  4  1  0  0  0  0
  1  2  1  0  0  0  0
  1  7  1  0  0  0  0
  1  8  1  0  0  0  0
  2  3  1  1  0  0  0
  2  4  1  0  0  0  0
  2  5  1  0  0  0  0
  5  6  1  0  0  0  0
  5  9  1  0  0  0  0
  5 10  1  0  0  0  0
M  END
$$$$
