ZINC34142546
 OpenBabel08292219463D

 53 56  0  0  1  0  0  0  0  0999 V2000
   -0.2726    1.4979   -0.0956 C   0  0  0  0  0  0  0  0  0  0  0  0
    0.0021   -0.0041    0.0020 C   0  0  0  0  0  0  0  0  0  0  0  0
    0.6052   -0.4980   -1.3120 C   0  0  2  0  0  0  0  0  0  0  0  0
   -0.0465    0.1552   -2.5022 C   0  0  0  0  0  0  0  0  0  0  0  0
   -1.4165   -0.4620   -2.8024 C   0  0  0  0  0  0  0  0  0  0  0  0
   -1.8710   -1.4617   -1.7557 C   0  0  2  0  0  0  0  0  0  0  0  0
   -2.0969   -0.9513   -0.8179 H   0  0  0  0  0  0  0  0  0  0  0  0
   -0.8418   -2.5655   -1.5203 C   0  0  1  0  0  0  0  0  0  0  0  0
   -0.9051   -3.2628   -2.3807 H   0  0  0  0  0  0  0  0  0  0  0  0
    0.5538   -2.0332   -1.4607 C   0  0  2  0  0  0  0  0  0  0  0  0
    1.0708   -2.3081   -2.4061 H   0  0  0  0  0  0  0  0  0  0  0  0
    1.4467   -2.4957   -0.3014 C   0  0  0  0  0  0  0  0  0  0  0  0
    2.6066   -1.4617   -0.3187 C   0  0  0  0  0  0  0  0  0  0  0  0
    2.1303   -0.2822   -1.2034 C   0  0  2  0  0  0  0  0  0  0  0  0
    2.4079    1.0018   -0.5479 C   0  0  0  0  0  0  0  0  0  0  0  0
    2.6299    2.0285   -0.0237 C   0  0  0  0  0  0  0  0  0  0  0  0
    2.7323   -0.3433   -2.4919 O   0  0  0  0  0  0  0  0  0  0  0  0
   -1.2471   -3.3592   -0.2771 C   0  0  0  0  0  0  0  0  0  0  0  0
   -2.5587   -4.0906   -0.5865 C   0  0  0  0  0  0  0  0  0  0  0  0
   -3.5851   -3.0991   -1.1023 C   0  0  0  0  0  0  0  0  0  0  0  0
   -4.7904   -3.1203   -0.5468 C   0  0  0  0  0  0  0  0  0  0  0  0
   -5.8492   -2.2121   -1.0152 C   0  0  0  0  0  0  0  0  0  0  0  0
   -6.9126   -1.9834   -0.3112 N   0  0  0  0  0  0  0  0  0  0  0  0
   -7.0791   -2.6147    0.9453 O   0  0  0  0  0  0  0  0  0  0  0  0
   -5.6506   -1.5799   -2.3786 C   0  0  0  0  0  0  0  0  0  0  0  0
   -4.2207   -1.0532   -2.4542 C   0  0  0  0  0  0  0  0  0  0  0  0
   -3.1919   -2.1344   -2.1839 C   0  0  1  0  0  0  0  0  0  0  0  0
   -3.0077   -2.6865   -3.0983 H   0  0  0  0  0  0  0  0  0  0  0  0
    0.6067    2.0028   -0.4957 H   0  0  0  0  0  0  0  0  0  0  0  0
   -1.1223    1.6697   -0.7564 H   0  0  0  0  0  0  0  0  0  0  0  0
   -0.4979    1.8913    0.8956 H   0  0  0  0  0  0  0  0  0  0  0  0
    0.7012   -0.1934    0.8165 H   0  0  0  0  0  0  0  0  0  0  0  0
   -0.9317   -0.5324    0.1945 H   0  0  0  0  0  0  0  0  0  0  0  0
   -0.1663    1.2313   -2.3132 H   0  0  0  0  0  0  0  0  0  0  0  0
    0.5986    0.0481   -3.3854 H   0  0  0  0  0  0  0  0  0  0  0  0
   -2.1596    0.3428   -2.8817 H   0  0  0  0  0  0  0  0  0  0  0  0
   -1.3765   -0.9609   -3.7809 H   0  0  0  0  0  0  0  0  0  0  0  0
    0.9174   -2.4753    0.6467 H   0  0  0  0  0  0  0  0  0  0  0  0
    1.8336   -3.4988   -0.4972 H   0  0  0  0  0  0  0  0  0  0  0  0
    2.8105   -1.1130    0.6930 H   0  0  0  0  0  0  0  0  0  0  0  0
    3.5013   -1.9119   -0.7473 H   0  0  0  0  0  0  0  0  0  0  0  0
    2.8284    2.9469    0.4451 H   0  0  0  0  0  0  0  0  0  0  0  0
    3.6906   -0.2144   -2.4848 H   0  0  0  0  0  0  0  0  0  0  0  0
   -0.4740   -4.0896   -0.0404 H   0  0  0  0  0  0  0  0  0  0  0  0
   -1.3932   -2.6858    0.5641 H   0  0  0  0  0  0  0  0  0  0  0  0
   -2.3766   -4.8514   -1.3467 H   0  0  0  0  0  0  0  0  0  0  0  0
   -2.9322   -4.5658    0.3199 H   0  0  0  0  0  0  0  0  0  0  0  0
   -4.9955   -3.8118    0.2597 H   0  0  0  0  0  0  0  0  0  0  0  0
   -7.9026   -2.3827    1.3960 H   0  0  0  0  0  0  0  0  0  0  0  0
   -5.8140   -2.3260   -3.1579 H   0  0  0  0  0  0  0  0  0  0  0  0
   -6.3558   -0.7570   -2.5089 H   0  0  0  0  0  0  0  0  0  0  0  0
   -4.0490   -0.6443   -3.4521 H   0  0  0  0  0  0  0  0  0  0  0  0
   -4.0967   -0.2528   -1.7237 H   0  0  0  0  0  0  0  0  0  0  0  0
  1  2  1  0  0  0  0
  1 29  1  0  0  0  0
  1 30  1  0  0  0  0
  1 31  1  0  0  0  0
  2 32  1  0  0  0  0
  2 33  1  0  0  0  0
  3  2  1  1  0  0  0
  3 10  1  0  0  0  0
  3 14  1  0  0  0  0
  3  4  1  0  0  0  0
  4  5  1  0  0  0  0
  4 34  1  0  0  0  0
  4 35  1  0  0  0  0
  5  6  1  0  0  0  0
  5 36  1  0  0  0  0
  5 37  1  0  0  0  0
  6  7  1  1  0  0  0
  6 27  1  0  0  0  0
  6  8  1  0  0  0  0
  8  9  1  6  0  0  0
  8 10  1  0  0  0  0
  8 18  1  0  0  0  0
 10 11  1  6  0  0  0
 10 12  1  0  0  0  0
 12 13  1  0  0  0  0
 12 38  1  0  0  0  0
 12 39  1  0  0  0  0
 13 14  1  0  0  0  0
 13 40  1  0  0  0  0
 13 41  1  0  0  0  0
 14 15  1  1  0  0  0
 14 17  1  0  0  0  0
 15 16  3  0  0  0  0
 16 42  1  0  0  0  0
 17 43  1  0  0  0  0
 18 19  1  0  0  0  0
 18 44  1  0  0  0  0
 18 45  1  0  0  0  0
 19 20  1  0  0  0  0
 19 46  1  0  0  0  0
 19 47  1  0  0  0  0
 20 27  1  0  0  0  0
 20 21  2  0  0  0  0
 21 22  1  0  0  0  0
 21 48  1  0  0  0  0
 22 23  2  0  0  0  0
 22 25  1  0  0  0  0
 23 24  1  0  0  0  0
 24 49  1  0  0  0  0
 25 26  1  0  0  0  0
 25 50  1  0  0  0  0
 25 51  1  0  0  0  0
 26 27  1  0  0  0  0
 26 52  1  0  0  0  0
 26 53  1  0  0  0  0
 27 28  1  6  0  0  0
M  END
$$$$
