ZINC12495062
 OpenBabel08292219463D

 56 57  0  0  1  0  0  0  0  0999 V2000
   -2.0188    6.4286  -13.4386 C   0  0  0  0  0  0  0  0  0  0  0  0
   -3.0628    6.2617  -12.3327 C   0  0  0  0  0  0  0  0  0  0  0  0
   -2.4171    6.5449  -10.9748 C   0  0  0  0  0  0  0  0  0  0  0  0
   -3.4612    6.3781   -9.8689 C   0  0  0  0  0  0  0  0  0  0  0  0
   -2.8154    6.6613   -8.5110 C   0  0  0  0  0  0  0  0  0  0  0  0
   -3.8595    6.4944   -7.4051 C   0  0  1  0  0  0  0  0  0  0  0  0
   -4.3076    5.5033   -7.4750 H   0  0  0  0  0  0  0  0  0  0  0  0
   -3.1969    6.6525   -6.0608 C   0  0  0  0  0  0  0  0  0  0  0  0
   -3.6517    7.5350   -5.2062 C   0  0  0  0  0  0  0  0  0  0  0  0
   -2.9891    7.6931   -3.8619 C   0  0  1  0  0  0  0  0  0  0  0  0
   -2.1420    7.0120   -3.7807 H   0  0  0  0  0  0  0  0  0  0  0  0
   -2.5144    9.1588   -3.6522 C   0  0  1  0  0  0  0  0  0  0  0  0
   -2.7386    9.7441   -4.5440 H   0  0  0  0  0  0  0  0  0  0  0  0
   -3.2967    9.7140   -2.4466 C   0  0  0  0  0  0  0  0  0  0  0  0
   -3.7076    8.4670   -1.6336 C   0  0  1  0  0  0  0  0  0  0  0  0
   -4.5417    8.6341   -0.9522 H   0  0  0  0  0  0  0  0  0  0  0  0
   -4.0028    7.4040   -2.7412 C   0  0  2  0  0  0  0  0  0  0  0  0
   -5.0380    7.3989   -3.0825 H   0  0  0  0  0  0  0  0  0  0  0  0
   -3.5826    6.1033   -2.0147 C   0  0  0  0  0  0  0  0  0  0  0  0
   -2.6898    6.5786   -0.8838 C   0  0  0  0  0  0  0  0  0  0  0  0
   -2.1522    5.8138    0.0439 C   0  0  0  0  0  0  0  0  0  0  0  0
   -2.4074    4.3285    0.0370 C   0  0  0  0  0  0  0  0  0  0  0  0
   -1.0722    3.5816    0.0266 C   0  0  0  0  0  0  0  0  0  0  0  0
   -1.3313    2.0738    0.0196 C   0  0  0  0  0  0  0  0  0  0  0  0
   -0.0161    1.3381    0.0094 C   0  0  0  0  0  0  0  0  0  0  0  0
    1.0219    1.9564    0.0028 O   0  0  0  0  0  0  0  0  0  0  0  0
   -2.5419    7.9286   -0.9842 O   0  0  0  0  0  0  0  0  0  0  0  0
   -1.1114    9.1943   -3.3831 O   0  0  0  0  0  0  0  0  0  0  0  0
   -4.8754    7.4881   -7.5552 O   0  0  0  0  0  0  0  0  0  0  0  0
   -1.6346    7.4485  -13.4246 H   0  0  0  0  0  0  0  0  0  0  0  0
   -1.1993    5.7293  -13.2731 H   0  0  0  0  0  0  0  0  0  0  0  0
   -2.4788    6.2268  -14.4060 H   0  0  0  0  0  0  0  0  0  0  0  0
   -3.4471    5.2418  -12.3466 H   0  0  0  0  0  0  0  0  0  0  0  0
   -3.8824    6.9610  -12.4982 H   0  0  0  0  0  0  0  0  0  0  0  0
   -2.0329    7.5649  -10.9609 H   0  0  0  0  0  0  0  0  0  0  0  0
   -1.5976    5.8456  -10.8093 H   0  0  0  0  0  0  0  0  0  0  0  0
   -3.8454    5.3582   -9.8828 H   0  0  0  0  0  0  0  0  0  0  0  0
   -4.2807    7.0774  -10.0344 H   0  0  0  0  0  0  0  0  0  0  0  0
   -2.4312    7.6812   -8.4971 H   0  0  0  0  0  0  0  0  0  0  0  0
   -1.9959    5.9620   -8.3455 H   0  0  0  0  0  0  0  0  0  0  0  0
   -2.3472    6.0382   -5.8021 H   0  0  0  0  0  0  0  0  0  0  0  0
   -4.5014    8.1493   -5.4650 H   0  0  0  0  0  0  0  0  0  0  0  0
   -4.1808   10.2548   -2.7845 H   0  0  0  0  0  0  0  0  0  0  0  0
   -2.6592   10.3643   -1.8476 H   0  0  0  0  0  0  0  0  0  0  0  0
   -3.0282    5.4515   -2.6899 H   0  0  0  0  0  0  0  0  0  0  0  0
   -4.4577    5.5880   -1.6189 H   0  0  0  0  0  0  0  0  0  0  0  0
   -1.5284    6.2509    0.8095 H   0  0  0  0  0  0  0  0  0  0  0  0
   -2.9796    4.0623   -0.8517 H   0  0  0  0  0  0  0  0  0  0  0  0
   -2.9712    4.0526    0.9282 H   0  0  0  0  0  0  0  0  0  0  0  0
   -0.5000    3.8479    0.9153 H   0  0  0  0  0  0  0  0  0  0  0  0
   -0.5085    3.8575   -0.8646 H   0  0  0  0  0  0  0  0  0  0  0  0
   -1.9035    1.8075   -0.8691 H   0  0  0  0  0  0  0  0  0  0  0  0
   -1.8950    1.7979    0.9108 H   0  0  0  0  0  0  0  0  0  0  0  0
   -0.7624   10.0833   -3.2312 H   0  0  0  0  0  0  0  0  0  0  0  0
   -4.5478    8.3965   -7.5037 H   0  0  0  0  0  0  0  0  0  0  0  0
    0.0021   -0.0041    0.0020 O   0  0  0  0  0  1  0  0  0  0  0  0
  1  2  1  0  0  0  0
  1 30  1  0  0  0  0
  1 31  1  0  0  0  0
  1 32  1  0  0  0  0
  2  3  1  0  0  0  0
  2 33  1  0  0  0  0
  2 34  1  0  0  0  0
  3  4  1  0  0  0  0
  3 35  1  0  0  0  0
  3 36  1  0  0  0  0
  4  5  1  0  0  0  0
  4 37  1  0  0  0  0
  4 38  1  0  0  0  0
  5  6  1  0  0  0  0
  5 39  1  0  0  0  0
  5 40  1  0  0  0  0
  6  7  1  6  0  0  0
  6  8  1  0  0  0  0
  6 29  1  0  0  0  0
  8  9  2  0  0  0  0
  8 41  1  0  0  0  0
  9 10  1  0  0  0  0
  9 42  1  0  0  0  0
 10 11  1  1  0  0  0
 10 17  1  0  0  0  0
 10 12  1  0  0  0  0
 12 13  1  6  0  0  0
 12 14  1  0  0  0  0
 12 28  1  0  0  0  0
 14 15  1  0  0  0  0
 14 43  1  0  0  0  0
 14 44  1  0  0  0  0
 15 16  1  1  0  0  0
 15 27  1  0  0  0  0
 15 17  1  0  0  0  0
 17 18  1  6  0  0  0
 17 19  1  0  0  0  0
 19 20  1  0  0  0  0
 19 45  1  0  0  0  0
 19 46  1  0  0  0  0
 20 21  2  0  0  0  0
 20 27  1  0  0  0  0
 21 22  1  0  0  0  0
 21 47  1  0  0  0  0
 22 23  1  0  0  0  0
 22 48  1  0  0  0  0
 22 49  1  0  0  0  0
 23 24  1  0  0  0  0
 23 50  1  0  0  0  0
 23 51  1  0  0  0  0
 24 25  1  0  0  0  0
 24 52  1  0  0  0  0
 24 53  1  0  0  0  0
 25 26  2  0  0  0  0
 25 56  1  0  0  0  0
 28 54  1  0  0  0  0
 29 55  1  0  0  0  0
M  END
$$$$
