ZINC12358719
 OpenBabel08292219463D

 23 23  0  0  0  0  0  0  0  0999 V2000
   -0.0187    1.5258    0.0104 C   0  0  0  0  0  0  0  0  0  0  0  0
    0.0021   -0.0041    0.0020 C   0  0  0  0  0  0  0  0  0  0  0  0
    0.6709   -0.4649   -1.1737 O   0  0  0  0  0  0  0  0  0  0  0  0
    0.7759   -1.7987   -1.3348 C   0  0  0  0  0  0  0  0  0  0  0  0
    0.3121   -2.5499   -0.4998 O   0  0  0  0  0  0  0  0  0  0  0  0
    1.4531   -2.3464   -2.5237 C   0  0  0  0  0  0  0  0  0  0  0  0
    1.9925   -1.4832   -3.4828 C   0  0  0  0  0  0  0  0  0  0  0  0
    2.6223   -1.9960   -4.5875 C   0  0  0  0  0  0  0  0  0  0  0  0
    2.7248   -3.3744   -4.7552 C   0  0  0  0  0  0  0  0  0  0  0  0
    2.1889   -4.2366   -3.8023 C   0  0  0  0  0  0  0  0  0  0  0  0
    1.5629   -3.7304   -2.6924 C   0  0  0  0  0  0  0  0  0  0  0  0
    3.3632   -3.8910   -5.8769 N   0  0  0  0  0  0  0  0  0  0  0  0
    1.0039    1.9031    0.0027 H   0  0  0  0  0  0  0  0  0  0  0  0
   -0.5459    1.8868   -0.8726 H   0  0  0  0  0  0  0  0  0  0  0  0
   -0.5289    1.8773    0.9072 H   0  0  0  0  0  0  0  0  0  0  0  0
    0.5293   -0.3651    0.8851 H   0  0  0  0  0  0  0  0  0  0  0  0
   -1.0205   -0.3814    0.0098 H   0  0  0  0  0  0  0  0  0  0  0  0
    1.9127   -0.4139   -3.3537 H   0  0  0  0  0  0  0  0  0  0  0  0
    3.0391   -1.3300   -5.3285 H   0  0  0  0  0  0  0  0  0  0  0  0
    2.2701   -5.3053   -3.9354 H   0  0  0  0  0  0  0  0  0  0  0  0
    1.1513   -4.3997   -1.9514 H   0  0  0  0  0  0  0  0  0  0  0  0
    3.7367   -3.2913   -6.5416 H   0  0  0  0  0  0  0  0  0  0  0  0
    3.4352   -4.8511   -5.9948 H   0  0  0  0  0  0  0  0  0  0  0  0
  1  2  1  0  0  0  0
  1 13  1  0  0  0  0
  1 14  1  0  0  0  0
  1 15  1  0  0  0  0
  2  3  1  0  0  0  0
  2 16  1  0  0  0  0
  2 17  1  0  0  0  0
  3  4  1  0  0  0  0
  4  5  2  0  0  0  0
  4  6  1  0  0  0  0
  6 11  2  0  0  0  0
  6  7  1  0  0  0  0
  7  8  2  0  0  0  0
  7 18  1  0  0  0  0
  8  9  1  0  0  0  0
  8 19  1  0  0  0  0
  9 10  2  0  0  0  0
  9 12  1  0  0  0  0
 10 11  1  0  0  0  0
 10 20  1  0  0  0  0
 11 21  1  0  0  0  0
 12 22  1  0  0  0  0
 12 23  1  0  0  0  0
M  END
$$$$
