ZINC03830441
 OpenBabel08292219463D

 51 54  0  0  1  0  0  0  0  0999 V2000
    1.6562    7.4986    2.4285 C   0  0  0  0  0  0  0  0  0  0  0  0
    0.9453    7.2457    1.1727 N   0  0  0  0  0  0  0  0  0  0  0  0
    0.7941    6.0591    0.5382 C   0  0  0  0  0  0  0  0  0  0  0  0
    0.0946    6.2899   -0.5517 N   0  0  0  0  0  0  0  0  0  0  0  0
   -0.2087    7.5349   -0.6363 N   0  0  0  0  0  0  0  0  0  0  0  0
    0.2732    8.1827    0.3686 N   0  0  0  0  0  0  0  0  0  0  0  0
    1.4226    4.5008    1.0685 S   0  0  0  0  0  0  0  0  0  0  0  0
    0.8177    3.4454   -0.2717 C   0  0  0  0  0  0  0  0  0  0  0  0
    1.2481    2.0226   -0.0239 C   0  0  0  0  0  0  0  0  0  0  0  0
    0.4259    1.2877    0.7108 C   0  0  0  0  0  0  0  0  0  0  0  0
    0.7074   -0.0616    0.9575 N   0  0  0  0  0  0  0  0  0  0  0  0
    2.0172   -0.7539    0.7988 C   0  0  1  0  0  0  0  0  0  0  0  0
    2.7072   -0.6269    1.6330 H   0  0  0  0  0  0  0  0  0  0  0  0
    1.2804   -2.0809    0.7651 C   0  0  1  0  0  0  0  0  0  0  0  0
    0.1370   -1.2227    1.2539 C   0  0  0  0  0  0  0  0  0  0  0  0
   -0.9354   -1.5001    1.7481 O   0  0  0  0  0  0  0  0  0  0  0  0
    1.0918   -2.6351   -0.5779 N   0  0  0  0  0  0  0  0  0  0  0  0
    0.4019   -1.9394   -1.5033 C   0  0  0  0  0  0  0  0  0  0  0  0
   -0.0628   -0.8544   -1.2243 O   0  0  0  0  0  0  0  0  0  0  0  0
    0.2080   -2.5095   -2.8847 C   0  0  2  0  0  0  0  0  0  0  0  0
    1.7533   -3.0659   -3.6715 S   0  0  0  0  0  0  0  0  0  0  0  0
    1.1070   -2.3594   -5.1681 C   0  0  0  0  0  0  0  0  0  0  0  0
    1.2922   -2.5869   -6.5389 C   0  0  0  0  0  0  0  0  0  0  0  0
    2.1088   -3.7126   -6.9892 C   0  0  0  0  0  0  0  0  0  0  0  0
    2.3737   -3.8383   -8.1710 O   0  0  0  0  0  0  0  0  0  0  0  0
    2.5685   -4.6114   -6.0963 N   0  0  0  0  0  0  0  0  0  0  0  0
    0.6882   -1.7262   -7.4874 C   0  0  0  0  0  0  0  0  0  0  0  0
   -0.0673   -0.8469   -7.1169 O   0  0  0  0  0  0  0  0  0  0  0  0
    0.1273   -1.2463   -4.1941 S   0  0  0  0  0  0  0  0  0  0  0  0
    1.7473   -3.0404    1.7155 O   0  0  0  0  0  0  0  0  0  0  0  0
    1.1256   -4.3219    1.6012 C   0  0  0  0  0  0  0  0  0  0  0  0
    2.6885   -0.1901   -0.8021 S   0  0  0  0  0  0  0  0  0  0  0  0
    2.5488    1.6166   -0.6375 C   0  0  0  0  0  0  0  0  0  0  0  0
   -0.7973    1.8934    1.2674 C   0  0  0  0  0  0  0  0  0  0  0  0
   -1.7304    1.1872    1.5945 O   0  0  0  0  0  0  0  0  0  0  0  0
    2.6993    7.7317    2.2149 H   0  0  0  0  0  0  0  0  0  0  0  0
    1.1941    8.3403    2.9444 H   0  0  0  0  0  0  0  0  0  0  0  0
    1.6040    6.6120    3.0604 H   0  0  0  0  0  0  0  0  0  0  0  0
    1.2303    3.7899   -1.2199 H   0  0  0  0  0  0  0  0  0  0  0  0
   -0.2706    3.4944   -0.3098 H   0  0  0  0  0  0  0  0  0  0  0  0
    1.4635   -3.5029   -0.8010 H   0  0  0  0  0  0  0  0  0  0  0  0
   -0.5972   -3.2427   -2.9324 H   0  0  0  0  0  0  0  0  0  0  0  0
    2.2926   -4.5575   -5.1679 H   0  0  0  0  0  0  0  0  0  0  0  0
    3.1752   -5.3122   -6.3820 H   0  0  0  0  0  0  0  0  0  0  0  0
    1.5342   -4.9927    2.3569 H   0  0  0  0  0  0  0  0  0  0  0  0
    0.0507   -4.2188    1.7498 H   0  0  0  0  0  0  0  0  0  0  0  0
    1.3176   -4.7317    0.6096 H   0  0  0  0  0  0  0  0  0  0  0  0
    3.3645    1.9799   -0.0124 H   0  0  0  0  0  0  0  0  0  0  0  0
    2.6304    2.0700   -1.6254 H   0  0  0  0  0  0  0  0  0  0  0  0
    0.9502   -1.8810   -8.8020 O   0  0  0  0  0  1  0  0  0  0  0  0
   -0.8806    3.2306    1.4136 O   0  0  0  0  0  1  0  0  0  0  0  0
  1  2  1  0  0  0  0
  1 36  1  0  0  0  0
  1 37  1  0  0  0  0
  1 38  1  0  0  0  0
  2  6  1  0  0  0  0
  2  3  1  0  0  0  0
  3  4  2  0  0  0  0
  3  7  1  0  0  0  0
  4  5  1  0  0  0  0
  5  6  2  0  0  0  0
  7  8  1  0  0  0  0
  8  9  1  0  0  0  0
  8 39  1  0  0  0  0
  8 40  1  0  0  0  0
  9 33  1  0  0  0  0
  9 10  2  0  0  0  0
 10 11  1  0  0  0  0
 10 34  1  0  0  0  0
 11 15  1  0  0  0  0
 11 12  1  0  0  0  0
 12 13  1  1  0  0  0
 12 14  1  0  0  0  0
 12 32  1  0  0  0  0
 14 15  1  0  0  0  0
 14 17  1  0  0  0  0
 14 30  1  1  0  0  0
 15 16  2  0  0  0  0
 17 18  1  0  0  0  0
 17 41  1  0  0  0  0
 18 19  2  0  0  0  0
 18 20  1  0  0  0  0
 20 29  1  0  0  0  0
 20 21  1  0  0  0  0
 20 42  1  6  0  0  0
 21 22  1  0  0  0  0
 22 23  2  0  0  0  0
 22 29  1  0  0  0  0
 23 24  1  0  0  0  0
 23 27  1  0  0  0  0
 24 25  2  0  0  0  0
 24 26  1  0  0  0  0
 26 43  1  0  0  0  0
 26 44  1  0  0  0  0
 27 28  2  0  0  0  0
 27 50  1  0  0  0  0
 30 31  1  0  0  0  0
 31 45  1  0  0  0  0
 31 46  1  0  0  0  0
 31 47  1  0  0  0  0
 32 33  1  0  0  0  0
 33 48  1  0  0  0  0
 33 49  1  0  0  0  0
 34 35  2  0  0  0  0
 34 51  1  0  0  0  0
M  END
$$$$
