ZINC08637880
 OpenBabel08292219463D

 51 51  0  0  0  0  0  0  0  0999 V2000
    5.8648    3.8093    6.0292 C   0  0  0  0  0  0  0  0  0  0  0  0
    7.2334    4.4375    5.9733 C   0  0  0  0  0  0  0  0  0  0  0  0
    7.3799    5.5516    5.2783 C   0  0  0  0  0  0  0  0  0  0  0  0
    8.6873    6.2734    5.1270 C   0  0  0  0  0  0  0  0  0  0  0  0
    9.6705    5.8101    6.2063 C   0  0  0  0  0  0  0  0  0  0  0  0
    9.7023    4.2769    6.2053 C   0  0  0  0  0  0  0  0  0  0  0  0
    8.3530    3.7623    6.7109 C   0  0  0  0  0  0  0  0  0  0  0  0
    9.2707    5.9813    3.7431 C   0  0  0  0  0  0  0  0  0  0  0  0
    8.4548    7.7790    5.2690 C   0  0  0  0  0  0  0  0  0  0  0  0
    6.2034    6.1096    4.6143 C   0  0  0  0  0  0  0  0  0  0  0  0
    5.5160    5.3644    3.7133 C   0  0  0  0  0  0  0  0  0  0  0  0
    4.4242    5.9260    3.0211 C   0  0  0  0  0  0  0  0  0  0  0  0
    3.7350    5.1790    2.1180 C   0  0  0  0  0  0  0  0  0  0  0  0
    4.1124    3.8431    1.8740 C   0  0  0  0  0  0  0  0  0  0  0  0
    3.4830    3.1258    0.9102 C   0  0  0  0  0  0  0  0  0  0  0  0
    2.4440    3.7516    0.0946 C   0  0  0  0  0  0  0  0  0  0  0  0
    2.6508    3.9559   -1.2088 C   0  0  0  0  0  0  0  0  0  0  0  0
    3.9043    3.4351   -1.8634 C   0  0  0  0  0  0  0  0  0  0  0  0
    3.5630    2.7572   -3.0742 O   0  0  0  0  0  0  0  0  0  0  0  0
    1.1392    4.1663    0.7245 C   0  0  0  0  0  0  0  0  0  0  0  0
    4.0206    7.3543    3.2820 C   0  0  0  0  0  0  0  0  0  0  0  0
    5.7647    3.0839    5.2218 H   0  0  0  0  0  0  0  0  0  0  0  0
    5.7346    3.3065    6.9875 H   0  0  0  0  0  0  0  0  0  0  0  0
    5.1050    4.5831    5.9188 H   0  0  0  0  0  0  0  0  0  0  0  0
    9.3444    6.1690    7.1825 H   0  0  0  0  0  0  0  0  0  0  0  0
   10.6658    6.1971    5.9878 H   0  0  0  0  0  0  0  0  0  0  0  0
   10.4976    3.9268    6.8634 H   0  0  0  0  0  0  0  0  0  0  0  0
    9.8759    3.9149    5.1920 H   0  0  0  0  0  0  0  0  0  0  0  0
    8.2623    3.9726    7.7765 H   0  0  0  0  0  0  0  0  0  0  0  0
    8.2938    2.6858    6.5507 H   0  0  0  0  0  0  0  0  0  0  0  0
    8.5753    6.3225    2.9762 H   0  0  0  0  0  0  0  0  0  0  0  0
   10.2203    6.5047    3.6313 H   0  0  0  0  0  0  0  0  0  0  0  0
    9.4322    4.9087    3.6359 H   0  0  0  0  0  0  0  0  0  0  0  0
    8.1076    7.9994    6.2784 H   0  0  0  0  0  0  0  0  0  0  0  0
    9.3881    8.3099    5.0817 H   0  0  0  0  0  0  0  0  0  0  0  0
    7.7031    8.1001    4.5479 H   0  0  0  0  0  0  0  0  0  0  0  0
    5.8816    7.1153    4.8410 H   0  0  0  0  0  0  0  0  0  0  0  0
    5.8052    4.3408    3.5264 H   0  0  0  0  0  0  0  0  0  0  0  0
    2.8984    5.6092    1.5876 H   0  0  0  0  0  0  0  0  0  0  0  0
    4.9028    3.3906    2.4545 H   0  0  0  0  0  0  0  0  0  0  0  0
    3.7495    2.0923    0.7455 H   0  0  0  0  0  0  0  0  0  0  0  0
    1.9198    4.4942   -1.7937 H   0  0  0  0  0  0  0  0  0  0  0  0
    4.4059    2.7420   -1.1880 H   0  0  0  0  0  0  0  0  0  0  0  0
    4.5697    4.2685   -2.0888 H   0  0  0  0  0  0  0  0  0  0  0  0
    4.3230    2.3950   -3.5499 H   0  0  0  0  0  0  0  0  0  0  0  0
    0.4547    3.3181    0.7344 H   0  0  0  0  0  0  0  0  0  0  0  0
    1.3191    4.5000    1.7465 H   0  0  0  0  0  0  0  0  0  0  0  0
    0.7002    4.9808    0.1483 H   0  0  0  0  0  0  0  0  0  0  0  0
    3.2891    7.3835    4.0896 H   0  0  0  0  0  0  0  0  0  0  0  0
    4.8989    7.9339    3.5663 H   0  0  0  0  0  0  0  0  0  0  0  0
    3.5820    7.7787    2.3789 H   0  0  0  0  0  0  0  0  0  0  0  0
  1  2  1  0  0  0  0
  1 22  1  0  0  0  0
  1 23  1  0  0  0  0
  1 24  1  0  0  0  0
  2  7  1  0  0  0  0
  2  3  2  0  0  0  0
  3  4  1  0  0  0  0
  3 10  1  0  0  0  0
  4  5  1  0  0  0  0
  4  8  1  0  0  0  0
  4  9  1  0  0  0  0
  5  6  1  0  0  0  0
  5 25  1  0  0  0  0
  5 26  1  0  0  0  0
  6  7  1  0  0  0  0
  6 27  1  0  0  0  0
  6 28  1  0  0  0  0
  7 29  1  0  0  0  0
  7 30  1  0  0  0  0
  8 31  1  0  0  0  0
  8 32  1  0  0  0  0
  8 33  1  0  0  0  0
  9 34  1  0  0  0  0
  9 35  1  0  0  0  0
  9 36  1  0  0  0  0
 10 11  2  0  0  0  0
 10 37  1  0  0  0  0
 11 12  1  0  0  0  0
 11 38  1  0  0  0  0
 12 13  2  0  0  0  0
 12 21  1  0  0  0  0
 13 14  1  0  0  0  0
 13 39  1  0  0  0  0
 14 15  2  0  0  0  0
 14 40  1  0  0  0  0
 15 16  1  0  0  0  0
 15 41  1  0  0  0  0
 16 17  2  0  0  0  0
 16 20  1  0  0  0  0
 17 18  1  0  0  0  0
 17 42  1  0  0  0  0
 18 19  1  0  0  0  0
 18 43  1  0  0  0  0
 18 44  1  0  0  0  0
 19 45  1  0  0  0  0
 20 46  1  0  0  0  0
 20 47  1  0  0  0  0
 20 48  1  0  0  0  0
 21 49  1  0  0  0  0
 21 50  1  0  0  0  0
 21 51  1  0  0  0  0
M  END
$$$$
