ZINC19340795
 OpenBabel08292219463D

 55 58  0  0  0  0  0  0  0  0999 V2000
    0.5788    1.4317    0.1683 C   0  0  0  0  0  0  0  0  0  0  0  0
    1.2124    0.0473    0.3195 C   0  0  0  0  0  0  0  0  0  0  0  0
    1.0720   -0.6771   -0.9042 O   0  0  0  0  0  0  0  0  0  0  0  0
    1.5806   -1.9234   -0.9387 C   0  0  0  0  0  0  0  0  0  0  0  0
    2.1288   -2.3833    0.0435 O   0  0  0  0  0  0  0  0  0  0  0  0
    1.4818   -2.6607   -2.0626 N   0  0  0  0  0  0  0  0  0  0  0  0
    2.0954   -3.9189   -2.1315 C   0  0  0  0  0  0  0  0  0  0  0  0
    2.1481   -4.7273   -1.0040 C   0  0  0  0  0  0  0  0  0  0  0  0
    2.7506   -5.9683   -1.0749 C   0  0  0  0  0  0  0  0  0  0  0  0
    3.3059   -6.4091   -2.2688 C   0  0  0  0  0  0  0  0  0  0  0  0
    3.2603   -5.6019   -3.4019 C   0  0  0  0  0  0  0  0  0  0  0  0
    2.6441   -4.3572   -3.3271 C   0  0  0  0  0  0  0  0  0  0  0  0
    3.8171   -6.0035   -4.6151 N   0  0  0  0  0  0  0  0  0  0  0  0
    4.0252   -7.3282   -4.9959 C   0  0  0  0  0  0  0  0  0  0  0  0
    4.0969   -7.6341   -6.3512 C   0  0  0  0  0  0  0  0  0  0  0  0
    4.3070   -8.9358   -6.7625 C   0  0  0  0  0  0  0  0  0  0  0  0
    4.4485   -9.9465   -5.8297 C   0  0  0  0  0  0  0  0  0  0  0  0
    4.3773   -9.6551   -4.4808 C   0  0  0  0  0  0  0  0  0  0  0  0
    4.1638   -8.3490   -4.0599 C   0  0  0  0  0  0  0  0  0  0  0  0
    4.0649   -7.9973   -2.3369 S   0  0  0  0  0  0  0  0  0  0  0  0
    4.1808   -5.0398   -5.4843 C   0  0  0  0  0  0  0  0  0  0  0  0
    3.8983   -3.8816   -5.2591 O   0  0  0  0  0  0  0  0  0  0  0  0
    4.9385   -5.4008   -6.7360 C   0  0  0  0  0  0  0  0  0  0  0  0
    5.7552   -4.1945   -7.2036 C   0  0  0  0  0  0  0  0  0  0  0  0
    6.4938   -4.5465   -8.4237 N   0  0  0  0  0  0  0  0  0  0  0  0
    7.5159   -5.5658   -8.1453 C   0  0  0  0  0  0  0  0  0  0  0  0
    8.2191   -5.9456   -9.4511 C   0  0  0  0  0  0  0  0  0  0  0  0
    8.7748   -4.7702  -10.0468 O   0  0  0  0  0  0  0  0  0  0  0  0
    7.8070   -3.7566  -10.3320 C   0  0  0  0  0  0  0  0  0  0  0  0
    7.0996   -3.3546   -9.0351 C   0  0  0  0  0  0  0  0  0  0  0  0
    1.0782    1.9742   -0.6344 H   0  0  0  0  0  0  0  0  0  0  0  0
   -0.4793    1.3229   -0.0701 H   0  0  0  0  0  0  0  0  0  0  0  0
    0.6859    1.9842    1.1018 H   0  0  0  0  0  0  0  0  0  0  0  0
    2.2704    0.1561    0.5580 H   0  0  0  0  0  0  0  0  0  0  0  0
    0.7130   -0.4952    1.1223 H   0  0  0  0  0  0  0  0  0  0  0  0
    0.9860   -2.3206   -2.8237 H   0  0  0  0  0  0  0  0  0  0  0  0
    1.7192   -4.3864   -0.0733 H   0  0  0  0  0  0  0  0  0  0  0  0
    2.7902   -6.5979   -0.1983 H   0  0  0  0  0  0  0  0  0  0  0  0
    2.5968   -3.7273   -4.2031 H   0  0  0  0  0  0  0  0  0  0  0  0
    3.9873   -6.8498   -7.0855 H   0  0  0  0  0  0  0  0  0  0  0  0
    4.3607   -9.1651   -7.8165 H   0  0  0  0  0  0  0  0  0  0  0  0
    4.6141  -10.9629   -6.1550 H   0  0  0  0  0  0  0  0  0  0  0  0
    4.4876  -10.4447   -3.7523 H   0  0  0  0  0  0  0  0  0  0  0  0
    5.6089   -6.2346   -6.5272 H   0  0  0  0  0  0  0  0  0  0  0  0
    4.2343   -5.6876   -7.5170 H   0  0  0  0  0  0  0  0  0  0  0  0
    5.0849   -3.3608   -7.4124 H   0  0  0  0  0  0  0  0  0  0  0  0
    6.4594   -3.9077   -6.4226 H   0  0  0  0  0  0  0  0  0  0  0  0
    8.2461   -5.1663   -7.4415 H   0  0  0  0  0  0  0  0  0  0  0  0
    7.0420   -6.4490   -7.7169 H   0  0  0  0  0  0  0  0  0  0  0  0
    9.0161   -6.6589   -9.2411 H   0  0  0  0  0  0  0  0  0  0  0  0
    7.4989   -6.3946  -10.1351 H   0  0  0  0  0  0  0  0  0  0  0  0
    8.3060   -2.8868  -10.7591 H   0  0  0  0  0  0  0  0  0  0  0  0
    7.0748   -4.1419  -11.0416 H   0  0  0  0  0  0  0  0  0  0  0  0
    6.3218   -2.6237   -9.2562 H   0  0  0  0  0  0  0  0  0  0  0  0
    7.8232   -2.9198   -8.3456 H   0  0  0  0  0  0  0  0  0  0  0  0
  1  2  1  0  0  0  0
  1 31  1  0  0  0  0
  1 32  1  0  0  0  0
  1 33  1  0  0  0  0
  2  3  1  0  0  0  0
  2 34  1  0  0  0  0
  2 35  1  0  0  0  0
  3  4  1  0  0  0  0
  4  5  2  0  0  0  0
  4  6  1  0  0  0  0
  6  7  1  0  0  0  0
  6 36  1  0  0  0  0
  7 12  2  0  0  0  0
  7  8  1  0  0  0  0
  8  9  2  0  0  0  0
  8 37  1  0  0  0  0
  9 10  1  0  0  0  0
  9 38  1  0  0  0  0
 10 20  1  0  0  0  0
 10 11  2  0  0  0  0
 11 12  1  0  0  0  0
 11 13  1  0  0  0  0
 12 39  1  0  0  0  0
 13 14  1  0  0  0  0
 13 21  1  0  0  0  0
 14 19  2  0  0  0  0
 14 15  1  0  0  0  0
 15 16  2  0  0  0  0
 15 40  1  0  0  0  0
 16 17  1  0  0  0  0
 16 41  1  0  0  0  0
 17 18  2  0  0  0  0
 17 42  1  0  0  0  0
 18 19  1  0  0  0  0
 18 43  1  0  0  0  0
 19 20  1  0  0  0  0
 21 22  2  0  0  0  0
 21 23  1  0  0  0  0
 23 24  1  0  0  0  0
 23 44  1  0  0  0  0
 23 45  1  0  0  0  0
 24 25  1  0  0  0  0
 24 46  1  0  0  0  0
 24 47  1  0  0  0  0
 25 30  1  0  0  0  0
 25 26  1  0  0  0  0
 26 27  1  0  0  0  0
 26 48  1  0  0  0  0
 26 49  1  0  0  0  0
 27 28  1  0  0  0  0
 27 50  1  0  0  0  0
 27 51  1  0  0  0  0
 28 29  1  0  0  0  0
 29 30  1  0  0  0  0
 29 52  1  0  0  0  0
 29 53  1  0  0  0  0
 30 54  1  0  0  0  0
 30 55  1  0  0  0  0
M  END
$$$$
