ZINC02034892
 OpenBabel08292219463D

 43 44  0  0  1  0  0  0  0  0999 V2000
   -0.0187    1.5258    0.0104 C   0  0  0  0  0  0  0  0  0  0  0  0
    0.0021   -0.0041    0.0020 C   0  0  1  0  0  0  0  0  0  0  0  0
    0.5123   -0.3556   -0.8948 H   0  0  0  0  0  0  0  0  0  0  0  0
    0.7421   -0.5109    1.2415 C   0  0  0  0  0  0  0  0  0  0  0  0
    0.8668   -1.9730    1.1737 N   0  3  0  0  0  0  0  0  0  0  0  0
    1.5773   -2.4597    2.3638 C   0  0  0  0  0  0  0  0  0  0  0  0
    3.0126   -1.9301    2.3529 C   0  0  0  0  0  0  0  0  0  0  0  0
    3.7526   -2.4369    3.5924 C   0  0  0  0  0  0  0  0  0  0  0  0
    3.7734   -3.9667    3.5840 C   0  0  0  0  0  0  0  0  0  0  0  0
    2.3380   -4.4963    3.5949 C   0  0  0  0  0  0  0  0  0  0  0  0
    1.5980   -3.9895    2.3554 C   0  0  0  0  0  0  0  0  0  0  0  0
   -1.3386   -0.4987    0.0122 O   0  0  0  0  0  0  0  0  0  0  0  0
   -1.9238   -0.7039   -1.1837 C   0  0  0  0  0  0  0  0  0  0  0  0
   -1.3128   -0.4695   -2.2071 O   0  0  0  0  0  0  0  0  0  0  0  0
   -3.3085   -1.2141   -1.2505 C   0  0  0  0  0  0  0  0  0  0  0  0
   -4.0156   -1.4793   -0.0761 C   0  0  0  0  0  0  0  0  0  0  0  0
   -5.3084   -1.9556   -0.1458 C   0  0  0  0  0  0  0  0  0  0  0  0
   -5.9044   -2.1707   -1.3758 C   0  0  0  0  0  0  0  0  0  0  0  0
   -5.2093   -1.9105   -2.5436 C   0  0  0  0  0  0  0  0  0  0  0  0
   -3.9181   -1.4280   -2.4884 C   0  0  0  0  0  0  0  0  0  0  0  0
    1.0039    1.9031    0.0027 H   0  0  0  0  0  0  0  0  0  0  0  0
   -0.5459    1.8868   -0.8726 H   0  0  0  0  0  0  0  0  0  0  0  0
   -0.5289    1.8773    0.9072 H   0  0  0  0  0  0  0  0  0  0  0  0
    1.7350   -0.0630    1.2804 H   0  0  0  0  0  0  0  0  0  0  0  0
    0.1838   -0.2350    2.1361 H   0  0  0  0  0  0  0  0  0  0  0  0
   -0.0524   -2.3877    1.1377 H   0  0  0  0  0  0  0  0  0  0  0  0
    1.0671   -2.1081    3.2606 H   0  0  0  0  0  0  0  0  0  0  0  0
    3.5228   -2.2816    1.4561 H   0  0  0  0  0  0  0  0  0  0  0  0
    2.9979   -0.8402    2.3589 H   0  0  0  0  0  0  0  0  0  0  0  0
    4.7752   -2.0596    3.5847 H   0  0  0  0  0  0  0  0  0  0  0  0
    3.2424   -2.0854    4.4892 H   0  0  0  0  0  0  0  0  0  0  0  0
    4.2836   -4.3183    2.6872 H   0  0  0  0  0  0  0  0  0  0  0  0
    4.3006   -4.3278    4.4671 H   0  0  0  0  0  0  0  0  0  0  0  0
    2.3528   -5.5862    3.5889 H   0  0  0  0  0  0  0  0  0  0  0  0
    1.8278   -4.1448    4.4917 H   0  0  0  0  0  0  0  0  0  0  0  0
    0.5754   -4.3668    2.3631 H   0  0  0  0  0  0  0  0  0  0  0  0
    2.1082   -4.3410    1.4586 H   0  0  0  0  0  0  0  0  0  0  0  0
   -3.5514   -1.3122    0.8846 H   0  0  0  0  0  0  0  0  0  0  0  0
   -5.8563   -2.1614    0.7618 H   0  0  0  0  0  0  0  0  0  0  0  0
   -6.9168   -2.5437   -1.4247 H   0  0  0  0  0  0  0  0  0  0  0  0
   -5.6802   -2.0813   -3.5004 H   0  0  0  0  0  0  0  0  0  0  0  0
   -3.3783   -1.2207   -3.4006 H   0  0  0  0  0  0  0  0  0  0  0  0
    1.3836   -2.2284    0.3456 H   0  0  0  0  0  0  0  0  0  0  0  0
  1  2  1  0  0  0  0
  1 21  1  0  0  0  0
  1 22  1  0  0  0  0
  1 23  1  0  0  0  0
  2  3  1  6  0  0  0
  2  4  1  0  0  0  0
  2 12  1  0  0  0  0
  4  5  1  0  0  0  0
  4 24  1  0  0  0  0
  4 25  1  0  0  0  0
  5  6  1  0  0  0  0
  5 26  1  0  0  0  0
  5 43  1  0  0  0  0
  6 11  1  0  0  0  0
  6  7  1  0  0  0  0
  6 27  1  0  0  0  0
  7  8  1  0  0  0  0
  7 28  1  0  0  0  0
  7 29  1  0  0  0  0
  8  9  1  0  0  0  0
  8 30  1  0  0  0  0
  8 31  1  0  0  0  0
  9 10  1  0  0  0  0
  9 32  1  0  0  0  0
  9 33  1  0  0  0  0
 10 11  1  0  0  0  0
 10 34  1  0  0  0  0
 10 35  1  0  0  0  0
 11 36  1  0  0  0  0
 11 37  1  0  0  0  0
 12 13  1  0  0  0  0
 13 14  2  0  0  0  0
 13 15  1  0  0  0  0
 15 20  2  0  0  0  0
 15 16  1  0  0  0  0
 16 17  2  0  0  0  0
 16 38  1  0  0  0  0
 17 18  1  0  0  0  0
 17 39  1  0  0  0  0
 18 19  2  0  0  0  0
 18 40  1  0  0  0  0
 19 20  1  0  0  0  0
 19 41  1  0  0  0  0
 20 42  1  0  0  0  0
M  CHG  1   5   1
M  END
$$$$
