ZINC19594585
 OpenBabel08292219463D

 14 14  0  0  1  0  0  0  0  0999 V2000
   -0.0187    1.5258    0.0104 C   0  0  0  0  0  0  0  0  0  0  0  0
    0.0021   -0.0041    0.0020 C   0  0  1  0  0  0  0  0  0  0  0  0
   -0.8731   -0.4913    0.4318 H   0  0  0  0  0  0  0  0  0  0  0  0
    0.7052   -0.7011   -1.1645 C   0  0  2  0  0  0  0  0  0  0  0  0
    0.2973   -1.6516   -1.5085 H   0  0  0  0  0  0  0  0  0  0  0  0
    1.2662   -0.6537    0.1509 O   0  0  0  0  0  0  0  0  0  0  0  0
    1.4598    0.3477   -2.4505 P   0  0  1  0  0  0  0  0  0  0  0  0
    0.3699    1.2274   -3.1026 O   0  0  0  0  0  0  0  0  0  0  0  0
    2.5370    1.2519   -1.8110 O   0  0  0  0  0  1  0  0  0  0  0  0
    2.1394   -0.5851   -3.5731 O   0  0  0  0  0  0  0  0  0  0  0  0
    1.0039    1.9031    0.0027 H   0  0  0  0  0  0  0  0  0  0  0  0
   -0.5459    1.8868   -0.8726 H   0  0  0  0  0  0  0  0  0  0  0  0
   -0.5289    1.8773    0.9072 H   0  0  0  0  0  0  0  0  0  0  0  0
    2.5615   -0.0929   -4.2906 H   0  0  0  0  0  0  0  0  0  0  0  0
  1  2  1  0  0  0  0
  1 11  1  0  0  0  0
  1 12  1  0  0  0  0
  1 13  1  0  0  0  0
  2  3  1  1  0  0  0
  2  6  1  0  0  0  0
  2  4  1  0  0  0  0
  4  5  1  6  0  0  0
  4  6  1  0  0  0  0
  4  7  1  0  0  0  0
  7  8  2  6  0  0  0
  7  9  1  0  0  0  0
  7 10  1  0  0  0  0
 10 14  1  0  0  0  0
M  END
$$$$
