ZINC85537053
 OpenBabel08292219463D

111116  0  0  1  0  0  0  0  0999 V2000
    0.2254    1.1685    0.6067 C   0  0  0  0  0  0  0  0  0  0  0  0
    0.2714   -0.3447    0.6895 C   0  0  0  0  0  0  0  0  0  0  0  0
   -0.8419   -1.0753    0.7142 C   0  0  0  0  0  0  0  0  0  0  0  0
   -2.1566   -0.3595    0.8174 C   0  0  2  0  0  0  0  0  0  0  0  0
   -2.1449    0.5009    0.1064 H   0  0  0  0  0  0  0  0  0  0  0  0
   -2.2387    0.2042    2.2207 C   0  0  0  0  0  0  0  0  0  0  0  0
   -2.4901    1.3918    2.3813 O   0  0  0  0  0  0  0  0  0  0  0  0
   -2.0315   -0.6724    3.4268 C   0  0  2  0  0  0  0  0  0  0  0  0
   -2.5595    0.0716    4.6555 C   0  0  2  0  0  0  0  0  0  0  0  0
   -3.4883    0.5693    4.3604 H   0  0  0  0  0  0  0  0  0  0  0  0
   -1.5505    1.1153    5.1139 C   0  0  0  0  0  0  0  0  0  0  0  0
   -0.3067    0.3932    5.6239 C   0  0  2  0  0  0  0  0  0  0  0  0
    0.5109    1.1157    5.7950 H   0  0  0  0  0  0  0  0  0  0  0  0
    0.1508   -0.7818    4.7824 C   0  0  2  0  0  0  0  0  0  0  0  0
   -0.6519   -1.2215    3.5763 C   0  0  1  0  0  0  0  0  0  0  0  0
   -0.0952   -0.7024    2.7723 H   0  0  0  0  0  0  0  0  0  0  0  0
   -0.4124   -2.6944    3.2566 C   0  0  1  0  0  0  0  0  0  0  0  0
   -1.2846   -3.3303    3.3464 H   0  0  0  0  0  0  0  0  0  0  0  0
    0.2495   -2.9007    1.8799 C   0  0  1  0  0  0  0  0  0  0  0  0
   -0.6596   -2.5544    0.7107 C   0  0  0  0  0  0  0  0  0  0  0  0
    0.0190   -2.9890   -0.6016 C   0  0  0  0  0  0  0  0  0  0  0  0
   -1.9445   -3.3668    0.8113 C   0  0  0  0  0  0  0  0  0  0  0  0
    1.5866   -2.1958    1.7766 C   0  0  0  0  0  0  0  0  0  0  0  0
    1.6135   -1.0309    0.7997 C   0  0  2  0  0  0  0  0  0  0  0  0
    1.9467   -1.3702   -0.1836 H   0  0  0  0  0  0  0  0  0  0  0  0
    2.5785   -0.0691    1.2637 O   0  0  0  0  0  0  0  0  0  0  0  0
    3.2329    0.6374    0.3286 C   0  0  0  0  0  0  0  0  0  0  0  0
    3.0001    0.4511   -0.8423 O   0  0  0  0  0  0  0  0  0  0  0  0
    4.2581    1.6628    0.7392 C   0  0  1  0  0  0  0  0  0  0  0  0
    3.8048    2.3732    1.4306 H   0  0  0  0  0  0  0  0  0  0  0  0
    5.4333    0.9630    1.4247 C   0  0  2  0  0  0  0  0  0  0  0  0
    5.0757    0.4330    2.3076 H   0  0  0  0  0  0  0  0  0  0  0  0
    6.4584    1.9884    1.8353 C   0  0  0  0  0  0  0  0  0  0  0  0
    7.3427    2.4943    0.9009 C   0  0  0  0  0  0  0  0  0  0  0  0
    8.2830    3.4349    1.2775 C   0  0  0  0  0  0  0  0  0  0  0  0
    8.3389    3.8700    2.5884 C   0  0  0  0  0  0  0  0  0  0  0  0
    7.4541    3.3648    3.5226 C   0  0  0  0  0  0  0  0  0  0  0  0
    6.5109    2.4273    3.1451 C   0  0  0  0  0  0  0  0  0  0  0  0
    6.0426    0.0082    0.4955 N   0  0  0  0  0  0  0  0  0  0  0  0
    6.7245   -1.0528    0.9704 C   0  0  0  0  0  0  0  0  0  0  0  0
    6.8340   -1.2176    2.1693 O   0  0  0  0  0  0  0  0  0  0  0  0
    7.2845   -1.9302    0.1164 O   0  0  0  0  0  0  0  0  0  0  0  0
    7.9925   -3.0314    0.6892 C   0  0  0  0  0  0  0  0  0  0  0  0
    7.0390   -3.8545    1.5577 C   0  0  0  0  0  0  0  0  0  0  0  0
    8.5543   -3.9131   -0.4279 C   0  0  0  0  0  0  0  0  0  0  0  0
    9.1422   -2.5058    1.5510 C   0  0  0  0  0  0  0  0  0  0  0  0
    4.7269    2.3576   -0.4182 O   0  0  0  0  0  0  0  0  0  0  0  0
    0.5191   -4.3108    1.7723 O   0  0  0  0  0  0  0  0  0  0  0  0
    0.5203   -3.2315    4.2311 O   0  0  0  0  0  0  0  0  0  0  0  0
    0.4029   -4.5388    4.5342 C   0  0  0  0  0  0  0  0  0  0  0  0
   -0.4552   -5.2117    3.9989 O   0  0  0  0  0  0  0  0  0  0  0  0
    1.3177   -5.1542    5.5174 C   0  0  0  0  0  0  0  0  0  0  0  0
    2.3015   -4.3824    6.1388 C   0  0  0  0  0  0  0  0  0  0  0  0
    3.1524   -4.9634    7.0559 C   0  0  0  0  0  0  0  0  0  0  0  0
    3.0327   -6.3078    7.3606 C   0  0  0  0  0  0  0  0  0  0  0  0
    2.0603   -7.0785    6.7483 C   0  0  0  0  0  0  0  0  0  0  0  0
    1.1987   -6.5089    5.8339 C   0  0  0  0  0  0  0  0  0  0  0  0
   -0.1447   -1.5897    6.0509 C   0  0  0  0  0  0  0  0  0  0  0  0
   -0.5274   -0.4199    6.7687 O   0  0  0  0  0  0  0  0  0  0  0  0
    1.5551   -0.7032    4.4815 O   0  0  0  0  0  0  0  0  0  0  0  0
    2.3882   -0.4909    5.5123 C   0  0  0  0  0  0  0  0  0  0  0  0
    1.9475   -0.3753    6.6314 O   0  0  0  0  0  0  0  0  0  0  0  0
    3.8733   -0.3968    5.2739 C   0  0  0  0  0  0  0  0  0  0  0  0
   -2.8417   -0.8679    5.6845 O   0  0  0  0  0  0  0  0  0  0  0  0
   -3.0503   -1.7950    3.3123 C   0  0  0  0  0  0  0  0  0  0  0  0
   -3.3077   -1.1103    0.4634 O   0  0  0  0  0  0  0  0  0  0  0  0
    1.2400    1.5653    0.6415 H   0  0  0  0  0  0  0  0  0  0  0  0
   -0.2496    1.4669   -0.3278 H   0  0  0  0  0  0  0  0  0  0  0  0
   -0.3472    1.5610    1.4470 H   0  0  0  0  0  0  0  0  0  0  0  0
   -1.2779    1.7674    4.2817 H   0  0  0  0  0  0  0  0  0  0  0  0
   -1.9766    1.7217    5.9164 H   0  0  0  0  0  0  0  0  0  0  0  0
    1.0438   -2.6182   -0.6209 H   0  0  0  0  0  0  0  0  0  0  0  0
    0.0251   -4.0771   -0.6644 H   0  0  0  0  0  0  0  0  0  0  0  0
   -0.5316   -2.5792   -1.4484 H   0  0  0  0  0  0  0  0  0  0  0  0
   -2.6954   -2.9432    0.1444 H   0  0  0  0  0  0  0  0  0  0  0  0
   -1.7449   -4.3993    0.5245 H   0  0  0  0  0  0  0  0  0  0  0  0
   -2.3125   -3.3392    1.8369 H   0  0  0  0  0  0  0  0  0  0  0  0
    1.9012   -1.8555    2.7590 H   0  0  0  0  0  0  0  0  0  0  0  0
    2.3336   -2.9351    1.4462 H   0  0  0  0  0  0  0  0  0  0  0  0
    7.2990    2.1544   -0.1233 H   0  0  0  0  0  0  0  0  0  0  0  0
    8.9743    3.8296    0.5476 H   0  0  0  0  0  0  0  0  0  0  0  0
    9.0740    4.6043    2.8828 H   0  0  0  0  0  0  0  0  0  0  0  0
    7.4979    3.7044    4.5469 H   0  0  0  0  0  0  0  0  0  0  0  0
    5.8172    2.0354    3.8741 H   0  0  0  0  0  0  0  0  0  0  0  0
    5.9552    0.1398   -0.4616 H   0  0  0  0  0  0  0  0  0  0  0  0
    6.2199   -4.2290    0.9437 H   0  0  0  0  0  0  0  0  0  0  0  0
    7.5790   -4.6945    1.9946 H   0  0  0  0  0  0  0  0  0  0  0  0
    6.6387   -3.2264    2.3536 H   0  0  0  0  0  0  0  0  0  0  0  0
    9.2336   -3.3268   -1.0467 H   0  0  0  0  0  0  0  0  0  0  0  0
    9.0943   -4.7531    0.0090 H   0  0  0  0  0  0  0  0  0  0  0  0
    7.7352   -4.2876   -1.0419 H   0  0  0  0  0  0  0  0  0  0  0  0
    8.7419   -1.8776    2.3469 H   0  0  0  0  0  0  0  0  0  0  0  0
    9.6822   -3.3457    1.9879 H   0  0  0  0  0  0  0  0  0  0  0  0
    9.8214   -1.9194    0.9322 H   0  0  0  0  0  0  0  0  0  0  0  0
    5.1431    1.7864   -1.0781 H   0  0  0  0  0  0  0  0  0  0  0  0
    1.1081   -4.6521    2.4591 H   0  0  0  0  0  0  0  0  0  0  0  0
    2.3962   -3.3330    5.9016 H   0  0  0  0  0  0  0  0  0  0  0  0
    3.9140   -4.3677    7.5370 H   0  0  0  0  0  0  0  0  0  0  0  0
    3.7015   -6.7577    8.0795 H   0  0  0  0  0  0  0  0  0  0  0  0
    1.9727   -8.1275    6.9902 H   0  0  0  0  0  0  0  0  0  0  0  0
    0.4371   -7.1105    5.3602 H   0  0  0  0  0  0  0  0  0  0  0  0
   -0.9557   -2.3137    5.9341 H   0  0  0  0  0  0  0  0  0  0  0  0
    0.7485   -2.0733    6.4677 H   0  0  0  0  0  0  0  0  0  0  0  0
    4.1447    0.6404    5.0775 H   0  0  0  0  0  0  0  0  0  0  0  0
    4.4061   -0.7510    6.1563 H   0  0  0  0  0  0  0  0  0  0  0  0
    4.1431   -1.0118    4.4153 H   0  0  0  0  0  0  0  0  0  0  0  0
   -3.1815   -0.4702    6.4979 H   0  0  0  0  0  0  0  0  0  0  0  0
   -3.1074   -2.1296    2.2765 H   0  0  0  0  0  0  0  0  0  0  0  0
   -2.7465   -2.6275    3.9469 H   0  0  0  0  0  0  0  0  0  0  0  0
   -4.0275   -1.4327    3.6314 H   0  0  0  0  0  0  0  0  0  0  0  0
   -4.1370   -0.6191    0.5413 H   0  0  0  0  0  0  0  0  0  0  0  0
  1  2  1  0  0  0  0
  1 67  1  0  0  0  0
  1 68  1  0  0  0  0
  1 69  1  0  0  0  0
  2 24  1  0  0  0  0
  2  3  2  0  0  0  0
  3 20  1  0  0  0  0
  3  4  1  0  0  0  0
  4  5  1  6  0  0  0
  4  6  1  0  0  0  0
  4 66  1  0  0  0  0
  6  7  2  0  0  0  0
  6  8  1  0  0  0  0
  8 15  1  0  0  0  0
  8  9  1  0  0  0  0
  8 65  1  6  0  0  0
  9 10  1  6  0  0  0
  9 11  1  0  0  0  0
  9 64  1  0  0  0  0
 11 12  1  0  0  0  0
 11 70  1  0  0  0  0
 11 71  1  0  0  0  0
 12 13  1  1  0  0  0
 12 59  1  0  0  0  0
 12 14  1  0  0  0  0
 14 15  1  0  0  0  0
 14 58  1  0  0  0  0
 14 60  1  6  0  0  0
 15 16  1  6  0  0  0
 15 17  1  0  0  0  0
 17 18  1  1  0  0  0
 17 19  1  0  0  0  0
 17 49  1  0  0  0  0
 19 20  1  0  0  0  0
 19 23  1  0  0  0  0
 19 48  1  6  0  0  0
 20 21  1  0  0  0  0
 20 22  1  0  0  0  0
 21 72  1  0  0  0  0
 21 73  1  0  0  0  0
 21 74  1  0  0  0  0
 22 75  1  0  0  0  0
 22 76  1  0  0  0  0
 22 77  1  0  0  0  0
 23 24  1  0  0  0  0
 23 78  1  0  0  0  0
 23 79  1  0  0  0  0
 24 25  1  6  0  0  0
 24 26  1  0  0  0  0
 26 27  1  0  0  0  0
 27 28  2  0  0  0  0
 27 29  1  0  0  0  0
 29 30  1  1  0  0  0
 29 31  1  0  0  0  0
 29 47  1  0  0  0  0
 31 32  1  1  0  0  0
 31 33  1  0  0  0  0
 31 39  1  0  0  0  0
 33 38  2  0  0  0  0
 33 34  1  0  0  0  0
 34 35  2  0  0  0  0
 34 80  1  0  0  0  0
 35 36  1  0  0  0  0
 35 81  1  0  0  0  0
 36 37  2  0  0  0  0
 36 82  1  0  0  0  0
 37 38  1  0  0  0  0
 37 83  1  0  0  0  0
 38 84  1  0  0  0  0
 39 40  1  0  0  0  0
 39 85  1  0  0  0  0
 40 41  2  0  0  0  0
 40 42  1  0  0  0  0
 42 43  1  0  0  0  0
 43 44  1  0  0  0  0
 43 45  1  0  0  0  0
 43 46  1  0  0  0  0
 44 86  1  0  0  0  0
 44 87  1  0  0  0  0
 44 88  1  0  0  0  0
 45 89  1  0  0  0  0
 45 90  1  0  0  0  0
 45 91  1  0  0  0  0
 46 92  1  0  0  0  0
 46 93  1  0  0  0  0
 46 94  1  0  0  0  0
 47 95  1  0  0  0  0
 48 96  1  0  0  0  0
 49 50  1  0  0  0  0
 50 51  2  0  0  0  0
 50 52  1  0  0  0  0
 52 57  2  0  0  0  0
 52 53  1  0  0  0  0
 53 54  2  0  0  0  0
 53 97  1  0  0  0  0
 54 55  1  0  0  0  0
 54 98  1  0  0  0  0
 55 56  2  0  0  0  0
 55 99  1  0  0  0  0
 56 57  1  0  0  0  0
 56100  1  0  0  0  0
 57101  1  0  0  0  0
 58 59  1  0  0  0  0
 58102  1  0  0  0  0
 58103  1  0  0  0  0
 60 61  1  0  0  0  0
 61 62  2  0  0  0  0
 61 63  1  0  0  0  0
 63104  1  0  0  0  0
 63105  1  0  0  0  0
 63106  1  0  0  0  0
 64107  1  0  0  0  0
 65108  1  0  0  0  0
 65109  1  0  0  0  0
 65110  1  0  0  0  0
 66111  1  0  0  0  0
M  END
$$$$
