ZINC04658603
 OpenBabel08292219463D

 10  9  0  0  0  0  0  0  0  0999 V2000
   -0.0184    1.5028    0.0103 C   0  0  0  0  0  0  0  0  0  0  0  0
    0.0021   -0.0041    0.0020 C   0  0  0  0  0  0  0  0  0  0  0  0
    0.0203   -0.6160    1.0489 O   0  0  0  0  0  0  0  0  0  0  0  0
    0.0001   -0.6716   -1.1688 N   0  0  0  0  0  0  0  0  0  0  0  0
    0.0193   -2.0875   -1.1766 O   0  0  0  0  0  0  0  0  0  0  0  0
    1.0042    1.8801    0.0026 H   0  0  0  0  0  0  0  0  0  0  0  0
   -0.5455    1.8639   -0.8728 H   0  0  0  0  0  0  0  0  0  0  0  0
   -0.5286    1.8543    0.9071 H   0  0  0  0  0  0  0  0  0  0  0  0
   -0.0145   -0.1822   -2.0061 H   0  0  0  0  0  0  0  0  0  0  0  0
    0.0162   -2.4760   -2.0621 H   0  0  0  0  0  0  0  0  0  0  0  0
  1  2  1  0  0  0  0
  1  6  1  0  0  0  0
  1  7  1  0  0  0  0
  1  8  1  0  0  0  0
  2  3  2  0  0  0  0
  2  4  1  0  0  0  0
  4  5  1  0  0  0  0
  4  9  1  0  0  0  0
  5 10  1  0  0  0  0
M  END
$$$$
