ZINC00011012
 OpenBabel08292219463D

 31 33  0  0  1  0  0  0  0  0999 V2000
   -0.0108    1.3859    0.1045 C   0  0  0  0  0  0  0  0  0  0  0  0
    1.0572    1.9318   -0.5855 C   0  0  0  0  0  0  0  0  0  0  0  0
    2.2636    1.2648   -0.6354 C   0  0  0  0  0  0  0  0  0  0  0  0
    2.4057    0.0363    0.0124 C   0  0  0  0  0  0  0  0  0  0  0  0
    1.3242   -0.5089    0.7068 C   0  0  0  0  0  0  0  0  0  0  0  0
    0.1233    0.1686    0.7487 C   0  0  0  0  0  0  0  0  0  0  0  0
    3.6960   -0.6846   -0.0373 C   0  0  0  0  0  0  0  0  0  0  0  0
    4.7355   -0.0640   -0.1633 O   0  0  0  0  0  0  0  0  0  0  0  0
    3.7231   -2.1454    0.0652 C   0  0  0  0  0  0  0  0  0  0  0  0
    2.6257   -2.9819    0.0788 C   0  0  0  0  0  0  0  0  0  0  0  0
    3.1064   -4.2872    0.1904 C   0  0  0  0  0  0  0  0  0  0  0  0
    4.4639   -4.2305    0.2434 C   0  0  0  0  0  0  0  0  0  0  0  0
    4.8529   -2.9364    0.1599 N   0  0  0  0  0  0  0  0  0  0  0  0
    6.3206   -2.8248    0.1992 C   0  0  0  0  0  0  0  0  0  0  0  0
    6.8243   -4.1741    0.7535 C   0  0  0  0  0  0  0  0  0  0  0  0
    5.6791   -5.1294    0.3606 C   0  0  2  0  0  0  0  0  0  0  0  0
    5.5212   -5.8860    1.1292 H   0  0  0  0  0  0  0  0  0  0  0  0
    5.9847   -5.7783   -0.9648 C   0  0  0  0  0  0  0  0  0  0  0  0
    7.1341   -6.0664   -1.2519 O   0  0  0  0  0  0  0  0  0  0  0  0
    5.0825   -6.0152   -1.7500 O   0  0  0  0  0  1  0  0  0  0  0  0
   -0.9518    1.9143    0.1442 H   0  0  0  0  0  0  0  0  0  0  0  0
    0.9458    2.8821   -1.0865 H   0  0  0  0  0  0  0  0  0  0  0  0
    3.0963    1.6919   -1.1746 H   0  0  0  0  0  0  0  0  0  0  0  0
    1.4274   -1.4590    1.2097 H   0  0  0  0  0  0  0  0  0  0  0  0
   -0.7141   -0.2521    1.2855 H   0  0  0  0  0  0  0  0  0  0  0  0
    1.5899   -2.6827    0.0155 H   0  0  0  0  0  0  0  0  0  0  0  0
    2.5060   -5.1842    0.2283 H   0  0  0  0  0  0  0  0  0  0  0  0
    6.7129   -2.6596   -0.8043 H   0  0  0  0  0  0  0  0  0  0  0  0
    6.6191   -2.0109    0.8599 H   0  0  0  0  0  0  0  0  0  0  0  0
    7.7611   -4.4654    0.2784 H   0  0  0  0  0  0  0  0  0  0  0  0
    6.9347   -4.1335    1.8372 H   0  0  0  0  0  0  0  0  0  0  0  0
  1  6  2  0  0  0  0
  1  2  1  0  0  0  0
  1 21  1  0  0  0  0
  2  3  2  0  0  0  0
  2 22  1  0  0  0  0
  3  4  1  0  0  0  0
  3 23  1  0  0  0  0
  4  5  2  0  0  0  0
  4  7  1  0  0  0  0
  5  6  1  0  0  0  0
  5 24  1  0  0  0  0
  6 25  1  0  0  0  0
  7  8  2  0  0  0  0
  7  9  1  0  0  0  0
  9 13  1  0  0  0  0
  9 10  2  0  0  0  0
 10 11  1  0  0  0  0
 10 26  1  0  0  0  0
 11 12  2  0  0  0  0
 11 27  1  0  0  0  0
 12 16  1  0  0  0  0
 12 13  1  0  0  0  0
 13 14  1  0  0  0  0
 14 15  1  0  0  0  0
 14 28  1  0  0  0  0
 14 29  1  0  0  0  0
 15 16  1  0  0  0  0
 15 30  1  0  0  0  0
 15 31  1  0  0  0  0
 16 17  1  1  0  0  0
 16 18  1  0  0  0  0
 18 19  2  0  0  0  0
 18 20  1  0  0  0  0
M  END
$$$$
