ZINC00000128
 OpenBabel08292219463D

 46 47  0  0  1  0  0  0  0  0999 V2000
   -0.0187    1.5258    0.0104 C   0  0  0  0  0  0  0  0  0  0  0  0
    0.0021   -0.0041    0.0020 C   0  0  0  0  0  0  0  0  0  0  0  0
    0.7421   -0.5109    1.2415 C   0  0  0  0  0  0  0  0  0  0  0  0
   -1.4333   -0.5336    0.0129 C   0  0  0  0  0  0  0  0  0  0  0  0
    0.6897   -0.4778   -1.2066 N   0  3  0  0  0  0  0  0  0  0  0  0
    2.0678    0.0307   -1.2170 C   0  0  0  0  0  0  0  0  0  0  0  0
    2.7840   -0.4628   -2.4758 C   0  0  2  0  0  0  0  0  0  0  0  0
    2.7213   -1.5498   -2.5270 H   0  0  0  0  0  0  0  0  0  0  0  0
    4.2531   -0.0383   -2.4263 C   0  0  0  0  0  0  0  0  0  0  0  0
    4.9483   -0.5972   -3.5427 O   0  0  0  0  0  0  0  0  0  0  0  0
    6.2733   -0.3147   -3.6487 C   0  0  0  0  0  0  0  0  0  0  0  0
    6.8932    0.4798   -2.6938 C   0  0  0  0  0  0  0  0  0  0  0  0
    8.2402    0.7681   -2.8011 C   0  0  0  0  0  0  0  0  0  0  0  0
    8.9752    0.2668   -3.8584 C   0  0  0  0  0  0  0  0  0  0  0  0
    8.3604   -0.5289   -4.8162 C   0  0  0  0  0  0  0  0  0  0  0  0
    7.0086   -0.8240   -4.7066 C   0  0  0  0  0  0  0  0  0  0  0  0
    6.3438   -1.6928   -5.7424 C   0  0  0  0  0  0  0  0  0  0  0  0
    6.9852   -1.4422   -7.1077 C   0  0  0  0  0  0  0  0  0  0  0  0
    8.4843   -1.4982   -6.9875 C   0  0  0  0  0  0  0  0  0  0  0  0
    9.1420   -1.9544   -7.8987 O   0  0  0  0  0  0  0  0  0  0  0  0
    9.1012   -1.0387   -5.8869 N   0  0  0  0  0  0  0  0  0  0  0  0
    2.1628    0.1050   -3.6307 O   0  0  0  0  0  0  0  0  0  0  0  0
    1.0039    1.9031    0.0027 H   0  0  0  0  0  0  0  0  0  0  0  0
   -0.5459    1.8868   -0.8726 H   0  0  0  0  0  0  0  0  0  0  0  0
   -0.5289    1.8773    0.9072 H   0  0  0  0  0  0  0  0  0  0  0  0
    0.2319   -0.1594    2.1383 H   0  0  0  0  0  0  0  0  0  0  0  0
    0.7568   -1.6008    1.2356 H   0  0  0  0  0  0  0  0  0  0  0  0
    1.7647   -0.1336    1.2338 H   0  0  0  0  0  0  0  0  0  0  0  0
   -1.9605   -0.1726   -0.8702 H   0  0  0  0  0  0  0  0  0  0  0  0
   -1.4185   -1.6235    0.0069 H   0  0  0  0  0  0  0  0  0  0  0  0
   -1.9435   -0.1821    0.9097 H   0  0  0  0  0  0  0  0  0  0  0  0
    0.7033   -1.4867   -1.2121 H   0  0  0  0  0  0  0  0  0  0  0  0
    2.0530    1.1205   -1.2110 H   0  0  0  0  0  0  0  0  0  0  0  0
    2.5950   -0.3304   -0.3340 H   0  0  0  0  0  0  0  0  0  0  0  0
    4.3186    1.0490   -2.4647 H   0  0  0  0  0  0  0  0  0  0  0  0
    4.7039   -0.3970   -1.5010 H   0  0  0  0  0  0  0  0  0  0  0  0
    6.3217    0.8733   -1.8662 H   0  0  0  0  0  0  0  0  0  0  0  0
    8.7197    1.3870   -2.0572 H   0  0  0  0  0  0  0  0  0  0  0  0
   10.0278    0.4942   -3.9401 H   0  0  0  0  0  0  0  0  0  0  0  0
    6.4669   -2.7411   -5.4702 H   0  0  0  0  0  0  0  0  0  0  0  0
    5.2817   -1.4525   -5.7905 H   0  0  0  0  0  0  0  0  0  0  0  0
    6.6496   -2.2045   -7.8107 H   0  0  0  0  0  0  0  0  0  0  0  0
    6.6877   -0.4590   -7.4724 H   0  0  0  0  0  0  0  0  0  0  0  0
   10.0690   -1.0709   -5.8309 H   0  0  0  0  0  0  0  0  0  0  0  0
    2.1814    1.0716   -3.6522 H   0  0  0  0  0  0  0  0  0  0  0  0
    0.2017   -0.1436   -2.0240 H   0  0  0  0  0  0  0  0  0  0  0  0
  1  2  1  0  0  0  0
  1 23  1  0  0  0  0
  1 24  1  0  0  0  0
  1 25  1  0  0  0  0
  2  3  1  0  0  0  0
  2  4  1  0  0  0  0
  2  5  1  0  0  0  0
  3 26  1  0  0  0  0
  3 27  1  0  0  0  0
  3 28  1  0  0  0  0
  4 29  1  0  0  0  0
  4 30  1  0  0  0  0
  4 31  1  0  0  0  0
  5  6  1  0  0  0  0
  5 32  1  0  0  0  0
  5 46  1  0  0  0  0
  6  7  1  0  0  0  0
  6 33  1  0  0  0  0
  6 34  1  0  0  0  0
  7  8  1  6  0  0  0
  7  9  1  0  0  0  0
  7 22  1  0  0  0  0
  9 10  1  0  0  0  0
  9 35  1  0  0  0  0
  9 36  1  0  0  0  0
 10 11  1  0  0  0  0
 11 16  2  0  0  0  0
 11 12  1  0  0  0  0
 12 13  2  0  0  0  0
 12 37  1  0  0  0  0
 13 14  1  0  0  0  0
 13 38  1  0  0  0  0
 14 15  2  0  0  0  0
 14 39  1  0  0  0  0
 15 21  1  0  0  0  0
 15 16  1  0  0  0  0
 16 17  1  0  0  0  0
 17 18  1  0  0  0  0
 17 40  1  0  0  0  0
 17 41  1  0  0  0  0
 18 19  1  0  0  0  0
 18 42  1  0  0  0  0
 18 43  1  0  0  0  0
 19 20  2  0  0  0  0
 19 21  1  0  0  0  0
 21 44  1  0  0  0  0
 22 45  1  0  0  0  0
M  CHG  1   5   1
M  END
$$$$
