ZINC38657182
 OpenBabel08292219463D

 51 51  0  0  0  0  0  0  0  0999 V2000
   -1.3449    0.9942   -1.2618 C   0  0  0  0  0  0  0  0  0  0  0  0
   -0.9114    0.3285    0.0188 C   0  0  0  0  0  0  0  0  0  0  0  0
   -1.7842    0.2519    1.0078 C   0  0  0  0  0  0  0  0  0  0  0  0
   -1.4833   -0.3754    2.3378 C   0  0  0  0  0  0  0  0  0  0  0  0
   -0.2376   -1.2577    2.2341 C   0  0  0  0  0  0  0  0  0  0  0  0
    0.8770   -0.4496    1.5585 C   0  0  0  0  0  0  0  0  0  0  0  0
    0.4854   -0.2155    0.0963 C   0  0  0  0  0  0  0  0  0  0  0  0
   -1.2414    0.7240    3.3740 C   0  0  0  0  0  0  0  0  0  0  0  0
   -2.6745   -1.2292    2.7771 C   0  0  0  0  0  0  0  0  0  0  0  0
   -3.1182    0.8101    0.7948 C   0  0  0  0  0  0  0  0  0  0  0  0
   -4.1690   -0.0148    0.5602 C   0  0  0  0  0  0  0  0  0  0  0  0
   -3.9531   -1.3948    0.3715 C   0  0  0  0  0  0  0  0  0  0  0  0
   -4.6277   -2.2984    1.1311 C   0  0  0  0  0  0  0  0  0  0  0  0
   -5.6299   -1.8625    2.0211 C   0  0  0  0  0  0  0  0  0  0  0  0
   -6.2655   -2.7576    2.8176 C   0  0  0  0  0  0  0  0  0  0  0  0
   -5.9461   -4.1804    2.7181 C   0  0  0  0  0  0  0  0  0  0  0  0
   -5.3623   -4.8070    3.7427 C   0  0  0  0  0  0  0  0  0  0  0  0
   -5.1414   -4.0794    5.0438 C   0  0  0  0  0  0  0  0  0  0  0  0
   -5.6066   -4.8877    6.1265 O   0  0  0  0  0  0  0  0  0  0  0  0
   -6.2757   -4.9403    1.4591 C   0  0  0  0  0  0  0  0  0  0  0  0
   -2.9747   -1.8686   -0.6721 C   0  0  0  0  0  0  0  0  0  0  0  0
   -0.5230    0.9753   -1.9775 H   0  0  0  0  0  0  0  0  0  0  0  0
   -2.2004    0.4614   -1.6769 H   0  0  0  0  0  0  0  0  0  0  0  0
   -1.6249    2.0276   -1.0574 H   0  0  0  0  0  0  0  0  0  0  0  0
    0.0818   -1.5589    3.2318 H   0  0  0  0  0  0  0  0  0  0  0  0
   -0.4632   -2.1409    1.6366 H   0  0  0  0  0  0  0  0  0  0  0  0
    0.9957    0.5070    2.0674 H   0  0  0  0  0  0  0  0  0  0  0  0
    1.8118   -1.0086    1.6011 H   0  0  0  0  0  0  0  0  0  0  0  0
    0.5375   -1.1569   -0.4506 H   0  0  0  0  0  0  0  0  0  0  0  0
    1.1767    0.4988   -0.3510 H   0  0  0  0  0  0  0  0  0  0  0  0
   -2.1612    1.2888    3.5261 H   0  0  0  0  0  0  0  0  0  0  0  0
   -0.9319    0.2730    4.3168 H   0  0  0  0  0  0  0  0  0  0  0  0
   -0.4587    1.3936    3.0174 H   0  0  0  0  0  0  0  0  0  0  0  0
   -2.7666   -2.0914    2.1166 H   0  0  0  0  0  0  0  0  0  0  0  0
   -2.5191   -1.5705    3.8006 H   0  0  0  0  0  0  0  0  0  0  0  0
   -3.5863   -0.6341    2.7270 H   0  0  0  0  0  0  0  0  0  0  0  0
   -3.2672    1.8794    0.8243 H   0  0  0  0  0  0  0  0  0  0  0  0
   -5.1710    0.3858    0.5180 H   0  0  0  0  0  0  0  0  0  0  0  0
   -4.3956   -3.3503    1.0524 H   0  0  0  0  0  0  0  0  0  0  0  0
   -5.8916   -0.8158    2.0689 H   0  0  0  0  0  0  0  0  0  0  0  0
   -7.0076   -2.4189    3.5255 H   0  0  0  0  0  0  0  0  0  0  0  0
   -5.0484   -5.8351    3.6389 H   0  0  0  0  0  0  0  0  0  0  0  0
   -4.0778   -3.8781    5.1715 H   0  0  0  0  0  0  0  0  0  0  0  0
   -5.6905   -3.1378    5.0313 H   0  0  0  0  0  0  0  0  0  0  0  0
   -5.4957   -4.4811    6.9969 H   0  0  0  0  0  0  0  0  0  0  0  0
   -5.4342   -4.8821    0.7688 H   0  0  0  0  0  0  0  0  0  0  0  0
   -6.4721   -5.9838    1.7055 H   0  0  0  0  0  0  0  0  0  0  0  0
   -7.1593   -4.5047    0.9926 H   0  0  0  0  0  0  0  0  0  0  0  0
   -1.9995   -2.0255   -0.2112 H   0  0  0  0  0  0  0  0  0  0  0  0
   -3.3280   -2.8056   -1.1026 H   0  0  0  0  0  0  0  0  0  0  0  0
   -2.8889   -1.1176   -1.4574 H   0  0  0  0  0  0  0  0  0  0  0  0
  1  2  1  0  0  0  0
  1 22  1  0  0  0  0
  1 23  1  0  0  0  0
  1 24  1  0  0  0  0
  2  7  1  0  0  0  0
  2  3  2  0  0  0  0
  3  4  1  0  0  0  0
  3 10  1  0  0  0  0
  4  5  1  0  0  0  0
  4  8  1  0  0  0  0
  4  9  1  0  0  0  0
  5  6  1  0  0  0  0
  5 25  1  0  0  0  0
  5 26  1  0  0  0  0
  6  7  1  0  0  0  0
  6 27  1  0  0  0  0
  6 28  1  0  0  0  0
  7 29  1  0  0  0  0
  7 30  1  0  0  0  0
  8 31  1  0  0  0  0
  8 32  1  0  0  0  0
  8 33  1  0  0  0  0
  9 34  1  0  0  0  0
  9 35  1  0  0  0  0
  9 36  1  0  0  0  0
 10 11  2  0  0  0  0
 10 37  1  0  0  0  0
 11 12  1  0  0  0  0
 11 38  1  0  0  0  0
 12 13  2  0  0  0  0
 12 21  1  0  0  0  0
 13 14  1  0  0  0  0
 13 39  1  0  0  0  0
 14 15  2  0  0  0  0
 14 40  1  0  0  0  0
 15 16  1  0  0  0  0
 15 41  1  0  0  0  0
 16 17  2  0  0  0  0
 16 20  1  0  0  0  0
 17 18  1  0  0  0  0
 17 42  1  0  0  0  0
 18 19  1  0  0  0  0
 18 43  1  0  0  0  0
 18 44  1  0  0  0  0
 19 45  1  0  0  0  0
 20 46  1  0  0  0  0
 20 47  1  0  0  0  0
 20 48  1  0  0  0  0
 21 49  1  0  0  0  0
 21 50  1  0  0  0  0
 21 51  1  0  0  0  0
M  END
$$$$
