ZINC13537284
 OpenBabel08292219463D

 41 44  0  0  0  0  0  0  0  0999 V2000
   -0.0184    1.5028    0.0103 C   0  0  0  0  0  0  0  0  0  0  0  0
    0.0021   -0.0041    0.0020 C   0  0  0  0  0  0  0  0  0  0  0  0
    0.0081   -0.8009   -1.0836 C   0  0  0  0  0  0  0  0  0  0  0  0
    0.0272   -2.0745   -0.6635 N   0  0  0  0  0  4  0  0  0  0  0  0
    0.0333   -2.0972    0.6413 C   0  0  0  0  0  0  0  0  0  0  0  0
    0.0241   -0.8258    1.0965 N   0  0  0  0  0  0  0  0  0  0  0  0
    0.0299   -0.5470    2.0255 H   0  0  0  0  0  0  0  0  0  0  0  0
   -0.0046   -0.3419   -2.5190 C   0  0  0  0  0  0  0  0  0  0  0  0
    1.3486    0.0537   -2.9171 N   0  0  0  0  0  0  0  0  0  0  0  0
    1.7630    1.4364   -2.7185 C   0  0  0  0  0  0  0  0  0  0  0  0
    3.2156    1.5553   -2.2571 C   0  0  0  0  0  0  0  0  0  0  0  0
    4.0766    0.6665   -3.1201 C   0  0  0  0  0  0  0  0  0  0  0  0
    3.5653   -0.4837   -3.6832 C   0  0  0  0  0  0  0  0  0  0  0  0
    4.6378   -1.0930   -4.4423 C   0  0  0  0  0  0  0  0  0  0  0  0
    4.7227   -2.2516   -5.2155 C   0  0  0  0  0  0  0  0  0  0  0  0
    5.9436   -2.5221   -5.8077 C   0  0  0  0  0  0  0  0  0  0  0  0
    7.0361   -1.6872   -5.6458 C   0  0  0  0  0  0  0  0  0  0  0  0
    6.9746   -0.5333   -4.8838 C   0  0  0  0  0  0  0  0  0  0  0  0
    5.7571   -0.2374   -4.2758 C   0  0  0  0  0  0  0  0  0  0  0  0
    5.3710    0.8047   -3.4733 N   0  0  0  0  0  0  0  0  0  0  0  0
    6.2392    1.9096   -3.0592 C   0  0  0  0  0  0  0  0  0  0  0  0
    2.1706   -0.8798   -3.4511 C   0  0  0  0  0  0  0  0  0  0  0  0
    1.7715   -1.9949   -3.7298 O   0  0  0  0  0  0  0  0  0  0  0  0
    1.0042    1.8801    0.0026 H   0  0  0  0  0  0  0  0  0  0  0  0
   -0.5455    1.8639   -0.8728 H   0  0  0  0  0  0  0  0  0  0  0  0
   -0.5286    1.8543    0.9071 H   0  0  0  0  0  0  0  0  0  0  0  0
    0.0476   -2.9856    1.2553 H   0  0  0  0  0  0  0  0  0  0  0  0
   -0.3479   -1.1558   -3.1577 H   0  0  0  0  0  0  0  0  0  0  0  0
   -0.6772    0.5095   -2.6223 H   0  0  0  0  0  0  0  0  0  0  0  0
    1.6465    1.9773   -3.6576 H   0  0  0  0  0  0  0  0  0  0  0  0
    1.1170    1.8933   -1.9689 H   0  0  0  0  0  0  0  0  0  0  0  0
    3.5460    2.5894   -2.3543 H   0  0  0  0  0  0  0  0  0  0  0  0
    3.2949    1.2412   -1.2164 H   0  0  0  0  0  0  0  0  0  0  0  0
    3.8744   -2.9072   -5.3454 H   0  0  0  0  0  0  0  0  0  0  0  0
    6.0474   -3.4102   -6.4134 H   0  0  0  0  0  0  0  0  0  0  0  0
    7.9665   -1.9444   -6.1301 H   0  0  0  0  0  0  0  0  0  0  0  0
    7.8342    0.1096   -4.7652 H   0  0  0  0  0  0  0  0  0  0  0  0
    6.7383    1.6495   -2.1258 H   0  0  0  0  0  0  0  0  0  0  0  0
    6.9861    2.0939   -3.8315 H   0  0  0  0  0  0  0  0  0  0  0  0
    5.6393    2.8077   -2.9124 H   0  0  0  0  0  0  0  0  0  0  0  0
    0.0350   -2.8555   -1.2387 H   0  0  0  0  0  0  0  0  0  0  0  0
  1  2  1  0  0  0  0
  1 24  1  0  0  0  0
  1 25  1  0  0  0  0
  1 26  1  0  0  0  0
  2  6  1  0  0  0  0
  2  3  2  0  0  0  0
  3  4  1  0  0  0  0
  3  8  1  0  0  0  0
  4  5  2  0  0  0  0
  4 41  1  0  0  0  0
  5  6  1  0  0  0  0
  5 27  1  0  0  0  0
  6  7  1  0  0  0  0
  8  9  1  0  0  0  0
  8 28  1  0  0  0  0
  8 29  1  0  0  0  0
  9 22  1  0  0  0  0
  9 10  1  0  0  0  0
 10 11  1  0  0  0  0
 10 30  1  0  0  0  0
 10 31  1  0  0  0  0
 11 12  1  0  0  0  0
 11 32  1  0  0  0  0
 11 33  1  0  0  0  0
 12 20  1  0  0  0  0
 12 13  2  0  0  0  0
 13 14  1  0  0  0  0
 13 22  1  0  0  0  0
 14 19  2  0  0  0  0
 14 15  1  0  0  0  0
 15 16  2  0  0  0  0
 15 34  1  0  0  0  0
 16 17  1  0  0  0  0
 16 35  1  0  0  0  0
 17 18  2  0  0  0  0
 17 36  1  0  0  0  0
 18 19  1  0  0  0  0
 18 37  1  0  0  0  0
 19 20  1  0  0  0  0
 20 21  1  0  0  0  0
 21 38  1  0  0  0  0
 21 39  1  0  0  0  0
 21 40  1  0  0  0  0
 22 23  2  0  0  0  0
M  END
$$$$
