ZINC12504524
 OpenBabel08292219463D

 69 71  0  0  1  0  0  0  0  0999 V2000
    3.5227    2.3004   -1.2627 C   0  0  0  0  0  0  0  0  0  0  0  0
    3.1352    0.8774   -0.8555 C   0  0  0  0  0  0  0  0  0  0  0  0
    3.0586    0.0529   -2.0201 O   0  0  0  0  0  0  0  0  0  0  0  0
    2.7273   -1.2346   -1.8345 C   0  0  0  0  0  0  0  0  0  0  0  0
    2.5096   -1.6478   -0.7202 O   0  0  0  0  0  0  0  0  0  0  0  0
    2.6270   -2.1647   -3.0160 C   0  0  0  0  0  0  0  0  0  0  0  0
    2.2529   -3.5073   -2.5519 N   0  0  0  0  0  0  0  0  0  0  0  0
    2.0200   -4.4107   -3.6866 C   0  0  2  0  0  0  0  0  0  0  0  0
    2.7155   -4.1707   -4.4908 H   0  0  0  0  0  0  0  0  0  0  0  0
    0.5840   -4.2414   -4.1868 C   0  0  0  0  0  0  0  0  0  0  0  0
   -0.3926   -4.6192   -3.0713 C   0  0  0  0  0  0  0  0  0  0  0  0
   -1.8285   -4.4499   -3.5715 C   0  0  0  0  0  0  0  0  0  0  0  0
   -2.0582   -5.3596   -4.7800 C   0  0  0  0  0  0  0  0  0  0  0  0
   -1.0816   -4.9818   -5.8956 C   0  0  0  0  0  0  0  0  0  0  0  0
    0.3543   -5.1511   -5.3954 C   0  0  0  0  0  0  0  0  0  0  0  0
    2.2337   -5.8359   -3.2462 C   0  0  0  0  0  0  0  0  0  0  0  0
    2.0569   -6.1454   -2.0869 O   0  0  0  0  0  0  0  0  0  0  0  0
    2.6215   -6.7667   -4.1405 N   0  0  0  0  0  0  0  0  0  0  0  0
    3.0091   -6.7754   -5.5591 C   0  0  0  0  0  0  0  0  0  0  0  0
    3.8556   -8.0215   -5.2642 C   0  0  0  0  0  0  0  0  0  0  0  0
    2.8494   -8.2195   -4.1255 C   0  0  1  0  0  0  0  0  0  0  0  0
    1.9734   -8.7993   -4.4162 H   0  0  0  0  0  0  0  0  0  0  0  0
    3.4800   -8.7149   -2.8496 C   0  0  0  0  0  0  0  0  0  0  0  0
    3.7471   -7.9330   -1.9617 O   0  0  0  0  0  0  0  0  0  0  0  0
    3.7472  -10.0268   -2.6951 N   0  0  0  0  0  0  0  0  0  0  0  0
    4.3602  -10.5084   -1.4547 C   0  0  0  0  0  0  0  0  0  0  0  0
    4.5523  -12.0009   -1.5358 C   0  0  0  0  0  0  0  0  0  0  0  0
    3.5484  -12.8492   -1.1042 C   0  0  0  0  0  0  0  0  0  0  0  0
    3.7184  -14.2167   -1.1759 C   0  0  0  0  0  0  0  0  0  0  0  0
    4.9054  -14.7432   -1.6849 C   0  0  0  0  0  0  0  0  0  0  0  0
    5.9139  -13.8827   -2.1185 C   0  0  0  0  0  0  0  0  0  0  0  0
    5.7297  -12.5171   -2.0469 C   0  0  0  0  0  0  0  0  0  0  0  0
    5.0944  -16.2094   -1.7642 C   0  0  0  0  0  0  0  0  0  0  0  0
    4.1524  -17.0094   -1.3587 N   0  0  0  0  0  0  0  0  0  0  0  0
    4.3332  -18.4117   -1.4345 O   0  0  0  0  0  0  0  0  0  0  0  0
    6.2740  -16.7291   -2.2700 N   0  0  0  0  0  0  0  0  0  0  0  0
    4.4920    2.2845   -1.7610 H   0  0  0  0  0  0  0  0  0  0  0  0
    2.7711    2.7011   -1.9428 H   0  0  0  0  0  0  0  0  0  0  0  0
    3.5812    2.9294   -0.3744 H   0  0  0  0  0  0  0  0  0  0  0  0
    3.8869    0.4767   -0.1754 H   0  0  0  0  0  0  0  0  0  0  0  0
    2.1659    0.8933   -0.3572 H   0  0  0  0  0  0  0  0  0  0  0  0
    1.8690   -1.7946   -3.7064 H   0  0  0  0  0  0  0  0  0  0  0  0
    3.5899   -2.2112   -3.5246 H   0  0  0  0  0  0  0  0  0  0  0  0
    2.9522   -3.8824   -1.9287 H   0  0  0  0  0  0  0  0  0  0  0  0
    0.4203   -3.2035   -4.4770 H   0  0  0  0  0  0  0  0  0  0  0  0
   -0.2289   -5.6570   -2.7811 H   0  0  0  0  0  0  0  0  0  0  0  0
   -0.2290   -3.9711   -2.2103 H   0  0  0  0  0  0  0  0  0  0  0  0
   -2.5243   -4.7190   -2.7767 H   0  0  0  0  0  0  0  0  0  0  0  0
   -1.9922   -3.4120   -3.8616 H   0  0  0  0  0  0  0  0  0  0  0  0
   -1.8945   -6.3974   -4.4899 H   0  0  0  0  0  0  0  0  0  0  0  0
   -3.0812   -5.2390   -5.1364 H   0  0  0  0  0  0  0  0  0  0  0  0
   -1.2452   -5.6299   -6.7566 H   0  0  0  0  0  0  0  0  0  0  0  0
   -1.2453   -3.9440   -6.1858 H   0  0  0  0  0  0  0  0  0  0  0  0
    1.0501   -4.8820   -6.1902 H   0  0  0  0  0  0  0  0  0  0  0  0
    0.5181   -6.1889   -5.1052 H   0  0  0  0  0  0  0  0  0  0  0  0
    2.1760   -6.9667   -6.2355 H   0  0  0  0  0  0  0  0  0  0  0  0
    3.6007   -5.9084   -5.8528 H   0  0  0  0  0  0  0  0  0  0  0  0
    3.8115   -8.7856   -6.0402 H   0  0  0  0  0  0  0  0  0  0  0  0
    4.8692   -7.8038   -4.9277 H   0  0  0  0  0  0  0  0  0  0  0  0
    3.5336  -10.6522   -3.4051 H   0  0  0  0  0  0  0  0  0  0  0  0
    5.3270  -10.0246   -1.3155 H   0  0  0  0  0  0  0  0  0  0  0  0
    3.7105  -10.2710   -0.6123 H   0  0  0  0  0  0  0  0  0  0  0  0
    2.6298  -12.4403   -0.7099 H   0  0  0  0  0  0  0  0  0  0  0  0
    2.9341  -14.8779   -0.8383 H   0  0  0  0  0  0  0  0  0  0  0  0
    6.8353  -14.2845   -2.5133 H   0  0  0  0  0  0  0  0  0  0  0  0
    6.5079  -11.8498   -2.3867 H   0  0  0  0  0  0  0  0  0  0  0  0
    3.5795  -18.9235   -1.1103 H   0  0  0  0  0  0  0  0  0  0  0  0
    6.9765  -16.1325   -2.5724 H   0  0  0  0  0  0  0  0  0  0  0  0
    6.3978  -17.6898   -2.3219 H   0  0  0  0  0  0  0  0  0  0  0  0
  1  2  1  0  0  0  0
  1 37  1  0  0  0  0
  1 38  1  0  0  0  0
  1 39  1  0  0  0  0
  2  3  1  0  0  0  0
  2 40  1  0  0  0  0
  2 41  1  0  0  0  0
  3  4  1  0  0  0  0
  4  5  2  0  0  0  0
  4  6  1  0  0  0  0
  6  7  1  0  0  0  0
  6 42  1  0  0  0  0
  6 43  1  0  0  0  0
  7  8  1  0  0  0  0
  7 44  1  0  0  0  0
  8  9  1  6  0  0  0
  8 10  1  0  0  0  0
  8 16  1  0  0  0  0
 10 15  1  0  0  0  0
 10 11  1  0  0  0  0
 10 45  1  0  0  0  0
 11 12  1  0  0  0  0
 11 46  1  0  0  0  0
 11 47  1  0  0  0  0
 12 13  1  0  0  0  0
 12 48  1  0  0  0  0
 12 49  1  0  0  0  0
 13 14  1  0  0  0  0
 13 50  1  0  0  0  0
 13 51  1  0  0  0  0
 14 15  1  0  0  0  0
 14 52  1  0  0  0  0
 14 53  1  0  0  0  0
 15 54  1  0  0  0  0
 15 55  1  0  0  0  0
 16 17  2  0  0  0  0
 16 18  1  0  0  0  0
 18 21  1  0  0  0  0
 18 19  1  0  0  0  0
 19 20  1  0  0  0  0
 19 56  1  0  0  0  0
 19 57  1  0  0  0  0
 20 21  1  0  0  0  0
 20 58  1  0  0  0  0
 20 59  1  0  0  0  0
 21 22  1  6  0  0  0
 21 23  1  0  0  0  0
 23 24  2  0  0  0  0
 23 25  1  0  0  0  0
 25 26  1  0  0  0  0
 25 60  1  0  0  0  0
 26 27  1  0  0  0  0
 26 61  1  0  0  0  0
 26 62  1  0  0  0  0
 27 32  2  0  0  0  0
 27 28  1  0  0  0  0
 28 29  2  0  0  0  0
 28 63  1  0  0  0  0
 29 30  1  0  0  0  0
 29 64  1  0  0  0  0
 30 31  2  0  0  0  0
 30 33  1  0  0  0  0
 31 32  1  0  0  0  0
 31 65  1  0  0  0  0
 32 66  1  0  0  0  0
 33 34  2  0  0  0  0
 33 36  1  0  0  0  0
 34 35  1  0  0  0  0
 35 67  1  0  0  0  0
 36 68  1  0  0  0  0
 36 69  1  0  0  0  0
M  END
$$$$
