ZINC17953024
 OpenBabel08292219463D

 56 60  0  0  0  0  0  0  0  0999 V2000
    0.0914    0.6267   -0.7078 C   0  0  0  0  0  0  0  0  0  0  0  0
   -0.8322   -0.5033   -0.2484 C   0  0  0  0  0  0  0  0  0  0  0  0
   -0.8167   -0.5854    1.2794 C   0  0  0  0  0  0  0  0  0  0  0  0
   -2.1970   -0.2363   -0.7092 N   0  0  0  0  0  4  0  0  0  0  0  0
   -2.7691   -1.0451   -1.5813 C   0  0  0  0  0  0  0  0  0  0  0  0
   -2.0214   -2.0868   -2.1748 C   0  0  0  0  0  0  0  0  0  0  0  0
   -2.6147   -2.9188   -3.0730 C   0  0  0  0  0  0  0  0  0  0  0  0
   -1.9027   -3.9430   -3.6641 N   0  0  0  0  0  0  0  0  0  0  0  0
   -2.5509   -4.7619   -4.5703 C   0  0  0  0  0  0  0  0  0  0  0  0
   -1.8639   -5.8040   -5.1848 C   0  0  0  0  0  0  0  0  0  0  0  0
   -2.5145   -6.6178   -6.0870 C   0  0  0  0  0  0  0  0  0  0  0  0
   -3.8540   -6.4061   -6.3899 C   0  0  0  0  0  0  0  0  0  0  0  0
   -4.5488   -5.3915   -5.8015 C   0  0  0  0  0  0  0  0  0  0  0  0
   -3.9105   -4.5459   -4.8760 C   0  0  0  0  0  0  0  0  0  0  0  0
   -4.6005   -3.5496   -4.2996 N   0  0  0  0  0  0  0  0  0  0  0  0
   -4.0325   -2.7368   -3.4279 C   0  0  0  0  0  0  0  0  0  0  0  0
   -4.7792   -1.6908   -2.8311 C   0  0  0  0  0  0  0  0  0  0  0  0
   -4.1895   -0.8654   -1.9314 C   0  0  0  0  0  0  0  0  0  0  0  0
   -4.9240    0.1558   -1.3429 N   0  0  0  0  0  0  0  0  0  0  0  0
   -5.0815    0.1928    0.0447 C   0  0  0  0  0  0  0  0  0  0  0  0
   -5.7539    1.2525    0.6409 C   0  0  0  0  0  0  0  0  0  0  0  0
   -5.9084    1.2861    2.0127 C   0  0  0  0  0  0  0  0  0  0  0  0
   -5.3943    0.2657    2.7936 C   0  0  0  0  0  0  0  0  0  0  0  0
   -4.7241   -0.7911    2.2025 C   0  0  0  0  0  0  0  0  0  0  0  0
   -4.5710   -0.8328    0.8308 C   0  0  0  0  0  0  0  0  0  0  0  0
   -5.5900    0.3117    4.5179 Cl  0  0  0  0  0  0  0  0  0  0  0  0
   -0.5559   -4.1476   -3.3538 C   0  0  0  0  0  0  0  0  0  0  0  0
    0.4340   -3.5248   -4.1046 C   0  0  0  0  0  0  0  0  0  0  0  0
    1.7641   -3.7285   -3.7953 C   0  0  0  0  0  0  0  0  0  0  0  0
    2.1121   -4.5523   -2.7389 C   0  0  0  0  0  0  0  0  0  0  0  0
    1.1285   -5.1744   -1.9896 C   0  0  0  0  0  0  0  0  0  0  0  0
   -0.2035   -4.9696   -2.2902 C   0  0  0  0  0  0  0  0  0  0  0  0
    3.7855   -4.8065   -2.3533 Cl  0  0  0  0  0  0  0  0  0  0  0  0
    1.1068    0.4281   -0.3649 H   0  0  0  0  0  0  0  0  0  0  0  0
    0.0803    0.6852   -1.7962 H   0  0  0  0  0  0  0  0  0  0  0  0
   -0.2550    1.5718   -0.2896 H   0  0  0  0  0  0  0  0  0  0  0  0
   -0.4858   -1.4484   -0.6666 H   0  0  0  0  0  0  0  0  0  0  0  0
   -1.4746   -1.3904    1.6067 H   0  0  0  0  0  0  0  0  0  0  0  0
    0.1988   -0.7840    1.6222 H   0  0  0  0  0  0  0  0  0  0  0  0
   -1.1630    0.3597    1.6976 H   0  0  0  0  0  0  0  0  0  0  0  0
   -0.9815   -2.2220   -1.9164 H   0  0  0  0  0  0  0  0  0  0  0  0
   -0.8224   -5.9749   -4.9554 H   0  0  0  0  0  0  0  0  0  0  0  0
   -1.9789   -7.4261   -6.5626 H   0  0  0  0  0  0  0  0  0  0  0  0
   -4.3498   -7.0521   -7.0993 H   0  0  0  0  0  0  0  0  0  0  0  0
   -5.5894   -5.2368   -6.0458 H   0  0  0  0  0  0  0  0  0  0  0  0
   -5.8190   -1.5540   -3.0892 H   0  0  0  0  0  0  0  0  0  0  0  0
   -5.3277    0.8433   -1.8954 H   0  0  0  0  0  0  0  0  0  0  0  0
   -6.1550    2.0492    0.0320 H   0  0  0  0  0  0  0  0  0  0  0  0
   -6.4307    2.1097    2.4767 H   0  0  0  0  0  0  0  0  0  0  0  0
   -4.3239   -1.5860    2.8144 H   0  0  0  0  0  0  0  0  0  0  0  0
   -4.0518   -1.6600    0.3697 H   0  0  0  0  0  0  0  0  0  0  0  0
    0.1630   -2.8824   -4.9295 H   0  0  0  0  0  0  0  0  0  0  0  0
    2.5337   -3.2448   -4.3784 H   0  0  0  0  0  0  0  0  0  0  0  0
    1.4031   -5.8169   -1.1661 H   0  0  0  0  0  0  0  0  0  0  0  0
   -0.9706   -5.4514   -1.7022 H   0  0  0  0  0  0  0  0  0  0  0  0
   -2.6802    0.5348   -0.3734 H   0  0  0  0  0  0  0  0  0  0  0  0
  1  2  1  0  0  0  0
  1 34  1  0  0  0  0
  1 35  1  0  0  0  0
  1 36  1  0  0  0  0
  2  3  1  0  0  0  0
  2  4  1  0  0  0  0
  2 37  1  0  0  0  0
  3 38  1  0  0  0  0
  3 39  1  0  0  0  0
  3 40  1  0  0  0  0
  4  5  2  0  0  0  0
  4 56  1  0  0  0  0
  5 18  1  0  0  0  0
  5  6  1  0  0  0  0
  6  7  2  0  0  0  0
  6 41  1  0  0  0  0
  7 16  1  0  0  0  0
  7  8  1  0  0  0  0
  8  9  1  0  0  0  0
  8 27  1  0  0  0  0
  9 14  2  0  0  0  0
  9 10  1  0  0  0  0
 10 11  2  0  0  0  0
 10 42  1  0  0  0  0
 11 12  1  0  0  0  0
 11 43  1  0  0  0  0
 12 13  2  0  0  0  0
 12 44  1  0  0  0  0
 13 14  1  0  0  0  0
 13 45  1  0  0  0  0
 14 15  1  0  0  0  0
 15 16  2  0  0  0  0
 16 17  1  0  0  0  0
 17 18  2  0  0  0  0
 17 46  1  0  0  0  0
 18 19  1  0  0  0  0
 19 20  1  0  0  0  0
 19 47  1  0  0  0  0
 20 25  2  0  0  0  0
 20 21  1  0  0  0  0
 21 22  2  0  0  0  0
 21 48  1  0  0  0  0
 22 23  1  0  0  0  0
 22 49  1  0  0  0  0
 23 24  2  0  0  0  0
 23 26  1  0  0  0  0
 24 25  1  0  0  0  0
 24 50  1  0  0  0  0
 25 51  1  0  0  0  0
 27 32  2  0  0  0  0
 27 28  1  0  0  0  0
 28 29  2  0  0  0  0
 28 52  1  0  0  0  0
 29 30  1  0  0  0  0
 29 53  1  0  0  0  0
 30 31  2  0  0  0  0
 30 33  1  0  0  0  0
 31 32  1  0  0  0  0
 31 54  1  0  0  0  0
 32 55  1  0  0  0  0
M  END
$$$$
