ZINC00895154
 OpenBabel08292219463D

 32 33  0  0  1  0  0  0  0  0999 V2000
   -0.0187    1.5258    0.0104 C   0  0  0  0  0  0  0  0  0  0  0  0
    0.0021   -0.0041    0.0020 C   0  0  2  0  0  0  0  0  0  0  0  0
   -1.0205   -0.3814    0.0098 H   0  0  0  0  0  0  0  0  0  0  0  0
    0.7421   -0.5109    1.2415 C   0  0  1  0  0  0  0  0  0  0  0  0
    0.1838   -0.2350    2.1361 H   0  0  0  0  0  0  0  0  0  0  0  0
    0.8719   -2.0337    1.1708 C   0  0  2  0  0  0  0  0  0  0  0  0
   -0.1187   -2.4868    1.1318 H   0  0  0  0  0  0  0  0  0  0  0  0
    1.6306   -2.5484    2.4035 C   0  0  0  0  0  0  0  0  0  0  0  0
    2.9966   -2.0065    2.3612 N   0  0  0  0  0  0  0  0  0  0  0  0
    3.6976   -2.0408    1.1723 C   0  0  0  0  0  0  0  0  0  0  0  0
    3.0424   -2.2360   -0.0097 C   0  0  0  0  0  0  0  0  0  0  0  0
    3.7836   -2.2611   -1.2083 C   0  0  0  0  0  0  0  0  0  0  0  0
    3.2189   -2.4317   -2.2799 O   0  0  0  0  0  0  0  0  0  0  0  0
    5.1159   -2.0956   -1.1629 N   0  0  0  0  0  0  0  0  0  0  0  0
    5.7378   -1.9108   -0.0183 C   0  0  0  0  0  0  0  0  0  0  0  0
    5.0590   -1.8793    1.1608 N   0  0  0  0  0  0  0  0  0  0  0  0
    5.5383   -1.7425    1.9929 H   0  0  0  0  0  0  0  0  0  0  0  0
    7.0993   -1.7465   -0.0133 N   0  0  0  0  0  0  0  0  0  0  0  0
    1.6405   -2.4130   -0.0258 N   0  0  0  0  0  0  0  0  0  0  0  0
    2.0438    0.0763    1.2925 O   0  0  0  0  0  0  0  0  0  0  0  0
    0.6709   -0.4649   -1.1737 O   0  0  0  0  0  0  0  0  0  0  0  0
    1.0039    1.9031    0.0027 H   0  0  0  0  0  0  0  0  0  0  0  0
   -0.5459    1.8868   -0.8726 H   0  0  0  0  0  0  0  0  0  0  0  0
   -0.5289    1.8773    0.9072 H   0  0  0  0  0  0  0  0  0  0  0  0
    1.1293   -2.2117    3.3109 H   0  0  0  0  0  0  0  0  0  0  0  0
    1.6664   -3.6377    2.3850 H   0  0  0  0  0  0  0  0  0  0  0  0
    3.4002   -1.6294    3.1586 H   0  0  0  0  0  0  0  0  0  0  0  0
    7.5933   -1.7672   -0.8478 H   0  0  0  0  0  0  0  0  0  0  0  0
    7.5682   -1.6096    0.8247 H   0  0  0  0  0  0  0  0  0  0  0  0
    1.1945   -2.7765   -0.8068 H   0  0  0  0  0  0  0  0  0  0  0  0
    2.5975   -0.1276    0.5263 H   0  0  0  0  0  0  0  0  0  0  0  0
    1.5879   -0.1667   -1.2470 H   0  0  0  0  0  0  0  0  0  0  0  0
  1  2  1  0  0  0  0
  1 22  1  0  0  0  0
  1 23  1  0  0  0  0
  1 24  1  0  0  0  0
  2  3  1  1  0  0  0
  2  4  1  0  0  0  0
  2 21  1  0  0  0  0
  4  5  1  1  0  0  0
  4  6  1  0  0  0  0
  4 20  1  0  0  0  0
  6  7  1  6  0  0  0
  6 19  1  0  0  0  0
  6  8  1  0  0  0  0
  8  9  1  0  0  0  0
  8 25  1  0  0  0  0
  8 26  1  0  0  0  0
  9 10  1  0  0  0  0
  9 27  1  0  0  0  0
 10 16  1  0  0  0  0
 10 11  2  0  0  0  0
 11 12  1  0  0  0  0
 11 19  1  0  0  0  0
 12 13  2  0  0  0  0
 12 14  1  0  0  0  0
 14 15  2  0  0  0  0
 15 16  1  0  0  0  0
 15 18  1  0  0  0  0
 16 17  1  0  0  0  0
 18 28  1  0  0  0  0
 18 29  1  0  0  0  0
 19 30  1  0  0  0  0
 20 31  1  0  0  0  0
 21 32  1  0  0  0  0
M  END
$$$$
