ZINC03794794
 OpenBabel08292219463D

 62 64  0  0  0  0  0  0  0  0999 V2000
   -0.0138    1.3946    0.0641 C   0  0  0  0  0  0  0  0  0  0  0  0
    1.1630    2.1054    0.0573 C   0  0  0  0  0  0  0  0  0  0  0  0
    2.3908    1.4432   -0.0119 C   0  0  0  0  0  0  0  0  0  0  0  0
    2.4265    0.0463   -0.0748 C   0  0  0  0  0  0  0  0  0  0  0  0
    1.2192   -0.6830   -0.0678 C   0  0  0  0  0  0  0  0  0  0  0  0
    0.0001   -0.0007    0.0019 C   0  0  0  0  0  0  0  0  0  0  0  0
   -1.1932   -0.7087    0.0089 N   0  0  0  0  0  0  0  0  0  0  0  0
   -2.4698    0.0068   -0.0575 C   0  0  0  0  0  0  0  0  0  0  0  0
   -3.6210   -1.0008   -0.0345 C   0  0  0  0  0  0  0  0  0  0  0  0
   -4.9011   -0.2833   -0.1011 N   0  3  0  0  0  0  0  0  0  0  0  0
   -6.0064   -1.2507   -0.0790 C   0  0  0  0  0  0  0  0  0  0  0  0
   -7.3397   -0.5034   -0.1484 C   0  0  0  0  0  0  0  0  0  0  0  0
   -7.4466    0.1640   -1.4074 O   0  0  0  0  0  0  0  0  0  0  0  0
    1.2455   -2.1529   -0.1331 C   0  0  0  0  0  0  0  0  0  0  0  0
    0.2040   -2.7819   -0.1273 O   0  0  0  0  0  0  0  0  0  0  0  0
    2.5353   -2.8615   -0.2060 C   0  0  0  0  0  0  0  0  0  0  0  0
    2.5709   -4.2566   -0.2691 C   0  0  0  0  0  0  0  0  0  0  0  0
    3.7951   -4.9170   -0.3382 C   0  0  0  0  0  0  0  0  0  0  0  0
    4.9742   -4.2046   -0.3445 C   0  0  0  0  0  0  0  0  0  0  0  0
    4.9594   -2.8135   -0.2818 C   0  0  0  0  0  0  0  0  0  0  0  0
    3.7413   -2.1329   -0.2130 C   0  0  0  0  0  0  0  0  0  0  0  0
    3.7147   -0.6611   -0.1484 C   0  0  0  0  0  0  0  0  0  0  0  0
    4.7561   -0.0318   -0.1547 O   0  0  0  0  0  0  0  0  0  0  0  0
    6.1255   -2.1206   -0.2877 O   0  0  0  0  0  0  0  0  0  0  0  0
    1.4152   -4.9668   -0.2625 O   0  0  0  0  0  0  0  0  0  0  0  0
    3.5729    2.1696   -0.0186 N   0  0  0  0  0  0  0  0  0  0  0  0
    3.5335    3.6322   -0.0925 C   0  0  0  0  0  0  0  0  0  0  0  0
    4.9613    4.1820   -0.0843 C   0  0  0  0  0  0  0  0  0  0  0  0
    4.9217    5.6486   -0.1585 N   0  3  0  0  0  0  0  0  0  0  0  0
    6.2926    6.1764   -0.1506 C   0  0  0  0  0  0  0  0  0  0  0  0
    6.2514    7.7039   -0.2278 C   0  0  0  0  0  0  0  0  0  0  0  0
    5.6391    8.2243    0.9539 O   0  0  0  0  0  0  0  0  0  0  0  0
   -0.9562    1.9190    0.1224 H   0  0  0  0  0  0  0  0  0  0  0  0
    1.1379    3.1840    0.1054 H   0  0  0  0  0  0  0  0  0  0  0  0
   -1.1821   -1.6774    0.0578 H   0  0  0  0  0  0  0  0  0  0  0  0
   -2.5560    0.6765    0.7981 H   0  0  0  0  0  0  0  0  0  0  0  0
   -2.5134    0.5873   -0.9791 H   0  0  0  0  0  0  0  0  0  0  0  0
   -3.5348   -1.6705   -0.8901 H   0  0  0  0  0  0  0  0  0  0  0  0
   -3.5773   -1.5812    0.8871 H   0  0  0  0  0  0  0  0  0  0  0  0
   -4.9808    0.3367    0.6910 H   0  0  0  0  0  0  0  0  0  0  0  0
   -5.9202   -1.9204   -0.9347 H   0  0  0  0  0  0  0  0  0  0  0  0
   -5.9627   -1.8312    0.8426 H   0  0  0  0  0  0  0  0  0  0  0  0
   -8.1600   -1.2133   -0.0427 H   0  0  0  0  0  0  0  0  0  0  0  0
   -7.3876    0.2297    0.6567 H   0  0  0  0  0  0  0  0  0  0  0  0
   -8.2692    0.6595   -1.5213 H   0  0  0  0  0  0  0  0  0  0  0  0
    3.8203   -5.9956   -0.3869 H   0  0  0  0  0  0  0  0  0  0  0  0
    5.9169   -4.7288   -0.3981 H   0  0  0  0  0  0  0  0  0  0  0  0
    6.4358   -1.8802   -1.1714 H   0  0  0  0  0  0  0  0  0  0  0  0
    1.0510   -5.1336   -1.1427 H   0  0  0  0  0  0  0  0  0  0  0  0
    4.4255    1.7091    0.0256 H   0  0  0  0  0  0  0  0  0  0  0  0
    3.0324    3.9362   -1.0116 H   0  0  0  0  0  0  0  0  0  0  0  0
    2.9880    4.0248    0.7656 H   0  0  0  0  0  0  0  0  0  0  0  0
    5.4624    3.8780    0.8347 H   0  0  0  0  0  0  0  0  0  0  0  0
    5.5067    3.7894   -0.9425 H   0  0  0  0  0  0  0  0  0  0  0  0
    4.4578    5.9300   -1.0092 H   0  0  0  0  0  0  0  0  0  0  0  0
    6.7937    5.8725    0.7684 H   0  0  0  0  0  0  0  0  0  0  0  0
    6.8380    5.7839   -1.0088 H   0  0  0  0  0  0  0  0  0  0  0  0
    7.2669    8.0910   -0.3115 H   0  0  0  0  0  0  0  0  0  0  0  0
    5.6735    8.0082   -1.1005 H   0  0  0  0  0  0  0  0  0  0  0  0
    5.5792    9.1892    0.9736 H   0  0  0  0  0  0  0  0  0  0  0  0
   -4.9415    0.2541   -0.9542 H   0  0  0  0  0  0  0  0  0  0  0  0
    4.4168    6.0120    0.6359 H   0  0  0  0  0  0  0  0  0  0  0  0
  1  6  2  0  0  0  0
  1  2  1  0  0  0  0
  1 33  1  0  0  0  0
  2  3  2  0  0  0  0
  2 34  1  0  0  0  0
  3  4  1  0  0  0  0
  3 26  1  0  0  0  0
  4 22  1  0  0  0  0
  4  5  2  0  0  0  0
  5  6  1  0  0  0  0
  5 14  1  0  0  0  0
  6  7  1  0  0  0  0
  7  8  1  0  0  0  0
  7 35  1  0  0  0  0
  8  9  1  0  0  0  0
  8 36  1  0  0  0  0
  8 37  1  0  0  0  0
  9 10  1  0  0  0  0
  9 38  1  0  0  0  0
  9 39  1  0  0  0  0
 10 11  1  0  0  0  0
 10 40  1  0  0  0  0
 10 61  1  0  0  0  0
 11 12  1  0  0  0  0
 11 41  1  0  0  0  0
 11 42  1  0  0  0  0
 12 13  1  0  0  0  0
 12 43  1  0  0  0  0
 12 44  1  0  0  0  0
 13 45  1  0  0  0  0
 14 15  2  0  0  0  0
 14 16  1  0  0  0  0
 16 21  2  0  0  0  0
 16 17  1  0  0  0  0
 17 18  2  0  0  0  0
 17 25  1  0  0  0  0
 18 19  1  0  0  0  0
 18 46  1  0  0  0  0
 19 20  2  0  0  0  0
 19 47  1  0  0  0  0
 20 21  1  0  0  0  0
 20 24  1  0  0  0  0
 21 22  1  0  0  0  0
 22 23  2  0  0  0  0
 24 48  1  0  0  0  0
 25 49  1  0  0  0  0
 26 27  1  0  0  0  0
 26 50  1  0  0  0  0
 27 28  1  0  0  0  0
 27 51  1  0  0  0  0
 27 52  1  0  0  0  0
 28 29  1  0  0  0  0
 28 53  1  0  0  0  0
 28 54  1  0  0  0  0
 29 30  1  0  0  0  0
 29 55  1  0  0  0  0
 29 62  1  0  0  0  0
 30 31  1  0  0  0  0
 30 56  1  0  0  0  0
 30 57  1  0  0  0  0
 31 32  1  0  0  0  0
 31 58  1  0  0  0  0
 31 59  1  0  0  0  0
 32 60  1  0  0  0  0
M  CHG  2  10   1  29   1
M  END
$$$$
