ZINC01530977
 OpenBabel08292219463D

 44 46  0  0  1  0  0  0  0  0999 V2000
   -0.0178    1.4648    0.0101 C   0  0  0  0  0  0  0  0  0  0  0  0
    0.0021   -0.0041    0.0020 N   0  3  1  0  0  0  0  0  0  0  0  0
    0.6897   -0.4778   -1.2066 C   0  0  0  0  0  0  0  0  0  0  0  0
   -0.1057   -0.0832   -2.4243 C   0  0  0  0  0  0  0  0  0  0  0  0
    0.4691    0.6145   -3.3939 C   0  0  0  0  0  0  0  0  0  0  0  0
   -0.3109    1.0016   -4.5883 C   0  0  0  0  0  0  0  0  0  0  0  0
   -1.6541    0.6391   -4.6956 C   0  0  0  0  0  0  0  0  0  0  0  0
   -2.3767    1.0034   -5.8131 C   0  0  0  0  0  0  0  0  0  0  0  0
   -1.7722    1.7262   -6.8260 C   0  0  0  0  0  0  0  0  0  0  0  0
   -0.4407    2.0884   -6.7259 C   0  0  0  0  0  0  0  0  0  0  0  0
    0.2911    1.7360   -5.6106 C   0  0  0  0  0  0  0  0  0  0  0  0
    0.7126   -0.4907    1.1921 C   0  0  0  0  0  0  0  0  0  0  0  0
   -0.0593   -0.1093    2.4290 C   0  0  0  0  0  0  0  0  0  0  0  0
    0.3150    0.9751    3.1618 C   0  0  0  0  0  0  0  0  0  0  0  0
   -0.3863    1.3431    4.3081 C   0  0  0  0  0  0  0  0  0  0  0  0
   -1.4659    0.6287    4.7288 C   0  0  0  0  0  0  0  0  0  0  0  0
   -1.8822   -0.4969    3.9982 C   0  0  0  0  0  0  0  0  0  0  0  0
   -1.1725   -0.8676    2.8285 C   0  0  0  0  0  0  0  0  0  0  0  0
   -1.5926   -1.9902    2.0945 C   0  0  0  0  0  0  0  0  0  0  0  0
   -2.6755   -2.7009    2.5119 C   0  0  0  0  0  0  0  0  0  0  0  0
   -3.3773   -2.3325    3.6585 C   0  0  0  0  0  0  0  0  0  0  0  0
   -2.9917   -1.2595    4.4017 C   0  0  0  0  0  0  0  0  0  0  0  0
    1.0047    1.8421    0.0024 H   0  0  0  0  0  0  0  0  0  0  0  0
   -0.5450    1.8259   -0.8730 H   0  0  0  0  0  0  0  0  0  0  0  0
   -0.5280    1.8163    0.9069 H   0  0  0  0  0  0  0  0  0  0  0  0
    1.6817   -0.0294   -1.2596 H   0  0  0  0  0  0  0  0  0  0  0  0
    0.7830   -1.5632   -1.1697 H   0  0  0  0  0  0  0  0  0  0  0  0
   -1.1439   -0.3688   -2.5070 H   0  0  0  0  0  0  0  0  0  0  0  0
    1.5074    0.9002   -3.3112 H   0  0  0  0  0  0  0  0  0  0  0  0
   -2.1269    0.0742   -3.9058 H   0  0  0  0  0  0  0  0  0  0  0  0
   -3.4163    0.7234   -5.8974 H   0  0  0  0  0  0  0  0  0  0  0  0
   -2.3420    2.0087   -7.6989 H   0  0  0  0  0  0  0  0  0  0  0  0
    0.0256    2.6521   -7.5204 H   0  0  0  0  0  0  0  0  0  0  0  0
    1.3291    2.0238   -5.5313 H   0  0  0  0  0  0  0  0  0  0  0  0
    0.8051   -1.5756    1.1418 H   0  0  0  0  0  0  0  0  0  0  0  0
    1.7055   -0.0428    1.2310 H   0  0  0  0  0  0  0  0  0  0  0  0
    1.1686    1.5588    2.8501 H   0  0  0  0  0  0  0  0  0  0  0  0
   -0.0684    2.2080    4.8715 H   0  0  0  0  0  0  0  0  0  0  0  0
   -1.9995    0.9253    5.6197 H   0  0  0  0  0  0  0  0  0  0  0  0
   -1.0590   -2.2871    1.2037 H   0  0  0  0  0  0  0  0  0  0  0  0
   -2.9962   -3.5631    1.9461 H   0  0  0  0  0  0  0  0  0  0  0  0
   -4.2336   -2.9135    3.9676 H   0  0  0  0  0  0  0  0  0  0  0  0
   -3.5447   -0.9864    5.2883 H   0  0  0  0  0  0  0  0  0  0  0  0
   -0.9445   -0.3533    0.0092 H   0  0  0  0  0  0  0  0  0  0  0  0
  1  2  1  0  0  0  0
  1 23  1  0  0  0  0
  1 24  1  0  0  0  0
  1 25  1  0  0  0  0
  2  3  1  0  0  0  0
  2 12  1  0  0  0  0
  2 44  1  1  0  0  0
  3  4  1  0  0  0  0
  3 26  1  0  0  0  0
  3 27  1  0  0  0  0
  4  5  2  0  0  0  0
  4 28  1  0  0  0  0
  5  6  1  0  0  0  0
  5 29  1  0  0  0  0
  6 11  2  0  0  0  0
  6  7  1  0  0  0  0
  7  8  2  0  0  0  0
  7 30  1  0  0  0  0
  8  9  1  0  0  0  0
  8 31  1  0  0  0  0
  9 10  2  0  0  0  0
  9 32  1  0  0  0  0
 10 11  1  0  0  0  0
 10 33  1  0  0  0  0
 11 34  1  0  0  0  0
 12 13  1  0  0  0  0
 12 35  1  0  0  0  0
 12 36  1  0  0  0  0
 13 18  2  0  0  0  0
 13 14  1  0  0  0  0
 14 15  2  0  0  0  0
 14 37  1  0  0  0  0
 15 16  1  0  0  0  0
 15 38  1  0  0  0  0
 16 17  2  0  0  0  0
 16 39  1  0  0  0  0
 17 22  1  0  0  0  0
 17 18  1  0  0  0  0
 18 19  1  0  0  0  0
 19 20  2  0  0  0  0
 19 40  1  0  0  0  0
 20 21  1  0  0  0  0
 20 41  1  0  0  0  0
 21 22  2  0  0  0  0
 21 42  1  0  0  0  0
 22 43  1  0  0  0  0
M  CHG  1   2   1
M  END
$$$$
