ZINC03812958
 OpenBabel08292219463D

 43 46  0  0  1  0  0  0  0  0999 V2000
   -0.1075    1.2056    0.1489 C   0  0  0  0  0  0  0  0  0  0  0  0
    0.5302    0.8679    1.3289 C   0  0  0  0  0  0  0  0  0  0  0  0
    1.7509    0.2245    1.2969 C   0  0  0  0  0  0  0  0  0  0  0  0
    2.3406   -0.0848    0.0730 C   0  0  0  0  0  0  0  0  0  0  0  0
    1.6937    0.2578   -1.1126 C   0  0  0  0  0  0  0  0  0  0  0  0
    0.4734    0.9011   -1.0689 C   0  0  0  0  0  0  0  0  0  0  0  0
    3.6531   -0.7760    0.0323 C   0  0  0  0  0  0  0  0  0  0  0  0
    4.2975   -1.1233    1.2179 C   0  0  0  0  0  0  0  0  0  0  0  0
    5.5178   -1.7665    1.1742 C   0  0  0  0  0  0  0  0  0  0  0  0
    6.1014   -2.0660   -0.0436 C   0  0  0  0  0  0  0  0  0  0  0  0
    5.4663   -1.7232   -1.2236 C   0  0  0  0  0  0  0  0  0  0  0  0
    4.2428   -1.0853   -1.1916 C   0  0  0  0  0  0  0  0  0  0  0  0
    7.4343   -2.7680   -0.0849 C   0  0  2  0  0  0  0  0  0  0  0  0
    8.2302   -2.0307   -0.1893 H   0  0  0  0  0  0  0  0  0  0  0  0
    7.4680   -3.7133   -1.2581 C   0  0  0  0  0  0  0  0  0  0  0  0
    6.4631   -4.6484   -1.4214 C   0  0  0  0  0  0  0  0  0  0  0  0
    6.4941   -5.5154   -2.4976 C   0  0  0  0  0  0  0  0  0  0  0  0
    7.5297   -5.4471   -3.4107 C   0  0  0  0  0  0  0  0  0  0  0  0
    8.5341   -4.5113   -3.2479 C   0  0  0  0  0  0  0  0  0  0  0  0
    8.5009   -3.6415   -2.1741 C   0  0  0  0  0  0  0  0  0  0  0  0
    7.6274   -3.5226    1.1559 N   0  0  0  0  0  0  0  0  0  0  0  0
    6.8331   -4.5349    1.6229 C   0  0  0  0  0  0  0  0  0  0  0  0
    7.3701   -4.9457    2.7876 C   0  0  0  0  0  0  0  0  0  0  0  0
    8.4624   -4.2045    3.0253 N   0  0  0  0  0  4  0  0  0  0  0  0
    8.6256   -3.3534    2.0496 C   0  0  0  0  0  0  0  0  0  0  0  0
   -1.0647    1.7050    0.1785 H   0  0  0  0  0  0  0  0  0  0  0  0
    0.0724    1.1084    2.2770 H   0  0  0  0  0  0  0  0  0  0  0  0
    2.2481   -0.0384    2.2189 H   0  0  0  0  0  0  0  0  0  0  0  0
    2.1466    0.0207   -2.0640 H   0  0  0  0  0  0  0  0  0  0  0  0
   -0.0291    1.1668   -1.9873 H   0  0  0  0  0  0  0  0  0  0  0  0
    3.8430   -0.8893    2.1693 H   0  0  0  0  0  0  0  0  0  0  0  0
    6.0182   -2.0362    2.0925 H   0  0  0  0  0  0  0  0  0  0  0  0
    5.9266   -1.9591   -2.1717 H   0  0  0  0  0  0  0  0  0  0  0  0
    3.7457   -0.8220   -2.1136 H   0  0  0  0  0  0  0  0  0  0  0  0
    5.6541   -4.7018   -0.7080 H   0  0  0  0  0  0  0  0  0  0  0  0
    5.7094   -6.2465   -2.6248 H   0  0  0  0  0  0  0  0  0  0  0  0
    7.5543   -6.1249   -4.2511 H   0  0  0  0  0  0  0  0  0  0  0  0
    9.3433   -4.4581   -3.9611 H   0  0  0  0  0  0  0  0  0  0  0  0
    9.2836   -2.9079   -2.0489 H   0  0  0  0  0  0  0  0  0  0  0  0
    5.9461   -4.9283    1.1487 H   0  0  0  0  0  0  0  0  0  0  0  0
    6.9881   -5.7339    3.4195 H   0  0  0  0  0  0  0  0  0  0  0  0
    9.4250   -2.6315    1.9711 H   0  0  0  0  0  0  0  0  0  0  0  0
    9.0418   -4.2902    3.7985 H   0  0  0  0  0  0  0  0  0  0  0  0
  1  6  2  0  0  0  0
  1  2  1  0  0  0  0
  1 26  1  0  0  0  0
  2  3  2  0  0  0  0
  2 27  1  0  0  0  0
  3  4  1  0  0  0  0
  3 28  1  0  0  0  0
  4  5  2  0  0  0  0
  4  7  1  0  0  0  0
  5  6  1  0  0  0  0
  5 29  1  0  0  0  0
  6 30  1  0  0  0  0
  7 12  2  0  0  0  0
  7  8  1  0  0  0  0
  8  9  2  0  0  0  0
  8 31  1  0  0  0  0
  9 10  1  0  0  0  0
  9 32  1  0  0  0  0
 10 11  2  0  0  0  0
 10 13  1  0  0  0  0
 11 12  1  0  0  0  0
 11 33  1  0  0  0  0
 12 34  1  0  0  0  0
 13 14  1  6  0  0  0
 13 15  1  0  0  0  0
 13 21  1  0  0  0  0
 15 20  2  0  0  0  0
 15 16  1  0  0  0  0
 16 17  2  0  0  0  0
 16 35  1  0  0  0  0
 17 18  1  0  0  0  0
 17 36  1  0  0  0  0
 18 19  2  0  0  0  0
 18 37  1  0  0  0  0
 19 20  1  0  0  0  0
 19 38  1  0  0  0  0
 20 39  1  0  0  0  0
 21 25  1  0  0  0  0
 21 22  1  0  0  0  0
 22 23  2  0  0  0  0
 22 40  1  0  0  0  0
 23 24  1  0  0  0  0
 23 41  1  0  0  0  0
 24 25  2  0  0  0  0
 24 43  1  0  0  0  0
 25 42  1  0  0  0  0
M  END
$$$$
