ZINC03830999
 OpenBabel08292219463D

 35 36  0  0  1  0  0  0  0  0999 V2000
    0.3964    9.1817   -3.6528 C   0  0  0  0  0  0  0  0  0  0  0  0
    0.1763    9.8444   -4.8449 C   0  0  0  0  0  0  0  0  0  0  0  0
    0.1102   11.2293   -4.8665 C   0  0  0  0  0  0  0  0  0  0  0  0
    0.2600   11.9496   -3.6898 C   0  0  0  0  0  0  0  0  0  0  0  0
    0.4748   11.2867   -2.4970 C   0  0  0  0  0  0  0  0  0  0  0  0
    0.5408    9.9010   -2.4757 C   0  0  0  0  0  0  0  0  0  0  0  0
    0.7528    9.2484   -1.3019 O   0  0  0  0  0  0  0  0  0  0  0  0
    0.8102    7.8909   -1.3280 C   0  0  0  0  0  0  0  0  0  0  0  0
    2.0253    7.2501   -1.5256 C   0  0  0  0  0  0  0  0  0  0  0  0
    2.0808    5.8694   -1.5512 C   0  0  0  0  0  0  0  0  0  0  0  0
    0.9272    5.1266   -1.3802 C   0  0  0  0  0  0  0  0  0  0  0  0
   -0.2856    5.7624   -1.1888 C   0  0  0  0  0  0  0  0  0  0  0  0
   -0.3462    7.1427   -1.1566 C   0  0  0  0  0  0  0  0  0  0  0  0
   -2.1831    8.1050   -0.8587 I   0  0  0  0  0  0  0  0  0  0  0  0
    0.9909    3.6212   -1.4086 C   0  0  0  0  0  0  0  0  0  0  0  0
    1.2350    3.0943    0.0069 C   0  0  1  0  0  0  0  0  0  0  0  0
    0.4688    3.4843    0.6769 H   0  0  0  0  0  0  0  0  0  0  0  0
    1.1765    1.5884   -0.0006 C   0  0  0  0  0  0  0  0  0  0  0  0
    2.1986    0.9442   -0.0139 O   0  0  0  0  0  0  0  0  0  0  0  0
    3.7739    8.3746   -1.7841 I   0  0  0  0  0  0  0  0  0  0  0  0
    0.1609   14.0420   -3.7224 I   0  0  0  0  0  0  0  0  0  0  0  0
   -0.1008   11.8817   -6.0409 O   0  0  0  0  0  0  0  0  0  0  0  0
    0.4522    8.1033   -3.6369 H   0  0  0  0  0  0  0  0  0  0  0  0
    0.0597    9.2840   -5.7607 H   0  0  0  0  0  0  0  0  0  0  0  0
    0.5917   11.8471   -1.5811 H   0  0  0  0  0  0  0  0  0  0  0  0
    3.0261    5.3702   -1.7046 H   0  0  0  0  0  0  0  0  0  0  0  0
   -1.1858    5.1797   -1.0599 H   0  0  0  0  0  0  0  0  0  0  0  0
    1.8055    3.3043   -2.0598 H   0  0  0  0  0  0  0  0  0  0  0  0
    0.0485    3.2247   -1.7864 H   0  0  0  0  0  0  0  0  0  0  0  0
    3.2870    3.1816   -0.1348 H   0  0  0  0  0  0  0  0  0  0  0  0
    2.6024    4.5358    0.5458 H   0  0  0  0  0  0  0  0  0  0  0  0
    0.7103   12.1096   -6.5155 H   0  0  0  0  0  0  0  0  0  0  0  0
   -0.0110    0.9628    0.0073 O   0  0  0  0  0  1  0  0  0  0  0  0
    2.5594    3.5194    0.4930 N   0  3  0  0  0  0  0  0  0  0  0  0
    2.7168    3.1284    1.4293 H   0  0  0  0  0  0  0  0  0  0  0  0
  1  6  2  0  0  0  0
  1  2  1  0  0  0  0
  1 23  1  0  0  0  0
  2  3  2  0  0  0  0
  2 24  1  0  0  0  0
  3  4  1  0  0  0  0
  3 22  1  0  0  0  0
  4  5  2  0  0  0  0
  4 21  1  0  0  0  0
  5  6  1  0  0  0  0
  5 25  1  0  0  0  0
  6  7  1  0  0  0  0
  7  8  1  0  0  0  0
  8 13  2  0  0  0  0
  8  9  1  0  0  0  0
  9 10  2  0  0  0  0
  9 20  1  0  0  0  0
 10 11  1  0  0  0  0
 10 26  1  0  0  0  0
 11 12  2  0  0  0  0
 11 15  1  0  0  0  0
 12 13  1  0  0  0  0
 12 27  1  0  0  0  0
 13 14  1  0  0  0  0
 15 16  1  0  0  0  0
 15 28  1  0  0  0  0
 15 29  1  0  0  0  0
 16 17  1  1  0  0  0
 16 18  1  0  0  0  0
 16 34  1  0  0  0  0
 18 19  2  0  0  0  0
 18 33  1  0  0  0  0
 22 32  1  0  0  0  0
 30 34  1  0  0  0  0
 31 34  1  0  0  0  0
 34 35  1  0  0  0  0
M  CHG  1  34   1
M  END
$$$$
