ZINC01530929
 OpenBabel08292219463D

 37 37  0  0  1  0  0  0  0  0999 V2000
   -0.0127    1.0858    0.0080 C   0  0  0  0  0  0  0  0  0  0  0  0
   -0.7288    1.5792    1.2668 C   0  0  0  0  0  0  0  0  0  0  0  0
   -2.1098    1.0697    1.2773 C   0  0  0  0  0  0  0  0  0  0  0  0
   -3.2112    0.6634    1.2856 C   0  0  0  0  0  0  0  0  0  0  0  0
   -4.5922    0.1539    1.2960 C   0  0  2  0  0  0  0  0  0  0  0  0
   -5.0911    0.5374    0.3938 H   0  0  0  0  0  0  0  0  0  0  0  0
   -5.3083    0.6473    2.5548 C   0  0  0  0  0  0  0  0  0  0  0  0
   -4.5714   -1.3760    1.2876 C   0  0  1  0  0  0  0  0  0  0  0  0
   -3.6941   -1.8425    2.4339 C   0  0  0  0  0  0  0  0  0  0  0  0
   -2.5326   -1.5046    2.5144 O   0  0  0  0  0  0  0  0  0  0  0  0
   -4.2546   -2.6481    3.3608 N   0  0  0  0  0  0  0  0  0  0  0  0
   -5.5347   -3.0300    3.2863 C   0  0  0  0  0  0  0  0  0  0  0  0
   -5.9576   -3.7560    4.1639 O   0  0  0  0  0  0  0  0  0  0  0  0
   -6.3829   -2.6713    2.3159 N   0  0  0  0  0  0  0  0  0  0  0  0
   -6.0065   -1.8676    1.2987 C   0  0  0  0  0  0  0  0  0  0  0  0
   -6.7865   -1.5501    0.4266 O   0  0  0  0  0  0  0  0  0  0  0  0
   -7.7616   -3.1650    2.3588 C   0  0  0  0  0  0  0  0  0  0  0  0
   -3.9218   -1.8328   -0.0201 C   0  0  0  0  0  0  0  0  0  0  0  0
   -3.8842   -3.3387   -0.0631 C   0  0  0  0  0  0  0  0  0  0  0  0
   -4.4141   -3.9785   -1.0761 C   0  0  0  0  0  0  0  0  0  0  0  0
    1.0193    1.4666    0.0002 H   0  0  0  0  0  0  0  0  0  0  0  0
   -0.5448    1.4502   -0.8831 H   0  0  0  0  0  0  0  0  0  0  0  0
    0.0022   -0.0141    0.0020 H   0  0  0  0  0  0  0  0  0  0  0  0
   -0.1967    1.2148    2.1579 H   0  0  0  0  0  0  0  0  0  0  0  0
   -0.7437    2.6791    1.2729 H   0  0  0  0  0  0  0  0  0  0  0  0
   -6.3403    0.2666    2.5626 H   0  0  0  0  0  0  0  0  0  0  0  0
   -5.3232    1.7472    2.5609 H   0  0  0  0  0  0  0  0  0  0  0  0
   -4.7763    0.2829    3.4459 H   0  0  0  0  0  0  0  0  0  0  0  0
   -3.6554   -3.0105    4.2091 H   0  0  0  0  0  0  0  0  0  0  0  0
   -8.3172   -2.7767    1.4925 H   0  0  0  0  0  0  0  0  0  0  0  0
   -8.2443   -2.8243    3.2867 H   0  0  0  0  0  0  0  0  0  0  0  0
   -7.7584   -4.2646    2.3295 H   0  0  0  0  0  0  0  0  0  0  0  0
   -4.5076   -1.4562   -0.8716 H   0  0  0  0  0  0  0  0  0  0  0  0
   -2.8965   -1.4386   -0.0775 H   0  0  0  0  0  0  0  0  0  0  0  0
   -3.4118   -3.9007    0.7561 H   0  0  0  0  0  0  0  0  0  0  0  0
   -4.3867   -5.0777   -1.1075 H   0  0  0  0  0  0  0  0  0  0  0  0
   -4.8865   -3.4165   -1.8953 H   0  0  0  0  0  0  0  0  0  0  0  0
  1  2  1  0  0  0  0
  1 21  1  0  0  0  0
  1 22  1  0  0  0  0
  1 23  1  0  0  0  0
  2  3  1  0  0  0  0
  2 24  1  0  0  0  0
  2 25  1  0  0  0  0
  3  4  3  0  0  0  0
  4  5  1  0  0  0  0
  5  6  1  6  0  0  0
  5  7  1  0  0  0  0
  5  8  1  0  0  0  0
  7 26  1  0  0  0  0
  7 27  1  0  0  0  0
  7 28  1  0  0  0  0
  8 15  1  0  0  0  0
  8  9  1  0  0  0  0
  8 18  1  6  0  0  0
  9 10  2  0  0  0  0
  9 11  1  0  0  0  0
 11 12  1  0  0  0  0
 11 29  1  0  0  0  0
 12 13  2  0  0  0  0
 12 14  1  0  0  0  0
 14 15  1  0  0  0  0
 14 17  1  0  0  0  0
 15 16  2  0  0  0  0
 17 30  1  0  0  0  0
 17 31  1  0  0  0  0
 17 32  1  0  0  0  0
 18 19  1  0  0  0  0
 18 33  1  0  0  0  0
 18 34  1  0  0  0  0
 19 20  2  0  0  0  0
 19 35  1  0  0  0  0
 20 36  1  0  0  0  0
 20 37  1  0  0  0  0
M  END
$$$$
