ZINC03807804
 OpenBabel08292219463D

 42 45  0  0  0  0  0  0  0  0999 V2000
   -0.1404    1.0961   -0.4391 C   0  0  0  0  0  0  0  0  0  0  0  0
    0.9979    1.8788   -0.4898 C   0  0  0  0  0  0  0  0  0  0  0  0
    2.2443    1.2953   -0.3597 C   0  0  0  0  0  0  0  0  0  0  0  0
    2.3524   -0.0709   -0.1784 C   0  0  0  0  0  0  0  0  0  0  0  0
    1.2140   -0.8534   -0.1268 C   0  0  0  0  0  0  0  0  0  0  0  0
   -0.0323   -0.2701   -0.2583 C   0  0  0  0  0  0  0  0  0  0  0  0
    3.7112   -0.7071   -0.0376 C   0  0  0  0  0  0  0  0  0  0  0  0
    3.5548   -2.1991    0.1055 C   0  0  0  0  0  0  0  0  0  0  0  0
    4.1018   -3.0454   -0.8408 C   0  0  0  0  0  0  0  0  0  0  0  0
    3.9584   -4.4140   -0.7096 C   0  0  0  0  0  0  0  0  0  0  0  0
    3.2684   -4.9364    0.3683 C   0  0  0  0  0  0  0  0  0  0  0  0
    2.7222   -4.0902    1.3152 C   0  0  0  0  0  0  0  0  0  0  0  0
    2.8693   -2.7218    1.1862 C   0  0  0  0  0  0  0  0  0  0  0  0
    4.5372   -0.4037   -1.2609 C   0  0  0  0  0  0  0  0  0  0  0  0
    5.7856    0.1744   -1.1262 C   0  0  0  0  0  0  0  0  0  0  0  0
    6.5434    0.4528   -2.2482 C   0  0  0  0  0  0  0  0  0  0  0  0
    6.0533    0.1533   -3.5058 C   0  0  0  0  0  0  0  0  0  0  0  0
    4.8053   -0.4246   -3.6418 C   0  0  0  0  0  0  0  0  0  0  0  0
    4.0487   -0.7087   -2.5187 C   0  0  0  0  0  0  0  0  0  0  0  0
    2.4837   -1.4408   -2.6883 Cl  0  0  0  0  0  0  0  0  0  0  0  0
    4.3811   -0.1702    1.1495 N   0  0  0  0  0  0  0  0  0  0  0  0
    5.5751   -0.5924    1.6690 C   0  0  0  0  0  0  0  0  0  0  0  0
    5.8188    0.1680    2.7534 C   0  0  0  0  0  0  0  0  0  0  0  0
    4.8014    1.0309    2.8923 N   0  0  0  0  0  0  0  0  0  0  0  0
    3.9390    0.8376    1.9322 C   0  0  0  0  0  0  0  0  0  0  0  0
   -1.1143    1.5526   -0.5363 H   0  0  0  0  0  0  0  0  0  0  0  0
    0.9135    2.9461   -0.6315 H   0  0  0  0  0  0  0  0  0  0  0  0
    3.1337    1.9067   -0.4001 H   0  0  0  0  0  0  0  0  0  0  0  0
    1.2985   -1.9209    0.0142 H   0  0  0  0  0  0  0  0  0  0  0  0
   -0.9216   -0.8816   -0.2183 H   0  0  0  0  0  0  0  0  0  0  0  0
    4.6409   -2.6372   -1.6830 H   0  0  0  0  0  0  0  0  0  0  0  0
    4.3851   -5.0750   -1.4493 H   0  0  0  0  0  0  0  0  0  0  0  0
    3.1557   -6.0056    0.4705 H   0  0  0  0  0  0  0  0  0  0  0  0
    2.1828   -4.4983    2.1571 H   0  0  0  0  0  0  0  0  0  0  0  0
    2.4458   -2.0608    1.9279 H   0  0  0  0  0  0  0  0  0  0  0  0
    6.1689    0.4089   -0.1441 H   0  0  0  0  0  0  0  0  0  0  0  0
    7.5185    0.9047   -2.1424 H   0  0  0  0  0  0  0  0  0  0  0  0
    6.6456    0.3714   -4.3821 H   0  0  0  0  0  0  0  0  0  0  0  0
    4.4225   -0.6582   -4.6243 H   0  0  0  0  0  0  0  0  0  0  0  0
    6.2011   -1.3835    1.2836 H   0  0  0  0  0  0  0  0  0  0  0  0
    6.6821    0.0956    3.3983 H   0  0  0  0  0  0  0  0  0  0  0  0
    3.0222    1.3901    1.7888 H   0  0  0  0  0  0  0  0  0  0  0  0
  1  6  2  0  0  0  0
  1  2  1  0  0  0  0
  1 26  1  0  0  0  0
  2  3  2  0  0  0  0
  2 27  1  0  0  0  0
  3  4  1  0  0  0  0
  3 28  1  0  0  0  0
  4  5  2  0  0  0  0
  4  7  1  0  0  0  0
  5  6  1  0  0  0  0
  5 29  1  0  0  0  0
  6 30  1  0  0  0  0
  7  8  1  0  0  0  0
  7 14  1  0  0  0  0
  7 21  1  0  0  0  0
  8 13  2  0  0  0  0
  8  9  1  0  0  0  0
  9 10  2  0  0  0  0
  9 31  1  0  0  0  0
 10 11  1  0  0  0  0
 10 32  1  0  0  0  0
 11 12  2  0  0  0  0
 11 33  1  0  0  0  0
 12 13  1  0  0  0  0
 12 34  1  0  0  0  0
 13 35  1  0  0  0  0
 14 19  2  0  0  0  0
 14 15  1  0  0  0  0
 15 16  2  0  0  0  0
 15 36  1  0  0  0  0
 16 17  1  0  0  0  0
 16 37  1  0  0  0  0
 17 18  2  0  0  0  0
 17 38  1  0  0  0  0
 18 19  1  0  0  0  0
 18 39  1  0  0  0  0
 19 20  1  0  0  0  0
 21 25  1  0  0  0  0
 21 22  1  0  0  0  0
 22 23  2  0  0  0  0
 22 40  1  0  0  0  0
 23 24  1  0  0  0  0
 23 41  1  0  0  0  0
 24 25  2  0  0  0  0
 25 42  1  0  0  0  0
M  END
$$$$
