ZINC00000096
 OpenBabel08292219463D

 39 40  0  0  1  0  0  0  0  0999 V2000
   -0.0540    1.4705    0.2994 C   0  0  0  0  0  0  0  0  0  0  0  0
   -0.0296    0.0017    0.2882 N   0  3  0  0  0  0  0  0  0  0  0  0
    0.5604   -0.4878    1.5414 C   0  0  0  0  0  0  0  0  0  0  0  0
   -1.4007   -0.5099    0.1599 C   0  0  0  0  0  0  0  0  0  0  0  0
   -1.3658   -2.0333    0.0229 C   0  0  0  0  0  0  0  0  0  0  0  0
   -2.7938   -2.5661   -0.1108 C   0  0  1  0  0  0  0  0  0  0  0  0
   -3.3915   -2.2191    0.7321 H   0  0  0  0  0  0  0  0  0  0  0  0
   -3.3990   -2.0640   -1.3963 C   0  0  0  0  0  0  0  0  0  0  0  0
   -2.7600   -2.2998   -2.5993 C   0  0  0  0  0  0  0  0  0  0  0  0
   -3.3150   -1.8398   -3.7786 C   0  0  0  0  0  0  0  0  0  0  0  0
   -4.5100   -1.1435   -3.7551 C   0  0  0  0  0  0  0  0  0  0  0  0
   -5.1490   -0.9078   -2.5512 C   0  0  0  0  0  0  0  0  0  0  0  0
   -4.5960   -1.3727   -1.3728 C   0  0  0  0  0  0  0  0  0  0  0  0
   -5.2694   -0.5134   -5.3682 Br  0  0  0  0  0  0  0  0  0  0  0  0
   -2.7688   -4.0729   -0.1223 C   0  0  0  0  0  0  0  0  0  0  0  0
   -1.7219   -4.7340   -0.7368 C   0  0  0  0  0  0  0  0  0  0  0  0
   -1.7084   -6.1202   -0.7417 C   0  0  0  0  0  0  0  0  0  0  0  0
   -2.7530   -6.7927   -0.1256 C   0  0  0  0  0  0  0  0  0  0  0  0
   -3.7655   -6.0639    0.4686 C   0  0  0  0  0  0  0  0  0  0  0  0
   -3.7429   -4.7453    0.4587 N   0  0  0  0  0  0  0  0  0  0  0  0
    0.9633    1.8501    0.3947 H   0  0  0  0  0  0  0  0  0  0  0  0
   -0.4918    1.8337   -0.6304 H   0  0  0  0  0  0  0  0  0  0  0  0
   -0.6517    1.8175    1.1423 H   0  0  0  0  0  0  0  0  0  0  0  0
    1.5777   -0.1082    1.6366 H   0  0  0  0  0  0  0  0  0  0  0  0
   -0.0373   -0.1407    2.3842 H   0  0  0  0  0  0  0  0  0  0  0  0
    0.5785   -1.5776    1.5331 H   0  0  0  0  0  0  0  0  0  0  0  0
   -1.9744   -0.2377    1.0458 H   0  0  0  0  0  0  0  0  0  0  0  0
   -1.8690   -0.0762   -0.7237 H   0  0  0  0  0  0  0  0  0  0  0  0
   -0.7921   -2.3054   -0.8630 H   0  0  0  0  0  0  0  0  0  0  0  0
   -0.8975   -2.4669    0.9065 H   0  0  0  0  0  0  0  0  0  0  0  0
   -1.8269   -2.8432   -2.6176 H   0  0  0  0  0  0  0  0  0  0  0  0
   -2.8155   -2.0238   -4.7184 H   0  0  0  0  0  0  0  0  0  0  0  0
   -6.0820   -0.3642   -2.5323 H   0  0  0  0  0  0  0  0  0  0  0  0
   -5.0969   -1.1923   -0.4332 H   0  0  0  0  0  0  0  0  0  0  0  0
   -0.9248   -4.1777   -1.2074 H   0  0  0  0  0  0  0  0  0  0  0  0
   -0.9036   -6.6636   -1.2145 H   0  0  0  0  0  0  0  0  0  0  0  0
   -2.7751   -7.8723   -0.1107 H   0  0  0  0  0  0  0  0  0  0  0  0
   -4.5827   -6.5801    0.9505 H   0  0  0  0  0  0  0  0  0  0  0  0
    0.5237   -0.3195   -0.4920 H   0  0  0  0  0  0  0  0  0  0  0  0
  1  2  1  0  0  0  0
  1 21  1  0  0  0  0
  1 22  1  0  0  0  0
  1 23  1  0  0  0  0
  2  3  1  0  0  0  0
  2  4  1  0  0  0  0
  2 39  1  0  0  0  0
  3 24  1  0  0  0  0
  3 25  1  0  0  0  0
  3 26  1  0  0  0  0
  4  5  1  0  0  0  0
  4 27  1  0  0  0  0
  4 28  1  0  0  0  0
  5  6  1  0  0  0  0
  5 29  1  0  0  0  0
  5 30  1  0  0  0  0
  6  7  1  1  0  0  0
  6  8  1  0  0  0  0
  6 15  1  0  0  0  0
  8 13  2  0  0  0  0
  8  9  1  0  0  0  0
  9 10  2  0  0  0  0
  9 31  1  0  0  0  0
 10 11  1  0  0  0  0
 10 32  1  0  0  0  0
 11 12  2  0  0  0  0
 11 14  1  0  0  0  0
 12 13  1  0  0  0  0
 12 33  1  0  0  0  0
 13 34  1  0  0  0  0
 15 20  2  0  0  0  0
 15 16  1  0  0  0  0
 16 17  2  0  0  0  0
 16 35  1  0  0  0  0
 17 18  1  0  0  0  0
 17 36  1  0  0  0  0
 18 19  2  0  0  0  0
 18 37  1  0  0  0  0
 19 20  1  0  0  0  0
 19 38  1  0  0  0  0
M  CHG  1   2   1
M  END
$$$$
