ZINC03861770
 OpenBabel08292219463D

 18 17  0  0  0  0  0  0  0  0999 V2000
   -0.5772    3.6824    0.0248 H   0  0  0  0  0  0  0  0  0  0  0  0
   -0.9507    1.6802    0.0157 C   0  0  0  0  0  0  0  0  0  0  0  0
    0.3583    1.2600    0.0072 N   0  0  0  0  0  0  0  0  0  0  0  0
   -1.9691    0.7567    0.0155 N   0  0  0  0  0  0  0  0  0  0  0  0
   -3.3641    1.2044    0.0245 C   0  0  0  0  0  0  0  0  0  0  0  0
   -1.6596   -0.6753    0.0062 C   0  0  0  0  0  0  0  0  0  0  0  0
   -1.5466   -1.1740    1.4238 C   0  0  0  0  0  0  0  0  0  0  0  0
   -1.7082   -0.4115    2.3471 O   0  0  0  0  0  0  0  0  0  0  0  0
    0.5634    0.3119    0.0010 H   0  0  0  0  0  0  0  0  0  0  0  0
    1.0769    1.9116    0.0033 H   0  0  0  0  0  0  0  0  0  0  0  0
   -3.7148    1.3211   -1.0008 H   0  0  0  0  0  0  0  0  0  0  0  0
   -3.9796    0.4653    0.5372 H   0  0  0  0  0  0  0  0  0  0  0  0
   -3.4355    2.1600    0.5439 H   0  0  0  0  0  0  0  0  0  0  0  0
   -2.4551   -1.2157   -0.5068 H   0  0  0  0  0  0  0  0  0  0  0  0
   -0.7153   -0.8394   -0.5131 H   0  0  0  0  0  0  0  0  0  0  0  0
   -1.2968    2.9593    0.0243 N   0  0  0  0  0  4  0  0  0  0  0  0
   -2.2892    3.2226    0.0305 H   0  0  0  0  0  0  0  0  0  0  0  0
   -1.2666   -2.4652    1.6607 O   0  0  0  0  0  1  0  0  0  0  0  0
  1 16  1  0  0  0  0
  2  3  1  0  0  0  0
  2  4  1  0  0  0  0
  2 16  2  0  0  0  0
  3  9  1  0  0  0  0
  3 10  1  0  0  0  0
  4  5  1  0  0  0  0
  4  6  1  0  0  0  0
  5 11  1  0  0  0  0
  5 12  1  0  0  0  0
  5 13  1  0  0  0  0
  6  7  1  0  0  0  0
  6 14  1  0  0  0  0
  6 15  1  0  0  0  0
  7  8  2  0  0  0  0
  7 18  1  0  0  0  0
 16 17  1  0  0  0  0
M  END
$$$$
