ZINC01536779
 OpenBabel08292219463D

 41 43  0  0  1  0  0  0  0  0999 V2000
   -0.7400    0.9331    0.2776 C   0  0  0  0  0  0  0  0  0  0  0  0
   -0.4844   -0.5066    0.1362 N   0  3  0  0  0  0  0  0  0  0  0  0
    0.3213   -0.7448   -1.0688 C   0  0  0  0  0  0  0  0  0  0  0  0
    0.5875   -2.2442   -1.2161 C   0  0  0  0  0  0  0  0  0  0  0  0
    1.4267   -2.4924   -2.4711 C   0  0  1  0  0  0  0  0  0  0  0  0
    2.3354   -1.8921   -2.4252 H   0  0  0  0  0  0  0  0  0  0  0  0
    1.7925   -3.9522   -2.5503 C   0  0  0  0  0  0  0  0  0  0  0  0
    2.9174   -4.5748   -2.1210 C   0  0  0  0  0  0  0  0  0  0  0  0
    3.0378   -5.9401   -2.3002 C   0  0  0  0  0  0  0  0  0  0  0  0
    2.0274   -6.6160   -2.8999 C   0  0  0  0  0  0  0  0  0  0  0  0
    0.8534   -5.3114   -3.2268 S   0  0  0  0  0  0  0  0  0  0  0  0
    0.6724   -2.1269   -3.6285 O   0  0  0  0  0  0  0  0  0  0  0  0
    1.3745   -1.7982   -4.7435 C   0  0  0  0  0  0  0  0  0  0  0  0
    2.7346   -1.9306   -4.7642 C   0  0  0  0  0  0  0  0  0  0  0  0
    3.4685   -1.5981   -5.8992 C   0  0  0  0  0  0  0  0  0  0  0  0
    2.8540   -1.1319   -7.0215 C   0  0  0  0  0  0  0  0  0  0  0  0
    1.4570   -0.9818   -7.0408 C   0  0  0  0  0  0  0  0  0  0  0  0
    0.7049   -1.3236   -5.8896 C   0  0  0  0  0  0  0  0  0  0  0  0
   -0.6915   -1.1779   -5.9104 C   0  0  0  0  0  0  0  0  0  0  0  0
   -1.3040   -0.7161   -7.0351 C   0  0  0  0  0  0  0  0  0  0  0  0
   -0.5654   -0.3847   -8.1695 C   0  0  0  0  0  0  0  0  0  0  0  0
    0.7904   -0.5031   -8.1819 C   0  0  0  0  0  0  0  0  0  0  0  0
    0.2082    1.4637    0.3638 H   0  0  0  0  0  0  0  0  0  0  0  0
   -1.2800    1.2940   -0.5978 H   0  0  0  0  0  0  0  0  0  0  0  0
   -1.3378    1.1099    1.1717 H   0  0  0  0  0  0  0  0  0  0  0  0
    0.0155   -0.8406    0.9465 H   0  0  0  0  0  0  0  0  0  0  0  0
   -0.2187   -0.3839   -1.9442 H   0  0  0  0  0  0  0  0  0  0  0  0
    1.2696   -0.2142   -0.9826 H   0  0  0  0  0  0  0  0  0  0  0  0
    1.1275   -2.6051   -0.3407 H   0  0  0  0  0  0  0  0  0  0  0  0
   -0.3607   -2.7749   -1.3023 H   0  0  0  0  0  0  0  0  0  0  0  0
    3.7079   -4.0125   -1.6464 H   0  0  0  0  0  0  0  0  0  0  0  0
    3.9238   -6.4605   -1.9677 H   0  0  0  0  0  0  0  0  0  0  0  0
    1.9508   -7.6707   -3.1194 H   0  0  0  0  0  0  0  0  0  0  0  0
    3.2471   -2.2981   -3.8875 H   0  0  0  0  0  0  0  0  0  0  0  0
    4.5425   -1.7112   -5.8895 H   0  0  0  0  0  0  0  0  0  0  0  0
    3.4384   -0.8782   -7.8935 H   0  0  0  0  0  0  0  0  0  0  0  0
   -1.2767   -1.4311   -5.0388 H   0  0  0  0  0  0  0  0  0  0  0  0
   -2.3782   -0.6052   -7.0486 H   0  0  0  0  0  0  0  0  0  0  0  0
   -1.0757   -0.0208   -9.0490 H   0  0  0  0  0  0  0  0  0  0  0  0
    1.3500   -0.2422   -9.0680 H   0  0  0  0  0  0  0  0  0  0  0  0
   -1.3622   -0.9977    0.0564 H   0  0  0  0  0  0  0  0  0  0  0  0
  1  2  1  0  0  0  0
  1 23  1  0  0  0  0
  1 24  1  0  0  0  0
  1 25  1  0  0  0  0
  2  3  1  0  0  0  0
  2 26  1  0  0  0  0
  2 41  1  0  0  0  0
  3  4  1  0  0  0  0
  3 27  1  0  0  0  0
  3 28  1  0  0  0  0
  4  5  1  0  0  0  0
  4 29  1  0  0  0  0
  4 30  1  0  0  0  0
  5  6  1  1  0  0  0
  5  7  1  0  0  0  0
  5 12  1  0  0  0  0
  7 11  1  0  0  0  0
  7  8  2  0  0  0  0
  8  9  1  0  0  0  0
  8 31  1  0  0  0  0
  9 10  2  0  0  0  0
  9 32  1  0  0  0  0
 10 11  1  0  0  0  0
 10 33  1  0  0  0  0
 12 13  1  0  0  0  0
 13 18  2  0  0  0  0
 13 14  1  0  0  0  0
 14 15  2  0  0  0  0
 14 34  1  0  0  0  0
 15 16  1  0  0  0  0
 15 35  1  0  0  0  0
 16 17  2  0  0  0  0
 16 36  1  0  0  0  0
 17 22  1  0  0  0  0
 17 18  1  0  0  0  0
 18 19  1  0  0  0  0
 19 20  2  0  0  0  0
 19 37  1  0  0  0  0
 20 21  1  0  0  0  0
 20 38  1  0  0  0  0
 21 22  2  0  0  0  0
 21 39  1  0  0  0  0
 22 40  1  0  0  0  0
M  CHG  1   2   1
M  END
$$$$
