ZINC03936683
 OpenBabel08292219463D

 54 58  0  0  1  0  0  0  0  0999 V2000
   -0.0161    1.3791    0.0139 C   0  0  0  0  0  0  0  0  0  0  0  0
    0.0881    0.1354    0.6081 C   0  0  0  0  0  0  0  0  0  0  0  0
    1.2942   -0.5398    0.5913 C   0  0  0  0  0  0  0  0  0  0  0  0
    2.3960    0.0285   -0.0201 C   0  0  0  0  0  0  0  0  0  0  0  0
    2.2916    1.2719   -0.6151 C   0  0  0  0  0  0  0  0  0  0  0  0
    1.0859    1.9477   -0.5971 C   0  0  0  0  0  0  0  0  0  0  0  0
    3.7112   -0.7071   -0.0376 C   0  0  1  0  0  0  0  0  0  0  0  0
    4.4779   -0.0690   -0.4769 H   0  0  0  0  0  0  0  0  0  0  0  0
    4.1045   -1.0655    1.3735 C   0  0  0  0  0  0  0  0  0  0  0  0
    4.5143   -0.0380    2.2125 C   0  0  0  0  0  0  0  0  0  0  0  0
    4.8763   -0.3016    3.5174 C   0  0  0  0  0  0  0  0  0  0  0  0
    4.8295   -1.5990    3.9930 C   0  0  0  0  0  0  0  0  0  0  0  0
    4.4268   -2.6211    3.1592 C   0  0  0  0  0  0  0  0  0  0  0  0
    4.0668   -2.3593    1.8427 C   0  0  0  0  0  0  0  0  0  0  0  0
    3.6633   -3.5285    0.9836 C   0  0  0  0  0  0  0  0  0  0  0  0
    2.8595   -3.0609   -0.2287 C   0  0  0  0  0  0  0  0  0  0  0  0
    3.5762   -1.9293   -0.8374 N   0  0  0  0  0  0  0  0  0  0  0  0
    4.0877   -2.0127   -2.0815 C   0  0  0  0  0  0  0  0  0  0  0  0
    4.6747   -1.0635   -2.5620 O   0  0  0  0  0  0  0  0  0  0  0  0
    3.9482   -3.1478   -2.7920 O   0  0  0  0  0  0  0  0  0  0  0  0
    4.5151   -3.1660   -4.1036 C   0  0  1  0  0  0  0  0  0  0  0  0
    4.5010   -2.1594   -4.5216 H   0  0  0  0  0  0  0  0  0  0  0  0
    5.9577   -3.6714   -4.0318 C   0  0  0  0  0  0  0  0  0  0  0  0
    6.1041   -4.8865   -4.8366 N   0  3  2  0  0  0  0  0  0  0  0  0
    5.8050   -4.6120   -6.2441 C   0  0  0  0  0  0  0  0  0  0  0  0
    4.3573   -4.1377   -6.3893 C   0  0  0  0  0  0  0  0  0  0  0  0
    3.7020   -4.1071   -5.0022 C   0  0  1  0  0  0  0  0  0  0  0  0
    3.7681   -5.5203   -4.4080 C   0  0  0  0  0  0  0  0  0  0  0  0
    5.2396   -5.9520   -4.3237 C   0  0  0  0  0  0  0  0  0  0  0  0
   -0.9595    1.9047    0.0231 H   0  0  0  0  0  0  0  0  0  0  0  0
   -0.7727   -0.3087    1.0858 H   0  0  0  0  0  0  0  0  0  0  0  0
    1.3758   -1.5113    1.0562 H   0  0  0  0  0  0  0  0  0  0  0  0
    3.1526    1.7161   -1.0925 H   0  0  0  0  0  0  0  0  0  0  0  0
    1.0044    2.9193   -1.0616 H   0  0  0  0  0  0  0  0  0  0  0  0
    4.5496    0.9754    1.8408 H   0  0  0  0  0  0  0  0  0  0  0  0
    5.1952    0.5021    4.1646 H   0  0  0  0  0  0  0  0  0  0  0  0
    5.1079   -1.8116    5.0146 H   0  0  0  0  0  0  0  0  0  0  0  0
    4.3905   -3.6338    3.5328 H   0  0  0  0  0  0  0  0  0  0  0  0
    4.5586   -4.0478    0.6415 H   0  0  0  0  0  0  0  0  0  0  0  0
    3.0556   -4.2143    1.5739 H   0  0  0  0  0  0  0  0  0  0  0  0
    2.7730   -3.8739   -0.9496 H   0  0  0  0  0  0  0  0  0  0  0  0
    1.8668   -2.7410    0.0882 H   0  0  0  0  0  0  0  0  0  0  0  0
    6.6298   -2.9023   -4.4126 H   0  0  0  0  0  0  0  0  0  0  0  0
    6.2128   -3.8912   -2.9952 H   0  0  0  0  0  0  0  0  0  0  0  0
    6.4779   -3.8377   -6.6124 H   0  0  0  0  0  0  0  0  0  0  0  0
    5.9481   -5.5210   -6.8282 H   0  0  0  0  0  0  0  0  0  0  0  0
    4.3424   -3.1366   -6.8203 H   0  0  0  0  0  0  0  0  0  0  0  0
    3.8112   -4.8242   -7.0363 H   0  0  0  0  0  0  0  0  0  0  0  0
    2.6711   -3.7610   -5.0768 H   0  0  0  0  0  0  0  0  0  0  0  0
    3.3318   -5.5173   -3.4091 H   0  0  0  0  0  0  0  0  0  0  0  0
    3.2181   -6.2112   -5.0469 H   0  0  0  0  0  0  0  0  0  0  0  0
    5.3858   -6.8540   -4.9180 H   0  0  0  0  0  0  0  0  0  0  0  0
    5.4982   -6.1592   -3.2853 H   0  0  0  0  0  0  0  0  0  0  0  0
    7.0625   -5.1961   -4.7760 H   0  0  0  0  0  0  0  0  0  0  0  0
  1  6  2  0  0  0  0
  1  2  1  0  0  0  0
  1 30  1  0  0  0  0
  2  3  2  0  0  0  0
  2 31  1  0  0  0  0
  3  4  1  0  0  0  0
  3 32  1  0  0  0  0
  4  5  2  0  0  0  0
  4  7  1  0  0  0  0
  5  6  1  0  0  0  0
  5 33  1  0  0  0  0
  6 34  1  0  0  0  0
  7  8  1  6  0  0  0
  7 17  1  0  0  0  0
  7  9  1  0  0  0  0
  9 14  2  0  0  0  0
  9 10  1  0  0  0  0
 10 11  2  0  0  0  0
 10 35  1  0  0  0  0
 11 12  1  0  0  0  0
 11 36  1  0  0  0  0
 12 13  2  0  0  0  0
 12 37  1  0  0  0  0
 13 14  1  0  0  0  0
 13 38  1  0  0  0  0
 14 15  1  0  0  0  0
 15 16  1  0  0  0  0
 15 39  1  0  0  0  0
 15 40  1  0  0  0  0
 16 17  1  0  0  0  0
 16 41  1  0  0  0  0
 16 42  1  0  0  0  0
 17 18  1  0  0  0  0
 18 19  2  0  0  0  0
 18 20  1  0  0  0  0
 20 21  1  0  0  0  0
 21 22  1  6  0  0  0
 21 27  1  0  0  0  0
 21 23  1  0  0  0  0
 23 24  1  0  0  0  0
 23 43  1  0  0  0  0
 23 44  1  0  0  0  0
 24 29  1  0  0  0  0
 24 25  1  0  0  0  0
 24 54  1  1  0  0  0
 25 26  1  0  0  0  0
 25 45  1  0  0  0  0
 25 46  1  0  0  0  0
 26 27  1  0  0  0  0
 26 47  1  0  0  0  0
 26 48  1  0  0  0  0
 27 28  1  0  0  0  0
 27 49  1  6  0  0  0
 28 29  1  0  0  0  0
 28 50  1  0  0  0  0
 28 51  1  0  0  0  0
 29 52  1  0  0  0  0
 29 53  1  0  0  0  0
M  CHG  1  24   1
M  END
$$$$
