ZINC03079337
 OpenBabel08292219463D

 21 20  0  0  0  0  0  0  0  0999 V2000
    0.5353    1.3276   -0.0083 C   0  0  0  0  0  0  0  0  0  0  0  0
    0.0196   -0.0467    0.0486 N   0  3  0  0  0  0  0  0  0  0  0  0
    0.5077   -0.7028    1.2690 C   0  0  0  0  0  0  0  0  0  0  0  0
   -1.4491   -0.0184    0.0619 C   0  0  0  0  0  0  0  0  0  0  0  0
    0.4843   -0.7933   -1.1281 C   0  0  0  0  0  0  0  0  0  0  0  0
    2.0106   -0.7224   -1.2069 C   0  0  0  0  0  0  0  0  0  0  0  0
    2.5782   -1.4500   -0.1158 O   0  0  0  0  0  0  0  0  0  0  0  0
    1.6251    1.3065   -0.0182 H   0  0  0  0  0  0  0  0  0  0  0  0
    0.1731    1.8144   -0.9138 H   0  0  0  0  0  0  0  0  0  0  0  0
    0.1905    1.8815    0.8648 H   0  0  0  0  0  0  0  0  0  0  0  0
    0.0233   -0.2590    2.1387 H   0  0  0  0  0  0  0  0  0  0  0  0
    0.2753   -1.7669    1.2272 H   0  0  0  0  0  0  0  0  0  0  0  0
    1.5867   -0.5693    1.3464 H   0  0  0  0  0  0  0  0  0  0  0  0
   -1.8113    0.4684   -0.8436 H   0  0  0  0  0  0  0  0  0  0  0  0
   -1.8318   -1.0382    0.1042 H   0  0  0  0  0  0  0  0  0  0  0  0
   -1.7939    0.5355    0.9350 H   0  0  0  0  0  0  0  0  0  0  0  0
    0.1727   -1.8345   -1.0442 H   0  0  0  0  0  0  0  0  0  0  0  0
    0.0533   -0.3566   -2.0290 H   0  0  0  0  0  0  0  0  0  0  0  0
    2.3464   -1.1581   -2.1480 H   0  0  0  0  0  0  0  0  0  0  0  0
    2.3292    0.3186   -1.1543 H   0  0  0  0  0  0  0  0  0  0  0  0
    3.5451   -1.4478   -0.1023 H   0  0  0  0  0  0  0  0  0  0  0  0
  1  2  1  0  0  0  0
  1  8  1  0  0  0  0
  1  9  1  0  0  0  0
  1 10  1  0  0  0  0
  2  3  1  0  0  0  0
  2  4  1  0  0  0  0
  2  5  1  0  0  0  0
  3 11  1  0  0  0  0
  3 12  1  0  0  0  0
  3 13  1  0  0  0  0
  4 14  1  0  0  0  0
  4 15  1  0  0  0  0
  4 16  1  0  0  0  0
  5  6  1  0  0  0  0
  5 17  1  0  0  0  0
  5 18  1  0  0  0  0
  6  7  1  0  0  0  0
  6 19  1  0  0  0  0
  6 20  1  0  0  0  0
  7 21  1  0  0  0  0
M  CHG  1   2   1
M  END
$$$$
