ZINC00602128
 OpenBabel08292219463D

 52 54  0  0  1  0  0  0  0  0999 V2000
    3.1788    2.7896    1.0660 C   0  0  0  0  0  0  0  0  0  0  0  0
    3.9575    2.5346   -0.0527 C   0  0  0  0  0  0  0  0  0  0  0  0
    3.4136    1.8205   -1.1033 C   0  0  0  0  0  0  0  0  0  0  0  0
    2.1719    1.3794   -1.0479 N   0  0  0  0  0  0  0  0  0  0  0  0
    1.4011    1.6074   -0.0027 C   0  0  0  0  0  0  0  0  0  0  0  0
    1.8766    2.3145    1.0857 C   0  0  0  0  0  0  0  0  0  0  0  0
   -0.0127    1.0858    0.0080 C   0  0  2  0  0  0  0  0  0  0  0  0
    0.0021   -0.0041    0.0020 H   0  0  0  0  0  0  0  0  0  0  0  0
   -0.7416    1.5850   -1.2129 C   0  0  0  0  0  0  0  0  0  0  0  0
   -1.2571    2.8676   -1.2335 C   0  0  0  0  0  0  0  0  0  0  0  0
   -1.9208    3.3279   -2.3551 C   0  0  0  0  0  0  0  0  0  0  0  0
   -2.0789    2.5010   -3.4530 C   0  0  0  0  0  0  0  0  0  0  0  0
   -1.5677    1.2156   -3.4296 C   0  0  0  0  0  0  0  0  0  0  0  0
   -0.8993    0.7583   -2.3096 C   0  0  0  0  0  0  0  0  0  0  0  0
   -2.9191    3.0759   -4.8592 Cl  0  0  0  0  0  0  0  0  0  0  0  0
   -0.6816    1.5467    1.1837 O   0  0  0  0  0  0  0  0  0  0  0  0
   -0.5561    0.6699    2.3052 C   0  0  2  0  0  0  0  0  0  0  0  0
   -1.7102   -0.3364    2.2996 C   0  0  0  0  0  0  0  0  0  0  0  0
   -1.6055   -1.2320    3.5362 C   0  0  0  0  0  0  0  0  0  0  0  0
   -0.5315    0.5361    4.7982 C   0  0  0  0  0  0  0  0  0  0  0  0
   -0.6050    1.4855    3.6002 C   0  0  0  0  0  0  0  0  0  0  0  0
   -1.6984   -1.2417    5.9552 C   0  0  0  0  0  0  0  0  0  0  0  0
   -2.7180   -2.3659    5.7622 C   0  0  0  0  0  0  0  0  0  0  0  0
   -2.7603   -3.2374    7.0191 C   0  0  0  0  0  0  0  0  0  0  0  0
   -3.7646   -4.3447    6.8289 C   0  0  0  0  0  0  0  0  0  0  0  0
   -4.3831   -4.4283    5.7944 O   0  0  0  0  0  0  0  0  0  0  0  0
    3.5775    3.3448    1.9022 H   0  0  0  0  0  0  0  0  0  0  0  0
    4.9762    2.8900   -0.1025 H   0  0  0  0  0  0  0  0  0  0  0  0
    4.0135    1.6178   -1.9781 H   0  0  0  0  0  0  0  0  0  0  0  0
    1.2416    2.4948    1.9405 H   0  0  0  0  0  0  0  0  0  0  0  0
   -1.1374    3.5114   -0.3748 H   0  0  0  0  0  0  0  0  0  0  0  0
   -2.3196    4.3314   -2.3728 H   0  0  0  0  0  0  0  0  0  0  0  0
   -1.6912    0.5696   -4.2862 H   0  0  0  0  0  0  0  0  0  0  0  0
   -0.5005   -0.2452   -2.2911 H   0  0  0  0  0  0  0  0  0  0  0  0
    0.3926    0.1365    2.2462 H   0  0  0  0  0  0  0  0  0  0  0  0
   -2.6597    0.1987    2.3182 H   0  0  0  0  0  0  0  0  0  0  0  0
   -1.6546   -0.9489    1.3997 H   0  0  0  0  0  0  0  0  0  0  0  0
   -0.6625   -1.7779    3.5093 H   0  0  0  0  0  0  0  0  0  0  0  0
   -2.4347   -1.9395    3.5432 H   0  0  0  0  0  0  0  0  0  0  0  0
    0.4065   -0.0181    4.7655 H   0  0  0  0  0  0  0  0  0  0  0  0
   -0.5804    1.1126    5.7220 H   0  0  0  0  0  0  0  0  0  0  0  0
    0.2398    2.1737    3.6289 H   0  0  0  0  0  0  0  0  0  0  0  0
   -1.5362    2.0505    3.6395 H   0  0  0  0  0  0  0  0  0  0  0  0
   -0.7126   -1.6717    6.1325 H   0  0  0  0  0  0  0  0  0  0  0  0
   -1.9879   -0.6315    6.8108 H   0  0  0  0  0  0  0  0  0  0  0  0
   -3.7038   -1.9359    5.5849 H   0  0  0  0  0  0  0  0  0  0  0  0
   -2.4285   -2.9760    4.9066 H   0  0  0  0  0  0  0  0  0  0  0  0
   -1.7746   -3.6674    7.1964 H   0  0  0  0  0  0  0  0  0  0  0  0
   -3.0498   -2.6273    7.8747 H   0  0  0  0  0  0  0  0  0  0  0  0
   -1.6834   -0.3894    4.7484 N   0  3  2  0  0  0  0  0  0  0  0  0
   -2.5506    0.1595    4.7171 H   0  0  0  0  0  0  0  0  0  0  0  0
   -3.9721   -5.2382    7.8090 O   0  0  0  0  0  1  0  0  0  0  0  0
  1  6  2  0  0  0  0
  1  2  1  0  0  0  0
  1 27  1  0  0  0  0
  2  3  2  0  0  0  0
  2 28  1  0  0  0  0
  3  4  1  0  0  0  0
  3 29  1  0  0  0  0
  4  5  2  0  0  0  0
  5  6  1  0  0  0  0
  5  7  1  0  0  0  0
  6 30  1  0  0  0  0
  7  8  1  6  0  0  0
  7  9  1  0  0  0  0
  7 16  1  0  0  0  0
  9 14  2  0  0  0  0
  9 10  1  0  0  0  0
 10 11  2  0  0  0  0
 10 31  1  0  0  0  0
 11 12  1  0  0  0  0
 11 32  1  0  0  0  0
 12 13  2  0  0  0  0
 12 15  1  0  0  0  0
 13 14  1  0  0  0  0
 13 33  1  0  0  0  0
 14 34  1  0  0  0  0
 16 17  1  0  0  0  0
 17 21  1  0  0  0  0
 17 18  1  0  0  0  0
 17 35  1  6  0  0  0
 18 19  1  0  0  0  0
 18 36  1  0  0  0  0
 18 37  1  0  0  0  0
 19 38  1  0  0  0  0
 19 39  1  0  0  0  0
 19 50  1  0  0  0  0
 20 21  1  0  0  0  0
 20 40  1  0  0  0  0
 20 41  1  0  0  0  0
 20 50  1  0  0  0  0
 21 42  1  0  0  0  0
 21 43  1  0  0  0  0
 22 23  1  0  0  0  0
 22 44  1  0  0  0  0
 22 45  1  0  0  0  0
 22 50  1  0  0  0  0
 23 24  1  0  0  0  0
 23 46  1  0  0  0  0
 23 47  1  0  0  0  0
 24 25  1  0  0  0  0
 24 48  1  0  0  0  0
 24 49  1  0  0  0  0
 25 26  2  0  0  0  0
 25 52  1  0  0  0  0
 50 51  1  6  0  0  0
M  CHG  1  50   1
M  END
$$$$
