ZINC95617679
 OpenBabel08292219463D

124128  0  0  1  0  0  0  0  0999 V2000
    0.0437    0.9314    1.2606 C   0  0  0  0  0  0  0  0  0  0  0  0
    0.2282   -0.5822    1.1337 C   0  0  0  0  0  0  0  0  0  0  0  0
   -1.1661   -1.2614    0.9073 C   0  0  1  0  0  0  0  0  0  0  0  0
   -1.7094   -0.6813    0.1100 H   0  0  0  0  0  0  0  0  0  0  0  0
   -0.9604   -2.6728    0.6026 C   0  0  1  0  0  0  0  0  0  0  0  0
   -1.9841   -3.3149   -0.4335 C   0  0  1  0  0  0  0  0  0  0  0  0
   -2.7863   -3.8032    0.1856 H   0  0  0  0  0  0  0  0  0  0  0  0
   -2.5071   -2.2118   -1.2904 C   0  0  2  0  0  0  0  0  0  0  0  0
   -2.7594   -1.3720   -0.8062 H   0  0  0  0  0  0  0  0  0  0  0  0
   -3.8407   -2.7281   -1.8954 C   0  0  0  0  0  0  0  0  0  0  0  0
   -3.9525   -3.8604   -2.2638 O   0  0  0  0  0  0  0  0  0  0  0  0
   -4.9795   -1.8134   -2.1830 C   0  0  1  0  0  0  0  0  0  0  0  0
   -5.8404   -2.4944   -2.4772 H   0  0  0  0  0  0  0  0  0  0  0  0
   -5.4400   -1.1509   -0.8847 C   0  0  0  0  0  0  0  0  0  0  0  0
   -5.4249    0.3179   -0.7707 C   0  0  1  0  0  0  0  0  0  0  0  0
   -6.0858    0.7646    0.5401 C   0  0  1  0  0  0  0  0  0  0  0  0
   -6.0499   -0.2025    1.1944 H   0  0  0  0  0  0  0  0  0  0  0  0
   -5.4942    1.8710    1.3159 C   0  0  2  0  0  0  0  0  0  0  0  0
   -4.9035    2.5321    0.6899 H   0  0  0  0  0  0  0  0  0  0  0  0
   -4.6778    1.4136    2.4363 C   0  0  0  0  0  0  0  0  0  0  0  0
   -5.2049    1.2943    3.5406 O   0  0  0  0  0  0  0  0  0  0  0  0
   -3.2008    1.0332    2.3469 C   0  0  2  0  0  0  0  0  0  0  0  0
   -2.7584    1.5801    1.4598 H   0  0  0  0  0  0  0  0  0  0  0  0
   -3.0927   -0.4959    2.1371 C   0  0  0  0  0  0  0  0  0  0  0  0
   -3.9992   -1.1146    1.9696 O   0  0  0  0  0  0  0  0  0  0  0  0
   -1.8093   -1.0280    2.1082 O   0  0  0  0  0  0  0  0  0  0  0  0
   -2.4472    1.4585    3.5976 C   0  0  0  0  0  0  0  0  0  0  0  0
   -6.5990    2.7571    1.9025 C   0  0  0  0  0  0  0  0  0  0  0  0
   -7.4823    0.9671    0.3786 O   0  0  0  0  0  0  0  0  0  0  0  0
   -8.2903    0.1419    1.2201 C   0  0  1  0  0  0  0  0  0  0  0  0
   -7.9969    0.2855    2.2600 H   0  0  0  0  0  0  0  0  0  0  0  0
   -9.7628    0.5239    1.0478 C   0  0  1  0  0  0  0  0  0  0  0  0
  -10.0460    0.4195    0.0005 H   0  0  0  0  0  0  0  0  0  0  0  0
  -10.6269   -0.4043    1.9068 C   0  0  2  0  0  0  0  0  0  0  0  0
  -10.3783   -0.2640    2.9588 H   0  0  0  0  0  0  0  0  0  0  0  0
  -10.3523   -1.8566    1.5047 C   0  0  0  0  0  0  0  0  0  0  0  0
   -8.8571   -2.1467    1.6594 C   0  0  2  0  0  0  0  0  0  0  0  0
   -8.5711   -2.0333    2.7051 H   0  0  0  0  0  0  0  0  0  0  0  0
   -8.1096   -1.2288    0.8588 O   0  0  0  0  0  0  0  0  0  0  0  0
   -8.5650   -3.5775    1.2029 C   0  0  0  0  0  0  0  0  0  0  0  0
  -12.0464   -0.0930    1.6916 N   0  3  0  0  0  0  0  0  0  0  0  0
  -12.4098   -0.4002    0.3018 C   0  0  0  0  0  0  0  0  0  0  0  0
  -12.8684   -0.9005    2.6027 C   0  0  0  0  0  0  0  0  0  0  0  0
   -9.9565    1.8778    1.4621 O   0  0  0  0  0  0  0  0  0  0  0  0
   -4.0793    0.9336   -0.8304 C   0  0  0  0  0  0  0  0  0  0  0  0
   -6.3122    0.9261   -1.7718 O   0  0  0  0  0  0  0  0  0  0  0  0
   -6.2676    2.3542   -1.7968 C   0  0  0  0  0  0  0  0  0  0  0  0
   -4.6940   -0.7928   -3.3465 C   0  0  0  0  0  0  0  0  0  0  0  0
   -1.5974   -1.9589   -2.4611 C   0  0  0  0  0  0  0  0  0  0  0  0
   -1.1069   -4.2370   -1.0862 N   0  0  0  0  0  0  0  0  0  0  0  0
    0.1784   -3.9354   -0.7723 C   0  0  0  0  0  0  0  0  0  0  0  0
    1.1026   -4.5186   -1.2987 O   0  0  0  0  0  0  0  0  0  0  0  0
    0.3169   -2.9356    0.0513 O   0  0  0  0  0  0  0  0  0  0  0  0
   -1.5263   -5.4481   -1.8974 C   0  0  0  0  0  0  0  0  0  0  0  0
   -1.7022   -5.0445   -3.3627 C   0  0  0  0  0  0  0  0  0  0  0  0
   -2.1252   -6.2661   -4.1810 C   0  0  0  0  0  0  0  0  0  0  0  0
   -2.3011   -5.8624   -5.6463 C   0  0  0  0  0  0  0  0  0  0  0  0
   -2.7061   -7.0321   -6.4298 N   0  0  0  0  0  0  0  0  0  0  0  0
   -1.8711   -7.9187   -7.0504 C   0  0  0  0  0  0  0  0  0  0  0  0
   -2.6628   -8.8411   -7.6573 C   0  0  0  0  0  0  0  0  0  0  0  0
   -3.9455   -8.5111   -7.4035 N   0  0  0  0  0  0  0  0  0  0  0  0
   -3.9735   -7.4360   -6.6668 C   0  0  0  0  0  0  0  0  0  0  0  0
   -2.1994  -10.0027   -8.4557 C   0  0  0  0  0  0  0  0  0  0  0  0
   -3.1184  -10.8190   -9.1213 C   0  0  0  0  0  0  0  0  0  0  0  0
   -2.6355  -11.8901   -9.8528 C   0  0  0  0  0  0  0  0  0  0  0  0
   -1.2718  -12.1165   -9.9013 C   0  0  0  0  0  0  0  0  0  0  0  0
   -0.4287  -11.3288   -9.2626 N   0  0  0  0  0  0  0  0  0  0  0  0
   -0.8410  -10.2942   -8.5587 C   0  0  0  0  0  0  0  0  0  0  0  0
   -1.0720   -3.4772    1.9036 C   0  0  0  0  0  0  0  0  0  0  0  0
    0.9953    1.3926    1.5245 H   0  0  0  0  0  0  0  0  0  0  0  0
   -0.3049    1.3358    0.3103 H   0  0  0  0  0  0  0  0  0  0  0  0
   -0.6909    1.1440    2.0373 H   0  0  0  0  0  0  0  0  0  0  0  0
    0.8798   -0.7990    0.2873 H   0  0  0  0  0  0  0  0  0  0  0  0
    0.6778   -0.9712    2.0473 H   0  0  0  0  0  0  0  0  0  0  0  0
   -6.4487   -1.5600   -0.6196 H   0  0  0  0  0  0  0  0  0  0  0  0
   -4.8030   -1.5362   -0.0586 H   0  0  0  0  0  0  0  0  0  0  0  0
   -2.9396    1.0439    4.4772 H   0  0  0  0  0  0  0  0  0  0  0  0
   -1.4226    1.0901    3.5473 H   0  0  0  0  0  0  0  0  0  0  0  0
   -2.4392    2.5464    3.6646 H   0  0  0  0  0  0  0  0  0  0  0  0
   -7.2188    2.1664    2.5771 H   0  0  0  0  0  0  0  0  0  0  0  0
   -6.1484    3.5831    2.4528 H   0  0  0  0  0  0  0  0  0  0  0  0
   -7.2153    3.1520    1.0949 H   0  0  0  0  0  0  0  0  0  0  0  0
  -10.9219   -2.5268    2.1486 H   0  0  0  0  0  0  0  0  0  0  0  0
  -10.6474   -2.0092    0.4666 H   0  0  0  0  0  0  0  0  0  0  0  0
   -8.8507   -3.6906    0.1571 H   0  0  0  0  0  0  0  0  0  0  0  0
   -7.5004   -3.7839    1.3131 H   0  0  0  0  0  0  0  0  0  0  0  0
   -9.1359   -4.2773    1.8132 H   0  0  0  0  0  0  0  0  0  0  0  0
  -12.2362   -1.4584    0.1063 H   0  0  0  0  0  0  0  0  0  0  0  0
  -13.4630   -0.1692    0.1421 H   0  0  0  0  0  0  0  0  0  0  0  0
  -11.7998    0.1990   -0.3742 H   0  0  0  0  0  0  0  0  0  0  0  0
  -12.6110   -0.6598    3.6341 H   0  0  0  0  0  0  0  0  0  0  0  0
  -13.9224   -0.6823    2.4308 H   0  0  0  0  0  0  0  0  0  0  0  0
  -12.6818   -1.9586    2.4191 H   0  0  0  0  0  0  0  0  0  0  0  0
   -9.4350    2.5205    0.9622 H   0  0  0  0  0  0  0  0  0  0  0  0
   -3.6223    0.7153   -1.7956 H   0  0  0  0  0  0  0  0  0  0  0  0
   -4.1677    2.0129   -0.7060 H   0  0  0  0  0  0  0  0  0  0  0  0
   -3.4574    0.5259   -0.0334 H   0  0  0  0  0  0  0  0  0  0  0  0
   -7.0011    2.7282   -2.5111 H   0  0  0  0  0  0  0  0  0  0  0  0
   -6.4965    2.7423   -0.8042 H   0  0  0  0  0  0  0  0  0  0  0  0
   -5.2713    2.6815   -2.0940 H   0  0  0  0  0  0  0  0  0  0  0  0
   -4.5747   -1.3351   -4.2844 H   0  0  0  0  0  0  0  0  0  0  0  0
   -5.5288   -0.0972   -3.4326 H   0  0  0  0  0  0  0  0  0  0  0  0
   -3.7809   -0.2391   -3.1282 H   0  0  0  0  0  0  0  0  0  0  0  0
   -1.5217   -2.8635   -3.0645 H   0  0  0  0  0  0  0  0  0  0  0  0
   -2.0032   -1.1499   -3.0685 H   0  0  0  0  0  0  0  0  0  0  0  0
   -0.6079   -1.6801   -2.0987 H   0  0  0  0  0  0  0  0  0  0  0  0
   -0.7593   -6.2190   -1.8225 H   0  0  0  0  0  0  0  0  0  0  0  0
   -2.4694   -5.8352   -1.5115 H   0  0  0  0  0  0  0  0  0  0  0  0
   -2.4692   -4.2736   -3.4377 H   0  0  0  0  0  0  0  0  0  0  0  0
   -0.7591   -4.6574   -3.7487 H   0  0  0  0  0  0  0  0  0  0  0  0
   -1.3582   -7.0369   -4.1060 H   0  0  0  0  0  0  0  0  0  0  0  0
   -3.0682   -6.6531   -3.7951 H   0  0  0  0  0  0  0  0  0  0  0  0
   -3.0681   -5.0916   -5.7212 H   0  0  0  0  0  0  0  0  0  0  0  0
   -1.3580   -5.4754   -6.0322 H   0  0  0  0  0  0  0  0  0  0  0  0
   -0.7915   -7.8910   -7.0576 H   0  0  0  0  0  0  0  0  0  0  0  0
   -4.8657   -6.9458   -6.3062 H   0  0  0  0  0  0  0  0  0  0  0  0
   -4.1783  -10.6191   -9.0659 H   0  0  0  0  0  0  0  0  0  0  0  0
   -3.3162  -12.5424  -10.3797 H   0  0  0  0  0  0  0  0  0  0  0  0
   -0.8916  -12.9517  -10.4709 H   0  0  0  0  0  0  0  0  0  0  0  0
   -0.1197   -9.6692   -8.0532 H   0  0  0  0  0  0  0  0  0  0  0  0
   -2.0659   -3.3419    2.3302 H   0  0  0  0  0  0  0  0  0  0  0  0
   -0.9079   -4.5339    1.6926 H   0  0  0  0  0  0  0  0  0  0  0  0
   -0.3216   -3.1274    2.6125 H   0  0  0  0  0  0  0  0  0  0  0  0
  -12.2070    0.8866    1.8725 H   0  0  0  0  0  0  0  0  0  0  0  0
  1  2  1  0  0  0  0
  1 70  1  0  0  0  0
  1 71  1  0  0  0  0
  1 72  1  0  0  0  0
  2  3  1  0  0  0  0
  2 73  1  0  0  0  0
  2 74  1  0  0  0  0
  3  4  1  6  0  0  0
  3 26  1  0  0  0  0
  3  5  1  0  0  0  0
  5 53  1  0  0  0  0
  5  6  1  0  0  0  0
  5 69  1  1  0  0  0
  6  7  1  1  0  0  0
  6  8  1  0  0  0  0
  6 50  1  0  0  0  0
  8  9  1  1  0  0  0
  8 10  1  0  0  0  0
  8 49  1  0  0  0  0
 10 11  2  0  0  0  0
 10 12  1  0  0  0  0
 12 13  1  6  0  0  0
 12 14  1  0  0  0  0
 12 48  1  0  0  0  0
 14 15  1  0  0  0  0
 14 75  1  0  0  0  0
 14 76  1  0  0  0  0
 15 16  1  0  0  0  0
 15 45  1  0  0  0  0
 15 46  1  6  0  0  0
 16 17  1  1  0  0  0
 16 18  1  0  0  0  0
 16 29  1  0  0  0  0
 18 19  1  6  0  0  0
 18 20  1  0  0  0  0
 18 28  1  0  0  0  0
 20 21  2  0  0  0  0
 20 22  1  0  0  0  0
 22 23  1  6  0  0  0
 22 24  1  0  0  0  0
 22 27  1  0  0  0  0
 24 25  2  0  0  0  0
 24 26  1  0  0  0  0
 27 77  1  0  0  0  0
 27 78  1  0  0  0  0
 27 79  1  0  0  0  0
 28 80  1  0  0  0  0
 28 81  1  0  0  0  0
 28 82  1  0  0  0  0
 29 30  1  0  0  0  0
 30 31  1  1  0  0  0
 30 39  1  0  0  0  0
 30 32  1  0  0  0  0
 32 33  1  6  0  0  0
 32 34  1  0  0  0  0
 32 44  1  0  0  0  0
 34 35  1  1  0  0  0
 34 36  1  0  0  0  0
 34 41  1  0  0  0  0
 36 37  1  0  0  0  0
 36 83  1  0  0  0  0
 36 84  1  0  0  0  0
 37 38  1  1  0  0  0
 37 39  1  0  0  0  0
 37 40  1  0  0  0  0
 40 85  1  0  0  0  0
 40 86  1  0  0  0  0
 40 87  1  0  0  0  0
 41 42  1  0  0  0  0
 41 43  1  0  0  0  0
 41124  1  0  0  0  0
 42 88  1  0  0  0  0
 42 89  1  0  0  0  0
 42 90  1  0  0  0  0
 43 91  1  0  0  0  0
 43 92  1  0  0  0  0
 43 93  1  0  0  0  0
 44 94  1  0  0  0  0
 45 95  1  0  0  0  0
 45 96  1  0  0  0  0
 45 97  1  0  0  0  0
 46 47  1  0  0  0  0
 47 98  1  0  0  0  0
 47 99  1  0  0  0  0
 47100  1  0  0  0  0
 48101  1  0  0  0  0
 48102  1  0  0  0  0
 48103  1  0  0  0  0
 49104  1  0  0  0  0
 49105  1  0  0  0  0
 49106  1  0  0  0  0
 50 51  1  0  0  0  0
 50 54  1  0  0  0  0
 51 52  2  0  0  0  0
 51 53  1  0  0  0  0
 54 55  1  0  0  0  0
 54107  1  0  0  0  0
 54108  1  0  0  0  0
 55 56  1  0  0  0  0
 55109  1  0  0  0  0
 55110  1  0  0  0  0
 56 57  1  0  0  0  0
 56111  1  0  0  0  0
 56112  1  0  0  0  0
 57 58  1  0  0  0  0
 57113  1  0  0  0  0
 57114  1  0  0  0  0
 58 62  1  0  0  0  0
 58 59  1  0  0  0  0
 59 60  2  0  0  0  0
 59115  1  0  0  0  0
 60 61  1  0  0  0  0
 60 63  1  0  0  0  0
 61 62  2  0  0  0  0
 62116  1  0  0  0  0
 63 68  2  0  0  0  0
 63 64  1  0  0  0  0
 64 65  2  0  0  0  0
 64117  1  0  0  0  0
 65 66  1  0  0  0  0
 65118  1  0  0  0  0
 66 67  2  0  0  0  0
 66119  1  0  0  0  0
 67 68  1  0  0  0  0
 68120  1  0  0  0  0
 69121  1  0  0  0  0
 69122  1  0  0  0  0
 69123  1  0  0  0  0
M  CHG  1  41   1
M  END
$$$$
