ZINC01683250
 OpenBabel08292219463D

 30 29  0  0  1  0  0  0  0  0999 V2000
    0.1160    0.3514   -1.2383 C   0  0  0  0  0  0  0  0  0  0  0  0
    0.2449   -1.1134   -0.8157 C   0  0  2  0  0  0  0  0  0  0  0  0
   -0.7401   -1.5802   -0.8177 H   0  0  0  0  0  0  0  0  0  0  0  0
    0.8418   -1.1877    0.5911 C   0  0  0  0  0  0  0  0  0  0  0  0
    0.8554   -2.6430    1.0631 C   0  0  0  0  0  0  0  0  0  0  0  0
    1.4432   -2.7163    2.4488 C   0  0  0  0  0  0  0  0  0  0  0  0
    0.7406   -3.2208    3.4325 C   0  0  0  0  0  0  0  0  0  0  0  0
   -0.6994   -3.6056    3.2101 C   0  0  0  0  0  0  0  0  0  0  0  0
    1.3722   -3.4164    4.7867 C   0  0  0  0  0  0  0  0  0  0  0  0
    1.1232   -1.8194   -1.7582 N   0  3  0  0  0  0  0  0  0  0  0  0
    0.4929   -1.8516   -3.0847 C   0  0  0  0  0  0  0  0  0  0  0  0
    1.1010    0.8182   -1.2363 H   0  0  0  0  0  0  0  0  0  0  0  0
   -0.3092    0.4044   -2.2405 H   0  0  0  0  0  0  0  0  0  0  0  0
   -0.5357    0.8753   -0.5390 H   0  0  0  0  0  0  0  0  0  0  0  0
    1.8610   -0.8017    0.5743 H   0  0  0  0  0  0  0  0  0  0  0  0
    0.2380   -0.5899    1.2740 H   0  0  0  0  0  0  0  0  0  0  0  0
   -0.1638   -3.0291    1.0799 H   0  0  0  0  0  0  0  0  0  0  0  0
    1.4591   -3.2408    0.3802 H   0  0  0  0  0  0  0  0  0  0  0  0
    2.4438   -2.3528    2.6308 H   0  0  0  0  0  0  0  0  0  0  0  0
   -0.7464   -4.6122    2.7945 H   0  0  0  0  0  0  0  0  0  0  0  0
   -1.2334   -3.5793    4.1599 H   0  0  0  0  0  0  0  0  0  0  0  0
   -1.1598   -2.9037    2.5148 H   0  0  0  0  0  0  0  0  0  0  0  0
    1.2294   -2.5181    5.3874 H   0  0  0  0  0  0  0  0  0  0  0  0
    0.9054   -4.2654    5.2862 H   0  0  0  0  0  0  0  0  0  0  0  0
    2.4386   -3.6071    4.6661 H   0  0  0  0  0  0  0  0  0  0  0  0
    2.0082   -1.3385   -1.8179 H   0  0  0  0  0  0  0  0  0  0  0  0
   -0.4632   -2.3711   -3.0201 H   0  0  0  0  0  0  0  0  0  0  0  0
    0.3296   -0.8322   -3.4342 H   0  0  0  0  0  0  0  0  0  0  0  0
    1.1446   -2.3754   -3.7840 H   0  0  0  0  0  0  0  0  0  0  0  0
    1.2744   -2.7631   -1.4346 H   0  0  0  0  0  0  0  0  0  0  0  0
  1  2  1  0  0  0  0
  1 12  1  0  0  0  0
  1 13  1  0  0  0  0
  1 14  1  0  0  0  0
  2  3  1  6  0  0  0
  2  4  1  0  0  0  0
  2 10  1  0  0  0  0
  4  5  1  0  0  0  0
  4 15  1  0  0  0  0
  4 16  1  0  0  0  0
  5  6  1  0  0  0  0
  5 17  1  0  0  0  0
  5 18  1  0  0  0  0
  6  7  2  0  0  0  0
  6 19  1  0  0  0  0
  7  8  1  0  0  0  0
  7  9  1  0  0  0  0
  8 20  1  0  0  0  0
  8 21  1  0  0  0  0
  8 22  1  0  0  0  0
  9 23  1  0  0  0  0
  9 24  1  0  0  0  0
  9 25  1  0  0  0  0
 10 11  1  0  0  0  0
 10 26  1  0  0  0  0
 10 30  1  0  0  0  0
 11 27  1  0  0  0  0
 11 28  1  0  0  0  0
 11 29  1  0  0  0  0
M  CHG  1  10   1
M  END
$$$$
