ZINC01482184
 OpenBabel08292219463D

 20 21  0  0  0  0  0  0  0  0999 V2000
   -0.0178    1.4608    0.0101 C   0  0  0  0  0  0  0  0  0  0  0  0
    0.0021   -0.0041    0.0020 N   0  0  0  0  0  0  0  0  0  0  0  0
   -1.1563   -0.6977    0.0037 C   0  0  0  0  0  0  0  0  0  0  0  0
   -2.2227   -0.1148    0.0119 O   0  0  0  0  0  0  0  0  0  0  0  0
   -1.1150   -2.0444   -0.0043 N   0  0  0  0  0  0  0  0  0  0  0  0
   -2.0810   -3.0051   -0.0051 C   0  0  0  0  0  0  0  0  0  0  0  0
   -1.5244   -4.1812   -0.0146 N   0  0  0  0  0  0  0  0  0  0  0  0
   -0.1801   -4.0487   -0.0204 C   0  0  0  0  0  0  0  0  0  0  0  0
    0.1008   -2.6867   -0.0139 C   0  0  0  0  0  0  0  0  0  0  0  0
    1.2466   -1.9800   -0.0149 N   0  0  0  0  0  0  0  0  0  0  0  0
    1.2231   -0.6909   -0.0133 N   0  0  0  0  0  0  0  0  0  0  0  0
    0.8022   -5.1401   -0.0311 C   0  0  0  0  0  0  0  0  0  0  0  0
    1.9925   -4.8873   -0.0351 O   0  0  0  0  0  0  0  0  0  0  0  0
    0.3854   -6.4218   -0.0365 N   0  0  0  0  0  0  0  0  0  0  0  0
    1.0048    1.8381    0.0023 H   0  0  0  0  0  0  0  0  0  0  0  0
   -0.5450    1.8219   -0.8730 H   0  0  0  0  0  0  0  0  0  0  0  0
   -0.5280    1.8123    0.9069 H   0  0  0  0  0  0  0  0  0  0  0  0
   -3.1448   -2.8191    0.0012 H   0  0  0  0  0  0  0  0  0  0  0  0
   -0.5634   -6.6232   -0.0333 H   0  0  0  0  0  0  0  0  0  0  0  0
    1.0343   -7.1427   -0.0435 H   0  0  0  0  0  0  0  0  0  0  0  0
  1  2  1  0  0  0  0
  1 15  1  0  0  0  0
  1 16  1  0  0  0  0
  1 17  1  0  0  0  0
  2 11  1  0  0  0  0
  2  3  1  0  0  0  0
  3  4  2  0  0  0  0
  3  5  1  0  0  0  0
  5  9  1  0  0  0  0
  5  6  1  0  0  0  0
  6  7  2  0  0  0  0
  6 18  1  0  0  0  0
  7  8  1  0  0  0  0
  8  9  2  0  0  0  0
  8 12  1  0  0  0  0
  9 10  1  0  0  0  0
 10 11  2  0  0  0  0
 12 13  2  0  0  0  0
 12 14  1  0  0  0  0
 14 19  1  0  0  0  0
 14 20  1  0  0  0  0
M  END
$$$$
