ZINC52957434
 OpenBabel08292219463D

 42 45  0  0  0  0  0  0  0  0999 V2000
   -0.0944    1.5263   -0.1201 C   0  0  0  0  0  0  0  0  0  0  0  0
   -0.0505    0.0202   -0.0907 C   0  0  0  0  0  0  0  0  0  0  0  0
   -1.0807   -0.8454   -0.0644 C   0  0  0  0  0  0  0  0  0  0  0  0
   -0.7418   -2.2563   -0.0406 C   0  0  0  0  0  0  0  0  0  0  0  0
    0.6238   -2.5293   -0.0718 C   0  0  0  0  0  0  0  0  0  0  0  0
    1.3770   -1.0447   -0.0901 S   0  0  0  0  0  0  0  0  0  0  0  0
    1.1872   -3.7946   -0.1169 N   0  0  0  0  0  0  0  0  0  0  0  0
    0.7759   -4.6303   -1.1815 C   0  0  0  0  0  0  0  0  0  0  0  0
    1.7302   -5.1445   -2.0382 C   0  0  0  0  0  0  0  0  0  0  0  0
    1.3513   -5.9441   -3.1053 C   0  0  0  0  0  0  0  0  0  0  0  0
    0.0149   -6.2253   -3.3132 C   0  0  0  0  0  0  0  0  0  0  0  0
   -0.9459   -5.7252   -2.4574 C   0  0  0  0  0  0  0  0  0  0  0  0
   -0.5794   -4.9262   -1.3671 C   0  0  0  0  0  0  0  0  0  0  0  0
   -1.5605   -4.5108   -0.5207 N   0  0  0  0  0  0  0  0  0  0  0  0
   -1.7264   -3.3603    0.0396 C   0  0  0  0  0  0  0  0  0  0  0  0
   -2.8842   -3.1467    0.7528 N   0  0  0  0  0  0  0  0  0  0  0  0
   -3.9636   -4.1457    0.7567 C   0  0  0  0  0  0  0  0  0  0  0  0
   -4.3489   -4.4403    2.2103 C   0  0  0  0  0  0  0  0  0  0  0  0
   -4.6668   -3.1798    2.8945 N   0  0  0  0  0  0  0  0  0  0  0  0
   -3.4950   -2.2959    2.9543 C   0  0  0  0  0  0  0  0  0  0  0  0
   -3.0721   -1.9161    1.5361 C   0  0  0  0  0  0  0  0  0  0  0  0
   -5.2057   -3.4313    4.2377 C   0  0  0  0  0  0  0  0  0  0  0  0
    0.9222    1.9190   -0.1423 H   0  0  0  0  0  0  0  0  0  0  0  0
   -0.6310    1.8568   -1.0094 H   0  0  0  0  0  0  0  0  0  0  0  0
   -0.6060    1.8924    0.7700 H   0  0  0  0  0  0  0  0  0  0  0  0
   -2.1065   -0.5075   -0.0608 H   0  0  0  0  0  0  0  0  0  0  0  0
    1.8293   -4.0917    0.5466 H   0  0  0  0  0  0  0  0  0  0  0  0
    2.7746   -4.9225   -1.8762 H   0  0  0  0  0  0  0  0  0  0  0  0
    2.0991   -6.3460   -3.7728 H   0  0  0  0  0  0  0  0  0  0  0  0
   -0.2801   -6.8405   -4.1504 H   0  0  0  0  0  0  0  0  0  0  0  0
   -1.9878   -5.9514   -2.6300 H   0  0  0  0  0  0  0  0  0  0  0  0
   -4.8280   -3.7529    0.2212 H   0  0  0  0  0  0  0  0  0  0  0  0
   -3.6171   -5.0610    0.2770 H   0  0  0  0  0  0  0  0  0  0  0  0
   -5.2205   -5.0947    2.2301 H   0  0  0  0  0  0  0  0  0  0  0  0
   -3.5156   -4.9284    2.7157 H   0  0  0  0  0  0  0  0  0  0  0  0
   -3.7472   -1.3950    3.5137 H   0  0  0  0  0  0  0  0  0  0  0  0
   -2.6736   -2.8139    3.4494 H   0  0  0  0  0  0  0  0  0  0  0  0
   -2.1365   -1.3580    1.5715 H   0  0  0  0  0  0  0  0  0  0  0  0
   -3.8491   -1.3049    1.0770 H   0  0  0  0  0  0  0  0  0  0  0  0
   -4.4683   -3.9738    4.8294 H   0  0  0  0  0  0  0  0  0  0  0  0
   -5.4324   -2.4814    4.7219 H   0  0  0  0  0  0  0  0  0  0  0  0
   -6.1163   -4.0252    4.1585 H   0  0  0  0  0  0  0  0  0  0  0  0
  1  2  1  0  0  0  0
  1 23  1  0  0  0  0
  1 24  1  0  0  0  0
  1 25  1  0  0  0  0
  2  6  1  0  0  0  0
  2  3  2  0  0  0  0
  3  4  1  0  0  0  0
  3 26  1  0  0  0  0
  4 15  1  0  0  0  0
  4  5  2  0  0  0  0
  5  6  1  0  0  0  0
  5  7  1  0  0  0  0
  7  8  1  0  0  0  0
  7 27  1  0  0  0  0
  8 13  2  0  0  0  0
  8  9  1  0  0  0  0
  9 10  2  0  0  0  0
  9 28  1  0  0  0  0
 10 11  1  0  0  0  0
 10 29  1  0  0  0  0
 11 12  2  0  0  0  0
 11 30  1  0  0  0  0
 12 13  1  0  0  0  0
 12 31  1  0  0  0  0
 13 14  1  0  0  0  0
 14 15  2  0  0  0  0
 15 16  1  0  0  0  0
 16 21  1  0  0  0  0
 16 17  1  0  0  0  0
 17 18  1  0  0  0  0
 17 32  1  0  0  0  0
 17 33  1  0  0  0  0
 18 19  1  0  0  0  0
 18 34  1  0  0  0  0
 18 35  1  0  0  0  0
 19 20  1  0  0  0  0
 19 22  1  0  0  0  0
 20 21  1  0  0  0  0
 20 36  1  0  0  0  0
 20 37  1  0  0  0  0
 21 38  1  0  0  0  0
 21 39  1  0  0  0  0
 22 40  1  0  0  0  0
 22 41  1  0  0  0  0
 22 42  1  0  0  0  0
M  END
$$$$
