ZINC02015928
 OpenBabel08292219463D

 39 42  0  0  1  0  0  0  0  0999 V2000
   -0.2017    1.5139    0.3355 C   0  0  0  0  0  0  0  0  0  0  0  0
    0.9917    2.0299    0.2922 N   0  0  0  0  0  0  0  0  0  0  0  0
    1.8979    1.0513    0.0489 C   0  0  0  0  0  0  0  0  0  0  0  0
    3.2954    1.0161   -0.1005 C   0  0  0  0  0  0  0  0  0  0  0  0
    3.8794   -0.1524   -0.3403 N   0  0  0  0  0  0  0  0  0  0  0  0
    3.1671   -1.2679   -0.4384 C   0  0  0  0  0  0  0  0  0  0  0  0
    1.8510   -1.2794   -0.3046 N   0  0  0  0  0  0  0  0  0  0  0  0
    1.1858   -0.1539   -0.0631 C   0  0  0  0  0  0  0  0  0  0  0  0
   -0.1349    0.1679    0.1220 N   0  0  0  0  0  0  0  0  0  0  0  0
   -1.2660   -0.7628    0.0952 C   0  0  2  0  0  0  0  0  0  0  0  0
   -2.0198   -0.4227   -0.6149 H   0  0  0  0  0  0  0  0  0  0  0  0
   -1.8808   -0.9041    1.5070 C   0  0  0  0  0  0  0  0  0  0  0  0
   -1.1389   -2.1517    2.0402 C   0  0  1  0  0  0  0  0  0  0  0  0
   -1.8068   -2.7580    2.6520 H   0  0  0  0  0  0  0  0  0  0  0  0
   -0.7254   -2.9114    0.8011 C   0  0  0  0  0  0  0  0  0  0  0  0
   -0.7952   -2.1533   -0.2625 C   0  0  0  0  0  0  0  0  0  0  0  0
    0.0916   -1.7353    2.8484 C   0  0  0  0  0  0  0  0  0  0  0  0
    0.7011   -2.8947    3.4195 O   0  0  0  0  0  0  0  0  0  0  0  0
    3.8242   -2.4611   -0.6900 N   0  0  0  0  0  0  0  0  0  0  0  0
    4.0462    2.1739   -0.0003 N   0  0  0  0  0  0  0  0  0  0  0  0
    5.5016    2.1192   -0.1585 C   0  0  0  0  0  0  0  0  0  0  0  0
    6.1607    3.2045   -1.0121 C   0  0  0  0  0  0  0  0  0  0  0  0
    6.3268    3.2214    0.5087 C   0  0  0  0  0  0  0  0  0  0  0  0
   -1.1104    2.0682    0.5181 H   0  0  0  0  0  0  0  0  0  0  0  0
   -1.6628   -0.0283    2.1182 H   0  0  0  0  0  0  0  0  0  0  0  0
   -2.9547   -1.0820    1.4501 H   0  0  0  0  0  0  0  0  0  0  0  0
   -0.4134   -3.9453    0.7942 H   0  0  0  0  0  0  0  0  0  0  0  0
   -0.5499   -2.4766   -1.2633 H   0  0  0  0  0  0  0  0  0  0  0  0
    0.8047   -1.2354    2.1929 H   0  0  0  0  0  0  0  0  0  0  0  0
   -0.2099   -1.0540    3.6441 H   0  0  0  0  0  0  0  0  0  0  0  0
    1.4893   -2.7054    3.9469 H   0  0  0  0  0  0  0  0  0  0  0  0
    4.7889   -2.4715   -0.7913 H   0  0  0  0  0  0  0  0  0  0  0  0
    3.3198   -3.2862   -0.7649 H   0  0  0  0  0  0  0  0  0  0  0  0
    3.6090    3.0219    0.1748 H   0  0  0  0  0  0  0  0  0  0  0  0
    5.9333    1.1190   -0.1943 H   0  0  0  0  0  0  0  0  0  0  0  0
    7.0262    2.9184   -1.6098 H   0  0  0  0  0  0  0  0  0  0  0  0
    5.5115    3.9592   -1.4559 H   0  0  0  0  0  0  0  0  0  0  0  0
    5.7868    3.9872    1.0655 H   0  0  0  0  0  0  0  0  0  0  0  0
    7.3015    2.9463    0.9117 H   0  0  0  0  0  0  0  0  0  0  0  0
  1  9  1  0  0  0  0
  1  2  2  0  0  0  0
  1 24  1  0  0  0  0
  2  3  1  0  0  0  0
  3  8  2  0  0  0  0
  3  4  1  0  0  0  0
  4  5  2  0  0  0  0
  4 20  1  0  0  0  0
  5  6  1  0  0  0  0
  6  7  2  0  0  0  0
  6 19  1  0  0  0  0
  7  8  1  0  0  0  0
  8  9  1  0  0  0  0
  9 10  1  0  0  0  0
 10 11  1  6  0  0  0
 10 16  1  0  0  0  0
 10 12  1  0  0  0  0
 12 13  1  0  0  0  0
 12 25  1  0  0  0  0
 12 26  1  0  0  0  0
 13 14  1  1  0  0  0
 13 15  1  0  0  0  0
 13 17  1  0  0  0  0
 15 16  2  0  0  0  0
 15 27  1  0  0  0  0
 16 28  1  0  0  0  0
 17 18  1  0  0  0  0
 17 29  1  0  0  0  0
 17 30  1  0  0  0  0
 18 31  1  0  0  0  0
 19 32  1  0  0  0  0
 19 33  1  0  0  0  0
 20 21  1  0  0  0  0
 20 34  1  0  0  0  0
 21 23  1  0  0  0  0
 21 22  1  0  0  0  0
 21 35  1  0  0  0  0
 22 23  1  0  0  0  0
 22 36  1  0  0  0  0
 22 37  1  0  0  0  0
 23 38  1  0  0  0  0
 23 39  1  0  0  0  0
M  END
$$$$
