ZINC38140872
 OpenBabel08292219463D

 33 34  0  0  1  0  0  0  0  0999 V2000
    0.0763    1.5256   -0.0549 C   0  0  0  0  0  0  0  0  0  0  0  0
    0.0583   -0.0041   -0.0367 C   0  0  1  0  0  0  0  0  0  0  0  0
    0.8105   -0.5715   -1.2790 C   0  0  1  0  0  0  0  0  0  0  0  0
    0.2414   -0.6011   -2.2082 H   0  0  0  0  0  0  0  0  0  0  0  0
    2.1482    0.2284   -1.3243 C   0  0  0  0  0  0  0  0  0  0  0  0
    2.9537   -0.2882   -0.1102 C   0  0  0  0  0  0  0  0  0  0  0  0
    2.0268   -1.3515    0.5542 C   0  0  2  0  0  0  0  0  0  0  0  0
    2.5190   -2.0689    1.2109 H   0  0  0  0  0  0  0  0  0  0  0  0
    1.2949   -1.9550   -0.7181 C   0  0  0  0  0  0  0  0  0  0  0  0
    0.8516   -0.5380    1.1779 C   0  0  0  0  0  0  0  0  0  0  0  0
   -0.0404   -1.4236    2.0502 C   0  0  0  0  0  0  0  0  0  0  0  0
    1.4171    0.6235    1.9978 C   0  0  0  0  0  0  0  0  0  0  0  0
   -1.3246   -0.4986   -0.0025 N   0  0  0  0  0  0  0  0  0  0  0  0
   -2.0802   -0.0302   -1.1720 C   0  0  0  0  0  0  0  0  0  0  0  0
    1.1052    1.8778    0.0193 H   0  0  0  0  0  0  0  0  0  0  0  0
   -0.3637    1.8831   -0.9859 H   0  0  0  0  0  0  0  0  0  0  0  0
   -0.4996    1.9059    0.7887 H   0  0  0  0  0  0  0  0  0  0  0  0
    2.6834    0.0217   -2.2511 H   0  0  0  0  0  0  0  0  0  0  0  0
    1.9557    1.2967   -1.2258 H   0  0  0  0  0  0  0  0  0  0  0  0
    3.8849   -0.7488   -0.4402 H   0  0  0  0  0  0  0  0  0  0  0  0
    3.1572    0.5262    0.5851 H   0  0  0  0  0  0  0  0  0  0  0  0
    0.4599   -2.6059   -0.4588 H   0  0  0  0  0  0  0  0  0  0  0  0
    1.9962   -2.4466   -1.3922 H   0  0  0  0  0  0  0  0  0  0  0  0
   -0.4001   -2.2680    1.4622 H   0  0  0  0  0  0  0  0  0  0  0  0
    0.5333   -1.7913    2.9009 H   0  0  0  0  0  0  0  0  0  0  0  0
   -0.8900   -0.8424    2.4088 H   0  0  0  0  0  0  0  0  0  0  0  0
    0.5987    1.1687    2.4680 H   0  0  0  0  0  0  0  0  0  0  0  0
    2.0838    0.2342    2.7673 H   0  0  0  0  0  0  0  0  0  0  0  0
    1.9717    1.2949    1.3423 H   0  0  0  0  0  0  0  0  0  0  0  0
   -1.3472   -1.5052    0.0632 H   0  0  0  0  0  0  0  0  0  0  0  0
   -2.0987    1.0596   -1.1800 H   0  0  0  0  0  0  0  0  0  0  0  0
   -1.6020   -0.3922   -2.0822 H   0  0  0  0  0  0  0  0  0  0  0  0
   -3.1004   -0.4107   -1.1216 H   0  0  0  0  0  0  0  0  0  0  0  0
  1 15  1  0  0  0  0
  1 16  1  0  0  0  0
  1 17  1  0  0  0  0
  2  1  1  6  0  0  0
  2 10  1  0  0  0  0
  2  3  1  0  0  0  0
  2 13  1  0  0  0  0
  3  4  1  6  0  0  0
  3  9  1  0  0  0  0
  3  5  1  0  0  0  0
  5  6  1  0  0  0  0
  5 18  1  0  0  0  0
  5 19  1  0  0  0  0
  6  7  1  0  0  0  0
  6 20  1  0  0  0  0
  6 21  1  0  0  0  0
  7  8  1  1  0  0  0
  7  9  1  0  0  0  0
  7 10  1  0  0  0  0
  9 22  1  0  0  0  0
  9 23  1  0  0  0  0
 10 11  1  0  0  0  0
 10 12  1  0  0  0  0
 11 24  1  0  0  0  0
 11 25  1  0  0  0  0
 11 26  1  0  0  0  0
 12 27  1  0  0  0  0
 12 28  1  0  0  0  0
 12 29  1  0  0  0  0
 13 14  1  0  0  0  0
 13 30  1  0  0  0  0
 14 31  1  0  0  0  0
 14 32  1  0  0  0  0
 14 33  1  0  0  0  0
M  END
$$$$
