ZINC03831151
 OpenBabel08292219463D

 76 80  0  0  1  0  0  0  0  0999 V2000
   10.8500    1.0504   -0.0606 C   0  0  0  0  0  0  0  0  0  0  0  0
   10.3952   -0.0837    0.8602 C   0  0  0  0  0  0  0  0  0  0  0  0
   11.5237   -1.1066    1.0053 C   0  0  0  0  0  0  0  0  0  0  0  0
   10.0488    0.4777    2.2152 C   0  0  0  0  0  0  0  0  0  0  0  0
   10.8910    0.2595    3.2897 C   0  0  0  0  0  0  0  0  0  0  0  0
   10.5735    0.7748    4.5323 C   0  0  0  0  0  0  0  0  0  0  0  0
    9.4138    1.5084    4.7008 C   0  0  0  0  0  0  0  0  0  0  0  0
    8.5745    1.7309    3.6254 C   0  0  0  0  0  0  0  0  0  0  0  0
    8.8894    1.2110    2.3836 C   0  0  0  0  0  0  0  0  0  0  0  0
    7.9717    1.4492    1.2122 C   0  0  0  0  0  0  0  0  0  0  0  0
    6.8309    0.4300    1.2426 C   0  0  0  0  0  0  0  0  0  0  0  0
    5.8318    0.7495    0.1288 C   0  0  2  0  0  0  0  0  0  0  0  0
    5.4953    1.7815    0.2275 H   0  0  0  0  0  0  0  0  0  0  0  0
    4.6481   -0.1772    0.2348 C   0  0  0  0  0  0  0  0  0  0  0  0
    4.8319   -1.5456    0.1383 C   0  0  0  0  0  0  0  0  0  0  0  0
    3.7512   -2.4042    0.2349 C   0  0  0  0  0  0  0  0  0  0  0  0
    2.4815   -1.9012    0.4283 C   0  0  0  0  0  0  0  0  0  0  0  0
    2.2881   -0.5208    0.5267 C   0  0  0  0  0  0  0  0  0  0  0  0
    3.3840    0.3406    0.4229 C   0  0  0  0  0  0  0  0  0  0  0  0
    0.9348    0.0244    0.7328 C   0  0  0  0  0  0  0  0  0  0  0  0
   -0.1172   -0.8064    0.8266 C   0  0  0  0  0  0  0  0  0  0  0  0
   -1.4699   -0.2614    1.0265 C   0  0  0  0  0  0  0  0  0  0  0  0
   -2.5618   -1.1448    1.1169 C   0  0  0  0  0  0  0  0  0  0  0  0
   -3.8179   -0.6521    1.3018 C   0  0  0  0  0  0  0  0  0  0  0  0
   -3.9818    0.7451    1.3973 C   0  0  0  0  0  0  0  0  0  0  0  0
   -5.2492    1.3169    1.5875 C   0  0  0  0  0  0  0  0  0  0  0  0
   -5.3722    2.6703    1.6750 C   0  0  0  0  0  0  0  0  0  0  0  0
   -4.2541    3.4981    1.5778 C   0  0  0  0  0  0  0  0  0  0  0  0
   -3.0091    2.9770    1.3937 C   0  0  0  0  0  0  0  0  0  0  0  0
   -2.8429    1.5836    1.2986 C   0  0  0  0  0  0  0  0  0  0  0  0
   -1.6325    1.0475    1.1226 N   0  0  0  0  0  0  0  0  0  0  0  0
   -4.4518    5.2189    1.6938 Cl  0  0  0  0  0  0  0  0  0  0  0  0
    6.6322    0.5260   -1.4837 S   0  0  0  0  0  0  0  0  0  0  0  0
    5.3826    1.0833   -2.6748 C   0  0  0  0  0  0  0  0  0  0  0  0
    5.9349    0.9464   -4.0950 C   0  0  0  0  0  0  0  0  0  0  0  0
    6.3381    2.2302   -4.8231 C   0  0  0  0  0  0  0  0  0  0  0  0
    5.0735    1.4779   -5.2423 C   0  0  0  0  0  0  0  0  0  0  0  0
    6.7690   -0.3085   -4.3606 C   0  0  0  0  0  0  0  0  0  0  0  0
    5.8987   -1.5302   -4.2151 C   0  0  0  0  0  0  0  0  0  0  0  0
    4.7084   -1.4075   -4.0477 O   0  0  0  0  0  0  0  0  0  0  0  0
    9.2448   -0.7199    0.2999 O   0  0  0  0  0  0  0  0  0  0  0  0
   11.6890    1.5751    0.3963 H   0  0  0  0  0  0  0  0  0  0  0  0
   11.1592    0.6370   -1.0206 H   0  0  0  0  0  0  0  0  0  0  0  0
   10.0257    1.7469   -0.2136 H   0  0  0  0  0  0  0  0  0  0  0  0
   11.1994   -1.9149    1.6606 H   0  0  0  0  0  0  0  0  0  0  0  0
   11.7748   -1.5120    0.0251 H   0  0  0  0  0  0  0  0  0  0  0  0
   12.4009   -0.6215    1.4334 H   0  0  0  0  0  0  0  0  0  0  0  0
   11.7971   -0.3132    3.1580 H   0  0  0  0  0  0  0  0  0  0  0  0
   11.2316    0.6046    5.3716 H   0  0  0  0  0  0  0  0  0  0  0  0
    9.1660    1.9113    5.6716 H   0  0  0  0  0  0  0  0  0  0  0  0
    7.6709    2.3077    3.7560 H   0  0  0  0  0  0  0  0  0  0  0  0
    8.5319    1.3399    0.2836 H   0  0  0  0  0  0  0  0  0  0  0  0
    7.5603    2.4568    1.2720 H   0  0  0  0  0  0  0  0  0  0  0  0
    6.3266    0.4779    2.2078 H   0  0  0  0  0  0  0  0  0  0  0  0
    7.2343   -0.5714    1.0927 H   0  0  0  0  0  0  0  0  0  0  0  0
    5.8238   -1.9452   -0.0128 H   0  0  0  0  0  0  0  0  0  0  0  0
    3.9021   -3.4709    0.1583 H   0  0  0  0  0  0  0  0  0  0  0  0
    1.6389   -2.5726    0.5039 H   0  0  0  0  0  0  0  0  0  0  0  0
    3.2416    1.4089    0.4939 H   0  0  0  0  0  0  0  0  0  0  0  0
    0.7884    1.0918    0.8085 H   0  0  0  0  0  0  0  0  0  0  0  0
    0.0293   -1.8738    0.7510 H   0  0  0  0  0  0  0  0  0  0  0  0
   -2.4041   -2.2104    1.0395 H   0  0  0  0  0  0  0  0  0  0  0  0
   -4.6674   -1.3151    1.3737 H   0  0  0  0  0  0  0  0  0  0  0  0
   -6.1228    0.6866    1.6643 H   0  0  0  0  0  0  0  0  0  0  0  0
   -6.3484    3.1084    1.8213 H   0  0  0  0  0  0  0  0  0  0  0  0
   -2.1529    3.6312    1.3211 H   0  0  0  0  0  0  0  0  0  0  0  0
    4.4858    0.4722   -2.5732 H   0  0  0  0  0  0  0  0  0  0  0  0
    5.1351    2.1269   -2.4802 H   0  0  0  0  0  0  0  0  0  0  0  0
    6.2098    3.1724   -4.2902 H   0  0  0  0  0  0  0  0  0  0  0  0
    7.1978    2.1811   -5.4913 H   0  0  0  0  0  0  0  0  0  0  0  0
    5.1013    0.9338   -6.1864 H   0  0  0  0  0  0  0  0  0  0  0  0
    4.1133    1.9252   -4.9853 H   0  0  0  0  0  0  0  0  0  0  0  0
    7.1732   -0.2688   -5.3720 H   0  0  0  0  0  0  0  0  0  0  0  0
    7.5884   -0.3587   -3.6435 H   0  0  0  0  0  0  0  0  0  0  0  0
    8.9010   -1.4505    0.8321 H   0  0  0  0  0  0  0  0  0  0  0  0
    6.4458   -2.7546   -4.2714 O   0  0  0  0  0  1  0  0  0  0  0  0
  1  2  1  0  0  0  0
  1 42  1  0  0  0  0
  1 43  1  0  0  0  0
  1 44  1  0  0  0  0
  2  3  1  0  0  0  0
  2  4  1  0  0  0  0
  2 41  1  0  0  0  0
  3 45  1  0  0  0  0
  3 46  1  0  0  0  0
  3 47  1  0  0  0  0
  4  9  2  0  0  0  0
  4  5  1  0  0  0  0
  5  6  2  0  0  0  0
  5 48  1  0  0  0  0
  6  7  1  0  0  0  0
  6 49  1  0  0  0  0
  7  8  2  0  0  0  0
  7 50  1  0  0  0  0
  8  9  1  0  0  0  0
  8 51  1  0  0  0  0
  9 10  1  0  0  0  0
 10 11  1  0  0  0  0
 10 52  1  0  0  0  0
 10 53  1  0  0  0  0
 11 12  1  0  0  0  0
 11 54  1  0  0  0  0
 11 55  1  0  0  0  0
 12 13  1  1  0  0  0
 12 14  1  0  0  0  0
 12 33  1  0  0  0  0
 14 19  2  0  0  0  0
 14 15  1  0  0  0  0
 15 16  2  0  0  0  0
 15 56  1  0  0  0  0
 16 17  1  0  0  0  0
 16 57  1  0  0  0  0
 17 18  2  0  0  0  0
 17 58  1  0  0  0  0
 18 19  1  0  0  0  0
 18 20  1  0  0  0  0
 19 59  1  0  0  0  0
 20 21  2  0  0  0  0
 20 60  1  0  0  0  0
 21 22  1  0  0  0  0
 21 61  1  0  0  0  0
 22 31  2  0  0  0  0
 22 23  1  0  0  0  0
 23 24  2  0  0  0  0
 23 62  1  0  0  0  0
 24 25  1  0  0  0  0
 24 63  1  0  0  0  0
 25 30  2  0  0  0  0
 25 26  1  0  0  0  0
 26 27  2  0  0  0  0
 26 64  1  0  0  0  0
 27 28  1  0  0  0  0
 27 65  1  0  0  0  0
 28 29  2  0  0  0  0
 28 32  1  0  0  0  0
 29 30  1  0  0  0  0
 29 66  1  0  0  0  0
 30 31  1  0  0  0  0
 33 34  1  0  0  0  0
 34 35  1  0  0  0  0
 34 67  1  0  0  0  0
 34 68  1  0  0  0  0
 35 37  1  0  0  0  0
 35 36  1  0  0  0  0
 35 38  1  0  0  0  0
 36 37  1  0  0  0  0
 36 69  1  0  0  0  0
 36 70  1  0  0  0  0
 37 71  1  0  0  0  0
 37 72  1  0  0  0  0
 38 39  1  0  0  0  0
 38 73  1  0  0  0  0
 38 74  1  0  0  0  0
 39 40  2  0  0  0  0
 39 76  1  0  0  0  0
 41 75  1  0  0  0  0
M  END
$$$$
