ZINC03881958
 OpenBabel08292219463D

 52 56  0  0  1  0  0  0  0  0999 V2000
   -0.0187    1.5258    0.0104 C   0  0  0  0  0  0  0  0  0  0  0  0
    0.0021   -0.0041    0.0020 C   0  0  2  0  0  0  0  0  0  0  0  0
   -1.4159   -0.5375    0.0730 C   0  0  0  0  0  0  0  0  0  0  0  0
   -2.0784    0.0971    1.3061 C   0  0  0  0  0  0  0  0  0  0  0  0
   -1.2995   -0.2048    2.5827 C   0  0  1  0  0  0  0  0  0  0  0  0
   -1.3457   -1.2745    2.7866 H   0  0  0  0  0  0  0  0  0  0  0  0
    0.1715    0.2247    2.4657 C   0  0  2  0  0  0  0  0  0  0  0  0
    0.2299    1.3035    2.3212 H   0  0  0  0  0  0  0  0  0  0  0  0
    0.7515   -0.5271    1.2570 C   0  0  2  0  0  0  0  0  0  0  0  0
    0.6129   -1.6031    1.3629 H   0  0  0  0  0  0  0  0  0  0  0  0
    2.2067   -0.1918    0.9114 C   0  0  0  0  0  0  0  0  0  0  0  0
    2.3042   -0.5733   -0.5909 C   0  0  0  0  0  0  0  0  0  0  0  0
    0.8628   -0.5029   -1.1540 C   0  0  1  0  0  0  0  0  0  0  0  0
    0.4169   -1.8387   -1.5825 C   0  0  0  0  0  0  0  0  0  0  0  0
    0.0612   -2.9040   -1.9243 C   0  0  0  0  0  0  0  0  0  0  0  0
    0.8029    0.4147   -2.2478 O   0  0  0  0  0  0  0  0  0  0  0  0
    0.9159   -0.1666    3.7443 C   0  0  0  0  0  0  0  0  0  0  0  0
    0.3432    0.6167    4.9287 C   0  0  0  0  0  0  0  0  0  0  0  0
   -1.1556    0.3638    4.9887 C   0  0  0  0  0  0  0  0  0  0  0  0
   -1.6628   -0.0151    6.1593 C   0  0  0  0  0  0  0  0  0  0  0  0
   -3.1080   -0.2669    6.2426 C   0  0  0  0  0  0  0  0  0  0  0  0
   -3.9211   -0.1303    5.1483 C   0  0  0  0  0  0  0  0  0  0  0  0
   -5.2228   -0.4399    5.5493 C   0  0  0  0  0  0  0  0  0  0  0  0
   -5.1997   -0.7463    6.8195 N   0  0  0  0  0  0  0  0  0  0  0  0
   -3.8610   -0.6409    7.2790 O   0  0  0  0  0  0  0  0  0  0  0  0
   -3.4298    0.2837    3.7961 C   0  0  0  0  0  0  0  0  0  0  0  0
   -1.9284    0.5590    3.7528 C   0  0  2  0  0  0  0  0  0  0  0  0
   -1.7815    2.0423    3.4074 C   0  0  0  0  0  0  0  0  0  0  0  0
    1.0039    1.9031    0.0027 H   0  0  0  0  0  0  0  0  0  0  0  0
   -0.5459    1.8868   -0.8726 H   0  0  0  0  0  0  0  0  0  0  0  0
   -0.5289    1.8773    0.9072 H   0  0  0  0  0  0  0  0  0  0  0  0
   -1.9631   -0.2583   -0.8274 H   0  0  0  0  0  0  0  0  0  0  0  0
   -1.3996   -1.6224    0.1773 H   0  0  0  0  0  0  0  0  0  0  0  0
   -2.1281    1.1770    1.1669 H   0  0  0  0  0  0  0  0  0  0  0  0
   -3.0909   -0.2940    1.4066 H   0  0  0  0  0  0  0  0  0  0  0  0
    2.4015    0.8713    1.0527 H   0  0  0  0  0  0  0  0  0  0  0  0
    2.8931   -0.7933    1.5074 H   0  0  0  0  0  0  0  0  0  0  0  0
    2.9459    0.1343   -1.1157 H   0  0  0  0  0  0  0  0  0  0  0  0
    2.6976   -1.5845   -0.6953 H   0  0  0  0  0  0  0  0  0  0  0  0
   -0.2569   -3.8568   -2.2300 H   0  0  0  0  0  0  0  0  0  0  0  0
    1.3316    0.1497   -3.0129 H   0  0  0  0  0  0  0  0  0  0  0  0
    0.7947   -1.2350    3.9226 H   0  0  0  0  0  0  0  0  0  0  0  0
    1.9751    0.0654    3.6334 H   0  0  0  0  0  0  0  0  0  0  0  0
    0.8102    0.2779    5.8535 H   0  0  0  0  0  0  0  0  0  0  0  0
    0.5309    1.6814    4.7903 H   0  0  0  0  0  0  0  0  0  0  0  0
   -1.0287   -0.1348    7.0253 H   0  0  0  0  0  0  0  0  0  0  0  0
   -6.0987   -0.4284    4.9175 H   0  0  0  0  0  0  0  0  0  0  0  0
   -3.6621   -0.5085    3.0844 H   0  0  0  0  0  0  0  0  0  0  0  0
   -3.9627    1.1853    3.4938 H   0  0  0  0  0  0  0  0  0  0  0  0
   -2.3022    2.2510    2.4729 H   0  0  0  0  0  0  0  0  0  0  0  0
   -2.2126    2.6458    4.2062 H   0  0  0  0  0  0  0  0  0  0  0  0
   -0.7250    2.2867    3.2971 H   0  0  0  0  0  0  0  0  0  0  0  0
  1 29  1  0  0  0  0
  1 30  1  0  0  0  0
  1 31  1  0  0  0  0
  2  1  1  1  0  0  0
  2  9  1  0  0  0  0
  2 13  1  0  0  0  0
  2  3  1  0  0  0  0
  3  4  1  0  0  0  0
  3 32  1  0  0  0  0
  3 33  1  0  0  0  0
  4  5  1  0  0  0  0
  4 34  1  0  0  0  0
  4 35  1  0  0  0  0
  5  6  1  1  0  0  0
  5 27  1  0  0  0  0
  5  7  1  0  0  0  0
  7  8  1  6  0  0  0
  7  9  1  0  0  0  0
  7 17  1  0  0  0  0
  9 10  1  1  0  0  0
  9 11  1  0  0  0  0
 11 12  1  0  0  0  0
 11 36  1  0  0  0  0
 11 37  1  0  0  0  0
 12 13  1  0  0  0  0
 12 38  1  0  0  0  0
 12 39  1  0  0  0  0
 13 14  1  6  0  0  0
 13 16  1  0  0  0  0
 14 15  3  0  0  0  0
 15 40  1  0  0  0  0
 16 41  1  0  0  0  0
 17 18  1  0  0  0  0
 17 42  1  0  0  0  0
 17 43  1  0  0  0  0
 18 19  1  0  0  0  0
 18 44  1  0  0  0  0
 18 45  1  0  0  0  0
 19 27  1  0  0  0  0
 19 20  2  0  0  0  0
 20 21  1  0  0  0  0
 20 46  1  0  0  0  0
 21 25  1  0  0  0  0
 21 22  2  0  0  0  0
 22 23  1  0  0  0  0
 22 26  1  0  0  0  0
 23 24  2  0  0  0  0
 23 47  1  0  0  0  0
 24 25  1  0  0  0  0
 26 27  1  0  0  0  0
 26 48  1  0  0  0  0
 26 49  1  0  0  0  0
 27 28  1  6  0  0  0
 28 50  1  0  0  0  0
 28 51  1  0  0  0  0
 28 52  1  0  0  0  0
M  END
$$$$
