ZINC00018087
 OpenBabel08292219463D

 49 51  0  0  0  0  0  0  0  0999 V2000
   -0.0178    1.4648    0.0101 C   0  0  0  0  0  0  0  0  0  0  0  0
    0.0021   -0.0041    0.0020 N   0  3  0  0  0  0  0  0  0  0  0  0
    0.7126   -0.4907    1.1921 C   0  0  0  0  0  0  0  0  0  0  0  0
   -1.3761   -0.5125    0.0124 C   0  0  0  0  0  0  0  0  0  0  0  0
   -1.3584   -2.0365   -0.1216 C   0  0  0  0  0  0  0  0  0  0  0  0
   -2.7722   -2.5582   -0.1109 C   0  0  0  0  0  0  0  0  0  0  0  0
   -3.4483   -3.0106    0.9568 C   0  0  0  0  0  0  0  0  0  0  0  0
   -4.7052   -3.4010    0.5822 N   0  0  0  0  0  0  0  0  0  0  0  0
   -5.3778   -3.7624    1.1803 H   0  0  0  0  0  0  0  0  0  0  0  0
   -4.8728   -3.2042   -0.7702 C   0  0  0  0  0  0  0  0  0  0  0  0
   -3.6716   -2.6617   -1.2627 C   0  0  0  0  0  0  0  0  0  0  0  0
   -3.5517   -2.3510   -2.6183 C   0  0  0  0  0  0  0  0  0  0  0  0
   -4.6048   -2.5723   -3.4607 C   0  0  0  0  0  0  0  0  0  0  0  0
   -5.7932   -3.1034   -2.9792 C   0  0  0  0  0  0  0  0  0  0  0  0
   -5.9299   -3.4260   -1.6465 C   0  0  0  0  0  0  0  0  0  0  0  0
   -4.4748   -2.2367   -4.9240 C   0  0  0  0  0  0  0  0  0  0  0  0
   -3.8424   -3.6805   -5.8218 S   0  0  0  0  0  0  0  0  0  0  0  0
   -2.4992   -3.9443   -5.4403 O   0  0  0  0  0  0  0  0  0  0  0  0
   -4.8122   -4.7191   -5.8235 O   0  0  0  0  0  0  0  0  0  0  0  0
   -3.7448   -3.1908   -7.4007 N   0  0  0  0  0  0  0  0  0  0  0  0
   -4.8157   -3.3065   -8.4014 C   0  0  0  0  0  0  0  0  0  0  0  0
   -4.2639   -2.7469   -9.7296 C   0  0  0  0  0  0  0  0  0  0  0  0
   -2.7280   -2.8682   -9.5464 C   0  0  0  0  0  0  0  0  0  0  0  0
   -2.5720   -2.5608   -8.0339 C   0  0  0  0  0  0  0  0  0  0  0  0
    1.0047    1.8421    0.0024 H   0  0  0  0  0  0  0  0  0  0  0  0
   -0.5450    1.8259   -0.8730 H   0  0  0  0  0  0  0  0  0  0  0  0
   -0.5280    1.8163    0.9069 H   0  0  0  0  0  0  0  0  0  0  0  0
    0.7273   -1.5806    1.1861 H   0  0  0  0  0  0  0  0  0  0  0  0
    1.7352   -0.1134    1.1844 H   0  0  0  0  0  0  0  0  0  0  0  0
    0.2024   -0.1392    2.0889 H   0  0  0  0  0  0  0  0  0  0  0  0
   -1.8584   -0.2358    0.9500 H   0  0  0  0  0  0  0  0  0  0  0  0
   -1.9290   -0.0808   -0.8218 H   0  0  0  0  0  0  0  0  0  0  0  0
   -0.8762   -2.3132   -1.0592 H   0  0  0  0  0  0  0  0  0  0  0  0
   -0.8055   -2.4683    0.7126 H   0  0  0  0  0  0  0  0  0  0  0  0
   -3.0579   -3.0597    1.9626 H   0  0  0  0  0  0  0  0  0  0  0  0
   -2.6302   -1.9368   -2.9999 H   0  0  0  0  0  0  0  0  0  0  0  0
   -6.6168   -3.2720   -3.6571 H   0  0  0  0  0  0  0  0  0  0  0  0
   -6.8592   -3.8377   -1.2812 H   0  0  0  0  0  0  0  0  0  0  0  0
   -5.4514   -1.9607   -5.3217 H   0  0  0  0  0  0  0  0  0  0  0  0
   -3.7841   -1.4022   -5.0454 H   0  0  0  0  0  0  0  0  0  0  0  0
   -5.0941   -4.3528   -8.5271 H   0  0  0  0  0  0  0  0  0  0  0  0
   -5.6822   -2.7255   -8.0859 H   0  0  0  0  0  0  0  0  0  0  0  0
   -4.6007   -3.3510  -10.5721 H   0  0  0  0  0  0  0  0  0  0  0  0
   -4.5557   -1.7048   -9.8598 H   0  0  0  0  0  0  0  0  0  0  0  0
   -2.3849   -3.8758   -9.7811 H   0  0  0  0  0  0  0  0  0  0  0  0
   -2.2029   -2.1279  -10.1500 H   0  0  0  0  0  0  0  0  0  0  0  0
   -2.5795   -1.4847   -7.8604 H   0  0  0  0  0  0  0  0  0  0  0  0
   -1.6516   -3.0012   -7.6507 H   0  0  0  0  0  0  0  0  0  0  0  0
    0.4744   -0.3295   -0.8281 H   0  0  0  0  0  0  0  0  0  0  0  0
  1  2  1  0  0  0  0
  1 25  1  0  0  0  0
  1 26  1  0  0  0  0
  1 27  1  0  0  0  0
  2  3  1  0  0  0  0
  2  4  1  0  0  0  0
  2 49  1  0  0  0  0
  3 28  1  0  0  0  0
  3 29  1  0  0  0  0
  3 30  1  0  0  0  0
  4  5  1  0  0  0  0
  4 31  1  0  0  0  0
  4 32  1  0  0  0  0
  5  6  1  0  0  0  0
  5 33  1  0  0  0  0
  5 34  1  0  0  0  0
  6 11  1  0  0  0  0
  6  7  2  0  0  0  0
  7  8  1  0  0  0  0
  7 35  1  0  0  0  0
  8  9  1  0  0  0  0
  8 10  1  0  0  0  0
 10 15  2  0  0  0  0
 10 11  1  0  0  0  0
 11 12  2  0  0  0  0
 12 13  1  0  0  0  0
 12 36  1  0  0  0  0
 13 14  2  0  0  0  0
 13 16  1  0  0  0  0
 14 15  1  0  0  0  0
 14 37  1  0  0  0  0
 15 38  1  0  0  0  0
 16 17  1  0  0  0  0
 16 39  1  0  0  0  0
 16 40  1  0  0  0  0
 17 18  2  0  0  0  0
 17 19  2  0  0  0  0
 17 20  1  0  0  0  0
 20 24  1  0  0  0  0
 20 21  1  0  0  0  0
 21 22  1  0  0  0  0
 21 41  1  0  0  0  0
 21 42  1  0  0  0  0
 22 23  1  0  0  0  0
 22 43  1  0  0  0  0
 22 44  1  0  0  0  0
 23 24  1  0  0  0  0
 23 45  1  0  0  0  0
 23 46  1  0  0  0  0
 24 47  1  0  0  0  0
 24 48  1  0  0  0  0
M  CHG  1   2   1
M  END
$$$$
