ZINC00057455
 OpenBabel08292219463D

 51 53  0  0  1  0  0  0  0  0999 V2000
   -0.0167    1.3781    0.0096 C   0  0  0  0  0  0  0  0  0  0  0  0
    1.1709    2.0855    0.0021 C   0  0  0  0  0  0  0  0  0  0  0  0
    2.3773    1.4107   -0.0130 C   0  0  0  0  0  0  0  0  0  0  0  0
    2.3960    0.0285   -0.0201 C   0  0  0  0  0  0  0  0  0  0  0  0
    1.2084   -0.6789   -0.0117 C   0  0  0  0  0  0  0  0  0  0  0  0
    0.0021   -0.0041    0.0020 C   0  0  0  0  0  0  0  0  0  0  0  0
    3.7112   -0.7071   -0.0376 C   0  0  1  0  0  0  0  0  0  0  0  0
    4.1714   -0.9633    1.3989 C   0  0  0  0  0  0  0  0  0  0  0  0
    4.2237    0.3620    2.1617 C   0  0  0  0  0  0  0  0  0  0  0  0
    4.6656    0.1161    3.5409 N   0  3  0  0  0  0  0  0  0  0  0  0
    6.0900   -0.3046    3.5551 C   0  0  0  0  0  0  0  0  0  0  0  0
    6.5425    0.0246    4.9999 C   0  0  0  0  0  0  0  0  0  0  0  0
    5.7969    1.3444    5.3034 C   0  0  0  0  0  0  0  0  0  0  0  0
    4.6071    1.3681    4.3261 C   0  0  0  0  0  0  0  0  0  0  0  0
    3.5388   -2.0427   -0.7637 C   0  0  0  0  0  0  0  0  0  0  0  0
    4.8740   -2.7896   -0.7815 C   0  0  0  0  0  0  0  0  0  0  0  0
    4.7017   -4.1252   -1.5076 C   0  0  0  0  0  0  0  0  0  0  0  0
    4.2415   -3.8691   -2.9441 C   0  0  0  0  0  0  0  0  0  0  0  0
    2.9063   -3.1222   -2.9264 C   0  0  0  0  0  0  0  0  0  0  0  0
    3.0786   -1.7866   -2.2002 C   0  0  0  0  0  0  0  0  0  0  0  0
    4.6894    0.0820   -0.7176 O   0  0  0  0  0  0  0  0  0  0  0  0
   -0.9591    1.9053    0.0259 H   0  0  0  0  0  0  0  0  0  0  0  0
    1.1563    3.1654    0.0076 H   0  0  0  0  0  0  0  0  0  0  0  0
    3.3051    1.9634   -0.0196 H   0  0  0  0  0  0  0  0  0  0  0  0
    1.2231   -1.7588   -0.0176 H   0  0  0  0  0  0  0  0  0  0  0  0
   -0.9258   -0.5567    0.0082 H   0  0  0  0  0  0  0  0  0  0  0  0
    3.4701   -1.6378    1.8903 H   0  0  0  0  0  0  0  0  0  0  0  0
    5.1631   -1.4154    1.3876 H   0  0  0  0  0  0  0  0  0  0  0  0
    4.9250    1.0365    1.6703 H   0  0  0  0  0  0  0  0  0  0  0  0
    3.2320    0.8141    2.1730 H   0  0  0  0  0  0  0  0  0  0  0  0
    6.1776   -1.3732    3.3586 H   0  0  0  0  0  0  0  0  0  0  0  0
    6.6679    0.2694    2.8307 H   0  0  0  0  0  0  0  0  0  0  0  0
    6.2329   -0.7608    5.6894 H   0  0  0  0  0  0  0  0  0  0  0  0
    7.6216    0.1728    5.0418 H   0  0  0  0  0  0  0  0  0  0  0  0
    5.4405    1.3493    6.3335 H   0  0  0  0  0  0  0  0  0  0  0  0
    6.4506    2.1980    5.1244 H   0  0  0  0  0  0  0  0  0  0  0  0
    4.6898    2.2277    3.6610 H   0  0  0  0  0  0  0  0  0  0  0  0
    3.6707    1.4142    4.8821 H   0  0  0  0  0  0  0  0  0  0  0  0
    2.7927   -2.6447   -0.2450 H   0  0  0  0  0  0  0  0  0  0  0  0
    5.6202   -2.1877   -1.3001 H   0  0  0  0  0  0  0  0  0  0  0  0
    5.2019   -2.9721    0.2419 H   0  0  0  0  0  0  0  0  0  0  0  0
    5.6529   -4.6573   -1.5202 H   0  0  0  0  0  0  0  0  0  0  0  0
    3.9555   -4.7272   -0.9889 H   0  0  0  0  0  0  0  0  0  0  0  0
    4.9877   -3.2672   -3.4628 H   0  0  0  0  0  0  0  0  0  0  0  0
    4.1187   -4.8206   -3.4614 H   0  0  0  0  0  0  0  0  0  0  0  0
    2.5785   -2.9397   -3.9498 H   0  0  0  0  0  0  0  0  0  0  0  0
    2.1601   -3.7241   -2.4077 H   0  0  0  0  0  0  0  0  0  0  0  0
    2.1274   -1.2545   -2.1876 H   0  0  0  0  0  0  0  0  0  0  0  0
    3.8248   -1.1847   -2.7189 H   0  0  0  0  0  0  0  0  0  0  0  0
    5.5625   -0.3307   -0.7670 H   0  0  0  0  0  0  0  0  0  0  0  0
    4.0886   -0.5914    3.9706 H   0  0  0  0  0  0  0  0  0  0  0  0
  1  6  2  0  0  0  0
  1  2  1  0  0  0  0
  1 22  1  0  0  0  0
  2  3  2  0  0  0  0
  2 23  1  0  0  0  0
  3  4  1  0  0  0  0
  3 24  1  0  0  0  0
  4  5  2  0  0  0  0
  4  7  1  0  0  0  0
  5  6  1  0  0  0  0
  5 25  1  0  0  0  0
  6 26  1  0  0  0  0
  7  8  1  0  0  0  0
  7 15  1  0  0  0  0
  7 21  1  6  0  0  0
  8  9  1  0  0  0  0
  8 27  1  0  0  0  0
  8 28  1  0  0  0  0
  9 10  1  0  0  0  0
  9 29  1  0  0  0  0
  9 30  1  0  0  0  0
 10 14  1  0  0  0  0
 10 11  1  0  0  0  0
 10 51  1  0  0  0  0
 11 12  1  0  0  0  0
 11 31  1  0  0  0  0
 11 32  1  0  0  0  0
 12 13  1  0  0  0  0
 12 33  1  0  0  0  0
 12 34  1  0  0  0  0
 13 14  1  0  0  0  0
 13 35  1  0  0  0  0
 13 36  1  0  0  0  0
 14 37  1  0  0  0  0
 14 38  1  0  0  0  0
 15 20  1  0  0  0  0
 15 16  1  0  0  0  0
 15 39  1  0  0  0  0
 16 17  1  0  0  0  0
 16 40  1  0  0  0  0
 16 41  1  0  0  0  0
 17 18  1  0  0  0  0
 17 42  1  0  0  0  0
 17 43  1  0  0  0  0
 18 19  1  0  0  0  0
 18 44  1  0  0  0  0
 18 45  1  0  0  0  0
 19 20  1  0  0  0  0
 19 46  1  0  0  0  0
 19 47  1  0  0  0  0
 20 48  1  0  0  0  0
 20 49  1  0  0  0  0
 21 50  1  0  0  0  0
M  CHG  1  10   1
M  END
$$$$
