ZINC33956087
 OpenBabel08292219463D

 73 75  0  0  1  0  0  0  0  0999 V2000
   -0.0179    1.4678    0.0101 C   0  0  0  0  0  0  0  0  0  0  0  0
    0.0021   -0.0041    0.0020 C   0  0  0  0  0  0  0  0  0  0  0  0
    0.0180   -1.1779   -0.0044 C   0  0  0  0  0  0  0  0  0  0  0  0
    0.0380   -2.6498   -0.0125 C   0  0  0  0  0  0  0  0  0  0  0  0
   -1.3974   -3.1794   -0.0017 C   0  0  1  0  0  0  0  0  0  0  0  0
   -1.9342   -2.7566    0.8476 H   0  0  0  0  0  0  0  0  0  0  0  0
   -2.0993   -2.7769   -1.3002 C   0  0  0  0  0  0  0  0  0  0  0  0
   -1.3774   -4.7047    0.1157 C   0  0  1  0  0  0  0  0  0  0  0  0
   -0.8773   -4.9914    1.0408 H   0  0  0  0  0  0  0  0  0  0  0  0
   -2.7912   -5.2263    0.1264 C   0  0  0  0  0  0  0  0  0  0  0  0
   -3.1616   -6.1325   -0.7441 C   0  0  0  0  0  0  0  0  0  0  0  0
   -4.5754   -6.6542   -0.7334 C   0  0  2  0  0  0  0  0  0  0  0  0
   -5.1491   -6.1835    0.0650 H   0  0  0  0  0  0  0  0  0  0  0  0
   -4.5844   -8.2052   -0.5715 C   0  0  1  0  0  0  0  0  0  0  0  0
   -5.2544   -8.4948    0.2380 H   0  0  0  0  0  0  0  0  0  0  0  0
   -5.1051   -8.7728   -1.9313 C   0  0  0  0  0  0  0  0  0  0  0  0
   -4.7320   -7.6636   -2.8961 C   0  0  2  0  0  0  0  0  0  0  0  0
   -3.6544   -7.6300   -3.0565 H   0  0  0  0  0  0  0  0  0  0  0  0
   -5.2317   -6.4199   -2.0603 C   0  0  2  0  0  0  0  0  0  0  0  0
   -6.3101   -6.5174   -1.9352 H   0  0  0  0  0  0  0  0  0  0  0  0
   -4.9803   -5.2884   -3.0106 C   0  0  0  0  0  0  0  0  0  0  0  0
   -5.2565   -5.8888   -4.3968 C   0  0  0  0  0  0  0  0  0  0  0  0
   -5.2827   -5.2458   -5.5378 C   0  0  0  0  0  0  0  0  0  0  0  0
   -5.0244   -3.7615   -5.5724 C   0  0  0  0  0  0  0  0  0  0  0  0
   -3.8828   -3.4651   -6.5470 C   0  0  0  0  0  0  0  0  0  0  0  0
   -3.6206   -1.9581   -6.5821 C   0  0  0  0  0  0  0  0  0  0  0  0
   -2.4961   -1.6661   -7.5420 C   0  0  0  0  0  0  0  0  0  0  0  0
   -1.9595   -2.5705   -8.1370 O   0  0  0  0  0  0  0  0  0  0  0  0
   -2.0907   -0.4013   -7.7360 O   0  0  0  0  0  0  0  0  0  0  0  0
   -1.0198   -0.1978   -8.6600 C   0  0  0  0  0  0  0  0  0  0  0  0
   -0.7042    1.2732   -8.7472 C   0  0  0  0  0  0  0  0  0  0  0  0
   -1.3342    2.0688   -8.0836 O   0  0  0  0  0  0  0  0  0  0  0  0
    0.3686    1.7441   -9.6378 C   0  0  0  0  0  0  0  0  0  0  0  0
    1.0936    0.8302  -10.4091 C   0  0  0  0  0  0  0  0  0  0  0  0
    2.0970    1.2793  -11.2415 C   0  0  0  0  0  0  0  0  0  0  0  0
    2.3873    2.6306  -11.3148 C   0  0  0  0  0  0  0  0  0  0  0  0
    1.6746    3.5412  -10.5543 C   0  0  0  0  0  0  0  0  0  0  0  0
    0.6645    3.1084   -9.7214 C   0  0  0  0  0  0  0  0  0  0  0  0
   -5.4835   -7.4116   -4.1890 C   0  0  0  0  0  0  0  0  0  0  0  0
   -3.2626   -8.6813   -0.3107 O   0  0  0  0  0  0  0  0  0  0  0  0
   -0.6736   -5.2589   -0.9977 O   0  0  0  0  0  0  0  0  0  0  0  0
    1.0047    1.8451    0.0024 H   0  0  0  0  0  0  0  0  0  0  0  0
   -0.5451    1.8289   -0.8729 H   0  0  0  0  0  0  0  0  0  0  0  0
   -0.5281    1.8193    0.9069 H   0  0  0  0  0  0  0  0  0  0  0  0
    0.5481   -3.0013   -0.9093 H   0  0  0  0  0  0  0  0  0  0  0  0
    0.5651   -3.0109    0.8705 H   0  0  0  0  0  0  0  0  0  0  0  0
   -1.5625   -3.1997   -2.1495 H   0  0  0  0  0  0  0  0  0  0  0  0
   -3.1219   -3.1542   -1.2925 H   0  0  0  0  0  0  0  0  0  0  0  0
   -2.1136   -1.6902   -1.3838 H   0  0  0  0  0  0  0  0  0  0  0  0
   -3.4990   -4.8531    0.8517 H   0  0  0  0  0  0  0  0  0  0  0  0
   -2.4538   -6.5058   -1.4694 H   0  0  0  0  0  0  0  0  0  0  0  0
   -4.5937   -9.7006   -2.1877 H   0  0  0  0  0  0  0  0  0  0  0  0
   -6.1849   -8.9193   -1.9047 H   0  0  0  0  0  0  0  0  0  0  0  0
   -5.6634   -4.4631   -2.8097 H   0  0  0  0  0  0  0  0  0  0  0  0
   -3.9454   -4.9538   -2.9394 H   0  0  0  0  0  0  0  0  0  0  0  0
   -5.4894   -5.7794   -6.4537 H   0  0  0  0  0  0  0  0  0  0  0  0
   -5.9257   -3.2434   -5.9002 H   0  0  0  0  0  0  0  0  0  0  0  0
   -4.7496   -3.4172   -4.5754 H   0  0  0  0  0  0  0  0  0  0  0  0
   -2.9815   -3.9831   -6.2192 H   0  0  0  0  0  0  0  0  0  0  0  0
   -4.1575   -3.8094   -7.5440 H   0  0  0  0  0  0  0  0  0  0  0  0
   -4.5218   -1.4400   -6.9098 H   0  0  0  0  0  0  0  0  0  0  0  0
   -3.3458   -1.6138   -5.5851 H   0  0  0  0  0  0  0  0  0  0  0  0
   -0.1374   -0.7391   -8.3185 H   0  0  0  0  0  0  0  0  0  0  0  0
   -1.3135   -0.5653   -9.6432 H   0  0  0  0  0  0  0  0  0  0  0  0
    0.8685   -0.2246  -10.3527 H   0  0  0  0  0  0  0  0  0  0  0  0
    2.6580    0.5748  -11.8375 H   0  0  0  0  0  0  0  0  0  0  0  0
    3.1743    2.9762  -11.9686 H   0  0  0  0  0  0  0  0  0  0  0  0
    1.9073    4.5940  -10.6167 H   0  0  0  0  0  0  0  0  0  0  0  0
    0.1062    3.8206   -9.1320 H   0  0  0  0  0  0  0  0  0  0  0  0
   -5.0562   -7.9929   -5.0061 H   0  0  0  0  0  0  0  0  0  0  0  0
   -6.5449   -7.6290   -4.0699 H   0  0  0  0  0  0  0  0  0  0  0  0
   -3.2045   -9.6402   -0.2005 H   0  0  0  0  0  0  0  0  0  0  0  0
   -1.0636   -5.0439   -1.8561 H   0  0  0  0  0  0  0  0  0  0  0  0
  1  2  1  0  0  0  0
  1 42  1  0  0  0  0
  1 43  1  0  0  0  0
  1 44  1  0  0  0  0
  2  3  3  0  0  0  0
  3  4  1  0  0  0  0
  4  5  1  0  0  0  0
  4 45  1  0  0  0  0
  4 46  1  0  0  0  0
  5  6  1  1  0  0  0
  5  7  1  0  0  0  0
  5  8  1  0  0  0  0
  7 47  1  0  0  0  0
  7 48  1  0  0  0  0
  7 49  1  0  0  0  0
  8  9  1  1  0  0  0
  8 10  1  0  0  0  0
  8 41  1  0  0  0  0
 10 11  2  0  0  0  0
 10 50  1  0  0  0  0
 11 12  1  0  0  0  0
 11 51  1  0  0  0  0
 12 13  1  1  0  0  0
 12 19  1  0  0  0  0
 12 14  1  0  0  0  0
 14 15  1  1  0  0  0
 14 16  1  0  0  0  0
 14 40  1  0  0  0  0
 16 17  1  0  0  0  0
 16 52  1  0  0  0  0
 16 53  1  0  0  0  0
 17 18  1  6  0  0  0
 17 39  1  0  0  0  0
 17 19  1  0  0  0  0
 19 20  1  1  0  0  0
 19 21  1  0  0  0  0
 21 22  1  0  0  0  0
 21 54  1  0  0  0  0
 21 55  1  0  0  0  0
 22 23  2  0  0  0  0
 22 39  1  0  0  0  0
 23 24  1  0  0  0  0
 23 56  1  0  0  0  0
 24 25  1  0  0  0  0
 24 57  1  0  0  0  0
 24 58  1  0  0  0  0
 25 26  1  0  0  0  0
 25 59  1  0  0  0  0
 25 60  1  0  0  0  0
 26 27  1  0  0  0  0
 26 61  1  0  0  0  0
 26 62  1  0  0  0  0
 27 28  2  0  0  0  0
 27 29  1  0  0  0  0
 29 30  1  0  0  0  0
 30 31  1  0  0  0  0
 30 63  1  0  0  0  0
 30 64  1  0  0  0  0
 31 32  2  0  0  0  0
 31 33  1  0  0  0  0
 33 38  2  0  0  0  0
 33 34  1  0  0  0  0
 34 35  2  0  0  0  0
 34 65  1  0  0  0  0
 35 36  1  0  0  0  0
 35 66  1  0  0  0  0
 36 37  2  0  0  0  0
 36 67  1  0  0  0  0
 37 38  1  0  0  0  0
 37 68  1  0  0  0  0
 38 69  1  0  0  0  0
 39 70  1  0  0  0  0
 39 71  1  0  0  0  0
 40 72  1  0  0  0  0
 41 73  1  0  0  0  0
M  END
$$$$
