ZINC00599985
 OpenBabel08292219463D

 14 14  0  0  0  0  0  0  0  0999 V2000
   -0.0168    1.3905    0.0097 C   0  0  0  0  0  0  0  0  0  0  0  0
    1.1792    2.0768    0.0020 C   0  0  0  0  0  3  0  0  0  0  0  0
    2.3301    1.4307   -0.0125 N   0  0  0  0  0  0  0  0  0  0  0  0
    2.3899    0.1121   -0.0202 C   0  0  0  0  0  0  0  0  0  0  0  0
    1.2393   -0.6478   -0.0133 C   0  0  0  0  0  0  0  0  0  0  0  0
    0.0021   -0.0041    0.0020 C   0  0  0  0  0  0  0  0  0  0  0  0
   -1.1826   -0.7342    0.0099 N   0  0  0  0  0  0  0  0  0  0  0  0
   -0.9550    1.9254    0.0260 H   0  0  0  0  0  0  0  0  0  0  0  0
    1.1741    3.1568    0.0074 H   0  0  0  0  0  0  0  0  0  0  0  0
    3.3523   -0.3778   -0.0323 H   0  0  0  0  0  0  0  0  0  0  0  0
    1.2953   -1.7264   -0.0196 H   0  0  0  0  0  0  0  0  0  0  0  0
   -2.0362   -0.2736    0.0208 H   0  0  0  0  0  0  0  0  0  0  0  0
   -1.1548   -1.7038    0.0044 H   0  0  0  0  0  0  0  0  0  0  0  0
    3.1558    1.9396   -0.0180 H   0  0  0  0  0  0  0  0  0  0  0  0
  1  6  2  0  0  0  0
  1  2  1  0  0  0  0
  1  8  1  0  0  0  0
  2  3  1  0  0  0  0
  2  9  1  0  0  0  0
  3  4  1  0  0  0  0
  3 14  1  0  0  0  0
  4  5  2  0  0  0  0
  4 10  1  0  0  0  0
  5  6  1  0  0  0  0
  5 11  1  0  0  0  0
  6  7  1  0  0  0  0
  7 12  1  0  0  0  0
  7 13  1  0  0  0  0
M  END
$$$$
