ZINC00402848
 OpenBabel08292219463D

 46 49  0  0  1  0  0  0  0  0999 V2000
   -0.0178    1.4648    0.0101 C   0  0  0  0  0  0  0  0  0  0  0  0
    0.0021   -0.0041    0.0020 N   0  3  1  0  0  0  0  0  0  0  0  0
    0.5234   -0.4656   -1.2868 C   0  0  0  0  0  0  0  0  0  0  0  0
    0.5608   -1.9988   -1.3105 C   0  0  0  0  0  0  0  0  0  0  0  0
    1.4982   -2.4553   -0.1831 C   0  0  2  0  0  0  0  0  0  0  0  0
    1.6504   -3.9707   -0.2017 C   0  0  0  0  0  0  0  0  0  0  0  0
    2.5586   -4.4098    0.9497 C   0  0  0  0  0  0  0  0  0  0  0  0
    1.9474   -3.9633    2.2794 C   0  0  0  0  0  0  0  0  0  0  0  0
    1.8115   -2.4393    2.2944 C   0  0  0  0  0  0  0  0  0  0  0  0
    0.8985   -1.9981    1.1490 C   0  0  1  0  0  0  0  0  0  0  0  0
   -0.0910   -2.4368    1.2771 H   0  0  0  0  0  0  0  0  0  0  0  0
    0.8090   -0.4720    1.1199 C   0  0  1  0  0  0  0  0  0  0  0  0
    0.3176   -0.1530    2.0390 H   0  0  0  0  0  0  0  0  0  0  0  0
    2.2014    0.1317    1.1325 C   0  0  0  0  0  0  0  0  0  0  0  0
    3.1457   -0.5879    0.2080 C   0  0  0  0  0  0  0  0  0  0  0  0
    2.8340   -1.7881   -0.3923 C   0  0  0  0  0  0  0  0  0  0  0  0
    3.7561   -2.4140   -1.2158 C   0  0  0  0  0  0  0  0  0  0  0  0
    4.9914   -1.8329   -1.4526 C   0  0  0  0  0  0  0  0  0  0  0  0
    5.3005   -0.6171   -0.8605 C   0  0  0  0  0  0  0  0  0  0  0  0
    4.3825   -0.0022   -0.0362 C   0  0  0  0  0  0  0  0  0  0  0  0
    5.8940   -2.4497   -2.2599 O   0  0  0  0  0  0  0  0  0  0  0  0
    7.1460   -1.7895   -2.4566 C   0  0  0  0  0  0  0  0  0  0  0  0
    0.9779    1.8429   -0.2213 H   0  0  0  0  0  0  0  0  0  0  0  0
   -0.7253    1.8227   -0.7379 H   0  0  0  0  0  0  0  0  0  0  0  0
   -0.3209    1.8186    0.9955 H   0  0  0  0  0  0  0  0  0  0  0  0
   -0.1216   -0.1061   -2.0886 H   0  0  0  0  0  0  0  0  0  0  0  0
    1.5311   -0.0759   -1.4308 H   0  0  0  0  0  0  0  0  0  0  0  0
   -0.4403   -2.3962   -1.1433 H   0  0  0  0  0  0  0  0  0  0  0  0
    0.9416   -2.3449   -2.2714 H   0  0  0  0  0  0  0  0  0  0  0  0
    0.6708   -4.4353   -0.0888 H   0  0  0  0  0  0  0  0  0  0  0  0
    2.0910   -4.2796   -1.1496 H   0  0  0  0  0  0  0  0  0  0  0  0
    2.6569   -5.4953    0.9413 H   0  0  0  0  0  0  0  0  0  0  0  0
    3.5419   -3.9548    0.8307 H   0  0  0  0  0  0  0  0  0  0  0  0
    0.9632   -4.4167    2.3971 H   0  0  0  0  0  0  0  0  0  0  0  0
    2.5925   -4.2784    3.0995 H   0  0  0  0  0  0  0  0  0  0  0  0
    1.3816   -2.1222    3.2445 H   0  0  0  0  0  0  0  0  0  0  0  0
    2.7948   -1.9856    2.1708 H   0  0  0  0  0  0  0  0  0  0  0  0
    2.1362    1.1762    0.8278 H   0  0  0  0  0  0  0  0  0  0  0  0
    2.5970    0.0858    2.1472 H   0  0  0  0  0  0  0  0  0  0  0  0
    3.5108   -3.3601   -1.6753 H   0  0  0  0  0  0  0  0  0  0  0  0
    6.2584   -0.1534   -1.0446 H   0  0  0  0  0  0  0  0  0  0  0  0
    4.6266    0.9436    0.4245 H   0  0  0  0  0  0  0  0  0  0  0  0
    6.9742   -0.8104   -2.9037 H   0  0  0  0  0  0  0  0  0  0  0  0
    7.6472   -1.6675   -1.4963 H   0  0  0  0  0  0  0  0  0  0  0  0
    7.7716   -2.3870   -3.1197 H   0  0  0  0  0  0  0  0  0  0  0  0
   -0.9411   -0.3448    0.1135 H   0  0  0  0  0  0  0  0  0  0  0  0
  1  2  1  0  0  0  0
  1 23  1  0  0  0  0
  1 24  1  0  0  0  0
  1 25  1  0  0  0  0
  2 12  1  0  0  0  0
  2  3  1  0  0  0  0
  2 46  1  1  0  0  0
  3  4  1  0  0  0  0
  3 26  1  0  0  0  0
  3 27  1  0  0  0  0
  4  5  1  0  0  0  0
  4 28  1  0  0  0  0
  4 29  1  0  0  0  0
  5 10  1  0  0  0  0
  5 16  1  6  0  0  0
  5  6  1  0  0  0  0
  6  7  1  0  0  0  0
  6 30  1  0  0  0  0
  6 31  1  0  0  0  0
  7  8  1  0  0  0  0
  7 32  1  0  0  0  0
  7 33  1  0  0  0  0
  8  9  1  0  0  0  0
  8 34  1  0  0  0  0
  8 35  1  0  0  0  0
  9 10  1  0  0  0  0
  9 36  1  0  0  0  0
  9 37  1  0  0  0  0
 10 11  1  1  0  0  0
 10 12  1  0  0  0  0
 12 13  1  1  0  0  0
 12 14  1  0  0  0  0
 14 15  1  0  0  0  0
 14 38  1  0  0  0  0
 14 39  1  0  0  0  0
 15 20  2  0  0  0  0
 15 16  1  0  0  0  0
 16 17  2  0  0  0  0
 17 18  1  0  0  0  0
 17 40  1  0  0  0  0
 18 19  2  0  0  0  0
 18 21  1  0  0  0  0
 19 20  1  0  0  0  0
 19 41  1  0  0  0  0
 20 42  1  0  0  0  0
 21 22  1  0  0  0  0
 22 43  1  0  0  0  0
 22 44  1  0  0  0  0
 22 45  1  0  0  0  0
M  CHG  1   2   1
M  END
$$$$
