ZINC18089317
 OpenBabel08292219463D

 24 25  0  0  1  0  0  0  0  0999 V2000
   -0.0175    1.4391    0.0100 C   0  0  0  0  0  0  0  0  0  0  0  0
    1.4699    1.8540   -0.0020 C   0  0  2  0  0  0  0  0  0  0  0  0
    1.6118    2.7473   -0.6103 H   0  0  0  0  0  0  0  0  0  0  0  0
    2.1949    0.6478   -0.6364 C   0  0  2  0  0  0  0  0  0  0  0  0
    2.7506    0.9161   -1.5349 H   0  0  0  0  0  0  0  0  0  0  0  0
    1.0539   -0.3721   -0.9139 C   0  0  2  0  0  0  0  0  0  0  0  0
    0.7339   -0.3762   -1.9559 H   0  0  0  0  0  0  0  0  0  0  0  0
    0.0021   -0.0041    0.0020 O   0  0  0  0  0  0  0  0  0  0  0  0
    1.6475   -1.7253   -0.4677 C   0  0  2  0  0  0  0  0  0  0  0  0
    1.0670   -2.1440    0.3544 H   0  0  0  0  0  0  0  0  0  0  0  0
    3.0763   -1.3761    0.0026 C   0  0  0  0  0  0  0  0  0  0  0  0
    3.0253    0.0276    0.3667 O   0  0  0  0  0  0  0  0  0  0  0  0
    1.6889   -2.6394   -1.5653 O   0  0  0  0  0  0  0  0  0  0  0  0
    1.6733   -4.0021   -1.1809 N   0  0  0  0  0  4  0  0  0  0  0  0
    1.6283   -4.2994   -0.0099 O   0  0  0  0  0  0  0  0  0  0  0  0
    1.7050   -4.8684   -2.0236 O   0  5  0  0  0  0  0  0  0  0  0  0
    1.9373    2.0778    1.3297 O   0  0  0  0  0  0  0  0  0  0  0  0
    1.7065    3.3904    1.8081 N   0  0  0  0  0  4  0  0  0  0  0  0
    1.1570    4.2033    1.1018 O   0  0  0  0  0  0  0  0  0  0  0  0
    2.0588    3.6981    2.9229 O   0  5  0  0  0  0  0  0  0  0  0  0
   -0.5068    1.8070    0.9118 H   0  0  0  0  0  0  0  0  0  0  0  0
   -0.5239    1.8166   -0.8784 H   0  0  0  0  0  0  0  0  0  0  0  0
    3.3513   -1.9842    0.8645 H   0  0  0  0  0  0  0  0  0  0  0  0
    3.7892   -1.5222   -0.8089 H   0  0  0  0  0  0  0  0  0  0  0  0
  1  8  1  0  0  0  0
  1  2  1  0  0  0  0
  1 21  1  0  0  0  0
  1 22  1  0  0  0  0
  2  3  1  6  0  0  0
  2  4  1  0  0  0  0
  2 17  1  0  0  0  0
  4  5  1  6  0  0  0
  4 12  1  0  0  0  0
  4  6  1  0  0  0  0
  6  7  1  6  0  0  0
  6  8  1  0  0  0  0
  6  9  1  0  0  0  0
  9 10  1  1  0  0  0
  9 11  1  0  0  0  0
  9 13  1  0  0  0  0
 11 12  1  0  0  0  0
 11 23  1  0  0  0  0
 11 24  1  0  0  0  0
 13 14  1  0  0  0  0
 14 15  2  0  0  0  0
 14 16  1  0  0  0  0
 17 18  1  0  0  0  0
 18 19  2  0  0  0  0
 18 20  1  0  0  0  0
M  CHG  2  16  -1  20  -1
M  END
$$$$
