ZINC06036957
 OpenBabel08292219463D

 37 38  0  0  1  0  0  0  0  0999 V2000
   -1.1449    4.2923    0.8778 C   0  0  0  0  0  0  0  0  0  0  0  0
   -1.6256    2.8424    0.9650 C   0  0  2  0  0  0  0  0  0  0  0  0
   -1.3513    2.4264    1.9344 H   0  0  0  0  0  0  0  0  0  0  0  0
   -0.9706    2.0201   -0.1466 C   0  0  2  0  0  0  0  0  0  0  0  0
   -1.0392    2.4961   -1.1248 H   0  0  0  0  0  0  0  0  0  0  0  0
   -1.3874    0.5435   -0.1487 C   0  0  1  0  0  0  0  0  0  0  0  0
   -2.1006    0.2521    0.6224 H   0  0  0  0  0  0  0  0  0  0  0  0
   -1.6776   -0.0297   -1.5441 C   0  0  0  0  0  0  0  0  0  0  0  0
   -0.3694   -0.7339   -1.9229 C   0  0  0  0  0  0  0  0  0  0  0  0
    0.5291   -0.5521   -0.9361 C   0  0  0  0  0  0  0  0  0  0  0  0
    0.0309    0.2299    0.1191 N   0  0  0  0  0  0  0  0  0  0  0  0
    0.4220    1.5326    0.1967 C   0  0  0  0  0  0  0  0  0  0  0  0
    1.4732    2.0854    0.4439 O   0  0  0  0  0  0  0  0  0  0  0  0
    1.8367   -1.0920   -0.9598 C   0  0  0  0  0  0  0  0  0  0  0  0
    2.6283   -0.8086   -0.0795 O   0  0  0  0  0  0  0  0  0  0  0  0
   -0.0907   -1.6373   -3.4098 S   0  0  0  0  0  0  0  0  0  0  0  0
   -0.2158   -0.2971   -4.6199 C   0  0  0  0  0  0  0  0  0  0  0  0
    0.1209   -0.8342   -6.0124 C   0  0  0  0  0  0  0  0  0  0  0  0
    1.0121    0.7334   -7.6767 C   0  0  0  0  0  0  0  0  0  0  0  0
    0.8009    1.7518   -8.5683 N   0  0  0  0  0  0  0  0  0  0  0  0
   -3.0460    2.8016    0.8138 O   0  0  0  0  0  0  0  0  0  0  0  0
   -1.4193    4.7083   -0.0918 H   0  0  0  0  0  0  0  0  0  0  0  0
   -1.6116    4.8781    1.6696 H   0  0  0  0  0  0  0  0  0  0  0  0
   -0.0615    4.3235    0.9931 H   0  0  0  0  0  0  0  0  0  0  0  0
   -2.5001   -0.7436   -1.4983 H   0  0  0  0  0  0  0  0  0  0  0  0
   -1.9084    0.7730   -2.2444 H   0  0  0  0  0  0  0  0  0  0  0  0
   -1.2311    0.0995   -4.6192 H   0  0  0  0  0  0  0  0  0  0  0  0
    0.4842    0.4960   -4.3573 H   0  0  0  0  0  0  0  0  0  0  0  0
    1.1363   -1.2307   -6.0131 H   0  0  0  0  0  0  0  0  0  0  0  0
   -0.5791   -1.6273   -6.2749 H   0  0  0  0  0  0  0  0  0  0  0  0
    2.0050    0.3305   -7.5423 H   0  0  0  0  0  0  0  0  0  0  0  0
   -0.0909    2.1136   -8.6890 H   0  0  0  0  0  0  0  0  0  0  0  0
    1.5433    2.1111   -9.0789 H   0  0  0  0  0  0  0  0  0  0  0  0
   -3.5277    3.3028    1.4860 H   0  0  0  0  0  0  0  0  0  0  0  0
    2.2065   -1.9216   -1.9586 O   0  0  0  0  0  1  0  0  0  0  0  0
   -0.0419    0.2822   -7.0061 N   0  0  0  0  0  4  0  0  0  0  0  0
   -0.9679    0.6958   -7.1664 H   0  0  0  0  0  0  0  0  0  0  0  0
  1  2  1  0  0  0  0
  1 22  1  0  0  0  0
  1 23  1  0  0  0  0
  1 24  1  0  0  0  0
  2  3  1  1  0  0  0
  2  4  1  0  0  0  0
  2 21  1  0  0  0  0
  4  5  1  6  0  0  0
  4 12  1  0  0  0  0
  4  6  1  0  0  0  0
  6  7  1  1  0  0  0
  6 11  1  0  0  0  0
  6  8  1  0  0  0  0
  8  9  1  0  0  0  0
  8 25  1  0  0  0  0
  8 26  1  0  0  0  0
  9 10  2  0  0  0  0
  9 16  1  0  0  0  0
 10 11  1  0  0  0  0
 10 14  1  0  0  0  0
 11 12  1  0  0  0  0
 12 13  2  0  0  0  0
 14 15  2  0  0  0  0
 14 35  1  0  0  0  0
 16 17  1  0  0  0  0
 17 18  1  0  0  0  0
 17 27  1  0  0  0  0
 17 28  1  0  0  0  0
 18 29  1  0  0  0  0
 18 30  1  0  0  0  0
 18 36  1  0  0  0  0
 19 20  1  0  0  0  0
 19 31  1  0  0  0  0
 19 36  2  0  0  0  0
 20 32  1  0  0  0  0
 20 33  1  0  0  0  0
 21 34  1  0  0  0  0
 36 37  1  0  0  0  0
M  END
$$$$
