ZINC01530751
 OpenBabel08292219463D

 58 59  0  0  1  0  0  0  0  0999 V2000
    0.2991    1.0752   -0.2917 C   0  0  0  0  0  0  0  0  0  0  0  0
    0.2487   -0.4286   -0.0143 C   0  0  0  0  0  0  0  0  0  0  0  0
    0.7545   -0.6942    1.3391 N   0  3  0  0  0  0  0  0  0  0  0  0
   -0.1471   -0.0863    2.3268 C   0  0  0  0  0  0  0  0  0  0  0  0
   -1.5739   -0.5857    2.0902 C   0  0  0  0  0  0  0  0  0  0  0  0
    0.8186   -2.1448    1.5620 C   0  0  0  0  0  0  0  0  0  0  0  0
    1.4440   -2.4134    2.8672 C   0  0  0  0  0  0  0  0  0  0  0  0
    1.9427   -2.6277    3.9081 C   0  0  0  0  0  0  0  0  0  0  0  0
    2.5681   -2.8964    5.2133 C   0  0  0  0  0  0  0  0  0  0  0  0
    2.6305   -4.3075    5.4302 O   0  0  0  0  0  0  0  0  0  0  0  0
    3.1776   -4.7232    6.5833 C   0  0  0  0  0  0  0  0  0  0  0  0
    3.5898   -3.9158    7.3820 O   0  0  0  0  0  0  0  0  0  0  0  0
    3.2776   -6.1970    6.8816 C   0  0  1  0  0  0  0  0  0  0  0  0
    4.5302   -6.7526    6.2545 C   0  0  0  0  0  0  0  0  0  0  0  0
    5.7129   -6.7686    6.9701 C   0  0  0  0  0  0  0  0  0  0  0  0
    6.8619   -7.2782    6.3949 C   0  0  0  0  0  0  0  0  0  0  0  0
    6.8282   -7.7722    5.1043 C   0  0  0  0  0  0  0  0  0  0  0  0
    5.6454   -7.7571    4.3890 C   0  0  0  0  0  0  0  0  0  0  0  0
    4.4953   -7.2514    4.9658 C   0  0  0  0  0  0  0  0  0  0  0  0
    3.3284   -6.4085    8.3961 C   0  0  0  0  0  0  0  0  0  0  0  0
    3.4299   -7.9047    8.6989 C   0  0  0  0  0  0  0  0  0  0  0  0
    3.4807   -8.1162   10.2134 C   0  0  0  0  0  0  0  0  0  0  0  0
    2.2089   -7.5522   10.8501 C   0  0  0  0  0  0  0  0  0  0  0  0
    2.1074   -6.0559   10.5472 C   0  0  0  0  0  0  0  0  0  0  0  0
    2.0566   -5.8444    9.0327 C   0  0  0  0  0  0  0  0  0  0  0  0
    2.1371   -6.8701    6.3446 O   0  0  0  0  0  0  0  0  0  0  0  0
    1.3286    1.4247   -0.2135 H   0  0  0  0  0  0  0  0  0  0  0  0
   -0.0762    1.2722   -1.2959 H   0  0  0  0  0  0  0  0  0  0  0  0
   -0.3191    1.5999    0.4367 H   0  0  0  0  0  0  0  0  0  0  0  0
   -0.7808   -0.7782   -0.0925 H   0  0  0  0  0  0  0  0  0  0  0  0
    0.8669   -0.9534   -0.7427 H   0  0  0  0  0  0  0  0  0  0  0  0
    0.1734   -0.3644    3.3308 H   0  0  0  0  0  0  0  0  0  0  0  0
   -0.1201    0.9985    2.2242 H   0  0  0  0  0  0  0  0  0  0  0  0
   -1.5833   -1.6756    2.0977 H   0  0  0  0  0  0  0  0  0  0  0  0
   -2.2254   -0.2113    2.8798 H   0  0  0  0  0  0  0  0  0  0  0  0
   -1.9293   -0.2258    1.1247 H   0  0  0  0  0  0  0  0  0  0  0  0
   -0.1895   -2.5591    1.5500 H   0  0  0  0  0  0  0  0  0  0  0  0
    1.4112   -2.6078    0.7730 H   0  0  0  0  0  0  0  0  0  0  0  0
    3.5762   -2.4820    5.2254 H   0  0  0  0  0  0  0  0  0  0  0  0
    1.9755   -2.4334    6.0023 H   0  0  0  0  0  0  0  0  0  0  0  0
    5.7392   -6.3826    7.9784 H   0  0  0  0  0  0  0  0  0  0  0  0
    7.7860   -7.2900    6.9537 H   0  0  0  0  0  0  0  0  0  0  0  0
    7.7261   -8.1698    4.6546 H   0  0  0  0  0  0  0  0  0  0  0  0
    5.6191   -8.1428    3.3806 H   0  0  0  0  0  0  0  0  0  0  0  0
    3.5704   -7.2430    4.4083 H   0  0  0  0  0  0  0  0  0  0  0  0
    4.1982   -5.8950    8.8056 H   0  0  0  0  0  0  0  0  0  0  0  0
    2.5600   -8.4182    8.2894 H   0  0  0  0  0  0  0  0  0  0  0  0
    4.3359   -8.3066    8.2454 H   0  0  0  0  0  0  0  0  0  0  0  0
    3.5530   -9.1822   10.4292 H   0  0  0  0  0  0  0  0  0  0  0  0
    4.3506   -7.6028   10.6230 H   0  0  0  0  0  0  0  0  0  0  0  0
    1.3390   -8.0656   10.4405 H   0  0  0  0  0  0  0  0  0  0  0  0
    2.2451   -7.7028   11.9290 H   0  0  0  0  0  0  0  0  0  0  0  0
    1.2014   -5.6540   11.0007 H   0  0  0  0  0  0  0  0  0  0  0  0
    2.9773   -5.5424   10.9568 H   0  0  0  0  0  0  0  0  0  0  0  0
    1.9843   -4.7784    8.8169 H   0  0  0  0  0  0  0  0  0  0  0  0
    1.1867   -6.3579    8.6231 H   0  0  0  0  0  0  0  0  0  0  0  0
    1.2937   -6.5628    6.7041 H   0  0  0  0  0  0  0  0  0  0  0  0
    1.6771   -0.2977    1.4371 H   0  0  0  0  0  0  0  0  0  0  0  0
  1  2  1  0  0  0  0
  1 27  1  0  0  0  0
  1 28  1  0  0  0  0
  1 29  1  0  0  0  0
  2  3  1  0  0  0  0
  2 30  1  0  0  0  0
  2 31  1  0  0  0  0
  3  4  1  0  0  0  0
  3  6  1  0  0  0  0
  3 58  1  0  0  0  0
  4  5  1  0  0  0  0
  4 32  1  0  0  0  0
  4 33  1  0  0  0  0
  5 34  1  0  0  0  0
  5 35  1  0  0  0  0
  5 36  1  0  0  0  0
  6  7  1  0  0  0  0
  6 37  1  0  0  0  0
  6 38  1  0  0  0  0
  7  8  3  0  0  0  0
  8  9  1  0  0  0  0
  9 10  1  0  0  0  0
  9 39  1  0  0  0  0
  9 40  1  0  0  0  0
 10 11  1  0  0  0  0
 11 12  2  0  0  0  0
 13 11  1  6  0  0  0
 13 14  1  0  0  0  0
 13 20  1  0  0  0  0
 13 26  1  0  0  0  0
 14 19  2  0  0  0  0
 14 15  1  0  0  0  0
 15 16  2  0  0  0  0
 15 41  1  0  0  0  0
 16 17  1  0  0  0  0
 16 42  1  0  0  0  0
 17 18  2  0  0  0  0
 17 43  1  0  0  0  0
 18 19  1  0  0  0  0
 18 44  1  0  0  0  0
 19 45  1  0  0  0  0
 20 25  1  0  0  0  0
 20 21  1  0  0  0  0
 20 46  1  0  0  0  0
 21 22  1  0  0  0  0
 21 47  1  0  0  0  0
 21 48  1  0  0  0  0
 22 23  1  0  0  0  0
 22 49  1  0  0  0  0
 22 50  1  0  0  0  0
 23 24  1  0  0  0  0
 23 51  1  0  0  0  0
 23 52  1  0  0  0  0
 24 25  1  0  0  0  0
 24 53  1  0  0  0  0
 24 54  1  0  0  0  0
 25 55  1  0  0  0  0
 25 56  1  0  0  0  0
 26 57  1  0  0  0  0
M  CHG  1   3   1
M  END
$$$$
