ZINC12503177
 OpenBabel08292219463D

 58 58  0  0  1  0  0  0  0  0999 V2000
   -3.0522   -2.4815    1.0963 C   0  0  0  0  0  0  0  0  0  0  0  0
   -1.5654   -2.3680    0.7535 C   0  0  0  0  0  0  0  0  0  0  0  0
   -1.2943   -3.0693   -0.5790 C   0  0  0  0  0  0  0  0  0  0  0  0
    0.1925   -2.9558   -0.9218 C   0  0  0  0  0  0  0  0  0  0  0  0
    0.4636   -3.6570   -2.2544 C   0  0  0  0  0  0  0  0  0  0  0  0
    1.9504   -3.5436   -2.5972 C   0  0  1  0  0  0  0  0  0  0  0  0
    2.5446   -3.9348   -1.7713 H   0  0  0  0  0  0  0  0  0  0  0  0
    2.2403   -4.3374   -3.8449 C   0  0  0  0  0  0  0  0  0  0  0  0
    3.1520   -5.2779   -3.8258 C   0  0  0  0  0  0  0  0  0  0  0  0
    3.7467   -5.7243   -2.5150 C   0  0  1  0  0  0  0  0  0  0  0  0
    3.1983   -5.2900   -1.6792 H   0  0  0  0  0  0  0  0  0  0  0  0
    3.7517   -7.2711   -2.4181 C   0  0  1  0  0  0  0  0  0  0  0  0
    3.9750   -7.7195   -3.3862 H   0  0  0  0  0  0  0  0  0  0  0  0
    4.8983   -7.5358   -1.4109 C   0  0  0  0  0  0  0  0  0  0  0  0
    5.9497   -6.4947   -1.7522 C   0  0  0  0  0  0  0  0  0  0  0  0
    7.1320   -6.5682   -1.5178 O   0  0  0  0  0  0  0  0  0  0  0  0
    5.2400   -5.3439   -2.4398 C   0  0  2  0  0  0  0  0  0  0  0  0
    5.6405   -5.2067   -3.4442 H   0  0  0  0  0  0  0  0  0  0  0  0
    5.4118   -4.0586   -1.6277 C   0  0  0  0  0  0  0  0  0  0  0  0
    6.8784   -3.6241   -1.6649 C   0  0  0  0  0  0  0  0  0  0  0  0
    7.0502   -2.3389   -0.8528 C   0  0  0  0  0  0  0  0  0  0  0  0
    8.5168   -1.9044   -0.8900 C   0  0  0  0  0  0  0  0  0  0  0  0
    8.6886   -0.6191   -0.0779 C   0  0  0  0  0  0  0  0  0  0  0  0
   10.1552   -0.1846   -0.1150 C   0  0  0  0  0  0  0  0  0  0  0  0
   10.3245    1.0813    0.6848 C   0  0  0  0  0  0  0  0  0  0  0  0
    9.3614    1.5889    1.2338 O   0  0  0  0  0  0  0  0  0  0  0  0
   11.4245    1.5978    0.7831 O   0  0  0  0  0  1  0  0  0  0  0  0
    2.5048   -7.7527   -1.9128 O   0  0  0  0  0  0  0  0  0  0  0  0
    2.2853   -2.1718   -2.8168 O   0  0  0  0  0  0  0  0  0  0  0  0
   -3.6431   -2.0103    0.3109 H   0  0  0  0  0  0  0  0  0  0  0  0
   -3.3273   -3.5331    1.1766 H   0  0  0  0  0  0  0  0  0  0  0  0
   -3.2453   -1.9819    2.0456 H   0  0  0  0  0  0  0  0  0  0  0  0
   -1.2903   -1.3164    0.6732 H   0  0  0  0  0  0  0  0  0  0  0  0
   -0.9744   -2.8393    1.5389 H   0  0  0  0  0  0  0  0  0  0  0  0
   -1.5694   -4.1209   -0.4988 H   0  0  0  0  0  0  0  0  0  0  0  0
   -1.8852   -2.5980   -1.3644 H   0  0  0  0  0  0  0  0  0  0  0  0
    0.4676   -1.9041   -1.0021 H   0  0  0  0  0  0  0  0  0  0  0  0
    0.7835   -3.4270   -0.1364 H   0  0  0  0  0  0  0  0  0  0  0  0
    0.1885   -4.7087   -2.1741 H   0  0  0  0  0  0  0  0  0  0  0  0
   -0.1273   -3.1858   -3.0398 H   0  0  0  0  0  0  0  0  0  0  0  0
    1.6964   -4.1310   -4.7548 H   0  0  0  0  0  0  0  0  0  0  0  0
    3.4774   -5.7334   -4.7494 H   0  0  0  0  0  0  0  0  0  0  0  0
    4.5458   -7.3998   -0.3884 H   0  0  0  0  0  0  0  0  0  0  0  0
    5.2993   -8.5403   -1.5459 H   0  0  0  0  0  0  0  0  0  0  0  0
    4.7891   -3.2728   -2.0552 H   0  0  0  0  0  0  0  0  0  0  0  0
    5.1122   -4.2384   -0.5952 H   0  0  0  0  0  0  0  0  0  0  0  0
    7.5011   -4.4100   -1.2374 H   0  0  0  0  0  0  0  0  0  0  0  0
    7.1780   -3.4444   -2.6974 H   0  0  0  0  0  0  0  0  0  0  0  0
    6.4275   -1.5530   -1.2802 H   0  0  0  0  0  0  0  0  0  0  0  0
    6.7506   -2.5187    0.1797 H   0  0  0  0  0  0  0  0  0  0  0  0
    9.1395   -2.6903   -0.4625 H   0  0  0  0  0  0  0  0  0  0  0  0
    8.8164   -1.7246   -1.9224 H   0  0  0  0  0  0  0  0  0  0  0  0
    8.0659    0.1667   -0.5053 H   0  0  0  0  0  0  0  0  0  0  0  0
    8.3890   -0.7989    0.9546 H   0  0  0  0  0  0  0  0  0  0  0  0
   10.7779   -0.9705    0.3124 H   0  0  0  0  0  0  0  0  0  0  0  0
   10.4548   -0.0049   -1.1475 H   0  0  0  0  0  0  0  0  0  0  0  0
    2.4580   -8.7153   -1.8335 H   0  0  0  0  0  0  0  0  0  0  0  0
    1.7430   -1.7374   -3.4894 H   0  0  0  0  0  0  0  0  0  0  0  0
  1  2  1  0  0  0  0
  1 30  1  0  0  0  0
  1 31  1  0  0  0  0
  1 32  1  0  0  0  0
  2  3  1  0  0  0  0
  2 33  1  0  0  0  0
  2 34  1  0  0  0  0
  3  4  1  0  0  0  0
  3 35  1  0  0  0  0
  3 36  1  0  0  0  0
  4  5  1  0  0  0  0
  4 37  1  0  0  0  0
  4 38  1  0  0  0  0
  5  6  1  0  0  0  0
  5 39  1  0  0  0  0
  5 40  1  0  0  0  0
  6  7  1  1  0  0  0
  6  8  1  0  0  0  0
  6 29  1  0  0  0  0
  8  9  2  0  0  0  0
  8 41  1  0  0  0  0
  9 10  1  0  0  0  0
  9 42  1  0  0  0  0
 10 11  1  1  0  0  0
 10 17  1  0  0  0  0
 10 12  1  0  0  0  0
 12 13  1  6  0  0  0
 12 14  1  0  0  0  0
 12 28  1  0  0  0  0
 14 15  1  0  0  0  0
 14 43  1  0  0  0  0
 14 44  1  0  0  0  0
 15 16  2  0  0  0  0
 15 17  1  0  0  0  0
 17 18  1  6  0  0  0
 17 19  1  0  0  0  0
 19 20  1  0  0  0  0
 19 45  1  0  0  0  0
 19 46  1  0  0  0  0
 20 21  1  0  0  0  0
 20 47  1  0  0  0  0
 20 48  1  0  0  0  0
 21 22  1  0  0  0  0
 21 49  1  0  0  0  0
 21 50  1  0  0  0  0
 22 23  1  0  0  0  0
 22 51  1  0  0  0  0
 22 52  1  0  0  0  0
 23 24  1  0  0  0  0
 23 53  1  0  0  0  0
 23 54  1  0  0  0  0
 24 25  1  0  0  0  0
 24 55  1  0  0  0  0
 24 56  1  0  0  0  0
 25 26  2  0  0  0  0
 25 27  1  0  0  0  0
 28 57  1  0  0  0  0
 29 58  1  0  0  0  0
M  END
$$$$
