ZINC22447798
 OpenBabel08292219463D

 71 70  0  0  1  0  0  0  0  0999 V2000
    4.5256   -5.7988    6.3608 C   0  0  0  0  0  0  0  0  0  0  0  0
    3.9236   -5.3845    5.1328 O   0  0  0  0  0  0  0  0  0  0  0  0
    2.6359   -5.9565    4.8947 C   0  0  0  0  0  0  0  0  0  0  0  0
    2.0899   -5.4457    3.5598 C   0  0  0  0  0  0  0  0  0  0  0  0
    2.9375   -5.9309    2.4678 N   0  0  0  0  0  0  0  0  0  0  0  0
    2.6468   -5.6041    1.1930 C   0  0  0  0  0  0  0  0  0  0  0  0
    1.6836   -4.9084    0.9498 O   0  0  0  0  0  0  0  0  0  0  0  0
    3.5186   -6.1031    0.0696 C   0  0  0  0  0  0  0  0  0  0  0  0
    2.9944   -5.6127   -1.2120 N   0  3  2  0  0  0  0  0  0  0  0  0
    3.7715   -6.1953   -2.3141 C   0  0  0  0  0  0  0  0  0  0  0  0
    3.5352   -7.7062   -2.3617 C   0  0  0  0  0  0  0  0  0  0  0  0
    4.3870   -8.3026   -3.3994 N   0  0  0  0  0  0  0  0  0  0  0  0
    4.3672   -9.7692   -3.3180 C   0  0  0  0  0  0  0  0  0  0  0  0
    5.2296  -10.2264   -2.1399 C   0  0  0  0  0  0  0  0  0  0  0  0
    5.2883  -11.6941   -2.1165 N   0  3  1  0  0  0  0  0  0  0  0  0
    6.0242  -12.1735   -3.2940 C   0  0  0  0  0  0  0  0  0  0  0  0
    5.9793  -13.6793   -3.3356 C   0  0  0  0  0  0  0  0  0  0  0  0
    5.3921  -14.2926   -2.4697 O   0  0  0  0  0  0  0  0  0  0  0  0
    6.5917  -14.3443   -4.3352 N   0  0  0  0  0  0  0  0  0  0  0  0
    6.5481  -15.8081   -4.3757 C   0  0  0  0  0  0  0  0  0  0  0  0
    7.3145  -16.3075   -5.6020 C   0  0  0  0  0  0  0  0  0  0  0  0
    8.6976  -15.9741   -5.4677 O   0  0  0  0  0  0  0  0  0  0  0  0
    9.5071  -16.3981   -6.5663 C   0  0  0  0  0  0  0  0  0  0  0  0
    5.9751  -12.1372   -0.8959 C   0  0  0  0  0  0  0  0  0  0  0  0
    5.1340  -11.7942    0.3065 C   0  0  0  0  0  0  0  0  0  0  0  0
    4.0143  -11.3355    0.1565 O   0  0  0  0  0  0  0  0  0  0  0  0
    5.5731  -11.9753    1.4294 O   0  0  0  0  0  1  0  0  0  0  0  0
    3.9872   -7.8440   -4.7365 C   0  0  0  0  0  0  0  0  0  0  0  0
    5.0877   -8.1455   -5.7208 C   0  0  0  0  0  0  0  0  0  0  0  0
    6.1025   -8.7087   -5.3471 O   0  0  0  0  0  0  0  0  0  0  0  0
    4.9634   -7.8262   -6.8909 O   0  0  0  0  0  1  0  0  0  0  0  0
    3.1026   -4.1484   -1.2572 C   0  0  0  0  0  0  0  0  0  0  0  0
    2.4120   -3.6315   -2.4929 C   0  0  0  0  0  0  0  0  0  0  0  0
    1.7837   -4.3962   -3.2050 O   0  0  0  0  0  0  0  0  0  0  0  0
    2.4815   -2.4488   -2.7805 O   0  0  0  0  0  1  0  0  0  0  0  0
    4.6504   -6.8817    6.3571 H   0  0  0  0  0  0  0  0  0  0  0  0
    5.4996   -5.3212    6.4673 H   0  0  0  0  0  0  0  0  0  0  0  0
    3.8860   -5.5097    7.1947 H   0  0  0  0  0  0  0  0  0  0  0  0
    2.7215   -7.0426    4.8605 H   0  0  0  0  0  0  0  0  0  0  0  0
    1.9571   -5.6706    5.6982 H   0  0  0  0  0  0  0  0  0  0  0  0
    1.0725   -5.8109    3.4198 H   0  0  0  0  0  0  0  0  0  0  0  0
    2.0877   -4.3557    3.5613 H   0  0  0  0  0  0  0  0  0  0  0  0
    3.7078   -6.4873    2.6622 H   0  0  0  0  0  0  0  0  0  0  0  0
    4.5361   -5.7379    0.2096 H   0  0  0  0  0  0  0  0  0  0  0  0
    3.5208   -7.1931    0.0681 H   0  0  0  0  0  0  0  0  0  0  0  0
    3.4563   -5.7484   -3.2570 H   0  0  0  0  0  0  0  0  0  0  0  0
    4.8317   -5.9982   -2.1550 H   0  0  0  0  0  0  0  0  0  0  0  0
    3.7815   -8.1432   -1.3940 H   0  0  0  0  0  0  0  0  0  0  0  0
    2.4885   -7.9031   -2.5935 H   0  0  0  0  0  0  0  0  0  0  0  0
    3.3425  -10.1112   -3.1725 H   0  0  0  0  0  0  0  0  0  0  0  0
    4.7627  -10.1898   -4.2426 H   0  0  0  0  0  0  0  0  0  0  0  0
    6.2368   -9.8242   -2.2492 H   0  0  0  0  0  0  0  0  0  0  0  0
    4.7933   -9.8653   -1.2086 H   0  0  0  0  0  0  0  0  0  0  0  0
    5.5660  -11.7712   -4.1975 H   0  0  0  0  0  0  0  0  0  0  0  0
    7.0610  -11.8425   -3.2341 H   0  0  0  0  0  0  0  0  0  0  0  0
    7.0614  -13.8538   -5.0278 H   0  0  0  0  0  0  0  0  0  0  0  0
    7.0063  -16.2104   -3.4722 H   0  0  0  0  0  0  0  0  0  0  0  0
    5.5113  -16.1392   -4.4356 H   0  0  0  0  0  0  0  0  0  0  0  0
    7.2076  -17.3893   -5.6816 H   0  0  0  0  0  0  0  0  0  0  0  0
    6.9125  -15.8357   -6.4987 H   0  0  0  0  0  0  0  0  0  0  0  0
    9.4457  -17.4818   -6.6659 H   0  0  0  0  0  0  0  0  0  0  0  0
    9.1506  -15.9282   -7.4829 H   0  0  0  0  0  0  0  0  0  0  0  0
   10.5425  -16.1077   -6.3881 H   0  0  0  0  0  0  0  0  0  0  0  0
    6.1283  -13.2157   -0.9364 H   0  0  0  0  0  0  0  0  0  0  0  0
    6.9399  -11.6358   -0.8194 H   0  0  0  0  0  0  0  0  0  0  0  0
    3.0765   -8.3602   -5.0403 H   0  0  0  0  0  0  0  0  0  0  0  0
    3.8052   -6.7696   -4.7127 H   0  0  0  0  0  0  0  0  0  0  0  0
    2.6309   -3.7217   -0.3720 H   0  0  0  0  0  0  0  0  0  0  0  0
    4.1541   -3.8623   -1.2822 H   0  0  0  0  0  0  0  0  0  0  0  0
    2.0262   -5.8814   -1.3043 H   0  0  0  0  0  0  0  0  0  0  0  0
    4.3514  -12.0684   -2.1300 H   0  0  0  0  0  0  0  0  0  0  0  0
  1  2  1  0  0  0  0
  1 36  1  0  0  0  0
  1 37  1  0  0  0  0
  1 38  1  0  0  0  0
  2  3  1  0  0  0  0
  3  4  1  0  0  0  0
  3 39  1  0  0  0  0
  3 40  1  0  0  0  0
  4  5  1  0  0  0  0
  4 41  1  0  0  0  0
  4 42  1  0  0  0  0
  5  6  1  0  0  0  0
  5 43  1  0  0  0  0
  6  7  2  0  0  0  0
  6  8  1  0  0  0  0
  8  9  1  0  0  0  0
  8 44  1  0  0  0  0
  8 45  1  0  0  0  0
  9 10  1  0  0  0  0
  9 32  1  0  0  0  0
  9 70  1  6  0  0  0
 10 11  1  0  0  0  0
 10 46  1  0  0  0  0
 10 47  1  0  0  0  0
 11 12  1  0  0  0  0
 11 48  1  0  0  0  0
 11 49  1  0  0  0  0
 12 13  1  0  0  0  0
 12 28  1  0  0  0  0
 13 14  1  0  0  0  0
 13 50  1  0  0  0  0
 13 51  1  0  0  0  0
 14 15  1  0  0  0  0
 14 52  1  0  0  0  0
 14 53  1  0  0  0  0
 15 16  1  0  0  0  0
 15 24  1  0  0  0  0
 15 71  1  6  0  0  0
 16 17  1  0  0  0  0
 16 54  1  0  0  0  0
 16 55  1  0  0  0  0
 17 18  2  0  0  0  0
 17 19  1  0  0  0  0
 19 20  1  0  0  0  0
 19 56  1  0  0  0  0
 20 21  1  0  0  0  0
 20 57  1  0  0  0  0
 20 58  1  0  0  0  0
 21 22  1  0  0  0  0
 21 59  1  0  0  0  0
 21 60  1  0  0  0  0
 22 23  1  0  0  0  0
 23 61  1  0  0  0  0
 23 62  1  0  0  0  0
 23 63  1  0  0  0  0
 24 25  1  0  0  0  0
 24 64  1  0  0  0  0
 24 65  1  0  0  0  0
 25 26  2  0  0  0  0
 25 27  1  0  0  0  0
 28 29  1  0  0  0  0
 28 66  1  0  0  0  0
 28 67  1  0  0  0  0
 29 30  2  0  0  0  0
 29 31  1  0  0  0  0
 32 33  1  0  0  0  0
 32 68  1  0  0  0  0
 32 69  1  0  0  0  0
 33 34  2  0  0  0  0
 33 35  1  0  0  0  0
M  CHG  2   9   1  15   1
M  END
$$$$
