ZINC00003876
 OpenBabel08292219463D

 44 46  0  0  0  0  0  0  0  0999 V2000
   -0.9117    1.3819    0.8050 C   0  0  0  0  0  0  0  0  0  0  0  0
   -0.6965   -0.0986    0.6235 C   0  0  0  0  0  0  0  0  0  0  0  0
    0.5861   -0.6161    0.6437 C   0  0  0  0  0  0  0  0  0  0  0  0
    0.7890   -1.9712    0.4780 C   0  0  0  0  0  0  0  0  0  0  0  0
   -0.3012   -2.8184    0.2904 C   0  0  0  0  0  0  0  0  0  0  0  0
   -1.5911   -2.2918    0.2714 C   0  0  0  0  0  0  0  0  0  0  0  0
   -1.7827   -0.9357    0.4429 C   0  0  0  0  0  0  0  0  0  0  0  0
   -0.0893   -4.2762    0.1112 C   0  0  0  0  0  0  0  0  0  0  0  0
    0.7803   -5.0491    0.8198 C   0  0  0  0  0  0  0  0  0  0  0  0
    0.6641   -6.3246    0.3429 N   0  0  0  0  0  0  0  0  0  0  0  0
    1.2856   -7.4928    0.6792 C   0  0  0  0  0  0  0  0  0  0  0  0
    0.9826   -8.6418    0.0396 C   0  0  0  0  0  0  0  0  0  0  0  0
    0.0205   -8.6507   -0.9840 C   0  0  0  0  0  0  0  0  0  0  0  0
   -0.6066   -7.4944   -1.3295 C   0  0  0  0  0  0  0  0  0  0  0  0
   -0.2794   -6.3016   -0.6521 C   0  0  0  0  0  0  0  0  0  0  0  0
   -0.7258   -5.0604   -0.7732 N   0  0  0  0  0  0  0  0  0  0  0  0
    1.6798   -9.9210    0.4248 C   0  0  0  0  0  0  0  0  0  0  0  0
    1.6977   -4.5850    1.9216 C   0  0  0  0  0  0  0  0  0  0  0  0
    3.0613   -4.2930    1.3502 C   0  0  0  0  0  0  0  0  0  0  0  0
    3.2678   -4.4466    0.1650 O   0  0  0  0  0  0  0  0  0  0  0  0
    4.0514   -3.8612    2.1563 N   0  0  0  0  0  0  0  0  0  0  0  0
    5.3769   -3.5773    1.6009 C   0  0  0  0  0  0  0  0  0  0  0  0
    3.8020   -3.6756    3.5880 C   0  0  0  0  0  0  0  0  0  0  0  0
   -1.0291    1.6046    1.8655 H   0  0  0  0  0  0  0  0  0  0  0  0
   -0.0517    1.9248    0.4128 H   0  0  0  0  0  0  0  0  0  0  0  0
   -1.8098    1.6870    0.2680 H   0  0  0  0  0  0  0  0  0  0  0  0
    1.4304    0.0415    0.7891 H   0  0  0  0  0  0  0  0  0  0  0  0
    1.7909   -2.3741    0.4932 H   0  0  0  0  0  0  0  0  0  0  0  0
   -2.4397   -2.9440    0.1264 H   0  0  0  0  0  0  0  0  0  0  0  0
   -2.7824   -0.5270    0.4324 H   0  0  0  0  0  0  0  0  0  0  0  0
    2.0271   -7.4974    1.4645 H   0  0  0  0  0  0  0  0  0  0  0  0
   -0.2198   -9.5716   -1.4945 H   0  0  0  0  0  0  0  0  0  0  0  0
   -1.3475   -7.4896   -2.1152 H   0  0  0  0  0  0  0  0  0  0  0  0
    1.1134  -10.4213    1.2103 H   0  0  0  0  0  0  0  0  0  0  0  0
    1.7486  -10.5737   -0.4455 H   0  0  0  0  0  0  0  0  0  0  0  0
    2.6819   -9.6934    0.7883 H   0  0  0  0  0  0  0  0  0  0  0  0
    1.2925   -3.6804    2.3750 H   0  0  0  0  0  0  0  0  0  0  0  0
    1.7804   -5.3652    2.6783 H   0  0  0  0  0  0  0  0  0  0  0  0
    5.4240   -2.5342    1.2880 H   0  0  0  0  0  0  0  0  0  0  0  0
    6.1365   -3.7635    2.3601 H   0  0  0  0  0  0  0  0  0  0  0  0
    5.5565   -4.2229    0.7412 H   0  0  0  0  0  0  0  0  0  0  0  0
    2.7674   -3.9347    3.8131 H   0  0  0  0  0  0  0  0  0  0  0  0
    4.4704   -4.3194    4.1596 H   0  0  0  0  0  0  0  0  0  0  0  0
    3.9825   -2.6347    3.8563 H   0  0  0  0  0  0  0  0  0  0  0  0
  1  2  1  0  0  0  0
  1 24  1  0  0  0  0
  1 25  1  0  0  0  0
  1 26  1  0  0  0  0
  2  7  2  0  0  0  0
  2  3  1  0  0  0  0
  3  4  2  0  0  0  0
  3 27  1  0  0  0  0
  4  5  1  0  0  0  0
  4 28  1  0  0  0  0
  5  6  2  0  0  0  0
  5  8  1  0  0  0  0
  6  7  1  0  0  0  0
  6 29  1  0  0  0  0
  7 30  1  0  0  0  0
  8 16  1  0  0  0  0
  8  9  2  0  0  0  0
  9 10  1  0  0  0  0
  9 18  1  0  0  0  0
 10 15  1  0  0  0  0
 10 11  1  0  0  0  0
 11 12  2  0  0  0  0
 11 31  1  0  0  0  0
 12 13  1  0  0  0  0
 12 17  1  0  0  0  0
 13 14  2  0  0  0  0
 13 32  1  0  0  0  0
 14 15  1  0  0  0  0
 14 33  1  0  0  0  0
 15 16  2  0  0  0  0
 17 34  1  0  0  0  0
 17 35  1  0  0  0  0
 17 36  1  0  0  0  0
 18 19  1  0  0  0  0
 18 37  1  0  0  0  0
 18 38  1  0  0  0  0
 19 20  2  0  0  0  0
 19 21  1  0  0  0  0
 21 22  1  0  0  0  0
 21 23  1  0  0  0  0
 22 39  1  0  0  0  0
 22 40  1  0  0  0  0
 22 41  1  0  0  0  0
 23 42  1  0  0  0  0
 23 43  1  0  0  0  0
 23 44  1  0  0  0  0
M  END
$$$$
