ZINC96006021
 OpenBabel08292219463D

128130  0  0  1  0  0  0  0  0999 V2000
   -0.0741   -6.2741   -1.8338 C   0  0  0  0  0  0  0  0  0  0  0  0
    0.5951   -7.4032   -1.0476 C   0  0  2  0  0  0  0  0  0  0  0  0
    1.3089   -7.9193   -1.6896 H   0  0  0  0  0  0  0  0  0  0  0  0
   -0.4696   -8.3927   -0.5707 C   0  0  0  0  0  0  0  0  0  0  0  0
   -0.4384   -8.4812    0.9332 C   0  0  0  0  0  0  0  0  0  0  0  0
   -0.8200   -7.4422    1.6683 C   0  0  0  0  0  0  0  0  0  0  0  0
   -0.7915   -7.5296    3.1368 C   0  0  0  0  0  0  0  0  0  0  0  0
   -1.1506   -6.4819    3.8709 C   0  0  0  0  0  0  0  0  0  0  0  0
   -1.1238   -6.5700    5.3749 C   0  0  1  0  0  0  0  0  0  0  0  0
   -1.5123   -7.5389    5.6889 H   0  0  0  0  0  0  0  0  0  0  0  0
    0.3149   -6.4128    5.8707 C   0  0  1  0  0  0  0  0  0  0  0  0
    0.6196   -7.3187    6.3946 H   0  0  0  0  0  0  0  0  0  0  0  0
    1.2436   -6.1767    4.6780 C   0  0  0  0  0  0  0  0  0  0  0  0
    2.2649   -5.0944    5.0335 C   0  0  1  0  0  0  0  0  0  0  0  0
    2.4505   -5.1087    6.1075 H   0  0  0  0  0  0  0  0  0  0  0  0
    3.5729   -5.3622    4.2863 C   0  0  1  0  0  0  0  0  0  0  0  0
    3.7294   -6.4376    4.2018 H   0  0  0  0  0  0  0  0  0  0  0  0
    3.4967   -4.7464    2.8878 C   0  0  2  0  0  0  0  0  0  0  0  0
    2.4711   -4.4405    2.6809 H   0  0  0  0  0  0  0  0  0  0  0  0
    3.9396   -5.7800    1.8503 C   0  0  1  0  0  0  0  0  0  0  0  0
    3.6435   -6.7758    2.1801 H   0  0  0  0  0  0  0  0  0  0  0  0
    3.2774   -5.4699    0.5063 C   0  0  0  0  0  0  0  0  0  0  0  0
    2.6095   -6.7128   -0.0229 C   0  0  0  0  0  0  0  0  0  0  0  0
    3.2718   -7.5801   -0.5417 O   0  0  0  0  0  0  0  0  0  0  0  0
    1.2790   -6.8566    0.0817 O   0  0  0  0  0  0  0  0  0  0  0  0
    5.3603   -5.7295    1.7042 O   0  0  0  0  0  0  0  0  0  0  0  0
    5.9791   -6.8719    1.3668 C   0  0  0  0  0  0  0  0  0  0  0  0
    5.3360   -7.8812    1.2010 O   0  0  0  0  0  0  0  0  0  0  0  0
    7.4761   -6.8955    1.1948 C   0  0  0  0  0  0  0  0  0  0  0  0
    4.3562   -3.6067    2.8217 O   0  0  0  0  0  0  0  0  0  0  0  0
    3.9138   -2.5971    1.9123 C   0  0  0  0  0  0  0  0  0  0  0  0
    4.6606   -4.7776    5.0055 O   0  0  0  0  0  0  0  0  0  0  0  0
    5.9012   -5.4684    4.8456 C   0  0  1  0  0  0  0  0  0  0  0  0
    6.1356   -5.5539    3.7846 H   0  0  0  0  0  0  0  0  0  0  0  0
    7.0137   -4.6903    5.5532 C   0  0  1  0  0  0  0  0  0  0  0  0
    6.7605   -4.5692    6.6064 H   0  0  0  0  0  0  0  0  0  0  0  0
    8.3281   -5.4671    5.4288 C   0  0  2  0  0  0  0  0  0  0  0  0
    8.6073   -5.5455    4.3780 H   0  0  0  0  0  0  0  0  0  0  0  0
    8.1368   -6.8697    6.0141 C   0  0  1  0  0  0  0  0  0  0  0  0
    7.9063   -6.7926    7.0766 H   0  0  0  0  0  0  0  0  0  0  0  0
    6.9809   -7.5636    5.2888 C   0  0  2  0  0  0  0  0  0  0  0  0
    7.2295   -7.6766    4.2335 H   0  0  0  0  0  0  0  0  0  0  0  0
    5.7968   -6.7740    5.4173 O   0  0  0  0  0  0  0  0  0  0  0  0
    6.7446   -8.9426    5.9079 C   0  0  0  0  0  0  0  0  0  0  0  0
    9.3356   -7.6276    5.8393 O   0  0  0  0  0  0  0  0  0  0  0  0
    9.5934   -8.5585    6.8924 C   0  0  1  0  0  0  0  0  0  0  0  0
    8.6667   -9.0622    7.1673 H   0  0  0  0  0  0  0  0  0  0  0  0
   10.6166   -9.5942    6.4192 C   0  0  0  0  0  0  0  0  0  0  0  0
   11.9347   -8.8858    6.0919 C   0  0  1  0  0  0  0  0  0  0  0  0
   12.4118   -8.1211    7.3305 C   0  0  2  0  0  0  0  0  0  0  0  0
   12.6150   -8.8252    8.1374 H   0  0  0  0  0  0  0  0  0  0  0  0
   11.3193   -7.1423    7.7685 C   0  0  1  0  0  0  0  0  0  0  0  0
   11.1452   -6.4137    6.9767 H   0  0  0  0  0  0  0  0  0  0  0  0
   10.1121   -7.8623    8.0275 O   0  0  0  0  0  0  0  0  0  0  0  0
   11.7639   -6.4172    9.0403 C   0  0  0  0  0  0  0  0  0  0  0  0
   13.6039   -7.3986    7.0158 O   0  0  0  0  0  0  0  0  0  0  0  0
   14.4773   -7.1990    8.0153 C   0  0  0  0  0  0  0  0  0  0  0  0
   14.2377   -7.6237    9.1208 O   0  0  0  0  0  0  0  0  0  0  0  0
   15.7568   -6.4452    7.7586 C   0  0  0  0  0  0  0  0  0  0  0  0
   16.5665   -6.3591    9.0539 C   0  0  0  0  0  0  0  0  0  0  0  0
   17.9193   -5.7044    8.7670 C   0  0  0  0  0  0  0  0  0  0  0  0
   15.8011   -5.5200   10.0790 C   0  0  0  0  0  0  0  0  0  0  0  0
   12.9874   -9.9220    5.6931 C   0  0  0  0  0  0  0  0  0  0  0  0
   11.7305   -7.9701    5.0141 O   0  0  0  0  0  0  0  0  0  0  0  0
    9.3859   -4.7645    6.1672 N   0  3  0  0  0  0  0  0  0  0  0  0
    9.6565   -3.4720    5.5239 C   0  0  0  0  0  0  0  0  0  0  0  0
    8.9503   -4.5405    7.5522 C   0  0  0  0  0  0  0  0  0  0  0  0
    7.1580   -3.4049    4.9459 O   0  0  0  0  0  0  0  0  0  0  0  0
    1.7177   -3.7242    4.6287 C   0  0  0  0  0  0  0  0  0  0  0  0
    2.6469   -2.6459    5.1238 C   0  0  0  0  0  0  0  0  0  0  0  0
    3.0843   -1.8252    4.3534 O   0  0  0  0  0  0  0  0  0  0  0  0
    0.3977   -5.2197    6.8250 C   0  0  0  0  0  0  0  0  0  0  0  0
   -1.9339   -5.5305    5.9273 O   0  0  0  0  0  0  0  0  0  0  0  0
    0.6844   -5.5691   -2.1740 H   0  0  0  0  0  0  0  0  0  0  0  0
   -0.5955   -6.6908   -2.6955 H   0  0  0  0  0  0  0  0  0  0  0  0
   -0.7880   -5.7579   -1.1919 H   0  0  0  0  0  0  0  0  0  0  0  0
   -1.4531   -8.0517   -0.8941 H   0  0  0  0  0  0  0  0  0  0  0  0
   -0.2684   -9.3757   -0.9965 H   0  0  0  0  0  0  0  0  0  0  0  0
   -0.1054   -9.3894    1.4137 H   0  0  0  0  0  0  0  0  0  0  0  0
   -1.1520   -6.5337    1.1881 H   0  0  0  0  0  0  0  0  0  0  0  0
   -0.4802   -8.4450    3.6175 H   0  0  0  0  0  0  0  0  0  0  0  0
   -1.4611   -5.5666    3.3888 H   0  0  0  0  0  0  0  0  0  0  0  0
    1.7649   -7.1025    4.4347 H   0  0  0  0  0  0  0  0  0  0  0  0
    0.6562   -5.8538    3.8185 H   0  0  0  0  0  0  0  0  0  0  0  0
    2.5321   -4.6860    0.6408 H   0  0  0  0  0  0  0  0  0  0  0  0
    4.0341   -5.1340   -0.2027 H   0  0  0  0  0  0  0  0  0  0  0  0
    7.8793   -5.9006    1.3839 H   0  0  0  0  0  0  0  0  0  0  0  0
    7.9116   -7.6040    1.8994 H   0  0  0  0  0  0  0  0  0  0  0  0
    7.7201   -7.1989    0.1767 H   0  0  0  0  0  0  0  0  0  0  0  0
    4.6195   -1.7665    1.9202 H   0  0  0  0  0  0  0  0  0  0  0  0
    3.8548   -3.0142    0.9070 H   0  0  0  0  0  0  0  0  0  0  0  0
    2.9296   -2.2405    2.2160 H   0  0  0  0  0  0  0  0  0  0  0  0
    6.4789   -8.8284    6.9588 H   0  0  0  0  0  0  0  0  0  0  0  0
    5.9328   -9.4435    5.3803 H   0  0  0  0  0  0  0  0  0  0  0  0
    7.6536   -9.5385    5.8255 H   0  0  0  0  0  0  0  0  0  0  0  0
   10.7835  -10.3281    7.2077 H   0  0  0  0  0  0  0  0  0  0  0  0
   10.2414  -10.0957    5.5271 H   0  0  0  0  0  0  0  0  0  0  0  0
   12.6850   -5.8688    8.8428 H   0  0  0  0  0  0  0  0  0  0  0  0
   10.9860   -5.7203    9.3521 H   0  0  0  0  0  0  0  0  0  0  0  0
   11.9376   -7.1458    9.8322 H   0  0  0  0  0  0  0  0  0  0  0  0
   16.3398   -6.9669    6.9996 H   0  0  0  0  0  0  0  0  0  0  0  0
   15.5222   -5.4398    7.4092 H   0  0  0  0  0  0  0  0  0  0  0  0
   16.7250   -7.3618    9.4507 H   0  0  0  0  0  0  0  0  0  0  0  0
   17.7609   -4.7017    8.3702 H   0  0  0  0  0  0  0  0  0  0  0  0
   18.4962   -5.6431    9.6898 H   0  0  0  0  0  0  0  0  0  0  0  0
   18.4647   -6.3022    8.0367 H   0  0  0  0  0  0  0  0  0  0  0  0
   15.6426   -4.5172    9.6822 H   0  0  0  0  0  0  0  0  0  0  0  0
   14.8373   -5.9863   10.2834 H   0  0  0  0  0  0  0  0  0  0  0  0
   16.3780   -5.4586   11.0018 H   0  0  0  0  0  0  0  0  0  0  0  0
   12.6432  -10.4707    4.8165 H   0  0  0  0  0  0  0  0  0  0  0  0
   13.9248   -9.4166    5.4605 H   0  0  0  0  0  0  0  0  0  0  0  0
   13.1442  -10.6167    6.5182 H   0  0  0  0  0  0  0  0  0  0  0  0
   11.4206   -8.3860    4.1979 H   0  0  0  0  0  0  0  0  0  0  0  0
    8.8128   -2.8014    5.6866 H   0  0  0  0  0  0  0  0  0  0  0  0
   10.5571   -3.0336    5.9538 H   0  0  0  0  0  0  0  0  0  0  0  0
    9.8006   -3.6218    4.4539 H   0  0  0  0  0  0  0  0  0  0  0  0
    8.7674   -5.5003    8.0353 H   0  0  0  0  0  0  0  0  0  0  0  0
    9.7276   -4.0028    8.0951 H   0  0  0  0  0  0  0  0  0  0  0  0
    8.0327   -3.9522    7.5538 H   0  0  0  0  0  0  0  0  0  0  0  0
    6.3602   -2.8598    4.9845 H   0  0  0  0  0  0  0  0  0  0  0  0
    1.6432   -3.6691    3.5426 H   0  0  0  0  0  0  0  0  0  0  0  0
    0.7303   -3.5829    5.0682 H   0  0  0  0  0  0  0  0  0  0  0  0
    2.9217   -2.6072    6.1675 H   0  0  0  0  0  0  0  0  0  0  0  0
   -0.3166   -5.3539    7.6373 H   0  0  0  0  0  0  0  0  0  0  0  0
    1.4054   -5.1516    7.2349 H   0  0  0  0  0  0  0  0  0  0  0  0
    0.1634   -4.3037    6.2827 H   0  0  0  0  0  0  0  0  0  0  0  0
   -2.8612   -5.5681    5.6557 H   0  0  0  0  0  0  0  0  0  0  0  0
   10.2258   -5.3237    6.1651 H   0  0  0  0  0  0  0  0  0  0  0  0
  1  2  1  0  0  0  0
  1 74  1  0  0  0  0
  1 75  1  0  0  0  0
  1 76  1  0  0  0  0
  2  3  1  6  0  0  0
  2 25  1  0  0  0  0
  2  4  1  0  0  0  0
  4  5  1  0  0  0  0
  4 77  1  0  0  0  0
  4 78  1  0  0  0  0
  5  6  2  0  0  0  0
  5 79  1  0  0  0  0
  6  7  1  0  0  0  0
  6 80  1  0  0  0  0
  7  8  2  0  0  0  0
  7 81  1  0  0  0  0
  8  9  1  0  0  0  0
  8 82  1  0  0  0  0
  9 10  1  1  0  0  0
  9 11  1  0  0  0  0
  9 73  1  0  0  0  0
 11 12  1  1  0  0  0
 11 13  1  0  0  0  0
 11 72  1  0  0  0  0
 13 14  1  0  0  0  0
 13 83  1  0  0  0  0
 13 84  1  0  0  0  0
 14 15  1  1  0  0  0
 14 16  1  0  0  0  0
 14 69  1  0  0  0  0
 16 17  1  6  0  0  0
 16 18  1  0  0  0  0
 16 32  1  0  0  0  0
 18 19  1  6  0  0  0
 18 20  1  0  0  0  0
 18 30  1  0  0  0  0
 20 21  1  1  0  0  0
 20 22  1  0  0  0  0
 20 26  1  0  0  0  0
 22 23  1  0  0  0  0
 22 85  1  0  0  0  0
 22 86  1  0  0  0  0
 23 24  2  0  0  0  0
 23 25  1  0  0  0  0
 26 27  1  0  0  0  0
 27 28  2  0  0  0  0
 27 29  1  0  0  0  0
 29 87  1  0  0  0  0
 29 88  1  0  0  0  0
 29 89  1  0  0  0  0
 30 31  1  0  0  0  0
 31 90  1  0  0  0  0
 31 91  1  0  0  0  0
 31 92  1  0  0  0  0
 32 33  1  0  0  0  0
 33 34  1  6  0  0  0
 33 43  1  0  0  0  0
 33 35  1  0  0  0  0
 35 36  1  1  0  0  0
 35 37  1  0  0  0  0
 35 68  1  0  0  0  0
 37 38  1  6  0  0  0
 37 39  1  0  0  0  0
 37 65  1  0  0  0  0
 39 40  1  1  0  0  0
 39 41  1  0  0  0  0
 39 45  1  0  0  0  0
 41 42  1  6  0  0  0
 41 43  1  0  0  0  0
 41 44  1  0  0  0  0
 44 93  1  0  0  0  0
 44 94  1  0  0  0  0
 44 95  1  0  0  0  0
 45 46  1  0  0  0  0
 46 47  1  1  0  0  0
 46 54  1  0  0  0  0
 46 48  1  0  0  0  0
 48 49  1  0  0  0  0
 48 96  1  0  0  0  0
 48 97  1  0  0  0  0
 49 50  1  0  0  0  0
 49 63  1  0  0  0  0
 49 64  1  6  0  0  0
 50 51  1  1  0  0  0
 50 52  1  0  0  0  0
 50 56  1  0  0  0  0
 52 53  1  6  0  0  0
 52 54  1  0  0  0  0
 52 55  1  0  0  0  0
 55 98  1  0  0  0  0
 55 99  1  0  0  0  0
 55100  1  0  0  0  0
 56 57  1  0  0  0  0
 57 58  2  0  0  0  0
 57 59  1  0  0  0  0
 59 60  1  0  0  0  0
 59101  1  0  0  0  0
 59102  1  0  0  0  0
 60 61  1  0  0  0  0
 60 62  1  0  0  0  0
 60103  1  0  0  0  0
 61104  1  0  0  0  0
 61105  1  0  0  0  0
 61106  1  0  0  0  0
 62107  1  0  0  0  0
 62108  1  0  0  0  0
 62109  1  0  0  0  0
 63110  1  0  0  0  0
 63111  1  0  0  0  0
 63112  1  0  0  0  0
 64113  1  0  0  0  0
 65 66  1  0  0  0  0
 65 67  1  0  0  0  0
 65128  1  0  0  0  0
 66114  1  0  0  0  0
 66115  1  0  0  0  0
 66116  1  0  0  0  0
 67117  1  0  0  0  0
 67118  1  0  0  0  0
 67119  1  0  0  0  0
 68120  1  0  0  0  0
 69 70  1  0  0  0  0
 69121  1  0  0  0  0
 69122  1  0  0  0  0
 70 71  2  0  0  0  0
 70123  1  0  0  0  0
 72124  1  0  0  0  0
 72125  1  0  0  0  0
 72126  1  0  0  0  0
 73127  1  0  0  0  0
M  CHG  1  65   1
M  END
$$$$
