ZINC01997125
 OpenBabel08292219463D

 31 33  0  0  1  0  0  0  0  0999 V2000
   -2.3413    3.6558   -0.3589 C   0  0  0  0  0  0  0  0  0  0  0  0
   -3.4361    2.9006   -0.7595 C   0  0  0  0  0  0  0  0  0  0  0  0
   -3.5390    1.5757   -0.3742 C   0  0  0  0  0  0  0  0  0  0  0  0
   -2.5305    0.9954    0.4252 C   0  0  0  0  0  0  0  0  0  0  0  0
   -1.4366    1.7624    0.8213 C   0  0  0  0  0  0  0  0  0  0  0  0
   -1.3547    3.0998    0.4258 C   0  0  0  0  0  0  0  0  0  0  0  0
   -0.4394    1.2039    1.6072 N   0  0  0  0  0  0  0  0  0  0  0  0
   -2.9443   -0.4001    0.6482 C   0  0  0  0  0  0  0  0  0  0  0  0
   -2.3309   -1.2262    1.2947 O   0  0  0  0  0  0  0  0  0  0  0  0
   -4.1143   -0.6084    0.0181 N   0  0  0  0  0  0  0  0  0  0  0  0
   -4.5322    0.5066   -0.6082 C   0  0  0  0  0  0  0  0  0  0  0  0
   -5.5538    0.6163   -1.2560 O   0  0  0  0  0  0  0  0  0  0  0  0
   -4.8381   -1.8821    0.0138 C   0  0  2  0  0  0  0  0  0  0  0  0
   -4.4386   -2.5307    0.7934 H   0  0  0  0  0  0  0  0  0  0  0  0
   -4.6750   -2.5593   -1.3511 C   0  0  0  0  0  0  0  0  0  0  0  0
   -5.3426   -1.6813   -2.4146 C   0  0  0  0  0  0  0  0  0  0  0  0
   -6.7776   -1.4398   -2.0273 C   0  0  0  0  0  0  0  0  0  0  0  0
   -7.6045   -1.2561   -2.8945 O   0  0  0  0  0  0  0  0  0  0  0  0
   -7.1587   -1.4245   -0.7412 N   0  0  0  0  0  0  0  0  0  0  0  0
   -6.3008   -1.6306    0.2691 C   0  0  0  0  0  0  0  0  0  0  0  0
   -6.7107   -1.6137    1.4098 O   0  0  0  0  0  0  0  0  0  0  0  0
   -2.2647    4.6895   -0.6621 H   0  0  0  0  0  0  0  0  0  0  0  0
   -4.2059    3.3470   -1.3713 H   0  0  0  0  0  0  0  0  0  0  0  0
   -0.5112    3.7000    0.7333 H   0  0  0  0  0  0  0  0  0  0  0  0
   -0.5019    0.2761    1.8831 H   0  0  0  0  0  0  0  0  0  0  0  0
    0.3224    1.7400    1.8775 H   0  0  0  0  0  0  0  0  0  0  0  0
   -3.6151   -2.6700   -1.5804 H   0  0  0  0  0  0  0  0  0  0  0  0
   -5.1526   -3.5389   -1.3331 H   0  0  0  0  0  0  0  0  0  0  0  0
   -5.3059   -2.1864   -3.3798 H   0  0  0  0  0  0  0  0  0  0  0  0
   -4.8181   -0.7282   -2.4822 H   0  0  0  0  0  0  0  0  0  0  0  0
   -8.0916   -1.2581   -0.5337 H   0  0  0  0  0  0  0  0  0  0  0  0
  1  6  2  0  0  0  0
  1  2  1  0  0  0  0
  1 22  1  0  0  0  0
  2  3  2  0  0  0  0
  2 23  1  0  0  0  0
  3 11  1  0  0  0  0
  3  4  1  0  0  0  0
  4  5  2  0  0  0  0
  4  8  1  0  0  0  0
  5  6  1  0  0  0  0
  5  7  1  0  0  0  0
  6 24  1  0  0  0  0
  7 25  1  0  0  0  0
  7 26  1  0  0  0  0
  8  9  2  0  0  0  0
  8 10  1  0  0  0  0
 10 11  1  0  0  0  0
 10 13  1  0  0  0  0
 11 12  2  0  0  0  0
 13 14  1  1  0  0  0
 13 20  1  0  0  0  0
 13 15  1  0  0  0  0
 15 16  1  0  0  0  0
 15 27  1  0  0  0  0
 15 28  1  0  0  0  0
 16 17  1  0  0  0  0
 16 29  1  0  0  0  0
 16 30  1  0  0  0  0
 17 18  2  0  0  0  0
 17 19  1  0  0  0  0
 19 20  1  0  0  0  0
 19 31  1  0  0  0  0
 20 21  2  0  0  0  0
M  END
$$$$
