ZINC01530772
 OpenBabel08292219463D

 22 22  0  0  1  0  0  0  0  0999 V2000
   -0.0187    1.5258    0.0104 C   0  0  0  0  0  0  0  0  0  0  0  0
    0.0021   -0.0041    0.0020 C   0  0  0  0  0  0  0  0  0  0  0  0
   -1.4333   -0.5336    0.0129 C   0  0  2  0  0  0  0  0  0  0  0  0
   -1.4400   -2.0487    0.0322 C   0  0  0  0  0  0  0  0  0  0  0  0
   -0.9787   -2.7736    0.8874 O   0  0  0  0  0  0  0  0  0  0  0  0
   -2.0680   -2.4211   -1.1019 N   0  0  0  0  0  0  0  0  0  0  0  0
   -2.4451   -1.3489   -1.8101 C   0  0  0  0  0  0  0  0  0  0  0  0
   -3.0305   -1.4115   -2.8725 O   0  0  0  0  0  0  0  0  0  0  0  0
   -2.1029   -0.1972   -1.2117 O   0  0  0  0  0  0  0  0  0  0  0  0
   -2.3047   -3.8097   -1.5044 C   0  0  0  0  0  0  0  0  0  0  0  0
   -2.1999    0.0241    1.2138 C   0  0  0  0  0  0  0  0  0  0  0  0
    1.0039    1.9031    0.0027 H   0  0  0  0  0  0  0  0  0  0  0  0
   -0.5459    1.8868   -0.8726 H   0  0  0  0  0  0  0  0  0  0  0  0
   -0.5289    1.8773    0.9072 H   0  0  0  0  0  0  0  0  0  0  0  0
    0.5123   -0.3556   -0.8948 H   0  0  0  0  0  0  0  0  0  0  0  0
    0.5293   -0.3651    0.8851 H   0  0  0  0  0  0  0  0  0  0  0  0
   -3.2638   -4.1441   -1.1090 H   0  0  0  0  0  0  0  0  0  0  0  0
   -2.3174   -3.8755   -2.5923 H   0  0  0  0  0  0  0  0  0  0  0  0
   -1.5091   -4.4426   -1.1114 H   0  0  0  0  0  0  0  0  0  0  0  0
   -2.2240    1.1123    1.1559 H   0  0  0  0  0  0  0  0  0  0  0  0
   -3.2189   -0.3628    1.2059 H   0  0  0  0  0  0  0  0  0  0  0  0
   -1.7030   -0.2799    2.1351 H   0  0  0  0  0  0  0  0  0  0  0  0
  1  2  1  0  0  0  0
  1 12  1  0  0  0  0
  1 13  1  0  0  0  0
  1 14  1  0  0  0  0
  2 15  1  0  0  0  0
  2 16  1  0  0  0  0
  3  2  1  6  0  0  0
  3  9  1  0  0  0  0
  3  4  1  0  0  0  0
  3 11  1  0  0  0  0
  4  5  2  0  0  0  0
  4  6  1  0  0  0  0
  6  7  1  0  0  0  0
  6 10  1  0  0  0  0
  7  8  2  0  0  0  0
  7  9  1  0  0  0  0
 10 17  1  0  0  0  0
 10 18  1  0  0  0  0
 10 19  1  0  0  0  0
 11 20  1  0  0  0  0
 11 21  1  0  0  0  0
 11 22  1  0  0  0  0
M  END
$$$$
