ZINC00537891
 OpenBabel08292219463D

 46 49  0  0  1  0  0  0  0  0999 V2000
   -0.0187    1.5258    0.0104 C   0  0  0  0  0  0  0  0  0  0  0  0
    0.0021   -0.0041    0.0020 C   0  0  2  0  0  0  0  0  0  0  0  0
    0.5122   -0.3561   -0.8946 H   0  0  0  0  0  0  0  0  0  0  0  0
   -1.4339   -0.5347    0.0146 C   0  0  0  0  0  0  0  0  0  0  0  0
   -2.0442   -0.1776    1.2608 O   0  0  0  0  0  0  0  0  0  0  0  0
   -1.3856   -0.5840    2.3818 C   0  0  0  0  0  0  0  0  0  0  0  0
   -0.0024   -0.7526    2.3510 C   0  0  0  0  0  0  0  0  0  0  0  0
    0.7119   -0.4920    1.1943 N   0  0  0  0  0  0  0  0  0  0  0  0
    2.0401   -0.6691    1.1222 C   0  0  0  0  0  0  0  0  0  0  0  0
    2.7930   -1.0996    2.1955 C   0  0  0  0  0  0  0  0  0  0  0  0
    2.1171   -1.3781    3.4742 C   0  0  0  0  0  0  0  0  0  0  0  0
    2.7379   -1.7513    4.4543 O   0  0  0  0  0  0  0  0  0  0  0  0
    0.6554   -1.1854    3.5159 C   0  0  0  0  0  0  0  0  0  0  0  0
   -0.0666   -1.4283    4.6875 C   0  0  0  0  0  0  0  0  0  0  0  0
   -1.4214   -1.2500    4.7040 C   0  0  0  0  0  0  0  0  0  0  0  0
   -2.0892   -0.8289    3.5524 C   0  0  0  0  0  0  0  0  0  0  0  0
   -3.4738   -0.6522    3.5792 N   0  0  0  0  0  0  0  0  0  0  0  0
   -4.0637    0.6474    3.9355 C   0  0  0  0  0  0  0  0  0  0  0  0
   -5.1250    0.4191    5.0168 C   0  0  0  0  0  0  0  0  0  0  0  0
   -6.0948   -0.5782    4.5466 N   0  3  1  0  0  0  0  0  0  0  0  0
   -5.4304   -1.8750    4.3651 C   0  0  0  0  0  0  0  0  0  0  0  0
   -4.3841   -1.7587    3.2460 C   0  0  0  0  0  0  0  0  0  0  0  0
   -7.1716   -0.7161    5.5363 C   0  0  0  0  0  0  0  0  0  0  0  0
   -2.1172   -1.4826    5.8384 F   0  0  0  0  0  0  0  0  0  0  0  0
    4.2425   -1.2774    2.0651 C   0  0  0  0  0  0  0  0  0  0  0  0
    4.7943   -1.0435    0.9977 O   0  0  0  0  0  0  0  0  0  0  0  0
    4.9010   -1.6598    3.0236 O   0  0  0  0  0  1  0  0  0  0  0  0
    1.0039    1.9031    0.0027 H   0  0  0  0  0  0  0  0  0  0  0  0
   -0.5459    1.8868   -0.8726 H   0  0  0  0  0  0  0  0  0  0  0  0
   -0.5289    1.8773    0.9072 H   0  0  0  0  0  0  0  0  0  0  0  0
   -1.9950   -0.0909   -0.8078 H   0  0  0  0  0  0  0  0  0  0  0  0
   -1.4238   -1.6196   -0.0899 H   0  0  0  0  0  0  0  0  0  0  0  0
    2.5399   -0.4669    0.1864 H   0  0  0  0  0  0  0  0  0  0  0  0
    0.4459   -1.7571    5.5795 H   0  0  0  0  0  0  0  0  0  0  0  0
   -3.2872    1.3095    4.3185 H   0  0  0  0  0  0  0  0  0  0  0  0
   -4.5276    1.0928    3.0553 H   0  0  0  0  0  0  0  0  0  0  0  0
   -4.6451    0.0586    5.9267 H   0  0  0  0  0  0  0  0  0  0  0  0
   -5.6400    1.3570    5.2245 H   0  0  0  0  0  0  0  0  0  0  0  0
   -4.9412   -2.1661    5.2946 H   0  0  0  0  0  0  0  0  0  0  0  0
   -6.1703   -2.6275    4.0925 H   0  0  0  0  0  0  0  0  0  0  0  0
   -4.8797   -1.5523    2.2974 H   0  0  0  0  0  0  0  0  0  0  0  0
   -3.8195   -2.6882    3.1729 H   0  0  0  0  0  0  0  0  0  0  0  0
   -7.6708    0.2441    5.6661 H   0  0  0  0  0  0  0  0  0  0  0  0
   -7.8922   -1.4562    5.1885 H   0  0  0  0  0  0  0  0  0  0  0  0
   -6.7507   -1.0384    6.4887 H   0  0  0  0  0  0  0  0  0  0  0  0
   -6.4863   -0.2762    3.6671 H   0  0  0  0  0  0  0  0  0  0  0  0
  1  2  1  0  0  0  0
  1 28  1  0  0  0  0
  1 29  1  0  0  0  0
  1 30  1  0  0  0  0
  2  3  1  6  0  0  0
  2  8  1  0  0  0  0
  2  4  1  0  0  0  0
  4  5  1  0  0  0  0
  4 31  1  0  0  0  0
  4 32  1  0  0  0  0
  5  6  1  0  0  0  0
  6 16  2  0  0  0  0
  6  7  1  0  0  0  0
  7 13  2  0  0  0  0
  7  8  1  0  0  0  0
  8  9  1  0  0  0  0
  9 10  2  0  0  0  0
  9 33  1  0  0  0  0
 10 11  1  0  0  0  0
 10 25  1  0  0  0  0
 11 12  2  0  0  0  0
 11 13  1  0  0  0  0
 13 14  1  0  0  0  0
 14 15  2  0  0  0  0
 14 34  1  0  0  0  0
 15 16  1  0  0  0  0
 15 24  1  0  0  0  0
 16 17  1  0  0  0  0
 17 22  1  0  0  0  0
 17 18  1  0  0  0  0
 18 19  1  0  0  0  0
 18 35  1  0  0  0  0
 18 36  1  0  0  0  0
 19 20  1  0  0  0  0
 19 37  1  0  0  0  0
 19 38  1  0  0  0  0
 20 21  1  0  0  0  0
 20 23  1  0  0  0  0
 20 46  1  6  0  0  0
 21 22  1  0  0  0  0
 21 39  1  0  0  0  0
 21 40  1  0  0  0  0
 22 41  1  0  0  0  0
 22 42  1  0  0  0  0
 23 43  1  0  0  0  0
 23 44  1  0  0  0  0
 23 45  1  0  0  0  0
 25 26  2  0  0  0  0
 25 27  1  0  0  0  0
M  CHG  1  20   1
M  END
$$$$
