ZINC08214635
 OpenBabel08292219463D

 88 88  0  0  1  0  0  0  0  0999 V2000
   -0.0187    1.5258    0.0104 C   0  0  0  0  0  0  0  0  0  0  0  0
    0.0021   -0.0041    0.0020 C   0  0  0  0  0  0  0  0  0  0  0  0
    0.7421   -0.5109    1.2415 C   0  0  0  0  0  0  0  0  0  0  0  0
    0.7628   -2.0407    1.2331 C   0  0  0  0  0  0  0  0  0  0  0  0
    1.5028   -2.5476    2.4727 C   0  0  0  0  0  0  0  0  0  0  0  0
    1.5236   -4.0774    2.4642 C   0  0  0  0  0  0  0  0  0  0  0  0
    2.2636   -4.5842    3.7038 C   0  0  0  0  0  0  0  0  0  0  0  0
    2.2843   -6.1141    3.6954 C   0  0  0  0  0  0  0  0  0  0  0  0
    3.0243   -6.6209    4.9349 C   0  0  0  0  0  0  0  0  0  0  0  0
    3.0450   -8.1508    4.9265 C   0  0  0  0  0  0  0  0  0  0  0  0
    3.7850   -8.6576    6.1660 C   0  0  0  0  0  0  0  0  0  0  0  0
    3.8058  -10.1874    6.1576 C   0  0  1  0  0  0  0  0  0  0  0  0
    4.2361  -10.5398    5.2201 H   0  0  0  0  0  0  0  0  0  0  0  0
    4.6512  -10.6925    7.3285 C   0  0  0  0  0  0  0  0  0  0  0  0
    4.7753  -12.2153    7.2485 C   0  0  1  0  0  0  0  0  0  0  0  0
    5.0062  -12.5666    6.2429 H   0  0  0  0  0  0  0  0  0  0  0  0
    5.6887  -12.8107    8.3277 C   0  0  1  0  0  0  0  0  0  0  0  0
    6.4145  -12.1160    8.7504 H   0  0  0  0  0  0  0  0  0  0  0  0
    4.3489  -12.8371    9.0268 C   0  0  0  0  0  0  0  0  0  0  0  0
    4.0091  -12.8049   10.1859 O   0  0  0  0  0  0  0  0  0  0  0  0
    3.6781  -12.9098    7.8576 O   0  0  0  0  0  0  0  0  0  0  0  0
    6.2714  -14.1854    7.9938 C   0  0  0  0  0  0  0  0  0  0  0  0
    7.2541  -14.6027    9.0897 C   0  0  0  0  0  0  0  0  0  0  0  0
    7.8368  -15.9774    8.7559 C   0  0  0  0  0  0  0  0  0  0  0  0
    8.8195  -16.3947    9.8518 C   0  0  0  0  0  0  0  0  0  0  0  0
    9.4022  -17.7694    9.5179 C   0  0  0  0  0  0  0  0  0  0  0  0
   10.3849  -18.1866   10.6139 C   0  0  0  0  0  0  0  0  0  0  0  0
    2.4714  -10.6826    6.2851 O   0  0  0  0  0  0  0  0  0  0  0  0
    2.2014  -11.8629    5.7056 C   0  0  0  0  0  0  0  0  0  0  0  0
    3.0693  -12.4559    5.1098 O   0  0  0  0  0  0  0  0  0  0  0  0
    0.8158  -12.4483    5.7980 C   0  0  2  0  0  0  0  0  0  0  0  0
    0.0777  -11.6545    5.6837 H   0  0  0  0  0  0  0  0  0  0  0  0
    0.6358  -13.1196    7.1610 C   0  0  0  0  0  0  0  0  0  0  0  0
   -0.8084  -13.6043    7.3040 C   0  0  0  0  0  0  0  0  0  0  0  0
   -0.9574  -14.3844    8.6117 C   0  0  0  0  0  0  0  0  0  0  0  0
   -1.7516  -12.3997    7.3184 C   0  0  0  0  0  0  0  0  0  0  0  0
    0.6335  -13.4414    4.7366 N   0  0  0  0  0  0  0  0  0  0  0  0
    1.4394  -14.5200    4.6772 C   0  0  0  0  0  0  0  0  0  0  0  0
    2.3155  -14.6685    5.5026 O   0  0  0  0  0  0  0  0  0  0  0  0
    1.0039    1.9031    0.0027 H   0  0  0  0  0  0  0  0  0  0  0  0
   -0.5459    1.8868   -0.8726 H   0  0  0  0  0  0  0  0  0  0  0  0
   -0.5289    1.8773    0.9072 H   0  0  0  0  0  0  0  0  0  0  0  0
   -1.0205   -0.3814    0.0098 H   0  0  0  0  0  0  0  0  0  0  0  0
    0.5123   -0.3556   -0.8948 H   0  0  0  0  0  0  0  0  0  0  0  0
    1.7647   -0.1336    1.2338 H   0  0  0  0  0  0  0  0  0  0  0  0
    0.2319   -0.1594    2.1383 H   0  0  0  0  0  0  0  0  0  0  0  0
   -0.2598   -2.4180    1.2409 H   0  0  0  0  0  0  0  0  0  0  0  0
    1.2730   -2.3923    0.3363 H   0  0  0  0  0  0  0  0  0  0  0  0
    2.5254   -2.1703    2.4649 H   0  0  0  0  0  0  0  0  0  0  0  0
    0.9926   -2.1961    3.3695 H   0  0  0  0  0  0  0  0  0  0  0  0
    0.5010   -4.4547    2.4720 H   0  0  0  0  0  0  0  0  0  0  0  0
    2.0337   -4.4289    1.5675 H   0  0  0  0  0  0  0  0  0  0  0  0
    3.2861   -4.2070    3.6960 H   0  0  0  0  0  0  0  0  0  0  0  0
    1.7534   -4.2327    4.6006 H   0  0  0  0  0  0  0  0  0  0  0  0
    1.2617   -6.4914    3.7031 H   0  0  0  0  0  0  0  0  0  0  0  0
    2.7945   -6.4656    2.7986 H   0  0  0  0  0  0  0  0  0  0  0  0
    4.0469   -6.2436    4.9271 H   0  0  0  0  0  0  0  0  0  0  0  0
    2.5141   -6.2694    5.8317 H   0  0  0  0  0  0  0  0  0  0  0  0
    2.0224   -8.5280    4.9342 H   0  0  0  0  0  0  0  0  0  0  0  0
    3.5552   -8.5023    4.0297 H   0  0  0  0  0  0  0  0  0  0  0  0
    4.8076   -8.2803    6.1583 H   0  0  0  0  0  0  0  0  0  0  0  0
    3.2748   -8.3061    7.0628 H   0  0  0  0  0  0  0  0  0  0  0  0
    5.6436  -10.2441    7.2801 H   0  0  0  0  0  0  0  0  0  0  0  0
    4.1729  -10.4157    8.2680 H   0  0  0  0  0  0  0  0  0  0  0  0
    5.4652  -14.9163    7.9311 H   0  0  0  0  0  0  0  0  0  0  0  0
    6.7927  -14.1366    7.0377 H   0  0  0  0  0  0  0  0  0  0  0  0
    8.0603  -13.8718    9.1524 H   0  0  0  0  0  0  0  0  0  0  0  0
    6.7328  -14.6515   10.0458 H   0  0  0  0  0  0  0  0  0  0  0  0
    7.0306  -16.7083    8.6932 H   0  0  0  0  0  0  0  0  0  0  0  0
    8.3581  -15.9286    7.7998 H   0  0  0  0  0  0  0  0  0  0  0  0
    9.6257  -15.6638    9.9145 H   0  0  0  0  0  0  0  0  0  0  0  0
    8.2982  -16.4435   10.8079 H   0  0  0  0  0  0  0  0  0  0  0  0
    8.5960  -18.5003    9.4553 H   0  0  0  0  0  0  0  0  0  0  0  0
    9.9235  -17.7206    8.5619 H   0  0  0  0  0  0  0  0  0  0  0  0
    9.8636  -18.2354   11.5699 H   0  0  0  0  0  0  0  0  0  0  0  0
   10.8000  -19.1660   10.3760 H   0  0  0  0  0  0  0  0  0  0  0  0
   11.1911  -17.4557   10.6765 H   0  0  0  0  0  0  0  0  0  0  0  0
    1.3137  -13.9695    7.2398 H   0  0  0  0  0  0  0  0  0  0  0  0
    0.8584  -12.4028    7.9514 H   0  0  0  0  0  0  0  0  0  0  0  0
   -1.0591  -14.2520    6.4640 H   0  0  0  0  0  0  0  0  0  0  0  0
   -0.7067  -13.7367    9.4518 H   0  0  0  0  0  0  0  0  0  0  0  0
   -1.9863  -14.7297    8.7136 H   0  0  0  0  0  0  0  0  0  0  0  0
   -0.2855  -15.2426    8.6015 H   0  0  0  0  0  0  0  0  0  0  0  0
   -1.5008  -11.7520    8.1584 H   0  0  0  0  0  0  0  0  0  0  0  0
   -1.6454  -11.8439    6.3868 H   0  0  0  0  0  0  0  0  0  0  0  0
   -2.7804  -12.7450    7.4203 H   0  0  0  0  0  0  0  0  0  0  0  0
   -0.0673  -13.3226    4.0765 H   0  0  0  0  0  0  0  0  0  0  0  0
    1.3049  -15.2522    3.8947 H   0  0  0  0  0  0  0  0  0  0  0  0
  1  2  1  0  0  0  0
  1 40  1  0  0  0  0
  1 41  1  0  0  0  0
  1 42  1  0  0  0  0
  2  3  1  0  0  0  0
  2 43  1  0  0  0  0
  2 44  1  0  0  0  0
  3  4  1  0  0  0  0
  3 45  1  0  0  0  0
  3 46  1  0  0  0  0
  4  5  1  0  0  0  0
  4 47  1  0  0  0  0
  4 48  1  0  0  0  0
  5  6  1  0  0  0  0
  5 49  1  0  0  0  0
  5 50  1  0  0  0  0
  6  7  1  0  0  0  0
  6 51  1  0  0  0  0
  6 52  1  0  0  0  0
  7  8  1  0  0  0  0
  7 53  1  0  0  0  0
  7 54  1  0  0  0  0
  8  9  1  0  0  0  0
  8 55  1  0  0  0  0
  8 56  1  0  0  0  0
  9 10  1  0  0  0  0
  9 57  1  0  0  0  0
  9 58  1  0  0  0  0
 10 11  1  0  0  0  0
 10 59  1  0  0  0  0
 10 60  1  0  0  0  0
 11 12  1  0  0  0  0
 11 61  1  0  0  0  0
 11 62  1  0  0  0  0
 12 13  1  6  0  0  0
 12 14  1  0  0  0  0
 12 28  1  0  0  0  0
 14 15  1  0  0  0  0
 14 63  1  0  0  0  0
 14 64  1  0  0  0  0
 15 16  1  6  0  0  0
 15 21  1  0  0  0  0
 15 17  1  0  0  0  0
 17 18  1  1  0  0  0
 17 19  1  0  0  0  0
 17 22  1  0  0  0  0
 19 20  2  0  0  0  0
 19 21  1  0  0  0  0
 22 23  1  0  0  0  0
 22 65  1  0  0  0  0
 22 66  1  0  0  0  0
 23 24  1  0  0  0  0
 23 67  1  0  0  0  0
 23 68  1  0  0  0  0
 24 25  1  0  0  0  0
 24 69  1  0  0  0  0
 24 70  1  0  0  0  0
 25 26  1  0  0  0  0
 25 71  1  0  0  0  0
 25 72  1  0  0  0  0
 26 27  1  0  0  0  0
 26 73  1  0  0  0  0
 26 74  1  0  0  0  0
 27 75  1  0  0  0  0
 27 76  1  0  0  0  0
 27 77  1  0  0  0  0
 28 29  1  0  0  0  0
 29 30  2  0  0  0  0
 29 31  1  0  0  0  0
 31 32  1  6  0  0  0
 31 33  1  0  0  0  0
 31 37  1  0  0  0  0
 33 34  1  0  0  0  0
 33 78  1  0  0  0  0
 33 79  1  0  0  0  0
 34 35  1  0  0  0  0
 34 36  1  0  0  0  0
 34 80  1  0  0  0  0
 35 81  1  0  0  0  0
 35 82  1  0  0  0  0
 35 83  1  0  0  0  0
 36 84  1  0  0  0  0
 36 85  1  0  0  0  0
 36 86  1  0  0  0  0
 37 38  1  0  0  0  0
 37 87  1  0  0  0  0
 38 39  2  0  0  0  0
 38 88  1  0  0  0  0
M  END
$$$$
