ZINC00057206
 OpenBabel08292219463D

 35 35  0  0  1  0  0  0  0  0999 V2000
   -1.0566    1.7774    0.2550 C   0  0  0  0  0  0  0  0  0  0  0  0
   -0.6245    0.3105    0.2053 C   0  0  2  0  0  0  0  0  0  0  0  0
    0.0304    0.0958    1.0498 H   0  0  0  0  0  0  0  0  0  0  0  0
    0.1133    0.0475   -1.0821 C   0  0  0  0  0  0  0  0  0  0  0  0
   -0.4852   -0.3742   -2.0486 O   0  0  0  0  0  0  0  0  0  0  0  0
    1.5603    0.3025   -1.1663 C   0  0  0  0  0  0  0  0  0  0  0  0
    2.2552    0.7834   -0.0517 C   0  0  0  0  0  0  0  0  0  0  0  0
    3.6108    1.0196   -0.1376 C   0  0  0  0  0  0  0  0  0  0  0  0
    4.2848    0.7826   -1.3230 C   0  0  0  0  0  0  0  0  0  0  0  0
    3.6044    0.3069   -2.4315 C   0  0  0  0  0  0  0  0  0  0  0  0
    2.2483    0.0597   -2.3590 C   0  0  0  0  0  0  0  0  0  0  0  0
    4.4602    0.0138   -3.9131 Cl  0  0  0  0  0  0  0  0  0  0  0  0
   -1.8114   -0.5523    0.2745 N   0  3  0  0  0  0  0  0  0  0  0  0
   -1.4010   -1.9245    0.6007 C   0  0  0  0  0  0  0  0  0  0  0  0
   -0.5797   -1.9180    1.8916 C   0  0  0  0  0  0  0  0  0  0  0  0
   -2.6435   -2.7968    0.7912 C   0  0  0  0  0  0  0  0  0  0  0  0
   -0.5524   -2.4880   -0.5408 C   0  0  0  0  0  0  0  0  0  0  0  0
   -0.1735    2.4153    0.2893 H   0  0  0  0  0  0  0  0  0  0  0  0
   -1.6416    2.0141   -0.6337 H   0  0  0  0  0  0  0  0  0  0  0  0
   -1.6627    1.9476    1.1449 H   0  0  0  0  0  0  0  0  0  0  0  0
    1.7310    0.9697    0.8740 H   0  0  0  0  0  0  0  0  0  0  0  0
    4.1483    1.3909    0.7224 H   0  0  0  0  0  0  0  0  0  0  0  0
    5.3467    0.9699   -1.3840 H   0  0  0  0  0  0  0  0  0  0  0  0
    1.7194   -0.3158   -3.2225 H   0  0  0  0  0  0  0  0  0  0  0  0
   -2.4356   -0.2090    0.9892 H   0  0  0  0  0  0  0  0  0  0  0  0
   -1.1168   -1.3636    2.6612 H   0  0  0  0  0  0  0  0  0  0  0  0
   -0.4207   -2.9430    2.2263 H   0  0  0  0  0  0  0  0  0  0  0  0
    0.3836   -1.4425    1.7069 H   0  0  0  0  0  0  0  0  0  0  0  0
   -3.2286   -2.8015   -0.1284 H   0  0  0  0  0  0  0  0  0  0  0  0
   -2.3389   -3.8150    1.0333 H   0  0  0  0  0  0  0  0  0  0  0  0
   -3.2480   -2.3953    1.6045 H   0  0  0  0  0  0  0  0  0  0  0  0
    0.4048   -1.9676   -0.5732 H   0  0  0  0  0  0  0  0  0  0  0  0
   -0.3821   -3.5520   -0.3760 H   0  0  0  0  0  0  0  0  0  0  0  0
   -1.0753   -2.3460   -1.4866 H   0  0  0  0  0  0  0  0  0  0  0  0
   -2.2845   -0.5456   -0.6167 H   0  0  0  0  0  0  0  0  0  0  0  0
  1  2  1  0  0  0  0
  1 18  1  0  0  0  0
  1 19  1  0  0  0  0
  1 20  1  0  0  0  0
  2  3  1  1  0  0  0
  2  4  1  0  0  0  0
  2 13  1  0  0  0  0
  4  5  2  0  0  0  0
  4  6  1  0  0  0  0
  6 11  2  0  0  0  0
  6  7  1  0  0  0  0
  7  8  2  0  0  0  0
  7 21  1  0  0  0  0
  8  9  1  0  0  0  0
  8 22  1  0  0  0  0
  9 10  2  0  0  0  0
  9 23  1  0  0  0  0
 10 11  1  0  0  0  0
 10 12  1  0  0  0  0
 11 24  1  0  0  0  0
 13 14  1  0  0  0  0
 13 25  1  0  0  0  0
 13 35  1  0  0  0  0
 14 15  1  0  0  0  0
 14 16  1  0  0  0  0
 14 17  1  0  0  0  0
 15 26  1  0  0  0  0
 15 27  1  0  0  0  0
 15 28  1  0  0  0  0
 16 29  1  0  0  0  0
 16 30  1  0  0  0  0
 16 31  1  0  0  0  0
 17 32  1  0  0  0  0
 17 33  1  0  0  0  0
 17 34  1  0  0  0  0
M  CHG  1  13   1
M  END
$$$$
