ZINC13912394
 OpenBabel08292219463D

 66 67  0  0  1  0  0  0  0  0999 V2000
   -2.5046    8.2885   -3.0469 C   0  0  0  0  0  0  0  0  0  0  0  0
   -2.6834    6.7726   -2.9429 C   0  0  0  0  0  0  0  0  0  0  0  0
   -2.2000    6.1121   -4.2356 C   0  0  0  0  0  0  0  0  0  0  0  0
   -4.0872    6.4638   -2.7374 O   0  0  0  0  0  0  0  0  0  0  0  0
   -4.3710    5.3548   -2.0365 C   0  0  0  0  0  0  0  0  0  0  0  0
   -3.4760    4.6649   -1.6089 O   0  0  0  0  0  0  0  0  0  0  0  0
   -5.8058    4.9702   -1.7829 C   0  0  0  0  0  0  0  0  0  0  0  0
   -5.8506    3.6764   -0.9674 C   0  0  0  0  0  0  0  0  0  0  0  0
   -7.3073    3.2859   -0.7099 C   0  0  0  0  0  0  0  0  0  0  0  0
   -7.3514    2.0115    0.0932 C   0  0  0  0  0  0  0  0  0  0  0  0
   -8.0561    1.9564    1.1962 C   0  0  0  0  0  0  0  0  0  0  0  0
   -8.9564    3.1047    1.5732 C   0  0  0  0  0  0  0  0  0  0  0  0
  -10.3712    2.5810    1.8280 C   0  0  1  0  0  0  0  0  0  0  0  0
  -10.3517    1.8156    2.6037 H   0  0  0  0  0  0  0  0  0  0  0  0
  -11.2954    3.7408    2.2531 C   0  0  2  0  0  0  0  0  0  0  0  0
  -12.0349    3.3943    2.9750 H   0  0  0  0  0  0  0  0  0  0  0  0
  -11.9857    4.1773    0.9356 C   0  0  0  0  0  0  0  0  0  0  0  0
  -12.2222    2.8292    0.2106 C   0  0  2  0  0  0  0  0  0  0  0  0
  -13.1115    2.3360    0.6029 H   0  0  0  0  0  0  0  0  0  0  0  0
  -10.9604    2.0013    0.5301 C   0  0  2  0  0  0  0  0  0  0  0  0
  -10.2383    2.0930   -0.2813 H   0  0  0  0  0  0  0  0  0  0  0  0
  -11.3298    0.5543    0.7321 C   0  0  0  0  0  0  0  0  0  0  0  0
  -10.7710   -0.3734   -0.0050 C   0  0  0  0  0  0  0  0  0  0  0  0
  -11.1405   -1.8204    0.1970 C   0  0  0  0  0  0  0  0  0  0  0  0
   -9.8920   -2.6165    0.5822 C   0  0  0  0  0  0  0  0  0  0  0  0
   -9.3466   -2.0905    1.7938 O   0  0  0  0  0  0  0  0  0  0  0  0
   -8.2265   -2.6893    2.2772 C   0  0  0  0  0  0  0  0  0  0  0  0
   -7.6671   -3.7647    1.6024 C   0  0  0  0  0  0  0  0  0  0  0  0
   -6.5255   -4.3683    2.0931 C   0  0  0  0  0  0  0  0  0  0  0  0
   -5.9463   -3.9082    3.2613 C   0  0  0  0  0  0  0  0  0  0  0  0
   -6.5051   -2.8402    3.9387 C   0  0  0  0  0  0  0  0  0  0  0  0
   -7.6437   -2.2298    3.4494 C   0  0  0  0  0  0  0  0  0  0  0  0
  -12.0911   -1.9208    1.2185 F   0  0  0  0  0  0  0  0  0  0  0  0
  -11.6744   -2.3353   -0.9891 F   0  0  0  0  0  0  0  0  0  0  0  0
  -12.3444    3.0310   -1.1988 O   0  0  0  0  0  0  0  0  0  0  0  0
  -10.5290    4.8170    2.7977 O   0  0  0  0  0  0  0  0  0  0  0  0
   -3.0865    8.6662   -3.8876 H   0  0  0  0  0  0  0  0  0  0  0  0
   -1.4507    8.5203   -3.2012 H   0  0  0  0  0  0  0  0  0  0  0  0
   -2.8490    8.7590   -2.1260 H   0  0  0  0  0  0  0  0  0  0  0  0
   -2.1014    6.3949   -2.1023 H   0  0  0  0  0  0  0  0  0  0  0  0
   -2.7820    6.4898   -5.0763 H   0  0  0  0  0  0  0  0  0  0  0  0
   -1.1461    6.3439   -4.3899 H   0  0  0  0  0  0  0  0  0  0  0  0
   -2.3274    5.0321   -4.1615 H   0  0  0  0  0  0  0  0  0  0  0  0
   -6.3029    5.7663   -1.2286 H   0  0  0  0  0  0  0  0  0  0  0  0
   -6.3148    4.8176   -2.7346 H   0  0  0  0  0  0  0  0  0  0  0  0
   -5.3535    2.8802   -1.5216 H   0  0  0  0  0  0  0  0  0  0  0  0
   -5.3417    3.8290   -0.0157 H   0  0  0  0  0  0  0  0  0  0  0  0
   -7.8044    4.0821   -0.1557 H   0  0  0  0  0  0  0  0  0  0  0  0
   -7.8162    3.1333   -1.6617 H   0  0  0  0  0  0  0  0  0  0  0  0
   -6.8019    1.1437   -0.2404 H   0  0  0  0  0  0  0  0  0  0  0  0
   -7.9920    1.0882    1.8352 H   0  0  0  0  0  0  0  0  0  0  0  0
   -8.5774    3.5819    2.4770 H   0  0  0  0  0  0  0  0  0  0  0  0
   -8.9785    3.8310    0.7608 H   0  0  0  0  0  0  0  0  0  0  0  0
  -11.3290    4.8208    0.3501 H   0  0  0  0  0  0  0  0  0  0  0  0
  -12.9324    4.6774    1.1398 H   0  0  0  0  0  0  0  0  0  0  0  0
  -12.0552    0.2822    1.4845 H   0  0  0  0  0  0  0  0  0  0  0  0
  -10.0456   -0.1013   -0.7574 H   0  0  0  0  0  0  0  0  0  0  0  0
  -10.1592   -3.6631    0.7283 H   0  0  0  0  0  0  0  0  0  0  0  0
   -9.1513   -2.5383   -0.2137 H   0  0  0  0  0  0  0  0  0  0  0  0
   -8.1215   -4.1271    0.6922 H   0  0  0  0  0  0  0  0  0  0  0  0
   -6.0871   -5.2026    1.5658 H   0  0  0  0  0  0  0  0  0  0  0  0
   -5.0562   -4.3840    3.6455 H   0  0  0  0  0  0  0  0  0  0  0  0
   -6.0509   -2.4826    4.8510 H   0  0  0  0  0  0  0  0  0  0  0  0
   -8.0797   -1.3954    3.9787 H   0  0  0  0  0  0  0  0  0  0  0  0
  -13.1211    3.5461   -1.4566 H   0  0  0  0  0  0  0  0  0  0  0  0
  -11.0600    5.5737    3.0817 H   0  0  0  0  0  0  0  0  0  0  0  0
  1  2  1  0  0  0  0
  1 37  1  0  0  0  0
  1 38  1  0  0  0  0
  1 39  1  0  0  0  0
  2  3  1  0  0  0  0
  2  4  1  0  0  0  0
  2 40  1  0  0  0  0
  3 41  1  0  0  0  0
  3 42  1  0  0  0  0
  3 43  1  0  0  0  0
  4  5  1  0  0  0  0
  5  6  2  0  0  0  0
  5  7  1  0  0  0  0
  7  8  1  0  0  0  0
  7 44  1  0  0  0  0
  7 45  1  0  0  0  0
  8  9  1  0  0  0  0
  8 46  1  0  0  0  0
  8 47  1  0  0  0  0
  9 10  1  0  0  0  0
  9 48  1  0  0  0  0
  9 49  1  0  0  0  0
 10 11  2  0  0  0  0
 10 50  1  0  0  0  0
 11 12  1  0  0  0  0
 11 51  1  0  0  0  0
 12 13  1  0  0  0  0
 12 52  1  0  0  0  0
 12 53  1  0  0  0  0
 13 14  1  1  0  0  0
 13 20  1  0  0  0  0
 13 15  1  0  0  0  0
 15 16  1  1  0  0  0
 15 17  1  0  0  0  0
 15 36  1  0  0  0  0
 17 18  1  0  0  0  0
 17 54  1  0  0  0  0
 17 55  1  0  0  0  0
 18 19  1  1  0  0  0
 18 20  1  0  0  0  0
 18 35  1  0  0  0  0
 20 21  1  6  0  0  0
 20 22  1  0  0  0  0
 22 23  2  0  0  0  0
 22 56  1  0  0  0  0
 23 24  1  0  0  0  0
 23 57  1  0  0  0  0
 24 25  1  0  0  0  0
 24 33  1  0  0  0  0
 24 34  1  0  0  0  0
 25 26  1  0  0  0  0
 25 58  1  0  0  0  0
 25 59  1  0  0  0  0
 26 27  1  0  0  0  0
 27 32  2  0  0  0  0
 27 28  1  0  0  0  0
 28 29  2  0  0  0  0
 28 60  1  0  0  0  0
 29 30  1  0  0  0  0
 29 61  1  0  0  0  0
 30 31  2  0  0  0  0
 30 62  1  0  0  0  0
 31 32  1  0  0  0  0
 31 63  1  0  0  0  0
 32 64  1  0  0  0  0
 35 65  1  0  0  0  0
 36 66  1  0  0  0  0
M  END
$$$$
