ZINC08403947
 OpenBabel08292219463D

 27 27  0  0  0  0  0  0  0  0999 V2000
    1.1579    5.3758   -2.1443 C   0  0  0  0  0  0  0  0  0  0  0  0
   -0.0912    5.8648   -1.4085 C   0  0  0  0  0  0  0  0  0  0  0  0
   -1.3403    5.3417   -2.1206 C   0  0  0  0  0  0  0  0  0  0  0  0
   -0.0705    5.3471    0.0311 C   0  0  0  0  0  0  0  0  0  0  0  0
   -0.0501    3.8402    0.0228 C   0  0  0  0  0  0  0  0  0  0  0  0
    1.1563    3.1654    0.0076 C   0  0  0  0  0  0  0  0  0  0  0  0
    1.1750    1.7832    0.0004 C   0  0  0  0  0  0  0  0  0  0  0  0
   -0.0126    1.0758    0.0080 C   0  0  0  0  0  0  0  0  0  0  0  0
   -1.2190    1.7506    0.0173 C   0  0  0  0  0  0  0  0  0  0  0  0
   -1.2377    3.1328    0.0299 C   0  0  0  0  0  0  0  0  0  0  0  0
    1.1726    4.2859   -2.1504 H   0  0  0  0  0  0  0  0  0  0  0  0
    1.1431    5.7446   -3.1699 H   0  0  0  0  0  0  0  0  0  0  0  0
    2.0477    5.7484   -1.6370 H   0  0  0  0  0  0  0  0  0  0  0  0
   -2.2301    5.6901   -1.5964 H   0  0  0  0  0  0  0  0  0  0  0  0
   -1.3550    5.7106   -3.1462 H   0  0  0  0  0  0  0  0  0  0  0  0
   -1.3255    4.2519   -2.1267 H   0  0  0  0  0  0  0  0  0  0  0  0
   -0.9604    5.6955    0.5554 H   0  0  0  0  0  0  0  0  0  0  0  0
    0.8193    5.7197    0.5385 H   0  0  0  0  0  0  0  0  0  0  0  0
    2.0842    3.7181    0.0017 H   0  0  0  0  0  0  0  0  0  0  0  0
    2.1175    1.2560   -0.0115 H   0  0  0  0  0  0  0  0  0  0  0  0
    0.0021   -0.0041    0.0020 H   0  0  0  0  0  0  0  0  0  0  0  0
   -2.1469    1.1980    0.0188 H   0  0  0  0  0  0  0  0  0  0  0  0
   -2.1802    3.6600    0.0414 H   0  0  0  0  0  0  0  0  0  0  0  0
    0.6702    7.7030   -0.8797 H   0  0  0  0  0  0  0  0  0  0  0  0
   -0.1251    7.7003   -2.3403 H   0  0  0  0  0  0  0  0  0  0  0  0
   -0.1331    7.3376   -1.3884 N   0  3  0  0  0  0  0  0  0  0  0  0
   -0.9939    7.6444   -0.9202 H   0  0  0  0  0  0  0  0  0  0  0  0
  1  2  1  0  0  0  0
  1 11  1  0  0  0  0
  1 12  1  0  0  0  0
  1 13  1  0  0  0  0
  2  3  1  0  0  0  0
  2  4  1  0  0  0  0
  2 26  1  0  0  0  0
  3 14  1  0  0  0  0
  3 15  1  0  0  0  0
  3 16  1  0  0  0  0
  4  5  1  0  0  0  0
  4 17  1  0  0  0  0
  4 18  1  0  0  0  0
  5 10  2  0  0  0  0
  5  6  1  0  0  0  0
  6  7  2  0  0  0  0
  6 19  1  0  0  0  0
  7  8  1  0  0  0  0
  7 20  1  0  0  0  0
  8  9  2  0  0  0  0
  8 21  1  0  0  0  0
  9 10  1  0  0  0  0
  9 22  1  0  0  0  0
 10 23  1  0  0  0  0
 24 26  1  0  0  0  0
 25 26  1  0  0  0  0
 26 27  1  0  0  0  0
M  CHG  1  26   1
M  END
$$$$
