ZINC95617677
 OpenBabel08292219463D

102104  0  0  1  0  0  0  0  0999 V2000
    0.5842    0.5318   -0.6818 C   0  0  0  0  0  0  0  0  0  0  0  0
    0.4611   -0.9920   -0.6199 C   0  0  0  0  0  0  0  0  0  0  0  0
    1.2009   -1.5138    0.6135 C   0  0  0  0  0  0  0  0  0  0  0  0
   -1.0160   -1.3811   -0.5311 C   0  0  0  0  0  0  0  0  0  0  0  0
   -1.6831   -0.9965   -1.7349 O   0  0  0  0  0  0  0  0  0  0  0  0
   -2.9988   -1.2698   -1.8187 C   0  0  0  0  0  0  0  0  0  0  0  0
   -3.5651   -1.8197   -0.8949 O   0  0  0  0  0  0  0  0  0  0  0  0
   -3.6876   -0.9333   -2.9271 N   0  0  0  0  0  0  0  0  0  0  0  0
   -5.1193   -1.2306   -3.0183 C   0  0  0  0  0  0  0  0  0  0  0  0
   -5.6551   -0.7492   -4.3681 C   0  0  0  0  0  0  0  0  0  0  0  0
   -7.1278   -1.0551   -4.4619 C   0  0  0  0  0  0  0  0  0  0  0  0
   -7.6931   -1.6040   -3.5399 O   0  0  0  0  0  0  0  0  0  0  0  0
   -7.8167   -0.7186   -5.5704 N   0  0  0  0  0  0  0  0  0  0  0  0
   -9.2483   -1.0159   -5.6615 C   0  0  1  0  0  0  0  0  0  0  0  0
   -9.4573   -1.9563   -5.1516 H   0  0  0  0  0  0  0  0  0  0  0  0
  -10.0461    0.1105   -5.0015 C   0  0  0  0  0  0  0  0  0  0  0  0
   -9.7394    0.1457   -3.5264 C   0  0  0  0  0  0  0  0  0  0  0  0
  -10.4425   -0.4499   -2.5503 C   0  0  0  0  0  0  0  0  0  0  0  0
   -9.8626   -0.1972   -1.3369 N   0  0  0  0  0  0  0  0  0  0  0  0
  -10.1909   -0.5222   -0.4839 H   0  0  0  0  0  0  0  0  0  0  0  0
   -8.7438    0.5871   -1.5069 C   0  0  0  0  0  0  0  0  0  0  0  0
   -8.6139    0.8311   -2.8866 C   0  0  0  0  0  0  0  0  0  0  0  0
   -7.5521    1.6036   -3.3604 C   0  0  0  0  0  0  0  0  0  0  0  0
   -6.6410    2.1167   -2.4806 C   0  0  0  0  0  0  0  0  0  0  0  0
   -6.7623    1.8756   -1.1192 C   0  0  0  0  0  0  0  0  0  0  0  0
   -7.8078    1.1235   -0.6291 C   0  0  0  0  0  0  0  0  0  0  0  0
   -9.6462   -1.1309   -7.1105 C   0  0  0  0  0  0  0  0  0  0  0  0
   -8.8157   -0.9795   -7.9813 O   0  0  0  0  0  0  0  0  0  0  0  0
  -10.9249   -1.4021   -7.4387 N   0  0  0  0  0  0  0  0  0  0  0  0
  -11.3117   -1.5140   -8.8473 C   0  0  1  0  0  0  0  0  0  0  0  0
  -10.7327   -0.8061   -9.4404 H   0  0  0  0  0  0  0  0  0  0  0  0
  -11.0377   -2.9363   -9.3400 C   0  0  0  0  0  0  0  0  0  0  0  0
   -9.5316   -3.2046   -9.3113 C   0  0  0  0  0  0  0  0  0  0  0  0
   -9.2067   -4.8910   -9.8955 S   0  0  0  0  0  0  0  0  0  0  0  0
   -7.4019   -5.0479   -9.8013 C   0  0  0  0  0  0  0  0  0  0  0  0
  -12.7801   -1.2068   -8.9909 C   0  0  0  0  0  0  0  0  0  0  0  0
  -13.4386   -0.9224   -8.0130 O   0  0  0  0  0  0  0  0  0  0  0  0
  -13.3615   -1.2481  -10.2061 N   0  0  0  0  0  0  0  0  0  0  0  0
  -14.8082   -1.0556  -10.3329 C   0  0  1  0  0  0  0  0  0  0  0  0
  -15.1359   -0.2899   -9.6298 H   0  0  0  0  0  0  0  0  0  0  0  0
  -15.1409   -0.6140  -11.7595 C   0  0  0  0  0  0  0  0  0  0  0  0
  -14.5471    0.7473  -12.0153 C   0  0  0  0  0  0  0  0  0  0  0  0
  -14.0042    1.3557  -11.1089 O   0  0  0  0  0  0  0  0  0  0  0  0
  -14.6098    1.2403  -13.1287 O   0  0  0  0  0  1  0  0  0  0  0  0
  -15.5158   -2.3513  -10.0303 C   0  0  0  0  0  0  0  0  0  0  0  0
  -14.8747   -3.3383   -9.7376 O   0  0  0  0  0  0  0  0  0  0  0  0
  -16.8610   -2.4133  -10.0850 N   0  0  0  0  0  0  0  0  0  0  0  0
  -17.5488   -3.6728   -9.7908 C   0  0  1  0  0  0  0  0  0  0  0  0
  -17.0074   -4.2090   -9.0114 H   0  0  0  0  0  0  0  0  0  0  0  0
  -18.9717   -3.3773   -9.3123 C   0  0  0  0  0  0  0  0  0  0  0  0
  -18.9170   -2.6371   -8.0008 C   0  0  0  0  0  0  0  0  0  0  0  0
  -18.9047   -3.3399   -6.8105 C   0  0  0  0  0  0  0  0  0  0  0  0
  -18.8546   -2.6610   -5.6074 C   0  0  0  0  0  0  0  0  0  0  0  0
  -18.8163   -1.2792   -5.5946 C   0  0  0  0  0  0  0  0  0  0  0  0
  -18.8277   -0.5764   -6.7849 C   0  0  0  0  0  0  0  0  0  0  0  0
  -18.8735   -1.2555   -7.9881 C   0  0  0  0  0  0  0  0  0  0  0  0
  -17.6034   -4.5184  -11.0371 C   0  0  0  0  0  0  0  0  0  0  0  0
  -17.1158   -4.1091  -12.0694 O   0  0  0  0  0  0  0  0  0  0  0  0
  -18.1941   -5.7293  -11.0045 N   0  0  0  0  0  0  0  0  0  0  0  0
    1.6365    0.8090   -0.7451 H   0  0  0  0  0  0  0  0  0  0  0  0
    0.0571    0.9035   -1.5605 H   0  0  0  0  0  0  0  0  0  0  0  0
    0.1468    0.9684    0.2160 H   0  0  0  0  0  0  0  0  0  0  0  0
    0.8985   -1.4287   -1.5177 H   0  0  0  0  0  0  0  0  0  0  0  0
    0.7635   -1.0771    1.5114 H   0  0  0  0  0  0  0  0  0  0  0  0
    1.1132   -2.5993    0.6577 H   0  0  0  0  0  0  0  0  0  0  0  0
    2.2532   -1.2366    0.5503 H   0  0  0  0  0  0  0  0  0  0  0  0
   -1.1002   -2.4596   -0.3976 H   0  0  0  0  0  0  0  0  0  0  0  0
   -1.4752   -0.8731    0.3170 H   0  0  0  0  0  0  0  0  0  0  0  0
   -3.2355   -0.4943   -3.6645 H   0  0  0  0  0  0  0  0  0  0  0  0
   -5.2735   -2.3059   -2.9287 H   0  0  0  0  0  0  0  0  0  0  0  0
   -5.6484   -0.7194   -2.2141 H   0  0  0  0  0  0  0  0  0  0  0  0
   -5.5009    0.3261   -4.4577 H   0  0  0  0  0  0  0  0  0  0  0  0
   -5.1260   -1.2604   -5.1723 H   0  0  0  0  0  0  0  0  0  0  0  0
   -7.3646   -0.2796   -6.3078 H   0  0  0  0  0  0  0  0  0  0  0  0
   -9.7706    1.0636   -5.4527 H   0  0  0  0  0  0  0  0  0  0  0  0
  -11.1119   -0.0657   -5.1468 H   0  0  0  0  0  0  0  0  0  0  0  0
  -11.3340   -1.0407   -2.7003 H   0  0  0  0  0  0  0  0  0  0  0  0
   -7.4509    1.7948   -4.4185 H   0  0  0  0  0  0  0  0  0  0  0  0
   -5.8197    2.7144   -2.8476 H   0  0  0  0  0  0  0  0  0  0  0  0
   -6.0339    2.2874   -0.4364 H   0  0  0  0  0  0  0  0  0  0  0  0
   -7.8929    0.9405    0.4319 H   0  0  0  0  0  0  0  0  0  0  0  0
  -11.5892   -1.5232   -6.7423 H   0  0  0  0  0  0  0  0  0  0  0  0
  -11.5463   -3.6498   -8.6917 H   0  0  0  0  0  0  0  0  0  0  0  0
  -11.4067   -3.0449  -10.3599 H   0  0  0  0  0  0  0  0  0  0  0  0
   -9.0230   -2.4912   -9.9596 H   0  0  0  0  0  0  0  0  0  0  0  0
   -9.1626   -3.0960   -8.2914 H   0  0  0  0  0  0  0  0  0  0  0  0
   -7.1057   -6.0417  -10.1369 H   0  0  0  0  0  0  0  0  0  0  0  0
   -6.9381   -4.2957  -10.4394 H   0  0  0  0  0  0  0  0  0  0  0  0
   -7.0777   -4.9005   -8.7712 H   0  0  0  0  0  0  0  0  0  0  0  0
  -12.8220   -1.4052  -10.9968 H   0  0  0  0  0  0  0  0  0  0  0  0
  -14.7253   -1.3306  -12.4680 H   0  0  0  0  0  0  0  0  0  0  0  0
  -16.2229   -0.5673  -11.8825 H   0  0  0  0  0  0  0  0  0  0  0  0
  -17.3737   -1.6238  -10.3191 H   0  0  0  0  0  0  0  0  0  0  0  0
  -19.4846   -2.7649  -10.0540 H   0  0  0  0  0  0  0  0  0  0  0  0
  -19.5120   -4.3144   -9.1784 H   0  0  0  0  0  0  0  0  0  0  0  0
  -18.9346   -4.4195   -6.8205 H   0  0  0  0  0  0  0  0  0  0  0  0
  -18.8457   -3.2101   -4.6774 H   0  0  0  0  0  0  0  0  0  0  0  0
  -18.7778   -0.7488   -4.6546 H   0  0  0  0  0  0  0  0  0  0  0  0
  -18.7981    0.5031   -6.7749 H   0  0  0  0  0  0  0  0  0  0  0  0
  -18.8786   -0.7065   -8.9181 H   0  0  0  0  0  0  0  0  0  0  0  0
  -18.5841   -6.0567  -10.1789 H   0  0  0  0  0  0  0  0  0  0  0  0
  -18.2293   -6.2735  -11.8067 H   0  0  0  0  0  0  0  0  0  0  0  0
  1  2  1  0  0  0  0
  1 60  1  0  0  0  0
  1 61  1  0  0  0  0
  1 62  1  0  0  0  0
  2  3  1  0  0  0  0
  2  4  1  0  0  0  0
  2 63  1  0  0  0  0
  3 64  1  0  0  0  0
  3 65  1  0  0  0  0
  3 66  1  0  0  0  0
  4  5  1  0  0  0  0
  4 67  1  0  0  0  0
  4 68  1  0  0  0  0
  5  6  1  0  0  0  0
  6  7  2  0  0  0  0
  6  8  1  0  0  0  0
  8  9  1  0  0  0  0
  8 69  1  0  0  0  0
  9 10  1  0  0  0  0
  9 70  1  0  0  0  0
  9 71  1  0  0  0  0
 10 11  1  0  0  0  0
 10 72  1  0  0  0  0
 10 73  1  0  0  0  0
 11 12  2  0  0  0  0
 11 13  1  0  0  0  0
 13 14  1  0  0  0  0
 13 74  1  0  0  0  0
 14 15  1  1  0  0  0
 14 16  1  0  0  0  0
 14 27  1  0  0  0  0
 16 17  1  0  0  0  0
 16 75  1  0  0  0  0
 16 76  1  0  0  0  0
 17 22  1  0  0  0  0
 17 18  2  0  0  0  0
 18 19  1  0  0  0  0
 18 77  1  0  0  0  0
 19 20  1  0  0  0  0
 19 21  1  0  0  0  0
 21 26  2  0  0  0  0
 21 22  1  0  0  0  0
 22 23  2  0  0  0  0
 23 24  1  0  0  0  0
 23 78  1  0  0  0  0
 24 25  2  0  0  0  0
 24 79  1  0  0  0  0
 25 26  1  0  0  0  0
 25 80  1  0  0  0  0
 26 81  1  0  0  0  0
 27 28  2  0  0  0  0
 27 29  1  0  0  0  0
 29 30  1  0  0  0  0
 29 82  1  0  0  0  0
 30 31  1  6  0  0  0
 30 32  1  0  0  0  0
 30 36  1  0  0  0  0
 32 33  1  0  0  0  0
 32 83  1  0  0  0  0
 32 84  1  0  0  0  0
 33 34  1  0  0  0  0
 33 85  1  0  0  0  0
 33 86  1  0  0  0  0
 34 35  1  0  0  0  0
 35 87  1  0  0  0  0
 35 88  1  0  0  0  0
 35 89  1  0  0  0  0
 36 37  2  0  0  0  0
 36 38  1  0  0  0  0
 38 39  1  0  0  0  0
 38 90  1  0  0  0  0
 39 40  1  1  0  0  0
 39 41  1  0  0  0  0
 39 45  1  0  0  0  0
 41 42  1  0  0  0  0
 41 91  1  0  0  0  0
 41 92  1  0  0  0  0
 42 43  2  0  0  0  0
 42 44  1  0  0  0  0
 45 46  2  0  0  0  0
 45 47  1  0  0  0  0
 47 48  1  0  0  0  0
 47 93  1  0  0  0  0
 48 49  1  1  0  0  0
 48 50  1  0  0  0  0
 48 57  1  0  0  0  0
 50 51  1  0  0  0  0
 50 94  1  0  0  0  0
 50 95  1  0  0  0  0
 51 56  2  0  0  0  0
 51 52  1  0  0  0  0
 52 53  2  0  0  0  0
 52 96  1  0  0  0  0
 53 54  1  0  0  0  0
 53 97  1  0  0  0  0
 54 55  2  0  0  0  0
 54 98  1  0  0  0  0
 55 56  1  0  0  0  0
 55 99  1  0  0  0  0
 56100  1  0  0  0  0
 57 58  2  0  0  0  0
 57 59  1  0  0  0  0
 59101  1  0  0  0  0
 59102  1  0  0  0  0
M  END
$$$$
