ZINC03830434
 OpenBabel08292219463D

 55 58  0  0  1  0  0  0  0  0999 V2000
   -0.3139   -7.7553   -2.5649 C   0  0  0  0  0  0  0  0  0  0  0  0
    0.8132   -8.2917   -3.1594 C   0  0  0  0  0  0  0  0  0  0  0  0
    2.0364   -7.6652   -3.0128 C   0  0  0  0  0  0  0  0  0  0  0  0
    2.1322   -6.4999   -2.2750 C   0  0  0  0  0  0  0  0  0  0  0  0
    1.0063   -5.9662   -1.6767 C   0  0  0  0  0  0  0  0  0  0  0  0
   -0.2174   -6.5925   -1.8240 C   0  0  0  0  0  0  0  0  0  0  0  0
    1.1115   -4.6984   -0.8689 C   0  0  0  0  0  0  0  0  0  0  0  0
    1.0178   -3.5079   -1.7881 C   0  0  0  0  0  0  0  0  0  0  0  0
    0.8793   -3.6727   -2.9816 O   0  0  0  0  0  0  0  0  0  0  0  0
    1.0880   -2.2600   -1.2838 N   0  0  0  0  0  0  0  0  0  0  0  0
    0.9969   -1.1026   -2.1773 C   0  0  1  0  0  0  0  0  0  0  0  0
    0.4818   -1.3277   -3.1112 H   0  0  0  0  0  0  0  0  0  0  0  0
    0.4939    0.1627   -1.4906 C   0  0  2  0  0  0  0  0  0  0  0  0
   -0.2405    0.7418   -2.0503 H   0  0  0  0  0  0  0  0  0  0  0  0
    1.9164    0.6259   -1.5620 N   0  0  0  0  0  0  0  0  0  0  0  0
    2.3154   -0.3725   -2.3689 C   0  0  0  0  0  0  0  0  0  0  0  0
    3.3263   -0.6000   -2.9994 O   0  0  0  0  0  0  0  0  0  0  0  0
    2.4933    1.6681   -0.8176 C   0  0  0  0  0  0  0  0  0  0  0  0
    1.9210    2.0848    0.3017 C   0  0  0  0  0  0  0  0  0  0  0  0
    0.6413    1.6225    0.9186 C   0  0  0  0  0  0  0  0  0  0  0  0
    0.1299   -0.0065    0.2893 S   0  0  0  0  0  0  0  0  0  0  0  0
    2.6561    3.1667    1.0503 C   0  0  0  0  0  0  0  0  0  0  0  0
    1.8543    4.7610    0.7482 S   0  0  0  0  0  0  0  0  0  0  0  0
    2.8883    5.8113    1.7137 C   0  0  0  0  0  0  0  0  0  0  0  0
    3.9290    5.4412    2.4281 N   0  0  0  0  0  0  0  0  0  0  0  0
    4.4618    6.4567    3.0062 N   0  0  0  0  0  0  0  0  0  0  0  0
    3.8085    7.5300    2.7183 N   0  0  0  0  0  0  0  0  0  0  0  0
    2.7579    7.1505    1.8647 N   0  0  0  0  0  0  0  0  0  0  0  0
    1.7396    8.0180    1.2674 C   0  0  0  0  0  0  0  0  0  0  0  0
    0.5512    8.1065    2.1899 C   0  0  0  0  0  0  0  0  0  0  0  0
    0.5545    7.5066    3.2387 O   0  0  0  0  0  0  0  0  0  0  0  0
    3.7409    2.2999   -1.2837 C   0  0  0  0  0  0  0  0  0  0  0  0
    4.6255    1.6179   -1.7617 O   0  0  0  0  0  0  0  0  0  0  0  0
    3.4650   -5.8138   -2.1195 C   0  0  0  0  0  0  0  0  0  0  0  0
   -1.2698   -8.2447   -2.6797 H   0  0  0  0  0  0  0  0  0  0  0  0
    0.7378   -9.2002   -3.7386 H   0  0  0  0  0  0  0  0  0  0  0  0
    2.9168   -8.0840   -3.4775 H   0  0  0  0  0  0  0  0  0  0  0  0
   -1.0979   -6.1733   -1.3599 H   0  0  0  0  0  0  0  0  0  0  0  0
    2.0675   -4.6792   -0.3457 H   0  0  0  0  0  0  0  0  0  0  0  0
    0.2993   -4.6617   -0.1429 H   0  0  0  0  0  0  0  0  0  0  0  0
    1.1988   -2.1282   -0.3292 H   0  0  0  0  0  0  0  0  0  0  0  0
   -0.1409    2.3489    0.6984 H   0  0  0  0  0  0  0  0  0  0  0  0
    0.7710    1.5603    1.9990 H   0  0  0  0  0  0  0  0  0  0  0  0
    2.6373    2.9470    2.1177 H   0  0  0  0  0  0  0  0  0  0  0  0
    3.6895    3.2087    0.7061 H   0  0  0  0  0  0  0  0  0  0  0  0
    2.1553    9.0138    1.1138 H   0  0  0  0  0  0  0  0  0  0  0  0
    1.4257    7.6035    0.3094 H   0  0  0  0  0  0  0  0  0  0  0  0
    4.1377   -6.1433   -2.9113 H   0  0  0  0  0  0  0  0  0  0  0  0
    3.3278   -4.7345   -2.1850 H   0  0  0  0  0  0  0  0  0  0  0  0
    4.9370   -5.7076   -0.6842 H   0  0  0  0  0  0  0  0  0  0  0  0
    3.4084   -5.9188   -0.0642 H   0  0  0  0  0  0  0  0  0  0  0  0
   -0.5110    8.8519    1.8465 O   0  0  0  0  0  1  0  0  0  0  0  0
    3.9002    3.6342   -1.1795 O   0  0  0  0  0  1  0  0  0  0  0  0
    4.0446   -6.1808   -0.8154 N   0  3  0  0  0  0  0  0  0  0  0  0
    4.1963   -7.1959   -0.7872 H   0  0  0  0  0  0  0  0  0  0  0  0
  1  6  2  0  0  0  0
  1  2  1  0  0  0  0
  1 35  1  0  0  0  0
  2  3  2  0  0  0  0
  2 36  1  0  0  0  0
  3  4  1  0  0  0  0
  3 37  1  0  0  0  0
  4  5  2  0  0  0  0
  4 34  1  0  0  0  0
  5  6  1  0  0  0  0
  5  7  1  0  0  0  0
  6 38  1  0  0  0  0
  7  8  1  0  0  0  0
  7 39  1  0  0  0  0
  7 40  1  0  0  0  0
  8  9  2  0  0  0  0
  8 10  1  0  0  0  0
 10 11  1  0  0  0  0
 10 41  1  0  0  0  0
 11 12  1  6  0  0  0
 11 16  1  0  0  0  0
 11 13  1  0  0  0  0
 13 14  1  6  0  0  0
 13 21  1  0  0  0  0
 13 15  1  0  0  0  0
 15 16  1  0  0  0  0
 15 18  1  0  0  0  0
 16 17  2  0  0  0  0
 18 19  2  0  0  0  0
 18 32  1  0  0  0  0
 19 20  1  0  0  0  0
 19 22  1  0  0  0  0
 20 21  1  0  0  0  0
 20 42  1  0  0  0  0
 20 43  1  0  0  0  0
 22 23  1  0  0  0  0
 22 44  1  0  0  0  0
 22 45  1  0  0  0  0
 23 24  1  0  0  0  0
 24 28  1  0  0  0  0
 24 25  2  0  0  0  0
 25 26  1  0  0  0  0
 26 27  2  0  0  0  0
 27 28  1  0  0  0  0
 28 29  1  0  0  0  0
 29 30  1  0  0  0  0
 29 46  1  0  0  0  0
 29 47  1  0  0  0  0
 30 31  2  0  0  0  0
 30 52  1  0  0  0  0
 32 33  2  0  0  0  0
 32 53  1  0  0  0  0
 34 48  1  0  0  0  0
 34 49  1  0  0  0  0
 34 54  1  0  0  0  0
 50 54  1  0  0  0  0
 51 54  1  0  0  0  0
 54 55  1  0  0  0  0
M  CHG  1  54   1
M  END
$$$$
