ZINC00001207
 OpenBabel08292219463D

 36 38  0  0  0  0  0  0  0  0999 V2000
    0.1843    8.4657   -0.6186 C   0  0  0  0  0  0  0  0  0  0  0  0
    1.2945    7.4171   -0.5241 C   0  0  0  0  0  0  0  0  0  0  0  0
    0.6880    6.0680   -0.2358 C   0  0  0  0  0  0  0  0  0  0  0  0
    0.2678    5.1385   -1.1073 C   0  0  0  0  0  0  0  0  0  0  0  0
   -0.2893    3.8907   -0.6075 C   0  0  0  0  0  0  0  0  0  0  0  0
   -0.3439    3.7859    0.7774 C   0  0  0  0  0  0  0  0  0  0  0  0
    0.3541    5.3178    1.3462 S   0  0  0  0  0  0  0  0  0  0  0  0
   -0.8340    2.7623    1.5517 N   0  0  0  0  0  0  0  0  0  0  0  0
   -0.6680    1.4750    1.2113 C   0  0  0  0  0  0  0  0  0  0  0  0
   -1.1254    0.6073    1.9247 O   0  0  0  0  0  0  0  0  0  0  0  0
    0.0738    1.0882   -0.0348 C   0  0  0  0  0  0  0  0  0  0  0  0
   -0.6262    1.5579   -1.2244 N   0  0  0  0  0  0  0  0  0  0  0  0
   -0.7580    2.8115   -1.5103 C   0  0  0  0  0  0  0  0  0  0  0  0
   -1.4024    3.1851   -2.7910 C   0  0  0  0  0  0  0  0  0  0  0  0
   -0.7883    2.8685   -4.0025 C   0  0  0  0  0  0  0  0  0  0  0  0
   -1.3957    3.2142   -5.1919 C   0  0  0  0  0  0  0  0  0  0  0  0
   -2.6070    3.8834   -5.1853 C   0  0  0  0  0  0  0  0  0  0  0  0
   -3.2190    4.2057   -3.9881 C   0  0  0  0  0  0  0  0  0  0  0  0
   -2.6236    3.8603   -2.7901 C   0  0  0  0  0  0  0  0  0  0  0  0
   -3.3926    4.2659   -1.2875 Cl  0  0  0  0  0  0  0  0  0  0  0  0
   -1.5592    3.0853    2.7830 C   0  0  0  0  0  0  0  0  0  0  0  0
   -0.3590    8.5058    0.3255 H   0  0  0  0  0  0  0  0  0  0  0  0
    0.6229    9.4415   -0.8271 H   0  0  0  0  0  0  0  0  0  0  0  0
   -0.5020    8.1967   -1.4216 H   0  0  0  0  0  0  0  0  0  0  0  0
    1.9808    7.6861    0.2789 H   0  0  0  0  0  0  0  0  0  0  0  0
    1.8378    7.3770   -1.4682 H   0  0  0  0  0  0  0  0  0  0  0  0
    0.3420    5.3150   -2.1702 H   0  0  0  0  0  0  0  0  0  0  0  0
    0.1622    0.0026   -0.0766 H   0  0  0  0  0  0  0  0  0  0  0  0
    1.0709    1.5278   -0.0091 H   0  0  0  0  0  0  0  0  0  0  0  0
    0.1592    2.3503   -4.0095 H   0  0  0  0  0  0  0  0  0  0  0  0
   -0.9224    2.9660   -6.1304 H   0  0  0  0  0  0  0  0  0  0  0  0
   -3.0761    4.1554   -6.1193 H   0  0  0  0  0  0  0  0  0  0  0  0
   -4.1640    4.7286   -3.9894 H   0  0  0  0  0  0  0  0  0  0  0  0
   -2.6215    3.1898    2.5621 H   0  0  0  0  0  0  0  0  0  0  0  0
   -1.4161    2.2854    3.5094 H   0  0  0  0  0  0  0  0  0  0  0  0
   -1.1796    4.0210    3.1934 H   0  0  0  0  0  0  0  0  0  0  0  0
  1  2  1  0  0  0  0
  1 22  1  0  0  0  0
  1 23  1  0  0  0  0
  1 24  1  0  0  0  0
  2  3  1  0  0  0  0
  2 25  1  0  0  0  0
  2 26  1  0  0  0  0
  3  7  1  0  0  0  0
  3  4  2  0  0  0  0
  4  5  1  0  0  0  0
  4 27  1  0  0  0  0
  5 13  1  0  0  0  0
  5  6  2  0  0  0  0
  6  7  1  0  0  0  0
  6  8  1  0  0  0  0
  8  9  1  0  0  0  0
  8 21  1  0  0  0  0
  9 10  2  0  0  0  0
  9 11  1  0  0  0  0
 11 12  1  0  0  0  0
 11 28  1  0  0  0  0
 11 29  1  0  0  0  0
 12 13  2  0  0  0  0
 13 14  1  0  0  0  0
 14 19  2  0  0  0  0
 14 15  1  0  0  0  0
 15 16  2  0  0  0  0
 15 30  1  0  0  0  0
 16 17  1  0  0  0  0
 16 31  1  0  0  0  0
 17 18  2  0  0  0  0
 17 32  1  0  0  0  0
 18 19  1  0  0  0  0
 18 33  1  0  0  0  0
 19 20  1  0  0  0  0
 21 34  1  0  0  0  0
 21 35  1  0  0  0  0
 21 36  1  0  0  0  0
M  END
$$$$
