ZINC19796087
 OpenBabel08292219463D

 65 67  0  0  1  0  0  0  0  0999 V2000
    0.7782    1.5823    1.6623 C   0  0  0  0  0  0  0  0  0  0  0  0
    0.7333    0.1247    1.2822 C   0  0  0  0  0  0  0  0  0  0  0  0
   -0.4478   -0.4515    0.9991 C   0  0  0  0  0  0  0  0  0  0  0  0
   -0.5393   -1.8991    0.6077 C   0  0  2  0  0  0  0  0  0  0  0  0
   -1.3770   -2.3601    1.1311 H   0  0  0  0  0  0  0  0  0  0  0  0
    0.7263   -2.6270    0.9620 C   0  0  0  0  0  0  0  0  0  0  0  0
    1.8602   -1.9635    1.2466 C   0  0  0  0  0  0  0  0  0  0  0  0
    1.8957   -0.5946    1.2241 N   0  0  0  0  0  0  0  0  0  0  0  0
    3.1084   -2.7355    1.5887 C   0  0  0  0  0  0  0  0  0  0  0  0
    0.7246   -4.0407    0.9973 C   0  0  0  0  0  0  0  0  0  0  0  0
    0.1953   -4.6255    1.9239 O   0  0  0  0  0  0  0  0  0  0  0  0
    1.3099   -4.7412    0.0034 O   0  0  0  0  0  0  0  0  0  0  0  0
    1.3697   -6.1605    0.1581 C   0  0  0  0  0  0  0  0  0  0  0  0
    2.1674   -6.7665   -0.9984 C   0  0  0  0  0  0  0  0  0  0  0  0
    3.5533   -6.2825   -0.9440 N   0  3  1  0  0  0  0  0  0  0  0  0
    4.2074   -6.8053    0.2630 C   0  0  0  0  0  0  0  0  0  0  0  0
    4.2803   -6.7442   -2.1340 C   0  0  0  0  0  0  0  0  0  0  0  0
    5.6576   -6.1328   -2.1499 C   0  0  0  0  0  0  0  0  0  0  0  0
    5.8461   -4.8675   -2.6738 C   0  0  0  0  0  0  0  0  0  0  0  0
    7.1095   -4.3067   -2.6884 C   0  0  0  0  0  0  0  0  0  0  0  0
    8.1843   -5.0109   -2.1786 C   0  0  0  0  0  0  0  0  0  0  0  0
    7.9956   -6.2758   -1.6538 C   0  0  0  0  0  0  0  0  0  0  0  0
    6.7315   -6.8349   -1.6353 C   0  0  0  0  0  0  0  0  0  0  0  0
   -0.7680   -1.9978   -0.8785 C   0  0  0  0  0  0  0  0  0  0  0  0
    0.1118   -1.3903   -1.7552 C   0  0  0  0  0  0  0  0  0  0  0  0
   -0.0980   -1.4808   -3.1183 C   0  0  0  0  0  0  0  0  0  0  0  0
   -1.1873   -2.1792   -3.6052 C   0  0  0  0  0  0  0  0  0  0  0  0
   -2.0663   -2.7872   -2.7289 C   0  0  0  0  0  0  0  0  0  0  0  0
   -1.8541   -2.7003   -1.3655 C   0  0  0  0  0  0  0  0  0  0  0  0
   -3.2328   -3.5345   -3.2502 N   0  0  0  0  0  4  0  0  0  0  0  0
   -3.3658   -3.6934   -4.4413 O   0  0  0  0  0  0  0  0  0  0  0  0
   -4.0526   -3.9860   -2.4849 O   0  5  0  0  0  0  0  0  0  0  0  0
   -1.6297    0.3216    1.0717 C   0  0  0  0  0  0  0  0  0  0  0  0
   -1.5706    1.4952    1.3877 O   0  0  0  0  0  0  0  0  0  0  0  0
   -2.8231   -0.2423    0.7905 O   0  0  0  0  0  0  0  0  0  0  0  0
   -3.9755    0.5975    0.8839 C   0  0  0  0  0  0  0  0  0  0  0  0
    1.8105    1.8770    1.8509 H   0  0  0  0  0  0  0  0  0  0  0  0
    0.3719    2.1827    0.8483 H   0  0  0  0  0  0  0  0  0  0  0  0
    0.1846    1.7415    2.5625 H   0  0  0  0  0  0  0  0  0  0  0  0
    2.7471   -0.1328    1.1708 H   0  0  0  0  0  0  0  0  0  0  0  0
    3.7035   -2.8821    0.6873 H   0  0  0  0  0  0  0  0  0  0  0  0
    3.6910   -2.1779    2.3220 H   0  0  0  0  0  0  0  0  0  0  0  0
    2.8336   -3.7050    2.0043 H   0  0  0  0  0  0  0  0  0  0  0  0
    1.8576   -6.4028    1.1022 H   0  0  0  0  0  0  0  0  0  0  0  0
    0.3592   -6.5692    0.1560 H   0  0  0  0  0  0  0  0  0  0  0  0
    2.1585   -7.8533   -0.9158 H   0  0  0  0  0  0  0  0  0  0  0  0
    1.7161   -6.4704   -1.9454 H   0  0  0  0  0  0  0  0  0  0  0  0
    3.6679   -6.4627    1.1460 H   0  0  0  0  0  0  0  0  0  0  0  0
    4.2039   -7.8949    0.2351 H   0  0  0  0  0  0  0  0  0  0  0  0
    5.2358   -6.4462    0.3034 H   0  0  0  0  0  0  0  0  0  0  0  0
    4.3653   -7.8306   -2.1090 H   0  0  0  0  0  0  0  0  0  0  0  0
    3.7386   -6.4427   -3.0305 H   0  0  0  0  0  0  0  0  0  0  0  0
    5.0064   -4.3174   -3.0721 H   0  0  0  0  0  0  0  0  0  0  0  0
    7.2569   -3.3185   -3.0983 H   0  0  0  0  0  0  0  0  0  0  0  0
    9.1714   -4.5730   -2.1906 H   0  0  0  0  0  0  0  0  0  0  0  0
    8.8353   -6.8261   -1.2558 H   0  0  0  0  0  0  0  0  0  0  0  0
    6.5834   -7.8216   -1.2220 H   0  0  0  0  0  0  0  0  0  0  0  0
    0.9627   -0.8448   -1.3748 H   0  0  0  0  0  0  0  0  0  0  0  0
    0.5889   -1.0057   -3.8031 H   0  0  0  0  0  0  0  0  0  0  0  0
   -1.3516   -2.2493   -4.6704 H   0  0  0  0  0  0  0  0  0  0  0  0
   -2.5389   -3.1786   -0.6808 H   0  0  0  0  0  0  0  0  0  0  0  0
   -4.8662    0.0214    0.6331 H   0  0  0  0  0  0  0  0  0  0  0  0
   -4.0647    0.9802    1.9006 H   0  0  0  0  0  0  0  0  0  0  0  0
   -3.8747    1.4314    0.1893 H   0  0  0  0  0  0  0  0  0  0  0  0
    3.5565   -5.2738   -0.9182 H   0  0  0  0  0  0  0  0  0  0  0  0
  1  2  1  0  0  0  0
  1 37  1  0  0  0  0
  1 38  1  0  0  0  0
  1 39  1  0  0  0  0
  2  8  1  0  0  0  0
  2  3  2  0  0  0  0
  3  4  1  0  0  0  0
  3 33  1  0  0  0  0
  4  5  1  1  0  0  0
  4  6  1  0  0  0  0
  4 24  1  0  0  0  0
  6  7  2  0  0  0  0
  6 10  1  0  0  0  0
  7  8  1  0  0  0  0
  7  9  1  0  0  0  0
  8 40  1  0  0  0  0
  9 41  1  0  0  0  0
  9 42  1  0  0  0  0
  9 43  1  0  0  0  0
 10 11  2  0  0  0  0
 10 12  1  0  0  0  0
 12 13  1  0  0  0  0
 13 14  1  0  0  0  0
 13 44  1  0  0  0  0
 13 45  1  0  0  0  0
 14 15  1  0  0  0  0
 14 46  1  0  0  0  0
 14 47  1  0  0  0  0
 15 16  1  0  0  0  0
 15 17  1  0  0  0  0
 15 65  1  1  0  0  0
 16 48  1  0  0  0  0
 16 49  1  0  0  0  0
 16 50  1  0  0  0  0
 17 18  1  0  0  0  0
 17 51  1  0  0  0  0
 17 52  1  0  0  0  0
 18 23  2  0  0  0  0
 18 19  1  0  0  0  0
 19 20  2  0  0  0  0
 19 53  1  0  0  0  0
 20 21  1  0  0  0  0
 20 54  1  0  0  0  0
 21 22  2  0  0  0  0
 21 55  1  0  0  0  0
 22 23  1  0  0  0  0
 22 56  1  0  0  0  0
 23 57  1  0  0  0  0
 24 29  2  0  0  0  0
 24 25  1  0  0  0  0
 25 26  2  0  0  0  0
 25 58  1  0  0  0  0
 26 27  1  0  0  0  0
 26 59  1  0  0  0  0
 27 28  2  0  0  0  0
 27 60  1  0  0  0  0
 28 29  1  0  0  0  0
 28 30  1  0  0  0  0
 29 61  1  0  0  0  0
 30 31  2  0  0  0  0
 30 32  1  0  0  0  0
 33 34  2  0  0  0  0
 33 35  1  0  0  0  0
 35 36  1  0  0  0  0
 36 62  1  0  0  0  0
 36 63  1  0  0  0  0
 36 64  1  0  0  0  0
M  CHG  2  15   1  32  -1
M  END
$$$$
