ZINC03830569
 OpenBabel08292219463D

 22 23  0  0  1  0  0  0  0  0999 V2000
   -0.0184    1.5046    0.0103 C   0  0  0  0  0  0  0  0  0  0  0  0
    1.5102    1.5017   -0.0043 C   0  0  2  0  0  0  0  0  0  0  0  0
    1.9714    1.8821   -0.9158 H   0  0  0  0  0  0  0  0  0  0  0  0
    1.3538    0.0351    0.0781 N   0  0  0  0  0  0  0  0  0  0  0  0
    0.0021   -0.0041    0.0020 C   0  0  0  0  0  0  0  0  0  0  0  0
   -0.8356   -0.8795   -0.0500 O   0  0  0  0  0  0  0  0  0  0  0  0
    1.9721   -0.3241    1.3791 C   0  0  2  0  0  0  0  0  0  0  0  0
    1.4071   -1.1156    1.8714 H   0  0  0  0  0  0  0  0  0  0  0  0
    1.8699    0.9816    2.1603 C   0  0  0  0  0  0  0  0  0  0  0  0
    1.6006    1.1484    3.4386 C   0  0  0  0  0  0  0  0  0  0  0  0
    1.5456    2.5367    4.0222 C   0  0  0  0  0  0  0  0  0  0  0  0
    0.3937    2.6563    4.8593 O   0  0  0  0  0  0  0  0  0  0  0  0
    2.1252    1.9564    1.2083 O   0  0  0  0  0  0  0  0  0  0  0  0
    3.4112   -0.7316    1.1941 C   0  0  0  0  0  0  0  0  0  0  0  0
    4.0686   -0.2522    0.2861 O   0  0  0  0  0  0  0  0  0  0  0  0
    3.9179   -1.5407    1.9525 O   0  0  0  0  0  1  0  0  0  0  0  0
   -0.4393    1.9244    0.9240 H   0  0  0  0  0  0  0  0  0  0  0  0
   -0.4566    1.9341   -0.8906 H   0  0  0  0  0  0  0  0  0  0  0  0
    1.4192    0.2902    4.0687 H   0  0  0  0  0  0  0  0  0  0  0  0
    2.4439    2.7187    4.6122 H   0  0  0  0  0  0  0  0  0  0  0  0
    1.4862    3.2677    3.2159 H   0  0  0  0  0  0  0  0  0  0  0  0
    0.2942    3.5262    5.2696 H   0  0  0  0  0  0  0  0  0  0  0  0
  1  5  1  0  0  0  0
  1  2  1  0  0  0  0
  1 17  1  0  0  0  0
  1 18  1  0  0  0  0
  2  3  1  6  0  0  0
  2 13  1  0  0  0  0
  2  4  1  0  0  0  0
  4  5  1  0  0  0  0
  4  7  1  0  0  0  0
  5  6  2  0  0  0  0
  7  8  1  1  0  0  0
  7  9  1  0  0  0  0
  7 14  1  0  0  0  0
  9 10  2  0  0  0  0
  9 13  1  0  0  0  0
 10 11  1  0  0  0  0
 10 19  1  0  0  0  0
 11 12  1  0  0  0  0
 11 20  1  0  0  0  0
 11 21  1  0  0  0  0
 12 22  1  0  0  0  0
 14 15  2  0  0  0  0
 14 16  1  0  0  0  0
M  END
$$$$
