ZINC03871960
 OpenBabel08292219463D

 58 61  0  0  1  0  0  0  0  0999 V2000
   -0.5054    2.6852   -3.9078 C   0  0  0  0  0  0  0  0  0  0  0  0
   -0.3652    3.7444   -2.8127 C   0  0  0  0  0  0  0  0  0  0  0  0
   -1.0580    3.2559   -1.5390 C   0  0  0  0  0  0  0  0  0  0  0  0
   -1.0053    5.0292   -3.2715 C   0  0  0  0  0  0  0  0  0  0  0  0
   -0.3268    6.0137   -3.4458 O   0  0  0  0  0  0  0  0  0  0  0  0
    1.0199    3.9716   -2.5443 O   0  0  0  0  0  0  0  0  0  0  0  0
    1.7405    2.8007   -2.2056 N   0  0  0  0  0  0  0  0  0  0  0  0
    2.9891    2.8861   -1.8436 C   0  0  0  0  0  0  0  0  0  0  0  0
    3.7776    1.6568   -1.6123 C   0  0  0  0  0  0  0  0  0  0  0  0
    3.1711    0.4293   -1.6365 C   0  0  0  0  0  0  0  0  0  0  0  0
    4.5659   -0.6387   -1.3049 S   0  0  0  0  0  0  0  0  0  0  0  0
    5.8047    0.6421   -1.1684 C   0  0  0  0  0  0  0  0  0  0  0  0
    5.0870    1.7295   -1.3772 N   0  0  0  0  0  0  0  0  0  0  0  0
    7.1594    0.5247   -0.9067 N   0  0  0  0  0  0  0  0  0  0  0  0
    3.6192    4.2153   -1.6637 C   0  0  0  0  0  0  0  0  0  0  0  0
    2.9476    5.2236   -1.7573 O   0  0  0  0  0  0  0  0  0  0  0  0
    4.9370    4.3057   -1.3963 N   0  0  0  0  0  0  0  0  0  0  0  0
    5.5781    5.6201   -1.3082 C   0  0  1  0  0  0  0  0  0  0  0  0
    4.8903    6.4073   -0.9993 H   0  0  0  0  0  0  0  0  0  0  0  0
    6.8881    5.6110   -0.5276 C   0  0  2  0  0  0  0  0  0  0  0  0
    7.0276    6.4389    0.1675 H   0  0  0  0  0  0  0  0  0  0  0  0
    7.5500    5.7333   -1.8655 N   0  0  0  0  0  0  0  0  0  0  0  0
    6.4049    5.9784   -2.5314 C   0  0  0  0  0  0  0  0  0  0  0  0
    6.1386    6.3405   -3.6579 O   0  0  0  0  0  0  0  0  0  0  0  0
    8.8976    5.4656   -2.1577 C   0  0  0  0  0  0  0  0  0  0  0  0
    9.6182    4.7059   -1.3467 C   0  0  0  0  0  0  0  0  0  0  0  0
    9.2104    4.0822   -0.0519 C   0  0  0  0  0  0  0  0  0  0  0  0
    7.4014    3.9835    0.1182 S   0  0  0  0  0  0  0  0  0  0  0  0
   11.0335    4.4350   -1.7877 C   0  0  0  0  0  0  0  0  0  0  0  0
   11.9235    5.4544   -1.2265 N   0  0  0  0  0  0  0  0  0  0  0  0
   11.7914    6.7072   -1.6165 C   0  0  0  0  0  3  0  0  0  0  0  0
   12.6098    7.6967   -1.1054 C   0  0  0  0  0  0  0  0  0  0  0  0
   13.5842    7.3563   -0.1797 C   0  0  0  0  0  0  0  0  0  0  0  0
   13.6963    6.0281    0.2023 C   0  0  0  0  0  0  0  0  0  0  0  0
   12.8392    5.0943   -0.3485 C   0  0  0  0  0  0  0  0  0  0  0  0
    9.5121    6.0321   -3.3719 C   0  0  0  0  0  0  0  0  0  0  0  0
    8.8870    6.8133   -4.0614 O   0  0  0  0  0  0  0  0  0  0  0  0
   -0.0424    1.7559   -3.5759 H   0  0  0  0  0  0  0  0  0  0  0  0
   -1.5619    2.5119   -4.1125 H   0  0  0  0  0  0  0  0  0  0  0  0
   -0.0119    3.0332   -4.8152 H   0  0  0  0  0  0  0  0  0  0  0  0
   -0.9581    4.0105   -0.7588 H   0  0  0  0  0  0  0  0  0  0  0  0
   -2.1145    3.0826   -1.7437 H   0  0  0  0  0  0  0  0  0  0  0  0
   -0.5950    2.3266   -1.2071 H   0  0  0  0  0  0  0  0  0  0  0  0
    2.1353    0.1762   -1.8080 H   0  0  0  0  0  0  0  0  0  0  0  0
    7.5526   -0.3512   -0.7686 H   0  0  0  0  0  0  0  0  0  0  0  0
    7.7152    1.3185   -0.8613 H   0  0  0  0  0  0  0  0  0  0  0  0
    5.4611    3.5006   -1.2621 H   0  0  0  0  0  0  0  0  0  0  0  0
    9.6117    4.6760    0.7694 H   0  0  0  0  0  0  0  0  0  0  0  0
    9.6268    3.0763    0.0021 H   0  0  0  0  0  0  0  0  0  0  0  0
   11.3415    3.4503   -1.4360 H   0  0  0  0  0  0  0  0  0  0  0  0
   11.0871    4.4652   -2.8760 H   0  0  0  0  0  0  0  0  0  0  0  0
   11.0326    6.9634   -2.3410 H   0  0  0  0  0  0  0  0  0  0  0  0
   12.4943    8.7215   -1.4260 H   0  0  0  0  0  0  0  0  0  0  0  0
   14.2405    8.1077    0.2338 H   0  0  0  0  0  0  0  0  0  0  0  0
   14.4438    5.7272    0.9214 H   0  0  0  0  0  0  0  0  0  0  0  0
   12.9200    4.0578   -0.0562 H   0  0  0  0  0  0  0  0  0  0  0  0
   -2.3293    5.0800   -3.4866 O   0  0  0  0  0  1  0  0  0  0  0  0
   10.7673    5.6834   -3.7174 O   0  0  0  0  0  1  0  0  0  0  0  0
  1  2  1  0  0  0  0
  1 38  1  0  0  0  0
  1 39  1  0  0  0  0
  1 40  1  0  0  0  0
  2  3  1  0  0  0  0
  2  4  1  0  0  0  0
  2  6  1  0  0  0  0
  3 41  1  0  0  0  0
  3 42  1  0  0  0  0
  3 43  1  0  0  0  0
  4  5  2  0  0  0  0
  4 57  1  0  0  0  0
  6  7  1  0  0  0  0
  7  8  2  0  0  0  0
  8  9  1  0  0  0  0
  8 15  1  0  0  0  0
  9 13  1  0  0  0  0
  9 10  2  0  0  0  0
 10 11  1  0  0  0  0
 10 44  1  0  0  0  0
 11 12  1  0  0  0  0
 12 13  2  0  0  0  0
 12 14  1  0  0  0  0
 14 45  1  0  0  0  0
 14 46  1  0  0  0  0
 15 16  2  0  0  0  0
 15 17  1  0  0  0  0
 17 18  1  0  0  0  0
 17 47  1  0  0  0  0
 18 19  1  1  0  0  0
 18 23  1  0  0  0  0
 18 20  1  0  0  0  0
 20 21  1  1  0  0  0
 20 28  1  0  0  0  0
 20 22  1  0  0  0  0
 22 23  1  0  0  0  0
 22 25  1  0  0  0  0
 23 24  2  0  0  0  0
 25 26  2  0  0  0  0
 25 36  1  0  0  0  0
 26 27  1  0  0  0  0
 26 29  1  0  0  0  0
 27 28  1  0  0  0  0
 27 48  1  0  0  0  0
 27 49  1  0  0  0  0
 29 30  1  0  0  0  0
 29 50  1  0  0  0  0
 29 51  1  0  0  0  0
 30 35  1  0  0  0  0
 30 31  1  0  0  0  0
 31 32  1  0  0  0  0
 31 52  1  0  0  0  0
 32 33  2  0  0  0  0
 32 53  1  0  0  0  0
 33 34  1  0  0  0  0
 33 54  1  0  0  0  0
 34 35  2  0  0  0  0
 34 55  1  0  0  0  0
 35 56  1  0  0  0  0
 36 37  2  0  0  0  0
 36 58  1  0  0  0  0
M  END
$$$$
