ZINC01530568
 OpenBabel08292219463D

 52 53  0  0  1  0  0  0  0  0999 V2000
   -0.0187    1.5258    0.0104 C   0  0  0  0  0  0  0  0  0  0  0  0
    0.0021   -0.0041    0.0020 C   0  0  0  0  0  0  0  0  0  0  0  0
   -1.4333   -0.5336    0.0129 C   0  0  0  0  0  0  0  0  0  0  0  0
    0.6897   -0.4778   -1.2066 N   0  3  0  0  0  0  0  0  0  0  0  0
    2.1002   -0.0703   -1.1590 C   0  0  0  0  0  0  0  0  0  0  0  0
    2.8163   -0.5637   -2.4178 C   0  0  2  0  0  0  0  0  0  0  0  0
    2.6781   -1.6404   -2.5160 H   0  0  0  0  0  0  0  0  0  0  0  0
    4.3098   -0.2489   -2.3115 C   0  0  0  0  0  0  0  0  0  0  0  0
    4.9962   -0.8116   -3.4314 O   0  0  0  0  0  0  0  0  0  0  0  0
    6.3406   -0.6217   -3.4901 C   0  0  0  0  0  0  0  0  0  0  0  0
    6.9867    0.0867   -2.4875 C   0  0  0  0  0  0  0  0  0  0  0  0
    8.3534    0.2780   -2.5492 C   0  0  0  0  0  0  0  0  0  0  0  0
    9.0773   -0.2356   -3.6094 C   0  0  0  0  0  0  0  0  0  0  0  0
    8.4357   -0.9416   -4.6102 C   0  0  0  0  0  0  0  0  0  0  0  0
    7.0700   -1.1409   -4.5499 C   0  0  0  0  0  0  0  0  0  0  0  0
   10.5681   -0.0250   -3.6745 C   0  0  0  0  0  0  0  0  0  0  0  0
   11.2777   -1.1788   -2.9631 C   0  0  0  0  0  0  0  0  0  0  0  0
   12.6913   -0.9791   -3.0249 O   0  0  0  0  0  0  0  0  0  0  0  0
   13.4519   -2.0066   -2.3862 C   0  0  0  0  0  0  0  0  0  0  0  0
   14.9436   -1.6909   -2.5135 C   0  0  0  0  0  0  0  0  0  0  0  0
   15.8066   -2.6679   -3.3144 C   0  0  0  0  0  0  0  0  0  0  0  0
   15.9254   -2.6146   -1.7899 C   0  0  0  0  0  0  0  0  0  0  0  0
    2.2715    0.0930   -3.5641 O   0  0  0  0  0  0  0  0  0  0  0  0
    1.0039    1.9031    0.0027 H   0  0  0  0  0  0  0  0  0  0  0  0
   -0.5459    1.8868   -0.8726 H   0  0  0  0  0  0  0  0  0  0  0  0
   -0.5289    1.8773    0.9072 H   0  0  0  0  0  0  0  0  0  0  0  0
    0.5293   -0.3651    0.8851 H   0  0  0  0  0  0  0  0  0  0  0  0
   -1.9605   -0.1726   -0.8702 H   0  0  0  0  0  0  0  0  0  0  0  0
   -1.4185   -1.6235    0.0069 H   0  0  0  0  0  0  0  0  0  0  0  0
   -1.9435   -0.1821    0.9097 H   0  0  0  0  0  0  0  0  0  0  0  0
    0.6317   -1.4840   -1.2540 H   0  0  0  0  0  0  0  0  0  0  0  0
    2.1628    1.0167   -1.1079 H   0  0  0  0  0  0  0  0  0  0  0  0
    2.5740   -0.5034   -0.2781 H   0  0  0  0  0  0  0  0  0  0  0  0
    4.4536    0.8316   -2.3027 H   0  0  0  0  0  0  0  0  0  0  0  0
    4.7064   -0.6757   -1.3903 H   0  0  0  0  0  0  0  0  0  0  0  0
    6.4216    0.4886   -1.6595 H   0  0  0  0  0  0  0  0  0  0  0  0
    8.8569    0.8294   -1.7689 H   0  0  0  0  0  0  0  0  0  0  0  0
    9.0033   -1.3414   -5.4374 H   0  0  0  0  0  0  0  0  0  0  0  0
    6.5699   -1.6962   -5.3295 H   0  0  0  0  0  0  0  0  0  0  0  0
   10.8851    0.0091   -4.7169 H   0  0  0  0  0  0  0  0  0  0  0  0
   10.8239    0.9153   -3.1861 H   0  0  0  0  0  0  0  0  0  0  0  0
   10.9608   -1.2128   -1.9208 H   0  0  0  0  0  0  0  0  0  0  0  0
   11.0219   -2.1191   -3.4515 H   0  0  0  0  0  0  0  0  0  0  0  0
   13.1801   -2.0578   -1.3319 H   0  0  0  0  0  0  0  0  0  0  0  0
   13.2412   -2.9640   -2.8627 H   0  0  0  0  0  0  0  0  0  0  0  0
   15.1969   -0.6322   -2.5700 H   0  0  0  0  0  0  0  0  0  0  0  0
   15.3117   -3.5357   -3.7505 H   0  0  0  0  0  0  0  0  0  0  0  0
   16.6279   -2.2521   -3.8981 H   0  0  0  0  0  0  0  0  0  0  0  0
   16.8249   -2.1637   -1.3707 H   0  0  0  0  0  0  0  0  0  0  0  0
   15.5087   -3.4472   -1.2232 H   0  0  0  0  0  0  0  0  0  0  0  0
    2.3595    1.0558   -3.5447 H   0  0  0  0  0  0  0  0  0  0  0  0
    0.2511   -0.0769   -2.0221 H   0  0  0  0  0  0  0  0  0  0  0  0
  1  2  1  0  0  0  0
  1 24  1  0  0  0  0
  1 25  1  0  0  0  0
  1 26  1  0  0  0  0
  2  3  1  0  0  0  0
  2  4  1  0  0  0  0
  2 27  1  0  0  0  0
  3 28  1  0  0  0  0
  3 29  1  0  0  0  0
  3 30  1  0  0  0  0
  4  5  1  0  0  0  0
  4 31  1  0  0  0  0
  4 52  1  0  0  0  0
  5  6  1  0  0  0  0
  5 32  1  0  0  0  0
  5 33  1  0  0  0  0
  6  7  1  6  0  0  0
  6  8  1  0  0  0  0
  6 23  1  0  0  0  0
  8  9  1  0  0  0  0
  8 34  1  0  0  0  0
  8 35  1  0  0  0  0
  9 10  1  0  0  0  0
 10 15  2  0  0  0  0
 10 11  1  0  0  0  0
 11 12  2  0  0  0  0
 11 36  1  0  0  0  0
 12 13  1  0  0  0  0
 12 37  1  0  0  0  0
 13 14  2  0  0  0  0
 13 16  1  0  0  0  0
 14 15  1  0  0  0  0
 14 38  1  0  0  0  0
 15 39  1  0  0  0  0
 16 17  1  0  0  0  0
 16 40  1  0  0  0  0
 16 41  1  0  0  0  0
 17 18  1  0  0  0  0
 17 42  1  0  0  0  0
 17 43  1  0  0  0  0
 18 19  1  0  0  0  0
 19 20  1  0  0  0  0
 19 44  1  0  0  0  0
 19 45  1  0  0  0  0
 20 22  1  0  0  0  0
 20 21  1  0  0  0  0
 20 46  1  0  0  0  0
 21 22  1  0  0  0  0
 21 47  1  0  0  0  0
 21 48  1  0  0  0  0
 22 49  1  0  0  0  0
 22 50  1  0  0  0  0
 23 51  1  0  0  0  0
M  CHG  1   4   1
M  END
$$$$
