ZINC00002159
 OpenBabel08292219463D

 31 32  0  0  1  0  0  0  0  0999 V2000
   -0.0184    1.5028    0.0103 C   0  0  0  0  0  0  0  0  0  0  0  0
    0.0021   -0.0041    0.0020 C   0  0  0  0  0  0  0  0  0  0  0  0
   -1.1526   -0.7039    0.0037 C   0  0  0  0  0  0  0  0  0  0  0  0
   -1.1160   -2.0718   -0.0039 N   0  0  0  0  0  0  0  0  0  0  0  0
    0.0598   -2.7257   -0.0125 C   0  0  0  0  0  0  0  0  0  0  0  0
    0.0693   -3.9416   -0.0187 O   0  0  0  0  0  0  0  0  0  0  0  0
    1.2256   -2.0531   -0.0148 N   0  0  0  0  0  0  0  0  0  0  0  0
    2.0644   -2.5402   -0.0217 H   0  0  0  0  0  0  0  0  0  0  0  0
    1.2322   -0.7047   -0.0135 C   0  0  0  0  0  0  0  0  0  0  0  0
    2.2865   -0.0953   -0.0208 O   0  0  0  0  0  0  0  0  0  0  0  0
   -2.3687   -2.8312   -0.0021 C   0  0  2  0  0  0  0  0  0  0  0  0
   -2.4328   -3.4615    0.8849 H   0  0  0  0  0  0  0  0  0  0  0  0
   -2.4905   -3.6862   -1.2891 C   0  0  0  0  0  0  0  0  0  0  0  0
   -4.0230   -3.8664   -1.4150 C   0  0  2  0  0  0  0  0  0  0  0  0
   -4.3334   -3.7773   -2.4560 H   0  0  0  0  0  0  0  0  0  0  0  0
   -4.6089   -2.7136   -0.5769 C   0  0  1  0  0  0  0  0  0  0  0  0
   -5.1837   -3.1165    0.2570 H   0  0  0  0  0  0  0  0  0  0  0  0
   -3.5030   -1.9411   -0.0763 O   0  0  0  0  0  0  0  0  0  0  0  0
   -5.5072   -1.8380   -1.4528 C   0  0  0  0  0  0  0  0  0  0  0  0
   -6.1370   -0.8425   -0.6439 O   0  0  0  0  0  0  0  0  0  0  0  0
   -4.4235   -5.1300   -0.8812 O   0  0  0  0  0  0  0  0  0  0  0  0
    1.0042    1.8801    0.0026 H   0  0  0  0  0  0  0  0  0  0  0  0
   -0.5455    1.8639   -0.8728 H   0  0  0  0  0  0  0  0  0  0  0  0
   -0.5286    1.8543    0.9071 H   0  0  0  0  0  0  0  0  0  0  0  0
   -2.1006   -0.1866    0.0113 H   0  0  0  0  0  0  0  0  0  0  0  0
   -2.0897   -3.1519   -2.1505 H   0  0  0  0  0  0  0  0  0  0  0  0
   -1.9946   -4.6489   -1.1650 H   0  0  0  0  0  0  0  0  0  0  0  0
   -4.9048   -1.3539   -2.2215 H   0  0  0  0  0  0  0  0  0  0  0  0
   -6.2694   -2.4577   -1.9253 H   0  0  0  0  0  0  0  0  0  0  0  0
   -6.7228   -0.2498   -1.1345 H   0  0  0  0  0  0  0  0  0  0  0  0
   -4.0363   -5.8900   -1.3369 H   0  0  0  0  0  0  0  0  0  0  0  0
  1  2  1  0  0  0  0
  1 22  1  0  0  0  0
  1 23  1  0  0  0  0
  1 24  1  0  0  0  0
  2  9  1  0  0  0  0
  2  3  2  0  0  0  0
  3  4  1  0  0  0  0
  3 25  1  0  0  0  0
  4  5  1  0  0  0  0
  4 11  1  0  0  0  0
  5  6  2  0  0  0  0
  5  7  1  0  0  0  0
  7  8  1  0  0  0  0
  7  9  1  0  0  0  0
  9 10  2  0  0  0  0
 11 12  1  1  0  0  0
 11 18  1  0  0  0  0
 11 13  1  0  0  0  0
 13 14  1  0  0  0  0
 13 26  1  0  0  0  0
 13 27  1  0  0  0  0
 14 15  1  6  0  0  0
 14 16  1  0  0  0  0
 14 21  1  0  0  0  0
 16 17  1  1  0  0  0
 16 18  1  0  0  0  0
 16 19  1  0  0  0  0
 19 20  1  0  0  0  0
 19 28  1  0  0  0  0
 19 29  1  0  0  0  0
 20 30  1  0  0  0  0
 21 31  1  0  0  0  0
M  END
$$$$
