ZINC00154964
 OpenBabel08292219463D

 41 42  0  0  1  0  0  0  0  0999 V2000
    1.8197   -1.5284    2.0001 C   0  0  0  0  0  0  0  0  0  0  0  0
    0.7134   -1.3632    0.9902 C   0  0  0  0  0  0  0  0  0  0  0  0
    0.7967   -1.9938   -0.2358 C   0  0  0  0  0  0  0  0  0  0  0  0
   -0.2178   -1.8423   -1.1632 C   0  0  0  0  0  0  0  0  0  0  0  0
   -1.3188   -1.0600   -0.8664 C   0  0  0  0  0  0  0  0  0  0  0  0
   -1.4083   -0.4272    0.3579 C   0  0  0  0  0  0  0  0  0  0  0  0
   -0.3936   -0.5815    1.2935 C   0  0  0  0  0  0  0  0  0  0  0  0
   -0.4840    0.0536    2.5370 N   0  0  0  0  0  0  0  0  0  0  0  0
   -0.3711   -0.6660    3.6710 C   0  0  0  0  0  0  0  0  0  0  0  0
   -0.2559   -1.8721    3.6149 O   0  0  0  0  0  0  0  0  0  0  0  0
   -0.3881    0.0280    5.0086 C   0  0  2  0  0  0  0  0  0  0  0  0
   -1.0133    0.9187    4.9474 H   0  0  0  0  0  0  0  0  0  0  0  0
    1.0375    0.4315    5.3912 C   0  0  0  0  0  0  0  0  0  0  0  0
    1.0152    1.1363    6.7506 C   0  0  0  0  0  0  0  0  0  0  0  0
    0.3775    0.2060    7.7865 C   0  0  0  0  0  0  0  0  0  0  0  0
   -1.0236   -0.1892    7.3151 C   0  0  0  0  0  0  0  0  0  0  0  0
   -0.9316   -0.8818    6.0242 N   0  3  1  0  0  0  0  0  0  0  0  0
   -2.2696   -1.3282    5.6139 C   0  0  0  0  0  0  0  0  0  0  0  0
   -2.6082    0.4256    0.6803 C   0  0  0  0  0  0  0  0  0  0  0  0
    1.6728   -2.4572    2.5513 H   0  0  0  0  0  0  0  0  0  0  0  0
    2.7799   -1.5594    1.4852 H   0  0  0  0  0  0  0  0  0  0  0  0
    1.8065   -0.6880    2.6941 H   0  0  0  0  0  0  0  0  0  0  0  0
    1.6552   -2.6055   -0.4705 H   0  0  0  0  0  0  0  0  0  0  0  0
   -0.1500   -2.3359   -2.1214 H   0  0  0  0  0  0  0  0  0  0  0  0
   -2.1093   -0.9434   -1.5930 H   0  0  0  0  0  0  0  0  0  0  0  0
   -0.6279    1.0118    2.5829 H   0  0  0  0  0  0  0  0  0  0  0  0
    1.6636   -0.4586    5.4530 H   0  0  0  0  0  0  0  0  0  0  0  0
    1.4391    1.1082    4.6369 H   0  0  0  0  0  0  0  0  0  0  0  0
    2.0345    1.3755    7.0539 H   0  0  0  0  0  0  0  0  0  0  0  0
    0.4311    2.0536    6.6760 H   0  0  0  0  0  0  0  0  0  0  0  0
    0.9899   -0.6887    7.8980 H   0  0  0  0  0  0  0  0  0  0  0  0
    0.3074    0.7215    8.7444 H   0  0  0  0  0  0  0  0  0  0  0  0
   -1.4805   -0.8514    8.0505 H   0  0  0  0  0  0  0  0  0  0  0  0
   -1.6351    0.7063    7.2043 H   0  0  0  0  0  0  0  0  0  0  0  0
   -2.1886   -1.9420    4.7168 H   0  0  0  0  0  0  0  0  0  0  0  0
   -2.7189   -1.9141    6.4157 H   0  0  0  0  0  0  0  0  0  0  0  0
   -2.8941   -0.4596    5.4048 H   0  0  0  0  0  0  0  0  0  0  0  0
   -3.3387   -0.1679    1.2300 H   0  0  0  0  0  0  0  0  0  0  0  0
   -2.2976    1.2746    1.2893 H   0  0  0  0  0  0  0  0  0  0  0  0
   -3.0563    0.7870   -0.2453 H   0  0  0  0  0  0  0  0  0  0  0  0
   -0.3252   -1.6831    6.1156 H   0  0  0  0  0  0  0  0  0  0  0  0
  1  2  1  0  0  0  0
  1 20  1  0  0  0  0
  1 21  1  0  0  0  0
  1 22  1  0  0  0  0
  2  7  2  0  0  0  0
  2  3  1  0  0  0  0
  3  4  2  0  0  0  0
  3 23  1  0  0  0  0
  4  5  1  0  0  0  0
  4 24  1  0  0  0  0
  5  6  2  0  0  0  0
  5 25  1  0  0  0  0
  6  7  1  0  0  0  0
  6 19  1  0  0  0  0
  7  8  1  0  0  0  0
  8  9  1  0  0  0  0
  8 26  1  0  0  0  0
  9 10  2  0  0  0  0
  9 11  1  0  0  0  0
 11 12  1  6  0  0  0
 11 17  1  0  0  0  0
 11 13  1  0  0  0  0
 13 14  1  0  0  0  0
 13 27  1  0  0  0  0
 13 28  1  0  0  0  0
 14 15  1  0  0  0  0
 14 29  1  0  0  0  0
 14 30  1  0  0  0  0
 15 16  1  0  0  0  0
 15 31  1  0  0  0  0
 15 32  1  0  0  0  0
 16 17  1  0  0  0  0
 16 33  1  0  0  0  0
 16 34  1  0  0  0  0
 17 18  1  0  0  0  0
 17 41  1  1  0  0  0
 18 35  1  0  0  0  0
 18 36  1  0  0  0  0
 18 37  1  0  0  0  0
 19 38  1  0  0  0  0
 19 39  1  0  0  0  0
 19 40  1  0  0  0  0
M  CHG  1  17   1
M  END
$$$$
