ZINC33956088
 OpenBabel08292219463D

 73 75  0  0  1  0  0  0  0  0999 V2000
   -0.0179    1.4678    0.0101 C   0  0  0  0  0  0  0  0  0  0  0  0
    0.0021   -0.0041    0.0020 C   0  0  0  0  0  0  0  0  0  0  0  0
    0.0180   -1.1779   -0.0044 C   0  0  0  0  0  0  0  0  0  0  0  0
    0.0380   -2.6498   -0.0125 C   0  0  0  0  0  0  0  0  0  0  0  0
   -1.3974   -3.1794   -0.0017 C   0  0  2  0  0  0  0  0  0  0  0  0
   -1.9503   -2.7476   -0.8359 H   0  0  0  0  0  0  0  0  0  0  0  0
   -2.0744   -2.7910    1.3143 C   0  0  0  0  0  0  0  0  0  0  0  0
   -1.3798   -4.7034   -0.1358 C   0  0  1  0  0  0  0  0  0  0  0  0
   -0.8269   -5.1351    0.6985 H   0  0  0  0  0  0  0  0  0  0  0  0
   -2.7936   -5.2250   -0.1251 C   0  0  0  0  0  0  0  0  0  0  0  0
   -3.2211   -5.9786   -1.1076 C   0  0  0  0  0  0  0  0  0  0  0  0
   -4.6350   -6.5002   -1.0969 C   0  0  2  0  0  0  0  0  0  0  0  0
   -5.1568   -6.1680   -0.1995 H   0  0  0  0  0  0  0  0  0  0  0  0
   -4.6438   -8.0569   -1.1895 C   0  0  1  0  0  0  0  0  0  0  0  0
   -5.2658   -8.4771   -0.3992 H   0  0  0  0  0  0  0  0  0  0  0  0
   -5.2486   -8.3973   -2.5898 C   0  0  0  0  0  0  0  0  0  0  0  0
   -4.9272   -7.1443   -3.3817 C   0  0  2  0  0  0  0  0  0  0  0  0
   -3.8610   -7.0811   -3.5991 H   0  0  0  0  0  0  0  0  0  0  0  0
   -5.3683   -6.0553   -2.3260 C   0  0  2  0  0  0  0  0  0  0  0  0
   -6.4378   -6.1758   -2.1537 H   0  0  0  0  0  0  0  0  0  0  0  0
   -5.1674   -4.7832   -3.0926 C   0  0  0  0  0  0  0  0  0  0  0  0
   -5.5299   -5.1507   -4.5390 C   0  0  0  0  0  0  0  0  0  0  0  0
   -5.6205   -4.3304   -5.5564 C   0  0  0  0  0  0  0  0  0  0  0  0
   -5.3556   -2.8594   -5.3642 C   0  0  0  0  0  0  0  0  0  0  0  0
   -4.2728   -2.4039   -6.3444 C   0  0  0  0  0  0  0  0  0  0  0  0
   -4.0038   -0.9104   -6.1494 C   0  0  0  0  0  0  0  0  0  0  0  0
   -2.9372   -0.4617   -7.1148 C   0  0  0  0  0  0  0  0  0  0  0  0
   -2.4429   -1.2551   -7.8804 O   0  0  0  0  0  0  0  0  0  0  0  0
   -2.5364    0.8193   -7.1243 O   0  0  0  0  0  0  0  0  0  0  0  0
   -1.5216    1.1746   -8.0656 C   0  0  0  0  0  0  0  0  0  0  0  0
   -1.2028    2.6413   -7.9308 C   0  0  0  0  0  0  0  0  0  0  0  0
   -1.7869    3.3157   -7.1098 O   0  0  0  0  0  0  0  0  0  0  0  0
   -0.1824    3.2550   -8.7958 C   0  0  0  0  0  0  0  0  0  0  0  0
    0.4893    2.4817   -9.7479 C   0  0  0  0  0  0  0  0  0  0  0  0
    1.4437    3.0641  -10.5549 C   0  0  0  0  0  0  0  0  0  0  0  0
    1.7374    4.4103  -10.4245 C   0  0  0  0  0  0  0  0  0  0  0  0
    1.0773    5.1822   -9.4843 C   0  0  0  0  0  0  0  0  0  0  0  0
    0.1163    4.6158   -8.6738 C   0  0  0  0  0  0  0  0  0  0  0  0
   -5.7534   -6.6878   -4.5687 C   0  0  0  0  0  0  0  0  0  0  0  0
   -3.3116   -8.5642   -1.0898 O   0  0  0  0  0  0  0  0  0  0  0  0
   -0.7475   -5.0661   -1.3649 O   0  0  0  0  0  0  0  0  0  0  0  0
    1.0047    1.8451    0.0024 H   0  0  0  0  0  0  0  0  0  0  0  0
   -0.5451    1.8289   -0.8729 H   0  0  0  0  0  0  0  0  0  0  0  0
   -0.5281    1.8193    0.9069 H   0  0  0  0  0  0  0  0  0  0  0  0
    0.5481   -3.0013   -0.9093 H   0  0  0  0  0  0  0  0  0  0  0  0
    0.5651   -3.0109    0.8705 H   0  0  0  0  0  0  0  0  0  0  0  0
   -1.5215   -3.2227    2.1486 H   0  0  0  0  0  0  0  0  0  0  0  0
   -2.0870   -1.7052    1.4098 H   0  0  0  0  0  0  0  0  0  0  0  0
   -3.0970   -3.1683    1.3220 H   0  0  0  0  0  0  0  0  0  0  0  0
   -3.4543   -4.9775    0.6926 H   0  0  0  0  0  0  0  0  0  0  0  0
   -2.5604   -6.2261   -1.9253 H   0  0  0  0  0  0  0  0  0  0  0  0
   -4.7592   -9.2691   -3.0242 H   0  0  0  0  0  0  0  0  0  0  0  0
   -6.3257   -8.5501   -2.5224 H   0  0  0  0  0  0  0  0  0  0  0  0
   -5.8320   -4.0042   -2.7193 H   0  0  0  0  0  0  0  0  0  0  0  0
   -4.1280   -4.4608   -3.0304 H   0  0  0  0  0  0  0  0  0  0  0  0
   -5.8851   -4.7085   -6.5328 H   0  0  0  0  0  0  0  0  0  0  0  0
   -6.2717   -2.2982   -5.5484 H   0  0  0  0  0  0  0  0  0  0  0  0
   -5.0194   -2.6811   -4.3428 H   0  0  0  0  0  0  0  0  0  0  0  0
   -3.3567   -2.9651   -6.1603 H   0  0  0  0  0  0  0  0  0  0  0  0
   -4.6090   -2.5822   -7.3658 H   0  0  0  0  0  0  0  0  0  0  0  0
   -4.9199   -0.3492   -6.3335 H   0  0  0  0  0  0  0  0  0  0  0  0
   -3.6676   -0.7321   -5.1280 H   0  0  0  0  0  0  0  0  0  0  0  0
   -0.6237    0.5882   -7.8705 H   0  0  0  0  0  0  0  0  0  0  0  0
   -1.8760    0.9711   -9.0761 H   0  0  0  0  0  0  0  0  0  0  0  0
    0.2615    1.4310   -9.8506 H   0  0  0  0  0  0  0  0  0  0  0  0
    1.9636    2.4682  -11.2904 H   0  0  0  0  0  0  0  0  0  0  0  0
    2.4859    4.8608  -11.0595 H   0  0  0  0  0  0  0  0  0  0  0  0
    1.3122    6.2320   -9.3883 H   0  0  0  0  0  0  0  0  0  0  0  0
   -0.4012    5.2204   -7.9437 H   0  0  0  0  0  0  0  0  0  0  0  0
   -5.3795   -7.1266   -5.4938 H   0  0  0  0  0  0  0  0  0  0  0  0
   -6.8071   -6.9256   -4.4229 H   0  0  0  0  0  0  0  0  0  0  0  0
   -3.2530   -9.5281   -1.1410 H   0  0  0  0  0  0  0  0  0  0  0  0
   -1.1870   -4.7155   -2.1517 H   0  0  0  0  0  0  0  0  0  0  0  0
  1  2  1  0  0  0  0
  1 42  1  0  0  0  0
  1 43  1  0  0  0  0
  1 44  1  0  0  0  0
  2  3  3  0  0  0  0
  3  4  1  0  0  0  0
  4  5  1  0  0  0  0
  4 45  1  0  0  0  0
  4 46  1  0  0  0  0
  5  6  1  6  0  0  0
  5  7  1  0  0  0  0
  5  8  1  0  0  0  0
  7 47  1  0  0  0  0
  7 48  1  0  0  0  0
  7 49  1  0  0  0  0
  8  9  1  1  0  0  0
  8 10  1  0  0  0  0
  8 41  1  0  0  0  0
 10 11  2  0  0  0  0
 10 50  1  0  0  0  0
 11 12  1  0  0  0  0
 11 51  1  0  0  0  0
 12 13  1  1  0  0  0
 12 19  1  0  0  0  0
 12 14  1  0  0  0  0
 14 15  1  1  0  0  0
 14 16  1  0  0  0  0
 14 40  1  0  0  0  0
 16 17  1  0  0  0  0
 16 52  1  0  0  0  0
 16 53  1  0  0  0  0
 17 18  1  6  0  0  0
 17 39  1  0  0  0  0
 17 19  1  0  0  0  0
 19 20  1  1  0  0  0
 19 21  1  0  0  0  0
 21 22  1  0  0  0  0
 21 54  1  0  0  0  0
 21 55  1  0  0  0  0
 22 23  2  0  0  0  0
 22 39  1  0  0  0  0
 23 24  1  0  0  0  0
 23 56  1  0  0  0  0
 24 25  1  0  0  0  0
 24 57  1  0  0  0  0
 24 58  1  0  0  0  0
 25 26  1  0  0  0  0
 25 59  1  0  0  0  0
 25 60  1  0  0  0  0
 26 27  1  0  0  0  0
 26 61  1  0  0  0  0
 26 62  1  0  0  0  0
 27 28  2  0  0  0  0
 27 29  1  0  0  0  0
 29 30  1  0  0  0  0
 30 31  1  0  0  0  0
 30 63  1  0  0  0  0
 30 64  1  0  0  0  0
 31 32  2  0  0  0  0
 31 33  1  0  0  0  0
 33 38  2  0  0  0  0
 33 34  1  0  0  0  0
 34 35  2  0  0  0  0
 34 65  1  0  0  0  0
 35 36  1  0  0  0  0
 35 66  1  0  0  0  0
 36 37  2  0  0  0  0
 36 67  1  0  0  0  0
 37 38  1  0  0  0  0
 37 68  1  0  0  0  0
 38 69  1  0  0  0  0
 39 70  1  0  0  0  0
 39 71  1  0  0  0  0
 40 72  1  0  0  0  0
 41 73  1  0  0  0  0
M  END
$$$$
