ZINC03777838
 OpenBabel08292219463D

 38 40  0  0  1  0  0  0  0  0999 V2000
    2.9378    7.4045   -1.0516 C   0  0  0  0  0  0  0  0  0  0  0  0
    2.9227    7.2016   -2.4208 C   0  0  0  0  0  0  0  0  0  0  0  0
    1.9608    6.3921   -2.9954 C   0  0  0  0  0  0  0  0  0  0  0  0
    1.0100    5.7748   -2.2031 C   0  0  0  0  0  0  0  0  0  0  0  0
    1.0179    5.9807   -0.8214 C   0  0  0  0  0  0  0  0  0  0  0  0
    1.9925    6.7994   -0.2502 C   0  0  0  0  0  0  0  0  0  0  0  0
    0.0003    5.3283    0.0335 C   0  0  0  0  0  0  0  0  0  0  0  0
   -0.8373    6.0879    0.6468 N   0  0  0  0  0  0  0  0  0  0  0  0
   -1.8851    5.5435    1.5094 C   0  0  1  0  0  0  0  0  0  0  0  0
   -2.4371    6.3608    1.9736 H   0  0  0  0  0  0  0  0  0  0  0  0
   -2.8213    4.7136    0.6741 C   0  0  0  0  0  0  0  0  0  0  0  0
   -3.9802    5.0555    0.5696 O   0  0  0  0  0  0  0  0  0  0  0  0
   -2.4107    3.6139    0.0463 N   0  0  0  0  0  0  0  0  0  0  0  0
   -1.1334    3.0809    0.1242 C   0  0  0  0  0  0  0  0  0  0  0  0
    0.0223    3.8595    0.1177 C   0  0  0  0  0  0  0  0  0  0  0  0
    1.2743    3.2313    0.1964 C   0  0  0  0  0  0  0  0  0  0  0  0
    1.3646    1.8599    0.2798 C   0  0  0  0  0  0  0  0  0  0  0  0
    0.2134    1.0886    0.2867 C   0  0  0  0  0  0  0  0  0  0  0  0
   -1.0226    1.6915    0.2043 C   0  0  0  0  0  0  0  0  0  0  0  0
    2.9210    1.0969    0.3758 Cl  0  0  0  0  0  0  0  0  0  0  0  0
   -3.3852    2.9117   -0.7925 C   0  0  0  0  0  0  0  0  0  0  0  0
   -3.3230    3.4641   -2.2179 C   0  0  0  0  0  0  0  0  0  0  0  0
   -4.3021    2.7586   -3.0607 C   0  0  0  0  0  0  0  0  0  0  0  0
   -5.0578    2.2141   -3.7111 N   0  0  0  0  0  0  0  0  0  0  0  0
   -1.2947    4.7260    2.5219 O   0  0  0  0  0  0  0  0  0  0  0  0
    0.0734    4.9791   -2.7643 F   0  0  0  0  0  0  0  0  0  0  0  0
    3.6923    8.0383   -0.6096 H   0  0  0  0  0  0  0  0  0  0  0  0
    3.6657    7.6782   -3.0430 H   0  0  0  0  0  0  0  0  0  0  0  0
    1.9545    6.2378   -4.0643 H   0  0  0  0  0  0  0  0  0  0  0  0
    2.0065    6.9594    0.8178 H   0  0  0  0  0  0  0  0  0  0  0  0
    2.1743    3.8282    0.1919 H   0  0  0  0  0  0  0  0  0  0  0  0
    0.2853    0.0130    0.3522 H   0  0  0  0  0  0  0  0  0  0  0  0
   -1.9151    1.0834    0.2062 H   0  0  0  0  0  0  0  0  0  0  0  0
   -3.1531    1.8468   -0.8051 H   0  0  0  0  0  0  0  0  0  0  0  0
   -4.3865    3.0606   -0.3884 H   0  0  0  0  0  0  0  0  0  0  0  0
   -3.5551    4.5291   -2.2053 H   0  0  0  0  0  0  0  0  0  0  0  0
   -2.3217    3.3152   -2.6219 H   0  0  0  0  0  0  0  0  0  0  0  0
   -0.6716    5.1957    3.0930 H   0  0  0  0  0  0  0  0  0  0  0  0
  1  6  2  0  0  0  0
  1  2  1  0  0  0  0
  1 27  1  0  0  0  0
  2  3  2  0  0  0  0
  2 28  1  0  0  0  0
  3  4  1  0  0  0  0
  3 29  1  0  0  0  0
  4  5  2  0  0  0  0
  4 26  1  0  0  0  0
  5  6  1  0  0  0  0
  5  7  1  0  0  0  0
  6 30  1  0  0  0  0
  7 15  1  0  0  0  0
  7  8  2  0  0  0  0
  8  9  1  0  0  0  0
  9 10  1  1  0  0  0
  9 11  1  0  0  0  0
  9 25  1  0  0  0  0
 11 12  2  0  0  0  0
 11 13  1  0  0  0  0
 13 14  1  0  0  0  0
 13 21  1  0  0  0  0
 14 19  2  0  0  0  0
 14 15  1  0  0  0  0
 15 16  2  0  0  0  0
 16 17  1  0  0  0  0
 16 31  1  0  0  0  0
 17 18  2  0  0  0  0
 17 20  1  0  0  0  0
 18 19  1  0  0  0  0
 18 32  1  0  0  0  0
 19 33  1  0  0  0  0
 21 22  1  0  0  0  0
 21 34  1  0  0  0  0
 21 35  1  0  0  0  0
 22 23  1  0  0  0  0
 22 36  1  0  0  0  0
 22 37  1  0  0  0  0
 23 24  3  0  0  0  0
 25 38  1  0  0  0  0
M  END
$$$$
