ZINC40899447
 OpenBabel08292219463D

 41 43  0  0  0  0  0  0  0  0999 V2000
   -0.0873    1.7033    0.0392 C   0  0  0  0  0  0  0  0  0  0  0  0
   -0.0429   -0.1100    0.0102 S   0  0  0  0  0  0  0  0  0  0  0  0
    0.7927   -0.5959    1.0518 O   0  0  0  0  0  0  0  0  0  0  0  0
   -1.3537   -0.6288   -0.1687 O   0  0  0  0  0  0  0  0  0  0  0  0
    0.8091   -0.5183   -1.4771 C   0  0  0  0  0  0  0  0  0  0  0  0
    0.0990   -0.6883   -2.6532 C   0  0  0  0  0  0  0  0  0  0  0  0
    0.7586   -1.0075   -3.8213 C   0  0  0  0  0  0  0  0  0  0  0  0
    2.1467   -1.1594   -3.8168 C   0  0  0  0  0  0  0  0  0  0  0  0
    2.8578   -0.9866   -2.6267 C   0  0  0  0  0  0  0  0  0  0  0  0
    2.1843   -0.6617   -1.4651 C   0  0  0  0  0  0  0  0  0  0  0  0
    4.5837   -1.1735   -2.6089 Cl  0  0  0  0  0  0  0  0  0  0  0  0
    2.8599   -1.5018   -5.0645 C   0  0  0  0  0  0  0  0  0  0  0  0
    4.0685   -1.6334   -5.0573 O   0  0  0  0  0  0  0  0  0  0  0  0
    2.1708   -1.6683   -6.2107 N   0  0  0  0  0  0  0  0  0  0  0  0
    2.8531   -1.9008   -7.4098 C   0  0  0  0  0  0  0  0  0  0  0  0
    2.3654   -1.3745   -8.6002 C   0  0  0  0  0  0  0  0  0  0  0  0
    3.0362   -1.6012   -9.7865 C   0  0  0  0  0  0  0  0  0  0  0  0
    4.1958   -2.3530   -9.7964 C   0  0  0  0  0  0  0  0  0  0  0  0
    4.6922   -2.8848   -8.6064 C   0  0  0  0  0  0  0  0  0  0  0  0
    4.0188   -2.6513   -7.4097 C   0  0  0  0  0  0  0  0  0  0  0  0
    5.9363   -3.6923   -8.6144 C   0  0  0  0  0  0  0  0  0  0  0  0
    5.9590   -4.9329   -7.9802 C   0  0  0  0  0  0  0  0  0  0  0  0
    7.1271   -5.6749   -7.9961 C   0  0  0  0  0  0  0  0  0  0  0  0
    8.2357   -5.1514   -8.6466 C   0  0  0  0  0  0  0  0  0  0  0  0
    8.1429   -3.9137   -9.2553 C   0  0  0  0  0  0  0  0  0  0  0  0
    7.0167   -3.2301   -9.2300 N   0  0  0  0  0  0  0  0  0  0  0  0
    5.0343   -2.6358  -11.2899 Cl  0  0  0  0  0  0  0  0  0  0  0  0
    0.9312    2.0917    0.0383 H   0  0  0  0  0  0  0  0  0  0  0  0
   -0.6160    2.0679   -0.8414 H   0  0  0  0  0  0  0  0  0  0  0  0
   -0.6036    2.0397    0.9383 H   0  0  0  0  0  0  0  0  0  0  0  0
   -0.9746   -0.5710   -2.6558 H   0  0  0  0  0  0  0  0  0  0  0  0
    0.2028   -1.1401   -4.7377 H   0  0  0  0  0  0  0  0  0  0  0  0
    2.7325   -0.5237   -0.5449 H   0  0  0  0  0  0  0  0  0  0  0  0
    1.2017   -1.6269   -6.2043 H   0  0  0  0  0  0  0  0  0  0  0  0
    1.4592   -0.7870   -8.5978 H   0  0  0  0  0  0  0  0  0  0  0  0
    2.6531   -1.1901  -10.7088 H   0  0  0  0  0  0  0  0  0  0  0  0
    4.4013   -3.0574   -6.4850 H   0  0  0  0  0  0  0  0  0  0  0  0
    5.0775   -5.3098   -7.4829 H   0  0  0  0  0  0  0  0  0  0  0  0
    7.1750   -6.6396   -7.5128 H   0  0  0  0  0  0  0  0  0  0  0  0
    9.1622   -5.7056   -8.6766 H   0  0  0  0  0  0  0  0  0  0  0  0
    9.0038   -3.5034   -9.7621 H   0  0  0  0  0  0  0  0  0  0  0  0
  1  2  1  0  0  0  0
  1 28  1  0  0  0  0
  1 29  1  0  0  0  0
  1 30  1  0  0  0  0
  2  3  2  0  0  0  0
  2  4  2  0  0  0  0
  2  5  1  0  0  0  0
  5 10  2  0  0  0  0
  5  6  1  0  0  0  0
  6  7  2  0  0  0  0
  6 31  1  0  0  0  0
  7  8  1  0  0  0  0
  7 32  1  0  0  0  0
  8  9  2  0  0  0  0
  8 12  1  0  0  0  0
  9 10  1  0  0  0  0
  9 11  1  0  0  0  0
 10 33  1  0  0  0  0
 12 13  2  0  0  0  0
 12 14  1  0  0  0  0
 14 15  1  0  0  0  0
 14 34  1  0  0  0  0
 15 20  2  0  0  0  0
 15 16  1  0  0  0  0
 16 17  2  0  0  0  0
 16 35  1  0  0  0  0
 17 18  1  0  0  0  0
 17 36  1  0  0  0  0
 18 19  2  0  0  0  0
 18 27  1  0  0  0  0
 19 20  1  0  0  0  0
 19 21  1  0  0  0  0
 20 37  1  0  0  0  0
 21 26  2  0  0  0  0
 21 22  1  0  0  0  0
 22 23  2  0  0  0  0
 22 38  1  0  0  0  0
 23 24  1  0  0  0  0
 23 39  1  0  0  0  0
 24 25  2  0  0  0  0
 24 40  1  0  0  0  0
 25 26  1  0  0  0  0
 25 41  1  0  0  0  0
M  END
$$$$
