ZINC01536934
 OpenBabel08292219463D

 42 43  0  0  0  0  0  0  0  0999 V2000
    0.6493    1.8443   -1.1875 C   0  0  0  0  0  0  0  0  0  0  0  0
    0.6891    3.2181   -1.0616 C   0  0  0  0  0  0  0  0  0  0  0  0
   -0.1086    3.8514   -0.1093 C   0  0  0  0  0  0  0  0  0  0  0  0
   -0.9425    3.0913    0.7107 C   0  0  0  0  0  0  0  0  0  0  0  0
   -0.9771    1.7191    0.5721 C   0  0  0  0  0  0  0  0  0  0  0  0
   -0.1793    1.0959   -0.3712 C   0  0  0  0  0  0  0  0  0  0  0  0
   -1.8817    0.8968    1.4533 C   0  0  0  0  0  0  0  0  0  0  0  0
   -1.7400   -0.4575    1.1326 F   0  0  0  0  0  0  0  0  0  0  0  0
   -1.5350    1.0973    2.7938 F   0  0  0  0  0  0  0  0  0  0  0  0
   -3.2099    1.2873    1.2518 F   0  0  0  0  0  0  0  0  0  0  0  0
   -0.0702    5.3258    0.0314 C   0  0  0  0  0  0  0  0  0  0  0  0
   -1.1644    5.9842    0.2847 N   0  0  0  0  0  0  0  0  0  0  0  0
   -2.4090    5.3091    0.3024 O   0  0  0  0  0  0  0  0  0  0  0  0
   -3.5243    6.1538    0.5936 C   0  0  0  0  0  0  0  0  0  0  0  0
   -4.8090    5.3228    0.5863 C   0  0  0  0  0  0  0  0  0  0  0  0
   -6.0031    6.2271    0.8981 C   0  0  0  0  0  0  0  0  0  0  0  0
   -7.2877    5.3961    0.8909 C   0  0  0  0  0  0  0  0  0  0  0  0
   -8.4639    6.2868    1.1979 C   0  0  0  0  0  0  0  0  0  0  0  0
   -8.2923    7.4653    1.4017 O   0  0  0  0  0  0  0  0  0  0  0  0
    1.2134    6.0509   -0.1163 C   0  0  0  0  0  0  0  0  0  0  0  0
    1.2326    7.4439   -0.2425 C   0  0  0  0  0  0  0  0  0  0  0  0
    2.4574    8.0736   -0.3779 C   0  0  0  0  0  0  0  0  0  0  0  0
    3.6126    7.3126   -0.3841 C   0  0  0  0  0  0  0  0  0  0  0  0
    3.5635    6.0001   -0.2632 N   0  0  0  0  0  0  0  0  0  0  0  0
    2.4223    5.3566   -0.1261 C   0  0  0  0  0  0  0  0  0  0  0  0
    1.2667    1.3527   -1.9248 H   0  0  0  0  0  0  0  0  0  0  0  0
    1.3364    3.8014   -1.6996 H   0  0  0  0  0  0  0  0  0  0  0  0
   -1.5625    3.5763    1.4501 H   0  0  0  0  0  0  0  0  0  0  0  0
   -0.2070    0.0211   -0.4734 H   0  0  0  0  0  0  0  0  0  0  0  0
   -3.3902    6.6069    1.5758 H   0  0  0  0  0  0  0  0  0  0  0  0
   -3.5939    6.9369   -0.1614 H   0  0  0  0  0  0  0  0  0  0  0  0
   -4.9430    4.8696   -0.3959 H   0  0  0  0  0  0  0  0  0  0  0  0
   -4.7394    4.5397    1.3413 H   0  0  0  0  0  0  0  0  0  0  0  0
   -5.8690    6.6802    1.8803 H   0  0  0  0  0  0  0  0  0  0  0  0
   -6.0727    7.0102    0.1431 H   0  0  0  0  0  0  0  0  0  0  0  0
   -7.4218    4.9430   -0.0914 H   0  0  0  0  0  0  0  0  0  0  0  0
   -7.2181    4.6130    1.6458 H   0  0  0  0  0  0  0  0  0  0  0  0
    0.3150    8.0135   -0.2340 H   0  0  0  0  0  0  0  0  0  0  0  0
    2.5108    9.1477   -0.4772 H   0  0  0  0  0  0  0  0  0  0  0  0
    4.5701    7.8010   -0.4899 H   0  0  0  0  0  0  0  0  0  0  0  0
    2.4229    4.2814   -0.0248 H   0  0  0  0  0  0  0  0  0  0  0  0
   -9.7022    5.7709    1.2451 O   0  0  0  0  0  1  0  0  0  0  0  0
  1  6  2  0  0  0  0
  1  2  1  0  0  0  0
  1 26  1  0  0  0  0
  2  3  2  0  0  0  0
  2 27  1  0  0  0  0
  3  4  1  0  0  0  0
  3 11  1  0  0  0  0
  4  5  2  0  0  0  0
  4 28  1  0  0  0  0
  5  6  1  0  0  0  0
  5  7  1  0  0  0  0
  6 29  1  0  0  0  0
  7  8  1  0  0  0  0
  7  9  1  0  0  0  0
  7 10  1  0  0  0  0
 11 12  2  0  0  0  0
 11 20  1  0  0  0  0
 12 13  1  0  0  0  0
 13 14  1  0  0  0  0
 14 15  1  0  0  0  0
 14 30  1  0  0  0  0
 14 31  1  0  0  0  0
 15 16  1  0  0  0  0
 15 32  1  0  0  0  0
 15 33  1  0  0  0  0
 16 17  1  0  0  0  0
 16 34  1  0  0  0  0
 16 35  1  0  0  0  0
 17 18  1  0  0  0  0
 17 36  1  0  0  0  0
 17 37  1  0  0  0  0
 18 19  2  0  0  0  0
 18 42  1  0  0  0  0
 20 25  2  0  0  0  0
 20 21  1  0  0  0  0
 21 22  2  0  0  0  0
 21 38  1  0  0  0  0
 22 23  1  0  0  0  0
 22 39  1  0  0  0  0
 23 24  2  0  0  0  0
 23 40  1  0  0  0  0
 24 25  1  0  0  0  0
 25 41  1  0  0  0  0
M  END
$$$$
