ZINC12503102
 OpenBabel08292219463D

 32 34  0  0  0  0  0  0  0  0999 V2000
   -0.0450    1.4634    0.0167 C   0  0  0  0  0  0  0  0  0  0  0  0
   -0.0583   -0.0016    0.0193 N   0  0  0  0  0  0  0  0  0  0  0  0
   -0.1474   -0.7142   -1.1983 C   0  0  0  0  0  0  0  0  0  0  0  0
   -0.8504   -0.1657   -2.2312 C   0  0  0  0  0  0  0  0  0  0  0  0
   -1.0424   -0.8821   -3.3895 N   0  0  0  0  0  0  0  0  0  0  0  0
   -0.6069   -0.3667   -4.6068 C   0  0  0  0  0  0  0  0  0  0  0  0
   -0.0577    0.9104   -4.6577 C   0  0  0  0  0  0  0  0  0  0  0  0
    0.3714    1.4102   -5.8740 C   0  0  0  0  0  0  0  0  0  0  0  0
    0.2363    0.6127   -7.0029 C   0  0  0  0  0  0  0  0  0  0  0  0
   -0.3179   -0.6457   -6.8793 C   0  0  0  0  0  0  0  0  0  0  0  0
   -0.7141   -1.0983   -5.7050 N   0  0  0  0  0  0  0  0  0  0  0  0
   -1.3582    1.0819   -2.1160 O   0  5  0  0  0  0  0  0  0  0  0  0
    0.4644   -1.9734   -1.3845 C   0  0  0  0  0  0  0  0  0  0  0  0
    0.4340   -2.5064   -2.4828 O   0  0  0  0  0  0  0  0  0  0  0  0
    1.1295   -2.6377   -0.2788 C   0  0  0  0  0  0  0  0  0  0  0  0
    1.0388   -2.2501    1.0620 C   0  0  0  0  0  0  0  0  0  0  0  0
    1.7605   -3.0350    1.9280 C   0  0  0  0  0  0  0  0  0  0  0  0
    2.4754   -4.0820    1.4423 C   0  0  0  0  0  0  0  0  0  0  0  0
    2.1949   -4.0424   -0.2173 S   0  0  0  0  0  0  0  0  0  0  0  0
    0.0384   -0.8389    1.4578 S   0  0  0  0  0  0  0  0  0  0  0  0
   -1.2656   -1.3224    1.7496 O   0  0  0  0  0  0  0  0  0  0  0  0
    0.7854   -0.0354    2.3609 O   0  0  0  0  0  0  0  0  0  0  0  0
    0.4615    1.8237    0.9121 H   0  0  0  0  0  0  0  0  0  0  0  0
    0.4827    1.8204   -0.8677 H   0  0  0  0  0  0  0  0  0  0  0  0
   -1.0692    1.8360    0.0039 H   0  0  0  0  0  0  0  0  0  0  0  0
    0.0320    1.5038   -3.7598 H   0  0  0  0  0  0  0  0  0  0  0  0
    0.8015    2.3983   -5.9443 H   0  0  0  0  0  0  0  0  0  0  0  0
    0.5612    0.9734   -7.9676 H   0  0  0  0  0  0  0  0  0  0  0  0
   -0.4249   -1.2693   -7.7546 H   0  0  0  0  0  0  0  0  0  0  0  0
    1.7595   -2.8208    2.9866 H   0  0  0  0  0  0  0  0  0  0  0  0
    3.0858   -4.7809    1.9948 H   0  0  0  0  0  0  0  0  0  0  0  0
   -1.4812   -1.7466   -3.3580 H   0  0  0  0  0  0  0  0  0  0  0  0
  1  2  1  0  0  0  0
  1 23  1  0  0  0  0
  1 24  1  0  0  0  0
  1 25  1  0  0  0  0
  2 20  1  0  0  0  0
  2  3  1  0  0  0  0
  3  4  2  0  0  0  0
  3 13  1  0  0  0  0
  4  5  1  0  0  0  0
  4 12  1  0  0  0  0
  5  6  1  0  0  0  0
  5 32  1  0  0  0  0
  6 11  2  0  0  0  0
  6  7  1  0  0  0  0
  7  8  2  0  0  0  0
  7 26  1  0  0  0  0
  8  9  1  0  0  0  0
  8 27  1  0  0  0  0
  9 10  2  0  0  0  0
  9 28  1  0  0  0  0
 10 11  1  0  0  0  0
 10 29  1  0  0  0  0
 13 14  2  0  0  0  0
 13 15  1  0  0  0  0
 15 19  1  0  0  0  0
 15 16  2  0  0  0  0
 16 17  1  0  0  0  0
 16 20  1  0  0  0  0
 17 18  2  0  0  0  0
 17 30  1  0  0  0  0
 18 19  1  0  0  0  0
 18 31  1  0  0  0  0
 20 21  2  0  0  0  0
 20 22  2  0  0  0  0
M  CHG  1  12  -1
M  END
$$$$
