ZINC03921872
 OpenBabel08292219463D

 70 73  0  0  1  0  0  0  0  0999 V2000
    0.2280    0.9202   -0.1629 C   0  0  0  0  0  0  0  0  0  0  0  0
   -0.0192   -0.5733    0.0593 C   0  0  2  0  0  0  0  0  0  0  0  0
    0.4380   -0.8812    0.9996 H   0  0  0  0  0  0  0  0  0  0  0  0
    0.5885   -1.3573   -1.0752 C   0  0  0  0  0  0  0  0  0  0  0  0
    1.5191   -2.2467   -0.8322 C   0  0  0  0  0  0  0  0  0  0  0  0
    2.1267   -3.0307   -1.9668 C   0  0  2  0  0  0  0  0  0  0  0  0
    1.8748   -4.0853   -1.8555 H   0  0  0  0  0  0  0  0  0  0  0  0
    3.6475   -2.8644   -1.9446 C   0  0  0  0  0  0  0  0  0  0  0  0
    4.2878   -2.0688   -3.0838 C   0  0  0  0  0  0  0  0  0  0  0  0
    4.4531   -3.5887   -3.0250 C   0  0  0  0  0  0  0  0  0  0  0  0
    1.6127   -2.5468   -3.2092 O   0  0  0  0  0  0  0  0  0  0  0  0
   -1.5250   -0.8384    0.1135 C   0  0  1  0  0  0  0  0  0  0  0  0
   -1.9943   -0.5464   -0.8260 H   0  0  0  0  0  0  0  0  0  0  0  0
   -1.7980   -2.3364    0.4093 C   0  0  0  0  0  0  0  0  0  0  0  0
   -2.6706   -2.3756    1.6957 C   0  0  0  0  0  0  0  0  0  0  0  0
   -3.3400   -0.9994    1.6921 C   0  0  2  0  0  0  0  0  0  0  0  0
   -4.1387   -0.9606    0.9513 H   0  0  0  0  0  0  0  0  0  0  0  0
   -2.1530   -0.0834    1.2747 C   0  0  2  0  0  0  0  0  0  0  0  0
   -2.7077    1.2979    1.0161 C   0  0  0  0  0  0  0  0  0  0  0  0
   -3.1744    1.8704    2.3650 C   0  0  0  0  0  0  0  0  0  0  0  0
   -4.2401    0.9907    3.0158 C   0  0  0  0  0  0  0  0  0  0  0  0
   -3.8185   -0.4797    3.0151 C   0  0  0  0  0  0  0  0  0  0  0  0
   -3.8621   -1.2415    4.1080 C   0  0  0  0  0  0  0  0  0  0  0  0
   -4.3390   -0.6796    5.3738 C   0  0  0  0  0  0  0  0  0  0  0  0
   -4.3832   -1.4506    6.4799 C   0  0  0  0  0  0  0  0  0  0  0  0
   -4.8760   -0.9088    7.8069 C   0  0  0  0  0  0  0  0  0  0  0  0
   -3.8870   -1.3314    8.8980 C   0  0  2  0  0  0  0  0  0  0  0  0
   -2.9118   -0.8894    8.6940 H   0  0  0  0  0  0  0  0  0  0  0  0
   -3.7600   -2.8551    8.9201 C   0  0  0  0  0  0  0  0  0  0  0  0
   -3.1087   -3.3407    7.6212 C   0  0  1  0  0  0  0  0  0  0  0  0
   -3.0609   -4.4296    7.6191 H   0  0  0  0  0  0  0  0  0  0  0  0
   -3.9592   -2.8661    6.4549 C   0  0  0  0  0  0  0  0  0  0  0  0
   -4.3046   -3.6814    5.4586 C   0  0  0  0  0  0  0  0  0  0  0  0
   -1.7900   -2.8009    7.5129 O   0  0  0  0  0  0  0  0  0  0  0  0
   -4.3583   -0.8769   10.1682 O   0  0  0  0  0  0  0  0  0  0  0  0
   -1.1500   -0.0048    2.4275 C   0  0  0  0  0  0  0  0  0  0  0  0
    1.3008    1.1091   -0.2015 H   0  0  0  0  0  0  0  0  0  0  0  0
   -0.2292    1.2282   -1.1032 H   0  0  0  0  0  0  0  0  0  0  0  0
   -0.2115    1.4873    0.6577 H   0  0  0  0  0  0  0  0  0  0  0  0
    0.2567   -1.1859   -2.0886 H   0  0  0  0  0  0  0  0  0  0  0  0
    1.8508   -2.4181    0.1812 H   0  0  0  0  0  0  0  0  0  0  0  0
    4.0965   -2.7776   -0.9552 H   0  0  0  0  0  0  0  0  0  0  0  0
    3.6257   -1.6638   -3.8491 H   0  0  0  0  0  0  0  0  0  0  0  0
    5.1583   -1.4582   -2.8440 H   0  0  0  0  0  0  0  0  0  0  0  0
    5.4324   -3.9780   -2.7465 H   0  0  0  0  0  0  0  0  0  0  0  0
    3.8997   -4.1836   -3.7516 H   0  0  0  0  0  0  0  0  0  0  0  0
    1.8000   -1.6127   -3.3753 H   0  0  0  0  0  0  0  0  0  0  0  0
   -2.3368   -2.7901   -0.4225 H   0  0  0  0  0  0  0  0  0  0  0  0
   -0.8582   -2.8619    0.5783 H   0  0  0  0  0  0  0  0  0  0  0  0
   -3.4164   -3.1681    1.6325 H   0  0  0  0  0  0  0  0  0  0  0  0
   -2.0476   -2.4998    2.5814 H   0  0  0  0  0  0  0  0  0  0  0  0
   -1.9313    1.9350    0.5925 H   0  0  0  0  0  0  0  0  0  0  0  0
   -3.5516    1.2350    0.3290 H   0  0  0  0  0  0  0  0  0  0  0  0
   -2.3177    1.9448    3.0348 H   0  0  0  0  0  0  0  0  0  0  0  0
   -3.5858    2.8670    2.2047 H   0  0  0  0  0  0  0  0  0  0  0  0
   -4.3975    1.3183    4.0434 H   0  0  0  0  0  0  0  0  0  0  0  0
   -5.1736    1.0884    2.4616 H   0  0  0  0  0  0  0  0  0  0  0  0
   -3.5459   -2.2731    4.0602 H   0  0  0  0  0  0  0  0  0  0  0  0
   -4.6552    0.3520    5.4216 H   0  0  0  0  0  0  0  0  0  0  0  0
   -4.9303    0.1790    7.7619 H   0  0  0  0  0  0  0  0  0  0  0  0
   -5.8622   -1.3174    8.0269 H   0  0  0  0  0  0  0  0  0  0  0  0
   -3.1445   -3.1551    9.7682 H   0  0  0  0  0  0  0  0  0  0  0  0
   -4.7504   -3.2999    9.0172 H   0  0  0  0  0  0  0  0  0  0  0  0
   -4.9087   -3.3119    4.6432 H   0  0  0  0  0  0  0  0  0  0  0  0
   -3.9803   -4.7115    5.4667 H   0  0  0  0  0  0  0  0  0  0  0  0
   -1.3198   -3.0691    6.7116 H   0  0  0  0  0  0  0  0  0  0  0  0
   -4.4590    0.0829   10.2298 H   0  0  0  0  0  0  0  0  0  0  0  0
   -0.3203    0.6425    2.1436 H   0  0  0  0  0  0  0  0  0  0  0  0
   -1.6426    0.4019    3.3106 H   0  0  0  0  0  0  0  0  0  0  0  0
   -0.7726   -1.0030    2.6493 H   0  0  0  0  0  0  0  0  0  0  0  0
  1  2  1  0  0  0  0
  1 37  1  0  0  0  0
  1 38  1  0  0  0  0
  1 39  1  0  0  0  0
  2  3  1  1  0  0  0
  2  4  1  0  0  0  0
  2 12  1  0  0  0  0
  4  5  2  0  0  0  0
  4 40  1  0  0  0  0
  5  6  1  0  0  0  0
  5 41  1  0  0  0  0
  6  7  1  1  0  0  0
  6  8  1  0  0  0  0
  6 11  1  0  0  0  0
  8 10  1  0  0  0  0
  8  9  1  0  0  0  0
  8 42  1  0  0  0  0
  9 10  1  0  0  0  0
  9 43  1  0  0  0  0
  9 44  1  0  0  0  0
 10 45  1  0  0  0  0
 10 46  1  0  0  0  0
 11 47  1  0  0  0  0
 12 13  1  6  0  0  0
 12 18  1  0  0  0  0
 12 14  1  0  0  0  0
 14 15  1  0  0  0  0
 14 48  1  0  0  0  0
 14 49  1  0  0  0  0
 15 16  1  0  0  0  0
 15 50  1  0  0  0  0
 15 51  1  0  0  0  0
 16 17  1  6  0  0  0
 16 22  1  0  0  0  0
 16 18  1  0  0  0  0
 18 19  1  0  0  0  0
 18 36  1  1  0  0  0
 19 20  1  0  0  0  0
 19 52  1  0  0  0  0
 19 53  1  0  0  0  0
 20 21  1  0  0  0  0
 20 54  1  0  0  0  0
 20 55  1  0  0  0  0
 21 22  1  0  0  0  0
 21 56  1  0  0  0  0
 21 57  1  0  0  0  0
 22 23  2  0  0  0  0
 23 24  1  0  0  0  0
 23 58  1  0  0  0  0
 24 25  2  0  0  0  0
 24 59  1  0  0  0  0
 25 32  1  0  0  0  0
 25 26  1  0  0  0  0
 26 27  1  0  0  0  0
 26 60  1  0  0  0  0
 26 61  1  0  0  0  0
 27 28  1  6  0  0  0
 27 29  1  0  0  0  0
 27 35  1  0  0  0  0
 29 30  1  0  0  0  0
 29 62  1  0  0  0  0
 29 63  1  0  0  0  0
 30 31  1  6  0  0  0
 30 32  1  0  0  0  0
 30 34  1  0  0  0  0
 32 33  2  0  0  0  0
 33 64  1  0  0  0  0
 33 65  1  0  0  0  0
 34 66  1  0  0  0  0
 35 67  1  0  0  0  0
 36 68  1  0  0  0  0
 36 69  1  0  0  0  0
 36 70  1  0  0  0  0
M  END
$$$$
