ZINC03872952
 OpenBabel08292219463D

 12 11  0  0  1  0  0  0  0  0999 V2000
   -0.0127    1.0858    0.0080 C   0  0  2  0  0  0  0  0  0  0  0  0
    0.0021   -0.0041    0.0020 H   0  0  0  0  0  0  0  0  0  0  0  0
    1.4227    1.6154   -0.0028 C   0  0  0  0  0  0  0  0  0  0  0  0
    1.4037    3.0142    0.0048 F   0  0  0  0  0  0  0  0  0  0  0  0
    2.0993    1.1520    1.1305 F   0  0  0  0  0  0  0  0  0  0  0  0
    2.0775    1.1642   -1.1539 F   0  0  0  0  0  0  0  0  0  0  0  0
   -0.7038    1.5592   -1.1497 O   0  0  0  0  0  0  0  0  0  0  0  0
   -2.0608    1.1196   -1.2368 C   0  0  0  0  0  0  0  0  0  0  0  0
   -2.0963   -0.2784   -1.2777 F   0  0  0  0  0  0  0  0  0  0  0  0
   -2.7701    1.5716   -0.1189 F   0  0  0  0  0  0  0  0  0  0  0  0
   -0.8566    1.6673    1.4914 Cl  0  0  0  0  0  0  0  0  0  0  0  0
   -2.5154    1.5212   -2.1424 H   0  0  0  0  0  0  0  0  0  0  0  0
  1  2  1  6  0  0  0
  1  3  1  0  0  0  0
  1  7  1  0  0  0  0
  1 11  1  0  0  0  0
  3  4  1  0  0  0  0
  3  5  1  0  0  0  0
  3  6  1  0  0  0  0
  7  8  1  0  0  0  0
  8  9  1  0  0  0  0
  8 10  1  0  0  0  0
  8 12  1  0  0  0  0
M  END
$$$$
