ZINC03875980
 OpenBabel08292219463D

 50 53  0  0  1  0  0  0  0  0999 V2000
   -0.0187    1.5258    0.0104 C   0  0  0  0  0  0  0  0  0  0  0  0
    0.0021   -0.0041    0.0020 C   0  0  0  0  0  0  0  0  0  0  0  0
   -1.3386   -0.4987    0.0122 O   0  0  0  0  0  0  0  0  0  0  0  0
   -1.4979   -1.8447    0.0065 C   0  0  0  0  0  0  0  0  0  0  0  0
   -0.3763   -2.6763   -0.0029 C   0  0  0  0  0  0  0  0  0  0  0  0
   -0.4895   -4.0292   -0.0088 C   0  0  0  0  0  0  0  0  0  0  0  0
   -1.7540   -4.6467   -0.0057 C   0  0  0  0  0  0  0  0  0  0  0  0
   -1.8814   -6.0457   -0.0118 C   0  0  0  0  0  0  0  0  0  0  0  0
   -3.1212   -6.6096   -0.0081 C   0  0  0  0  0  0  0  0  0  0  0  0
   -4.2679   -5.8198    0.0015 C   0  0  0  0  0  0  0  0  0  0  0  0
   -4.1803   -4.4591    0.0071 C   0  0  0  0  0  0  0  0  0  0  0  0
   -2.9217   -3.8468    0.0041 C   0  0  0  0  0  0  0  0  0  0  0  0
   -2.7818   -2.3912    0.0158 C   0  0  0  0  0  0  0  0  0  0  0  0
   -3.9680   -1.5226    0.0313 C   0  0  0  0  0  0  0  0  0  0  0  0
   -4.4686   -1.1579   -1.0158 O   0  0  0  0  0  0  0  0  0  0  0  0
   -4.5007   -1.1303    1.2055 N   0  0  0  0  0  0  0  0  0  0  0  0
   -5.6826   -0.2648    1.2209 C   0  0  1  0  0  0  0  0  0  0  0  0
   -6.2842   -0.3593    0.3170 H   0  0  0  0  0  0  0  0  0  0  0  0
   -6.4977   -0.3770    2.5045 C   0  0  2  0  0  0  0  0  0  0  0  0
   -7.5806   -0.4307    2.3919 H   0  0  0  0  0  0  0  0  0  0  0  0
   -5.9090    0.9416    2.8198 N   0  0  0  0  0  0  0  0  0  0  0  0
   -5.3721    1.1657    1.5863 C   0  0  0  0  0  0  0  0  0  0  0  0
   -4.8624    2.1111    1.0230 O   0  0  0  0  0  0  0  0  0  0  0  0
   -4.9719    0.9698    3.9481 C   0  0  2  0  0  0  0  0  0  0  0  0
   -3.9563    0.8538    3.5697 H   0  0  0  0  0  0  0  0  0  0  0  0
   -5.2653   -0.1647    4.9684 C   0  0  0  0  0  0  0  0  0  0  0  0
   -5.7757   -1.5020    3.7663 S   0  0  0  0  0  0  0  0  0  0  0  0
   -6.4135    0.2073    5.9087 C   0  0  0  0  0  0  0  0  0  0  0  0
   -4.0095   -0.5578    5.7491 C   0  0  0  0  0  0  0  0  0  0  0  0
   -5.0860    2.2992    4.6487 C   0  0  0  0  0  0  0  0  0  0  0  0
   -5.9761    3.0746    4.3438 O   0  0  0  0  0  0  0  0  0  0  0  0
   -4.2881    2.5994    5.5203 O   0  0  0  0  0  1  0  0  0  0  0  0
    1.0039    1.9031    0.0027 H   0  0  0  0  0  0  0  0  0  0  0  0
   -0.5459    1.8868   -0.8726 H   0  0  0  0  0  0  0  0  0  0  0  0
   -0.5289    1.8773    0.9072 H   0  0  0  0  0  0  0  0  0  0  0  0
    0.5123   -0.3556   -0.8948 H   0  0  0  0  0  0  0  0  0  0  0  0
    0.5293   -0.3651    0.8851 H   0  0  0  0  0  0  0  0  0  0  0  0
    0.6077   -2.2313   -0.0058 H   0  0  0  0  0  0  0  0  0  0  0  0
    0.4018   -4.6390   -0.0164 H   0  0  0  0  0  0  0  0  0  0  0  0
   -1.0008   -6.6710   -0.0196 H   0  0  0  0  0  0  0  0  0  0  0  0
   -3.2163   -7.6854   -0.0132 H   0  0  0  0  0  0  0  0  0  0  0  0
   -5.2396   -6.2913    0.0042 H   0  0  0  0  0  0  0  0  0  0  0  0
   -5.0771   -3.8573    0.0139 H   0  0  0  0  0  0  0  0  0  0  0  0
   -4.1015   -1.4210    2.0404 H   0  0  0  0  0  0  0  0  0  0  0  0
   -7.3165    0.3880    5.3256 H   0  0  0  0  0  0  0  0  0  0  0  0
   -6.5899   -0.6101    6.6079 H   0  0  0  0  0  0  0  0  0  0  0  0
   -6.1520    1.1091    6.4624 H   0  0  0  0  0  0  0  0  0  0  0  0
   -3.6354    0.3081    6.2953 H   0  0  0  0  0  0  0  0  0  0  0  0
   -4.2534   -1.3537    6.4528 H   0  0  0  0  0  0  0  0  0  0  0  0
   -3.2451   -0.9079    5.0553 H   0  0  0  0  0  0  0  0  0  0  0  0
  1  2  1  0  0  0  0
  1 33  1  0  0  0  0
  1 34  1  0  0  0  0
  1 35  1  0  0  0  0
  2  3  1  0  0  0  0
  2 36  1  0  0  0  0
  2 37  1  0  0  0  0
  3  4  1  0  0  0  0
  4 13  2  0  0  0  0
  4  5  1  0  0  0  0
  5  6  2  0  0  0  0
  5 38  1  0  0  0  0
  6  7  1  0  0  0  0
  6 39  1  0  0  0  0
  7 12  2  0  0  0  0
  7  8  1  0  0  0  0
  8  9  2  0  0  0  0
  8 40  1  0  0  0  0
  9 10  1  0  0  0  0
  9 41  1  0  0  0  0
 10 11  2  0  0  0  0
 10 42  1  0  0  0  0
 11 12  1  0  0  0  0
 11 43  1  0  0  0  0
 12 13  1  0  0  0  0
 13 14  1  0  0  0  0
 14 15  2  0  0  0  0
 14 16  1  0  0  0  0
 16 17  1  0  0  0  0
 16 44  1  0  0  0  0
 17 18  1  6  0  0  0
 17 22  1  0  0  0  0
 17 19  1  0  0  0  0
 19 20  1  6  0  0  0
 19 27  1  0  0  0  0
 19 21  1  0  0  0  0
 21 22  1  0  0  0  0
 21 24  1  0  0  0  0
 22 23  2  0  0  0  0
 24 25  1  6  0  0  0
 24 26  1  0  0  0  0
 24 30  1  0  0  0  0
 26 27  1  0  0  0  0
 26 28  1  0  0  0  0
 26 29  1  0  0  0  0
 28 45  1  0  0  0  0
 28 46  1  0  0  0  0
 28 47  1  0  0  0  0
 29 48  1  0  0  0  0
 29 49  1  0  0  0  0
 29 50  1  0  0  0  0
 30 31  2  0  0  0  0
 30 32  1  0  0  0  0
M  END
$$$$
