ZINC04102315
 OpenBabel08292219463D

 33 33  0  0  1  0  0  0  0  0999 V2000
   -0.4045    1.8595   -0.4074 C   0  0  0  0  0  0  0  0  0  0  0  0
   -0.3029    0.3565   -0.3686 C   0  0  0  0  0  0  0  0  0  0  0  0
   -1.3899   -0.3722   -0.3093 C   0  0  0  0  0  0  0  0  0  0  0  0
   -1.2882   -1.8753   -0.2705 C   0  0  0  0  0  0  0  0  0  0  0  0
   -2.0255   -2.3977    0.9356 C   0  0  0  0  0  0  0  0  0  0  0  0
   -2.9648   -3.2990    0.7894 C   0  0  0  0  0  0  0  0  0  0  0  0
   -3.7021   -3.8214    1.9955 C   0  0  0  0  0  0  0  0  0  0  0  0
   -5.2070   -3.6324    1.7947 C   0  0  0  0  0  0  0  0  0  0  0  0
   -5.9442   -4.1548    3.0008 C   0  0  0  0  0  0  0  0  0  0  0  0
   -5.3385   -4.7136    3.8835 O   0  0  0  0  0  0  0  0  0  0  0  0
   -7.4374   -3.9798    3.1053 C   0  0  2  0  0  0  0  0  0  0  0  0
   -7.9554   -3.7678    2.1700 H   0  0  0  0  0  0  0  0  0  0  0  0
   -7.9940   -3.3548    4.3861 C   0  0  1  0  0  0  0  0  0  0  0  0
   -8.8821   -2.7286    4.3013 H   0  0  0  0  0  0  0  0  0  0  0  0
   -8.1304   -4.7481    4.0910 O   0  0  0  0  0  0  0  0  0  0  0  0
   -7.0117   -2.9548    5.4567 C   0  0  0  0  0  0  0  0  0  0  0  0
   -7.0097   -3.5311    6.5238 O   0  0  0  0  0  0  0  0  0  0  0  0
   -6.1353   -1.9567    5.2282 N   0  0  0  0  0  0  0  0  0  0  0  0
    0.5956    2.2902   -0.4552 H   0  0  0  0  0  0  0  0  0  0  0  0
   -0.9731    2.1627   -1.2866 H   0  0  0  0  0  0  0  0  0  0  0  0
   -0.9097    2.2128    0.4915 H   0  0  0  0  0  0  0  0  0  0  0  0
    0.6661   -0.1200   -0.3897 H   0  0  0  0  0  0  0  0  0  0  0  0
   -2.3589    0.1042   -0.2882 H   0  0  0  0  0  0  0  0  0  0  0  0
   -1.7299   -2.2928   -1.1753 H   0  0  0  0  0  0  0  0  0  0  0  0
   -0.2398   -2.1671   -0.2100 H   0  0  0  0  0  0  0  0  0  0  0  0
   -1.7794   -2.0290    1.9204 H   0  0  0  0  0  0  0  0  0  0  0  0
   -3.2109   -3.6677   -0.1954 H   0  0  0  0  0  0  0  0  0  0  0  0
   -3.4829   -4.8813    2.1243 H   0  0  0  0  0  0  0  0  0  0  0  0
   -3.3822   -3.2739    2.8821 H   0  0  0  0  0  0  0  0  0  0  0  0
   -5.4261   -2.5725    1.6659 H   0  0  0  0  0  0  0  0  0  0  0  0
   -5.5268   -4.1799    0.9081 H   0  0  0  0  0  0  0  0  0  0  0  0
   -6.0875   -1.5445    4.3515 H   0  0  0  0  0  0  0  0  0  0  0  0
   -5.5525   -1.6505    5.9406 H   0  0  0  0  0  0  0  0  0  0  0  0
  1  2  1  0  0  0  0
  1 19  1  0  0  0  0
  1 20  1  0  0  0  0
  1 21  1  0  0  0  0
  2  3  2  0  0  0  0
  2 22  1  0  0  0  0
  3  4  1  0  0  0  0
  3 23  1  0  0  0  0
  4  5  1  0  0  0  0
  4 24  1  0  0  0  0
  4 25  1  0  0  0  0
  5  6  2  0  0  0  0
  5 26  1  0  0  0  0
  6  7  1  0  0  0  0
  6 27  1  0  0  0  0
  7  8  1  0  0  0  0
  7 28  1  0  0  0  0
  7 29  1  0  0  0  0
  8  9  1  0  0  0  0
  8 30  1  0  0  0  0
  8 31  1  0  0  0  0
  9 10  2  0  0  0  0
  9 11  1  0  0  0  0
 11 12  1  6  0  0  0
 11 15  1  0  0  0  0
 11 13  1  0  0  0  0
 13 14  1  6  0  0  0
 13 15  1  0  0  0  0
 13 16  1  0  0  0  0
 16 17  2  0  0  0  0
 16 18  1  0  0  0  0
 18 32  1  0  0  0  0
 18 33  1  0  0  0  0
M  END
$$$$
