ZINC00057302
 OpenBabel08292219463D

 31 32  0  0  0  0  0  0  0  0999 V2000
   -0.3389    4.8985    5.5327 C   0  0  0  0  0  0  0  0  0  0  0  0
   -0.4598    4.3538    4.1328 C   0  0  0  0  0  0  0  0  0  0  0  0
    0.3767    4.6001    3.1141 C   0  0  0  0  0  0  0  0  0  0  0  0
   -0.0848    3.9192    2.0423 O   0  0  0  0  0  0  0  0  0  0  0  0
   -1.2001    3.2736    2.4170 C   0  0  0  0  0  0  0  0  0  0  0  0
   -1.4273    3.5321    3.6815 N   0  0  0  0  0  0  0  0  0  0  0  0
   -1.9757    2.4666    1.6068 N   0  0  0  0  0  0  0  0  0  0  0  0
   -1.5555    2.2368    0.0216 S   0  0  0  0  0  0  0  0  0  0  0  0
   -1.3063    3.5252   -0.5234 O   0  0  0  0  0  0  0  0  0  0  0  0
   -2.5194    1.3499   -0.5295 O   0  0  0  0  0  0  0  0  0  0  0  0
   -0.0167    1.3786    0.0096 C   0  0  0  0  0  0  0  0  0  0  0  0
    1.1695    2.0894    0.0021 C   0  0  0  0  0  0  0  0  0  0  0  0
    2.3774    1.4200   -0.0131 C   0  0  0  0  0  0  0  0  0  0  0  0
    2.3998    0.0311   -0.0208 C   0  0  0  0  0  0  0  0  0  0  0  0
    1.2064   -0.6798   -0.0132 C   0  0  0  0  0  0  0  0  0  0  0  0
    0.0021   -0.0041    0.0020 C   0  0  0  0  0  0  0  0  0  0  0  0
    3.6196   -0.6492   -0.0357 N   0  0  0  0  0  0  0  0  0  0  0  0
    1.6067    5.4697    3.1583 C   0  0  0  0  0  0  0  0  0  0  0  0
    0.2566    4.2152    6.1382 H   0  0  0  0  0  0  0  0  0  0  0  0
    0.1464    5.8741    5.5023 H   0  0  0  0  0  0  0  0  0  0  0  0
   -1.3321    5.0002    5.9701 H   0  0  0  0  0  0  0  0  0  0  0  0
   -2.7662    2.0348    1.9666 H   0  0  0  0  0  0  0  0  0  0  0  0
    1.1513    3.1692    0.0078 H   0  0  0  0  0  0  0  0  0  0  0  0
    3.3034    1.9757   -0.0194 H   0  0  0  0  0  0  0  0  0  0  0  0
    1.2204   -1.7597   -0.0194 H   0  0  0  0  0  0  0  0  0  0  0  0
   -0.9261   -0.5561    0.0083 H   0  0  0  0  0  0  0  0  0  0  0  0
    3.6341   -1.6190   -0.0407 H   0  0  0  0  0  0  0  0  0  0  0  0
    4.4523   -0.1517   -0.0410 H   0  0  0  0  0  0  0  0  0  0  0  0
    2.4695    4.8648    3.4370 H   0  0  0  0  0  0  0  0  0  0  0  0
    1.7747    5.9116    2.1762 H   0  0  0  0  0  0  0  0  0  0  0  0
    1.4655    6.2617    3.8938 H   0  0  0  0  0  0  0  0  0  0  0  0
  1  2  1  0  0  0  0
  1 19  1  0  0  0  0
  1 20  1  0  0  0  0
  1 21  1  0  0  0  0
  2  6  1  0  0  0  0
  2  3  2  0  0  0  0
  3  4  1  0  0  0  0
  3 18  1  0  0  0  0
  4  5  1  0  0  0  0
  5  6  2  0  0  0  0
  5  7  1  0  0  0  0
  7  8  1  0  0  0  0
  7 22  1  0  0  0  0
  8  9  2  0  0  0  0
  8 10  2  0  0  0  0
  8 11  1  0  0  0  0
 11 16  2  0  0  0  0
 11 12  1  0  0  0  0
 12 13  2  0  0  0  0
 12 23  1  0  0  0  0
 13 14  1  0  0  0  0
 13 24  1  0  0  0  0
 14 15  2  0  0  0  0
 14 17  1  0  0  0  0
 15 16  1  0  0  0  0
 15 25  1  0  0  0  0
 16 26  1  0  0  0  0
 17 27  1  0  0  0  0
 17 28  1  0  0  0  0
 18 29  1  0  0  0  0
 18 30  1  0  0  0  0
 18 31  1  0  0  0  0
M  END
$$$$
