ZINC00002062
 OpenBabel08292219463D

 28 29  0  0  0  0  0  0  0  0999 V2000
    0.0013    1.3738    0.0132 C   0  0  0  0  0  0  0  0  0  0  0  0
    1.1898    2.0838    0.0726 C   0  0  0  0  0  0  0  0  0  0  0  0
    2.3989    1.4194    0.1221 C   0  0  0  0  0  0  0  0  0  0  0  0
    2.4313    0.0327    0.1127 C   0  0  0  0  0  0  0  0  0  0  0  0
    1.2311   -0.6896    0.0532 C   0  0  0  0  0  0  0  0  0  0  0  0
    0.0142   -0.0037    0.0035 C   0  0  0  0  0  0  0  0  0  0  0  0
    1.2525   -2.1632    0.0421 C   0  0  0  0  0  0  0  0  0  0  0  0
    2.3125   -2.7557    0.0846 O   0  0  0  0  0  0  0  0  0  0  0  0
    0.0961   -2.8537   -0.0152 O   0  0  0  0  0  0  0  0  0  0  0  0
    0.1654   -4.2037   -0.1285 C   0  0  0  0  0  0  0  0  0  0  0  0
    0.1347   -4.8004   -1.3801 C   0  0  0  0  0  0  0  0  0  0  0  0
    0.2048   -6.1746   -1.4938 C   0  0  0  0  0  0  0  0  0  0  0  0
    0.3062   -6.9681   -0.3623 C   0  0  0  0  0  0  0  0  0  0  0  0
    0.3381   -6.3936    0.8893 C   0  0  0  0  0  0  0  0  0  0  0  0
    0.2742   -5.0026    1.0195 C   0  0  0  0  0  0  0  0  0  0  0  0
    0.3144   -4.3810    2.3534 C   0  0  0  0  0  0  0  0  0  0  0  0
    0.4094   -5.0813    3.3519 O   0  0  0  0  0  0  0  0  0  0  0  0
    0.2528   -3.1642    2.4632 O   0  0  0  0  0  1  0  0  0  0  0  0
    3.6186   -0.6214    0.1604 O   0  0  0  0  0  0  0  0  0  0  0  0
   -0.9396    1.9028   -0.0210 H   0  0  0  0  0  0  0  0  0  0  0  0
    1.1701    3.1636    0.0798 H   0  0  0  0  0  0  0  0  0  0  0  0
    3.3209    1.9800    0.1679 H   0  0  0  0  0  0  0  0  0  0  0  0
   -0.9146   -0.5529   -0.0425 H   0  0  0  0  0  0  0  0  0  0  0  0
    0.0555   -4.1893   -2.2670 H   0  0  0  0  0  0  0  0  0  0  0  0
    0.1801   -6.6341   -2.4709 H   0  0  0  0  0  0  0  0  0  0  0  0
    0.3601   -8.0422   -0.4621 H   0  0  0  0  0  0  0  0  0  0  0  0
    0.4168   -7.0162    1.7683 H   0  0  0  0  0  0  0  0  0  0  0  0
    3.9236   -0.8180    1.0567 H   0  0  0  0  0  0  0  0  0  0  0  0
  1  6  2  0  0  0  0
  1  2  1  0  0  0  0
  1 20  1  0  0  0  0
  2  3  2  0  0  0  0
  2 21  1  0  0  0  0
  3  4  1  0  0  0  0
  3 22  1  0  0  0  0
  4  5  2  0  0  0  0
  4 19  1  0  0  0  0
  5  6  1  0  0  0  0
  5  7  1  0  0  0  0
  6 23  1  0  0  0  0
  7  8  2  0  0  0  0
  7  9  1  0  0  0  0
  9 10  1  0  0  0  0
 10 15  2  0  0  0  0
 10 11  1  0  0  0  0
 11 12  2  0  0  0  0
 11 24  1  0  0  0  0
 12 13  1  0  0  0  0
 12 25  1  0  0  0  0
 13 14  2  0  0  0  0
 13 26  1  0  0  0  0
 14 15  1  0  0  0  0
 14 27  1  0  0  0  0
 15 16  1  0  0  0  0
 16 17  2  0  0  0  0
 16 18  1  0  0  0  0
 19 28  1  0  0  0  0
M  END
$$$$
