ZINC03831582
 OpenBabel08292219463D

 51 55  0  0  1  0  0  0  0  0999 V2000
   -3.2618    6.1061    0.7318 C   0  0  0  0  0  0  0  0  0  0  0  0
   -3.8045    5.1250    1.5404 C   0  0  0  0  0  0  0  0  0  0  0  0
   -3.0146    4.0818    1.9863 C   0  0  0  0  0  0  0  0  0  0  0  0
   -1.6824    4.0192    1.6229 C   0  0  0  0  0  0  0  0  0  0  0  0
   -1.1385    5.0029    0.8182 C   0  0  0  0  0  0  0  0  0  0  0  0
   -1.9293    6.0440    0.3691 C   0  0  0  0  0  0  0  0  0  0  0  0
   -0.8214    2.8819    2.1089 C   0  0  0  0  0  0  0  0  0  0  0  0
   -0.8821    1.7781    1.1477 N   0  0  0  0  0  0  0  0  0  0  0  0
   -0.0191    1.5586    0.0106 C   0  0  1  0  0  0  0  0  0  0  0  0
   -0.5139    1.9214   -0.8903 H   0  0  0  0  0  0  0  0  0  0  0  0
    1.4457    1.9826   -0.0011 C   0  0  0  0  0  0  0  0  0  0  0  0
    2.0525    0.8419   -1.3510 S   0  0  2  0  0  3  0  0  0  0  0  0
    1.5422    1.7352   -2.8748 C   0  0  0  0  0  0  0  0  0  0  0  0
    0.6634    0.6560   -3.5664 C   0  0  0  0  0  0  0  0  0  0  0  0
   -0.1949   -0.0222   -2.4886 C   0  0  0  0  0  0  0  0  0  0  0  0
    0.6821   -0.4327   -1.2825 C   0  0  2  0  0  0  0  0  0  0  0  0
    1.0171   -1.4699   -1.2921 H   0  0  0  0  0  0  0  0  0  0  0  0
    0.0021   -0.0041    0.0020 C   0  0  2  0  0  0  0  0  0  0  0  0
    0.6126   -0.3333    0.8428 H   0  0  0  0  0  0  0  0  0  0  0  0
   -1.3769   -0.2781    0.3078 N   0  0  0  0  0  0  0  0  0  0  0  0
   -1.7672    0.7371    1.1363 C   0  0  0  0  0  0  0  0  0  0  0  0
   -2.7912    0.7161    1.7916 O   0  0  0  0  0  0  0  0  0  0  0  0
   -2.1876   -1.4028   -0.1658 C   0  0  0  0  0  0  0  0  0  0  0  0
   -2.0635   -2.5532    0.7998 C   0  0  0  0  0  0  0  0  0  0  0  0
   -1.0722   -3.5003    0.6227 C   0  0  0  0  0  0  0  0  0  0  0  0
   -0.9556   -4.5531    1.5109 C   0  0  0  0  0  0  0  0  0  0  0  0
   -1.8360   -4.6638    2.5709 C   0  0  0  0  0  0  0  0  0  0  0  0
   -2.8305   -3.7196    2.7449 C   0  0  0  0  0  0  0  0  0  0  0  0
   -2.9444   -2.6644    1.8593 C   0  0  0  0  0  0  0  0  0  0  0  0
   -3.8788    6.9213    0.3837 H   0  0  0  0  0  0  0  0  0  0  0  0
   -4.8454    5.1736    1.8241 H   0  0  0  0  0  0  0  0  0  0  0  0
   -3.4385    3.3154    2.6183 H   0  0  0  0  0  0  0  0  0  0  0  0
   -0.0966    4.9564    0.5379 H   0  0  0  0  0  0  0  0  0  0  0  0
   -1.5053    6.8107   -0.2623 H   0  0  0  0  0  0  0  0  0  0  0  0
   -1.1842    2.5400    3.0782 H   0  0  0  0  0  0  0  0  0  0  0  0
    0.2095    3.2226    2.2064 H   0  0  0  0  0  0  0  0  0  0  0  0
    1.5562    3.0274   -0.2913 H   0  0  0  0  0  0  0  0  0  0  0  0
    1.9258    1.7849    0.9573 H   0  0  0  0  0  0  0  0  0  0  0  0
    0.9573    2.6226   -2.6331 H   0  0  0  0  0  0  0  0  0  0  0  0
    2.4060    1.9911   -3.4884 H   0  0  0  0  0  0  0  0  0  0  0  0
    0.0185    1.1263   -4.3087 H   0  0  0  0  0  0  0  0  0  0  0  0
    1.3012   -0.0845   -4.0492 H   0  0  0  0  0  0  0  0  0  0  0  0
   -0.6671   -0.9098   -2.9096 H   0  0  0  0  0  0  0  0  0  0  0  0
   -0.9668    0.6707   -2.1538 H   0  0  0  0  0  0  0  0  0  0  0  0
   -3.2313   -1.0956   -0.2327 H   0  0  0  0  0  0  0  0  0  0  0  0
   -1.8368   -1.7147   -1.1495 H   0  0  0  0  0  0  0  0  0  0  0  0
   -0.3868   -3.4158   -0.2076 H   0  0  0  0  0  0  0  0  0  0  0  0
   -0.1784   -5.2906    1.3751 H   0  0  0  0  0  0  0  0  0  0  0  0
   -1.7466   -5.4878    3.2633 H   0  0  0  0  0  0  0  0  0  0  0  0
   -3.5183   -3.8061    3.5731 H   0  0  0  0  0  0  0  0  0  0  0  0
   -3.7214   -1.9267    1.9952 H   0  0  0  0  0  0  0  0  0  0  0  0
  1  6  2  0  0  0  0
  1  2  1  0  0  0  0
  1 30  1  0  0  0  0
  2  3  2  0  0  0  0
  2 31  1  0  0  0  0
  3  4  1  0  0  0  0
  3 32  1  0  0  0  0
  4  5  2  0  0  0  0
  4  7  1  0  0  0  0
  5  6  1  0  0  0  0
  5 33  1  0  0  0  0
  6 34  1  0  0  0  0
  7  8  1  0  0  0  0
  7 35  1  0  0  0  0
  7 36  1  0  0  0  0
  8 21  1  0  0  0  0
  8  9  1  0  0  0  0
  9 10  1  6  0  0  0
  9 18  1  0  0  0  0
  9 11  1  0  0  0  0
 11 37  1  0  0  0  0
 11 38  1  0  0  0  0
 12 11  1  1  0  0  0
 12 16  1  0  0  0  0
 12 13  1  0  0  0  0
 13 14  1  0  0  0  0
 13 39  1  0  0  0  0
 13 40  1  0  0  0  0
 14 15  1  0  0  0  0
 14 41  1  0  0  0  0
 14 42  1  0  0  0  0
 15 16  1  0  0  0  0
 15 43  1  0  0  0  0
 15 44  1  0  0  0  0
 16 17  1  6  0  0  0
 16 18  1  0  0  0  0
 18 19  1  1  0  0  0
 18 20  1  0  0  0  0
 20 21  1  0  0  0  0
 20 23  1  0  0  0  0
 21 22  2  0  0  0  0
 23 24  1  0  0  0  0
 23 45  1  0  0  0  0
 23 46  1  0  0  0  0
 24 29  2  0  0  0  0
 24 25  1  0  0  0  0
 25 26  2  0  0  0  0
 25 47  1  0  0  0  0
 26 27  1  0  0  0  0
 26 48  1  0  0  0  0
 27 28  2  0  0  0  0
 27 49  1  0  0  0  0
 28 29  1  0  0  0  0
 28 50  1  0  0  0  0
 29 51  1  0  0  0  0
M  END
$$$$
