ZINC00009073
 OpenBabel08292219463D

 38 41  0  0  1  0  0  0  0  0999 V2000
   -0.0178    1.4648    0.0101 C   0  0  0  0  0  0  0  0  0  0  0  0
    0.0021   -0.0041    0.0020 N   0  3  2  0  0  0  0  0  0  0  0  0
   -1.3707   -0.5099    0.0093 C   0  0  0  0  0  0  0  0  0  0  0  0
   -1.3945   -2.0165   -0.1908 C   0  0  0  0  0  0  0  0  0  0  0  0
   -0.2778   -2.7021    0.5444 C   0  0  0  0  0  0  0  0  0  0  0  0
   -0.2629   -4.0910    0.5709 C   0  0  0  0  0  0  0  0  0  0  0  0
    0.7244   -4.7743    1.2518 C   0  0  0  0  0  0  0  0  0  0  0  0
    1.7146   -4.0754    1.9128 C   0  0  0  0  0  0  0  0  0  0  0  0
    1.7194   -2.6860    1.8733 C   0  0  0  0  0  0  0  0  0  0  0  0
    0.7130   -1.9965    1.1919 C   0  0  0  0  0  0  0  0  0  0  0  0
    0.7133   -0.4906    1.1934 C   0  0  1  0  0  0  0  0  0  0  0  0
    0.2077   -0.1297    2.0890 H   0  0  0  0  0  0  0  0  0  0  0  0
    2.1391    0.0560    1.1696 C   0  0  0  0  0  0  0  0  0  0  0  0
    2.9742   -0.5785    2.2479 C   0  0  0  0  0  0  0  0  0  0  0  0
    2.7759   -1.9188    2.5745 C   0  0  0  0  0  0  0  0  0  0  0  0
    3.5639   -2.5230    3.5530 C   0  0  0  0  0  0  0  0  0  0  0  0
    4.5367   -1.7751    4.2088 C   0  0  0  0  0  0  0  0  0  0  0  0
    4.7147   -0.4388    3.8881 C   0  0  0  0  0  0  0  0  0  0  0  0
    3.9357    0.1560    2.9107 C   0  0  0  0  0  0  0  0  0  0  0  0
    5.3124   -2.3551    5.1634 O   0  0  0  0  0  0  0  0  0  0  0  0
    3.3828   -3.8338    3.8646 O   0  0  0  0  0  0  0  0  0  0  0  0
    1.0047    1.8421    0.0024 H   0  0  0  0  0  0  0  0  0  0  0  0
   -0.5450    1.8259   -0.8730 H   0  0  0  0  0  0  0  0  0  0  0  0
   -0.5280    1.8163    0.9069 H   0  0  0  0  0  0  0  0  0  0  0  0
   -1.8367   -0.2679    0.9645 H   0  0  0  0  0  0  0  0  0  0  0  0
   -1.9326   -0.0329   -0.7937 H   0  0  0  0  0  0  0  0  0  0  0  0
   -2.3469   -2.4064    0.1685 H   0  0  0  0  0  0  0  0  0  0  0  0
   -1.3037   -2.2338   -1.2551 H   0  0  0  0  0  0  0  0  0  0  0  0
   -1.0333   -4.6427    0.0527 H   0  0  0  0  0  0  0  0  0  0  0  0
    0.7220   -5.8542    1.2677 H   0  0  0  0  0  0  0  0  0  0  0  0
    2.4813   -4.6056    2.4582 H   0  0  0  0  0  0  0  0  0  0  0  0
    2.5874   -0.1542    0.1986 H   0  0  0  0  0  0  0  0  0  0  0  0
    2.1121    1.1345    1.3252 H   0  0  0  0  0  0  0  0  0  0  0  0
    5.4652    0.1418    4.4038 H   0  0  0  0  0  0  0  0  0  0  0  0
    4.0810    1.1979    2.6663 H   0  0  0  0  0  0  0  0  0  0  0  0
    6.1269   -2.7493    4.8224 H   0  0  0  0  0  0  0  0  0  0  0  0
    3.9208   -4.4411    3.3384 H   0  0  0  0  0  0  0  0  0  0  0  0
    0.4752   -0.3291   -0.8278 H   0  0  0  0  0  0  0  0  0  0  0  0
  1  2  1  0  0  0  0
  1 22  1  0  0  0  0
  1 23  1  0  0  0  0
  1 24  1  0  0  0  0
  2 11  1  0  0  0  0
  2  3  1  0  0  0  0
  2 38  1  6  0  0  0
  3  4  1  0  0  0  0
  3 25  1  0  0  0  0
  3 26  1  0  0  0  0
  4  5  1  0  0  0  0
  4 27  1  0  0  0  0
  4 28  1  0  0  0  0
  5 10  2  0  0  0  0
  5  6  1  0  0  0  0
  6  7  2  0  0  0  0
  6 29  1  0  0  0  0
  7  8  1  0  0  0  0
  7 30  1  0  0  0  0
  8  9  2  0  0  0  0
  8 31  1  0  0  0  0
  9 15  1  0  0  0  0
  9 10  1  0  0  0  0
 10 11  1  0  0  0  0
 11 12  1  1  0  0  0
 11 13  1  0  0  0  0
 13 14  1  0  0  0  0
 13 32  1  0  0  0  0
 13 33  1  0  0  0  0
 14 19  2  0  0  0  0
 14 15  1  0  0  0  0
 15 16  2  0  0  0  0
 16 17  1  0  0  0  0
 16 21  1  0  0  0  0
 17 18  2  0  0  0  0
 17 20  1  0  0  0  0
 18 19  1  0  0  0  0
 18 34  1  0  0  0  0
 19 35  1  0  0  0  0
 20 36  1  0  0  0  0
 21 37  1  0  0  0  0
M  CHG  1   2   1
M  END
$$$$
