ZINC02021931
 OpenBabel08292219463D

 56 56  0  0  1  0  0  0  0  0999 V2000
   -0.3316    1.7096   -1.0843 C   0  0  0  0  0  0  0  0  0  0  0  0
   -0.3276    0.1820   -0.9987 C   0  0  0  0  0  0  0  0  0  0  0  0
    0.1814   -0.2503    0.3779 C   0  0  0  0  0  0  0  0  0  0  0  0
   -1.7494   -0.3441   -1.2051 C   0  0  0  0  0  0  0  0  0  0  0  0
    0.5527   -0.3644   -2.0400 N   0  3  0  0  0  0  0  0  0  0  0  0
    1.9178    0.1407   -1.8419 C   0  0  0  0  0  0  0  0  0  0  0  0
    2.8347   -0.4284   -2.9265 C   0  0  2  0  0  0  0  0  0  0  0  0
    2.7692   -1.5164   -2.9235 H   0  0  0  0  0  0  0  0  0  0  0  0
    4.2564   -0.0100   -2.6528 C   0  0  0  0  0  0  0  0  0  0  0  0
    4.6810    1.2584   -2.9997 C   0  0  0  0  0  0  0  0  0  0  0  0
    5.9895    1.6460   -2.7488 C   0  0  0  0  0  0  0  0  0  0  0  0
    6.8709    0.7597   -2.1492 C   0  0  0  0  0  0  0  0  0  0  0  0
    6.4424   -0.5121   -1.8017 C   0  0  0  0  0  0  0  0  0  0  0  0
    5.1315   -0.8933   -2.0503 C   0  0  0  0  0  0  0  0  0  0  0  0
    7.3045   -1.3835   -1.2141 O   0  0  0  0  0  0  0  0  0  0  0  0
    7.5854   -1.2112    0.0918 C   0  0  0  0  0  0  0  0  0  0  0  0
    6.9919   -0.3681    0.7349 O   0  0  0  0  0  0  0  0  0  0  0  0
    8.5246   -1.9741    0.6854 N   0  0  0  0  0  0  0  0  0  0  0  0
    8.8302   -1.7868    2.1058 C   0  0  0  0  0  0  0  0  0  0  0  0
    9.2400   -2.9906   -0.0899 C   0  0  0  0  0  0  0  0  0  0  0  0
    6.4069    2.8936   -3.0910 O   0  0  0  0  0  0  0  0  0  0  0  0
    6.0163    3.9252   -2.3183 C   0  0  0  0  0  0  0  0  0  0  0  0
    5.2507    3.7360   -1.3938 O   0  0  0  0  0  0  0  0  0  0  0  0
    6.4747    5.1673   -2.5703 N   0  0  0  0  0  0  0  0  0  0  0  0
    6.0499    6.2894   -1.7297 C   0  0  0  0  0  0  0  0  0  0  0  0
    7.3978    5.3953   -3.6848 C   0  0  0  0  0  0  0  0  0  0  0  0
    2.4289    0.0697   -4.2029 O   0  0  0  0  0  0  0  0  0  0  0  0
    0.6813    2.0844   -0.9372 H   0  0  0  0  0  0  0  0  0  0  0  0
   -0.6942    2.0176   -2.0650 H   0  0  0  0  0  0  0  0  0  0  0  0
   -0.9848    2.1151   -0.3116 H   0  0  0  0  0  0  0  0  0  0  0  0
   -0.4718    0.1551    1.1506 H   0  0  0  0  0  0  0  0  0  0  0  0
    0.1843   -1.3386    0.4388 H   0  0  0  0  0  0  0  0  0  0  0  0
    1.1943    0.1245    0.5249 H   0  0  0  0  0  0  0  0  0  0  0  0
   -2.1120   -0.0361   -2.1858 H   0  0  0  0  0  0  0  0  0  0  0  0
   -1.7465   -1.4324   -1.1441 H   0  0  0  0  0  0  0  0  0  0  0  0
   -2.4026    0.0613   -0.4324 H   0  0  0  0  0  0  0  0  0  0  0  0
    0.5554   -1.3718   -1.9836 H   0  0  0  0  0  0  0  0  0  0  0  0
    1.9150    1.2290   -1.9028 H   0  0  0  0  0  0  0  0  0  0  0  0
    2.2805   -0.1673   -0.8612 H   0  0  0  0  0  0  0  0  0  0  0  0
    3.9940    1.9485   -3.4668 H   0  0  0  0  0  0  0  0  0  0  0  0
    7.8898    1.0595   -1.9534 H   0  0  0  0  0  0  0  0  0  0  0  0
    4.7961   -1.8826   -1.7761 H   0  0  0  0  0  0  0  0  0  0  0  0
    7.9325   -1.9666    2.6974 H   0  0  0  0  0  0  0  0  0  0  0  0
    9.6092   -2.4878    2.4054 H   0  0  0  0  0  0  0  0  0  0  0  0
    9.1762   -0.7665    2.2716 H   0  0  0  0  0  0  0  0  0  0  0  0
   10.1355   -2.5499   -0.5280 H   0  0  0  0  0  0  0  0  0  0  0  0
    9.5237   -3.8143    0.5652 H   0  0  0  0  0  0  0  0  0  0  0  0
    8.5932   -3.3640   -0.8838 H   0  0  0  0  0  0  0  0  0  0  0  0
    6.7420    6.4005   -0.8949 H   0  0  0  0  0  0  0  0  0  0  0  0
    6.0443    7.2048   -2.3213 H   0  0  0  0  0  0  0  0  0  0  0  0
    5.0473    6.0978   -1.3474 H   0  0  0  0  0  0  0  0  0  0  0  0
    7.5970    4.4506   -4.1907 H   0  0  0  0  0  0  0  0  0  0  0  0
    6.9510    6.0973   -4.3888 H   0  0  0  0  0  0  0  0  0  0  0  0
    8.3322    5.8077   -3.3041 H   0  0  0  0  0  0  0  0  0  0  0  0
    2.4622    1.0332   -4.2778 H   0  0  0  0  0  0  0  0  0  0  0  0
    0.2171   -0.0793   -2.9479 H   0  0  0  0  0  0  0  0  0  0  0  0
  1  2  1  0  0  0  0
  1 28  1  0  0  0  0
  1 29  1  0  0  0  0
  1 30  1  0  0  0  0
  2  3  1  0  0  0  0
  2  4  1  0  0  0  0
  2  5  1  0  0  0  0
  3 31  1  0  0  0  0
  3 32  1  0  0  0  0
  3 33  1  0  0  0  0
  4 34  1  0  0  0  0
  4 35  1  0  0  0  0
  4 36  1  0  0  0  0
  5  6  1  0  0  0  0
  5 37  1  0  0  0  0
  5 56  1  0  0  0  0
  6  7  1  0  0  0  0
  6 38  1  0  0  0  0
  6 39  1  0  0  0  0
  7  8  1  1  0  0  0
  7  9  1  0  0  0  0
  7 27  1  0  0  0  0
  9 14  2  0  0  0  0
  9 10  1  0  0  0  0
 10 11  2  0  0  0  0
 10 40  1  0  0  0  0
 11 12  1  0  0  0  0
 11 21  1  0  0  0  0
 12 13  2  0  0  0  0
 12 41  1  0  0  0  0
 13 14  1  0  0  0  0
 13 15  1  0  0  0  0
 14 42  1  0  0  0  0
 15 16  1  0  0  0  0
 16 17  2  0  0  0  0
 16 18  1  0  0  0  0
 18 19  1  0  0  0  0
 18 20  1  0  0  0  0
 19 43  1  0  0  0  0
 19 44  1  0  0  0  0
 19 45  1  0  0  0  0
 20 46  1  0  0  0  0
 20 47  1  0  0  0  0
 20 48  1  0  0  0  0
 21 22  1  0  0  0  0
 22 23  2  0  0  0  0
 22 24  1  0  0  0  0
 24 25  1  0  0  0  0
 24 26  1  0  0  0  0
 25 49  1  0  0  0  0
 25 50  1  0  0  0  0
 25 51  1  0  0  0  0
 26 52  1  0  0  0  0
 26 53  1  0  0  0  0
 26 54  1  0  0  0  0
 27 55  1  0  0  0  0
M  CHG  1   5   1
M  END
$$$$
