ZINC52509366
 OpenBabel08292219463D

 50 53  0  0  0  0  0  0  0  0999 V2000
   -5.6537   -4.0770    1.5961 C   0  0  0  0  0  0  0  0  0  0  0  0
   -4.1843   -4.1679    1.1796 C   0  0  0  0  0  0  0  0  0  0  0  0
   -3.3346   -4.5606    2.3898 C   0  0  0  0  0  0  0  0  0  0  0  0
   -1.5924   -4.6684    1.8960 S   0  0  0  0  0  0  0  0  0  0  0  0
   -1.4015   -5.7633    1.0106 O   0  0  0  0  0  0  0  0  0  0  0  0
   -1.0954   -3.3777    1.5697 O   0  0  0  0  0  0  0  0  0  0  0  0
   -0.7843   -5.0957    3.2768 N   0  0  0  0  0  2  0  0  0  0  0  0
    0.6051   -5.2677    3.2502 C   0  0  0  0  0  0  0  0  0  0  0  0
    1.3056   -5.0742    2.0667 C   0  0  0  0  0  0  0  0  0  0  0  0
    2.6777   -5.2422    2.0324 C   0  0  0  0  0  0  0  0  0  0  0  0
    3.3637   -5.6037    3.1761 C   0  0  0  0  0  0  0  0  0  0  0  0
    2.6687   -5.8010    4.3746 C   0  0  0  0  0  0  0  0  0  0  0  0
    1.2819   -5.6259    4.4079 C   0  0  0  0  0  0  0  0  0  0  0  0
    0.6027   -5.8090    5.5613 F   0  0  0  0  0  0  0  0  0  0  0  0
    3.3969   -6.1873    5.5992 C   0  0  0  0  0  0  0  0  0  0  0  0
    3.9029   -5.3318    6.3017 O   0  0  0  0  0  0  0  0  0  0  0  0
    3.5107   -7.6035    5.9698 C   0  0  0  0  0  0  0  0  0  0  0  0
    3.0873   -8.6773    5.2404 C   0  0  0  0  0  0  0  0  0  0  0  0
    3.3660   -9.8230    5.9080 N   0  0  0  0  0  0  0  0  0  0  0  0
    3.1583  -10.7141    5.5861 H   0  0  0  0  0  0  0  0  0  0  0  0
    3.9856   -9.5472    7.1069 C   0  0  0  0  0  0  0  0  0  0  0  0
    4.1107   -8.1497    7.2004 C   0  0  0  0  0  0  0  0  0  0  0  0
    4.7118   -7.5840    8.3201 C   0  0  0  0  0  0  0  0  0  0  0  0
    5.1755   -8.4420    9.3177 C   0  0  0  0  0  0  0  0  0  0  0  0
    5.0192   -9.8198    9.1538 C   0  0  0  0  0  0  0  0  0  0  0  0
    4.4401  -10.3206    8.0849 N   0  0  0  0  0  0  0  0  0  0  0  0
    5.8260   -7.8982   10.5355 C   0  0  0  0  0  0  0  0  0  0  0  0
    5.9733   -6.5216   10.6937 C   0  0  0  0  0  0  0  0  0  0  0  0
    6.5785   -6.0206   11.8282 C   0  0  0  0  0  0  0  0  0  0  0  0
    7.0390   -6.8833   12.8082 C   0  0  0  0  0  0  0  0  0  0  0  0
    6.8949   -8.2517   12.6556 C   0  0  0  0  0  0  0  0  0  0  0  0
    6.2863   -8.7621   11.5271 C   0  0  0  0  0  0  0  0  0  0  0  0
    7.8000   -6.2470   14.2328 Cl  0  0  0  0  0  0  0  0  0  0  0  0
    4.7043   -5.7670    3.1372 F   0  0  0  0  0  0  0  0  0  0  0  0
   -5.7641   -3.3247    2.3771 H   0  0  0  0  0  0  0  0  0  0  0  0
   -6.2591   -3.7973    0.7339 H   0  0  0  0  0  0  0  0  0  0  0  0
   -5.9848   -5.0443    1.9740 H   0  0  0  0  0  0  0  0  0  0  0  0
   -4.0739   -4.9202    0.3986 H   0  0  0  0  0  0  0  0  0  0  0  0
   -3.8533   -3.2006    0.8017 H   0  0  0  0  0  0  0  0  0  0  0  0
   -3.4450   -3.8083    3.1708 H   0  0  0  0  0  0  0  0  0  0  0  0
   -3.6656   -5.5279    2.7677 H   0  0  0  0  0  0  0  0  0  0  0  0
    0.7761   -4.7915    1.1688 H   0  0  0  0  0  0  0  0  0  0  0  0
    3.2152   -5.0905    1.1080 H   0  0  0  0  0  0  0  0  0  0  0  0
    2.6030   -8.6218    4.2767 H   0  0  0  0  0  0  0  0  0  0  0  0
    4.8166   -6.5132    8.4142 H   0  0  0  0  0  0  0  0  0  0  0  0
    5.3770  -10.4878    9.9233 H   0  0  0  0  0  0  0  0  0  0  0  0
    5.6147   -5.8479    9.9295 H   0  0  0  0  0  0  0  0  0  0  0  0
    6.6934   -4.9539   11.9516 H   0  0  0  0  0  0  0  0  0  0  0  0
    7.2561   -8.9206   13.4227 H   0  0  0  0  0  0  0  0  0  0  0  0
    6.1704   -9.8295   11.4110 H   0  0  0  0  0  0  0  0  0  0  0  0
  1  2  1  0  0  0  0
  1 35  1  0  0  0  0
  1 36  1  0  0  0  0
  1 37  1  0  0  0  0
  2  3  1  0  0  0  0
  2 38  1  0  0  0  0
  2 39  1  0  0  0  0
  3  4  1  0  0  0  0
  3 40  1  0  0  0  0
  3 41  1  0  0  0  0
  4  5  2  0  0  0  0
  4  6  2  0  0  0  0
  4  7  1  0  0  0  0
  7  8  1  0  0  0  0
  8 13  2  0  0  0  0
  8  9  1  0  0  0  0
  9 10  2  0  0  0  0
  9 42  1  0  0  0  0
 10 11  1  0  0  0  0
 10 43  1  0  0  0  0
 11 12  2  0  0  0  0
 11 34  1  0  0  0  0
 12 13  1  0  0  0  0
 12 15  1  0  0  0  0
 13 14  1  0  0  0  0
 15 16  2  0  0  0  0
 15 17  1  0  0  0  0
 17 22  1  0  0  0  0
 17 18  2  0  0  0  0
 18 19  1  0  0  0  0
 18 44  1  0  0  0  0
 19 20  1  0  0  0  0
 19 21  1  0  0  0  0
 21 26  2  0  0  0  0
 21 22  1  0  0  0  0
 22 23  2  0  0  0  0
 23 24  1  0  0  0  0
 23 45  1  0  0  0  0
 24 25  2  0  0  0  0
 24 27  1  0  0  0  0
 25 26  1  0  0  0  0
 25 46  1  0  0  0  0
 27 32  2  0  0  0  0
 27 28  1  0  0  0  0
 28 29  2  0  0  0  0
 28 47  1  0  0  0  0
 29 30  1  0  0  0  0
 29 48  1  0  0  0  0
 30 31  2  0  0  0  0
 30 33  1  0  0  0  0
 31 32  1  0  0  0  0
 31 49  1  0  0  0  0
 32 50  1  0  0  0  0
M  END
$$$$
