ZINC00968340
 OpenBabel08292219463D

 40 43  0  0  1  0  0  0  0  0999 V2000
   -6.7600    0.5536   -0.2477 C   0  0  0  0  0  0  0  0  0  0  0  0
   -4.5601   -0.1891    0.4416 C   0  0  0  0  0  0  0  0  0  0  0  0
   -3.0841   -0.1599    0.0257 C   0  0  0  0  0  0  0  0  0  0  0  0
   -2.6257    1.2832    0.0241 C   0  0  0  0  0  0  0  0  0  0  0  0
   -3.4720    2.3083    0.0308 C   0  0  0  0  0  0  0  0  0  0  0  0
   -4.9738    2.1676    0.0367 C   0  0  0  0  0  0  0  0  0  0  0  0
   -2.6757    3.5856    0.0422 C   0  0  1  0  0  0  0  0  0  0  0  0
   -2.8886    4.1653    0.9403 H   0  0  0  0  0  0  0  0  0  0  0  0
   -1.2278    3.1557    0.0281 C   0  0  0  0  0  0  0  0  0  0  0  0
   -1.2316    1.7585    0.0174 C   0  0  0  0  0  0  0  0  0  0  0  0
   -0.0126    1.0758    0.0080 C   0  0  0  0  0  0  0  0  0  0  0  0
    1.1721    1.7822    0.0004 C   0  0  0  0  0  0  0  0  0  0  0  0
    1.1620    3.1654    0.0072 C   0  0  0  0  0  0  0  0  0  0  0  0
   -0.0416    3.8507    0.0206 C   0  0  0  0  0  0  0  0  0  0  0  0
   -2.9919    4.3944   -1.1894 C   0  0  0  0  0  0  0  0  0  0  0  0
   -2.8002    3.8467   -2.4441 C   0  0  0  0  0  0  0  0  0  0  0  0
   -3.0944    4.5871   -3.5737 C   0  0  0  0  0  0  0  0  0  0  0  0
   -3.5716    5.8785   -3.4489 C   0  0  0  0  0  0  0  0  0  0  0  0
   -3.7582    6.4280   -2.1943 C   0  0  0  0  0  0  0  0  0  0  0  0
   -3.4682    5.6861   -1.0645 C   0  0  0  0  0  0  0  0  0  0  0  0
   -7.0543    0.5717    0.8017 H   0  0  0  0  0  0  0  0  0  0  0  0
   -7.2964    1.3329   -0.7890 H   0  0  0  0  0  0  0  0  0  0  0  0
   -7.0022   -0.4189   -0.6762 H   0  0  0  0  0  0  0  0  0  0  0  0
   -4.9659   -1.1862    0.2709 H   0  0  0  0  0  0  0  0  0  0  0  0
   -4.6445    0.0612    1.4991 H   0  0  0  0  0  0  0  0  0  0  0  0
   -2.9746   -0.5822   -0.9732 H   0  0  0  0  0  0  0  0  0  0  0  0
   -2.4898   -0.7343    0.7363 H   0  0  0  0  0  0  0  0  0  0  0  0
   -5.4103    2.8689   -0.6744 H   0  0  0  0  0  0  0  0  0  0  0  0
   -5.3600    2.3706    1.0355 H   0  0  0  0  0  0  0  0  0  0  0  0
    0.0021   -0.0041    0.0020 H   0  0  0  0  0  0  0  0  0  0  0  0
    2.1131    1.2523   -0.0111 H   0  0  0  0  0  0  0  0  0  0  0  0
    2.0937    3.7116    0.0016 H   0  0  0  0  0  0  0  0  0  0  0  0
   -0.0482    4.9307    0.0255 H   0  0  0  0  0  0  0  0  0  0  0  0
   -2.4239    2.8391   -2.5417 H   0  0  0  0  0  0  0  0  0  0  0  0
   -2.9489    4.1576   -4.5539 H   0  0  0  0  0  0  0  0  0  0  0  0
   -3.7989    6.4579   -4.3315 H   0  0  0  0  0  0  0  0  0  0  0  0
   -4.1311    7.4369   -2.0967 H   0  0  0  0  0  0  0  0  0  0  0  0
   -3.6140    6.1155   -0.0843 H   0  0  0  0  0  0  0  0  0  0  0  0
   -5.3064    0.7858   -0.3832 N   0  3  2  0  0  0  0  0  0  0  0  0
   -5.0394    0.6632   -1.3671 H   0  0  0  0  0  0  0  0  0  0  0  0
  1 21  1  0  0  0  0
  1 22  1  0  0  0  0
  1 23  1  0  0  0  0
  1 39  1  0  0  0  0
  2  3  1  0  0  0  0
  2 24  1  0  0  0  0
  2 25  1  0  0  0  0
  2 39  1  0  0  0  0
  3  4  1  0  0  0  0
  3 26  1  0  0  0  0
  3 27  1  0  0  0  0
  4 10  1  0  0  0  0
  4  5  2  0  0  0  0
  5  6  1  0  0  0  0
  5  7  1  0  0  0  0
  6 28  1  0  0  0  0
  6 29  1  0  0  0  0
  6 39  1  0  0  0  0
  7  8  1  1  0  0  0
  7  9  1  0  0  0  0
  7 15  1  0  0  0  0
  9 14  2  0  0  0  0
  9 10  1  0  0  0  0
 10 11  2  0  0  0  0
 11 12  1  0  0  0  0
 11 30  1  0  0  0  0
 12 13  2  0  0  0  0
 12 31  1  0  0  0  0
 13 14  1  0  0  0  0
 13 32  1  0  0  0  0
 14 33  1  0  0  0  0
 15 20  2  0  0  0  0
 15 16  1  0  0  0  0
 16 17  2  0  0  0  0
 16 34  1  0  0  0  0
 17 18  1  0  0  0  0
 17 35  1  0  0  0  0
 18 19  2  0  0  0  0
 18 36  1  0  0  0  0
 19 20  1  0  0  0  0
 19 37  1  0  0  0  0
 20 38  1  0  0  0  0
 39 40  1  6  0  0  0
M  CHG  1  39   1
M  END
$$$$
