ZINC00000122
 OpenBabel08292219463D

 40 41  0  0  1  0  0  0  0  0999 V2000
   -0.0178    1.4648    0.0101 C   0  0  0  0  0  0  0  0  0  0  0  0
    0.0021   -0.0041    0.0020 N   0  3  0  0  0  0  0  0  0  0  0  0
   -1.3761   -0.5125    0.0124 C   0  0  0  0  0  0  0  0  0  0  0  0
    0.6897   -0.4778   -1.2066 C   0  0  0  0  0  0  0  0  0  0  0  0
    2.1588   -0.0534   -1.1571 C   0  0  0  0  0  0  0  0  0  0  0  0
    2.8089   -0.7134   -0.0690 O   0  0  0  0  0  0  0  0  0  0  0  0
    4.1928   -0.3845    0.0669 C   0  0  1  0  0  0  0  0  0  0  0  0
    4.3620    0.6307   -0.2921 H   0  0  0  0  0  0  0  0  0  0  0  0
    4.5911   -0.4773    1.5174 C   0  0  0  0  0  0  0  0  0  0  0  0
    4.1072   -1.5074    2.3022 C   0  0  0  0  0  0  0  0  0  0  0  0
    4.4721   -1.5930    3.6325 C   0  0  0  0  0  0  0  0  0  0  0  0
    5.3218   -0.6476    4.1787 C   0  0  0  0  0  0  0  0  0  0  0  0
    5.8057    0.3831    3.3928 C   0  0  0  0  0  0  0  0  0  0  0  0
    5.4446    0.4644    2.0611 C   0  0  0  0  0  0  0  0  0  0  0  0
    5.7801   -0.7542    5.8498 Cl  0  0  0  0  0  0  0  0  0  0  0  0
    5.0202   -1.3485   -0.7438 C   0  0  0  0  0  0  0  0  0  0  0  0
    4.3909   -2.2810   -1.5470 C   0  0  0  0  0  0  0  0  0  0  0  0
    5.1612   -3.1632   -2.2888 C   0  0  0  0  0  0  0  0  0  0  0  0
    6.5419   -3.0740   -2.1946 C   0  0  0  0  0  0  0  0  0  0  0  0
    7.1001   -2.1157   -1.3703 C   0  0  0  0  0  0  0  0  0  0  0  0
    6.3360   -1.2891   -0.6830 N   0  0  0  0  0  0  0  0  0  0  0  0
    1.0047    1.8421    0.0024 H   0  0  0  0  0  0  0  0  0  0  0  0
   -0.5450    1.8259   -0.8730 H   0  0  0  0  0  0  0  0  0  0  0  0
   -0.5280    1.8163    0.9069 H   0  0  0  0  0  0  0  0  0  0  0  0
   -1.9033   -0.1515   -0.8706 H   0  0  0  0  0  0  0  0  0  0  0  0
   -1.3613   -1.6024    0.0065 H   0  0  0  0  0  0  0  0  0  0  0  0
   -1.8863   -0.1610    0.9092 H   0  0  0  0  0  0  0  0  0  0  0  0
    0.6270   -1.5648   -1.2578 H   0  0  0  0  0  0  0  0  0  0  0  0
    0.2158   -0.0447   -2.0875 H   0  0  0  0  0  0  0  0  0  0  0  0
    2.6477   -0.3267   -2.0922 H   0  0  0  0  0  0  0  0  0  0  0  0
    2.2206    1.0258   -1.0166 H   0  0  0  0  0  0  0  0  0  0  0  0
    3.4437   -2.2451    1.8758 H   0  0  0  0  0  0  0  0  0  0  0  0
    4.0937   -2.3976    4.2457 H   0  0  0  0  0  0  0  0  0  0  0  0
    6.4688    1.1215    3.8187 H   0  0  0  0  0  0  0  0  0  0  0  0
    5.8261    1.2662    1.4463 H   0  0  0  0  0  0  0  0  0  0  0  0
    3.3128   -2.3221   -1.5958 H   0  0  0  0  0  0  0  0  0  0  0  0
    4.6971   -3.9025   -2.9247 H   0  0  0  0  0  0  0  0  0  0  0  0
    7.1729   -3.7454   -2.7580 H   0  0  0  0  0  0  0  0  0  0  0  0
    8.1745   -2.0397   -1.2914 H   0  0  0  0  0  0  0  0  0  0  0  0
    0.4901   -0.3383    0.8195 H   0  0  0  0  0  0  0  0  0  0  0  0
  1  2  1  0  0  0  0
  1 22  1  0  0  0  0
  1 23  1  0  0  0  0
  1 24  1  0  0  0  0
  2  3  1  0  0  0  0
  2  4  1  0  0  0  0
  2 40  1  0  0  0  0
  3 25  1  0  0  0  0
  3 26  1  0  0  0  0
  3 27  1  0  0  0  0
  4  5  1  0  0  0  0
  4 28  1  0  0  0  0
  4 29  1  0  0  0  0
  5  6  1  0  0  0  0
  5 30  1  0  0  0  0
  5 31  1  0  0  0  0
  6  7  1  0  0  0  0
  7  8  1  6  0  0  0
  7  9  1  0  0  0  0
  7 16  1  0  0  0  0
  9 14  2  0  0  0  0
  9 10  1  0  0  0  0
 10 11  2  0  0  0  0
 10 32  1  0  0  0  0
 11 12  1  0  0  0  0
 11 33  1  0  0  0  0
 12 13  2  0  0  0  0
 12 15  1  0  0  0  0
 13 14  1  0  0  0  0
 13 34  1  0  0  0  0
 14 35  1  0  0  0  0
 16 21  2  0  0  0  0
 16 17  1  0  0  0  0
 17 18  2  0  0  0  0
 17 36  1  0  0  0  0
 18 19  1  0  0  0  0
 18 37  1  0  0  0  0
 19 20  2  0  0  0  0
 19 38  1  0  0  0  0
 20 21  1  0  0  0  0
 20 39  1  0  0  0  0
M  CHG  1   2   1
M  END
$$$$
