ZINC00897234
 OpenBabel08292219463D

 28 29  0  0  1  0  0  0  0  0999 V2000
   -0.0166    1.3759    0.0096 C   0  0  0  0  0  0  0  0  0  0  0  0
    1.1783    2.0936    0.0021 C   0  0  0  0  0  0  0  0  0  0  0  0
    2.3808    1.4000   -0.0226 C   0  0  0  0  0  0  0  0  0  0  0  0
    2.3964    0.0207   -0.0201 C   0  0  0  0  0  0  0  0  0  0  0  0
    1.2072   -0.6851   -0.0088 C   0  0  0  0  0  0  0  0  0  0  0  0
    0.0021   -0.0041    0.0020 C   0  0  0  0  0  0  0  0  0  0  0  0
   -1.4913   -0.8891    0.0060 Cl  0  0  0  0  0  0  0  0  0  0  0  0
    1.2260   -2.4470   -0.0082 S   0  0  0  0  0  0  0  0  0  0  0  0
    0.3250   -2.8631   -1.0253 O   0  0  0  0  0  0  0  0  0  0  0  0
    2.5919   -2.8386    0.0064 O   0  0  0  0  0  0  0  0  0  0  0  0
    0.5759   -2.9431    1.4318 N   0  0  0  0  0  0  0  0  0  0  0  0
    3.9028    2.2971   -0.0763 S   0  0  0  0  0  0  0  0  0  0  0  0
    4.3733    2.2366   -1.4158 O   0  0  0  0  0  0  0  0  0  0  0  0
    4.6796    1.8636    1.0318 O   0  0  0  0  0  0  0  0  0  0  0  0
    3.4725    3.8817    0.2181 N   0  0  0  0  0  0  0  0  0  0  0  0
    2.2211    4.3393   -0.4192 C   0  0  2  0  0  0  0  0  0  0  0  0
    2.0212    5.3718   -0.1326 H   0  0  0  0  0  0  0  0  0  0  0  0
    1.1259    3.4846    0.0324 N   0  0  0  0  0  0  0  0  0  0  0  0
    2.3558    4.2457   -1.9404 C   0  0  0  0  0  0  0  0  0  0  0  0
    0.8266    4.8050   -2.7146 Cl  0  0  0  0  0  0  0  0  0  0  0  0
    3.7224    5.2867   -2.4879 Cl  0  0  0  0  0  0  0  0  0  0  0  0
   -0.9601    1.9014    0.0260 H   0  0  0  0  0  0  0  0  0  0  0  0
    3.3379   -0.5083   -0.0273 H   0  0  0  0  0  0  0  0  0  0  0  0
    0.0997   -3.7866    1.4840 H   0  0  0  0  0  0  0  0  0  0  0  0
    0.6713   -2.3902    2.2231 H   0  0  0  0  0  0  0  0  0  0  0  0
    4.0112    4.4668    0.7734 H   0  0  0  0  0  0  0  0  0  0  0  0
    0.3211    3.9077    0.3703 H   0  0  0  0  0  0  0  0  0  0  0  0
    2.5501    3.2117   -2.2250 H   0  0  0  0  0  0  0  0  0  0  0  0
  1  6  2  0  0  0  0
  1  2  1  0  0  0  0
  1 22  1  0  0  0  0
  2 18  1  0  0  0  0
  2  3  2  0  0  0  0
  3  4  1  0  0  0  0
  3 12  1  0  0  0  0
  4  5  2  0  0  0  0
  4 23  1  0  0  0  0
  5  6  1  0  0  0  0
  5  8  1  0  0  0  0
  6  7  1  0  0  0  0
  8  9  2  0  0  0  0
  8 10  2  0  0  0  0
  8 11  1  0  0  0  0
 11 24  1  0  0  0  0
 11 25  1  0  0  0  0
 12 13  2  0  0  0  0
 12 14  2  0  0  0  0
 12 15  1  0  0  0  0
 15 16  1  0  0  0  0
 15 26  1  0  0  0  0
 16 17  1  1  0  0  0
 16 18  1  0  0  0  0
 16 19  1  0  0  0  0
 18 27  1  0  0  0  0
 19 20  1  0  0  0  0
 19 21  1  0  0  0  0
 19 28  1  0  0  0  0
M  END
$$$$
