ZINC03875484
 OpenBabel08292219463D

 53 56  0  0  1  0  0  0  0  0999 V2000
   -0.3427    1.5573   -0.1794 C   0  0  0  0  0  0  0  0  0  0  0  0
   -0.3556    0.0274   -0.1937 C   0  0  2  0  0  0  0  0  0  0  0  0
   -1.8008   -0.4287   -0.2894 C   0  0  0  0  0  0  0  0  0  0  0  0
   -2.5041   -0.3562    1.0657 C   0  0  0  0  0  0  0  0  0  0  0  0
   -1.7218   -1.2261    2.0301 C   0  0  0  0  0  0  0  0  0  0  0  0
   -2.2686   -2.0496    2.7337 O   0  0  0  0  0  0  0  0  0  0  0  0
   -0.2698   -1.0212    2.0683 C   0  0  0  0  0  0  0  0  0  0  0  0
    0.3555   -0.4532    1.0337 C   0  0  0  0  0  0  0  0  0  0  0  0
    1.8559   -0.2481    1.1350 C   0  0  0  0  0  0  0  0  0  0  0  0
    2.5079   -0.7388   -0.1598 C   0  0  0  0  0  0  0  0  0  0  0  0
    1.8651   -0.0208   -1.3497 C   0  0  2  0  0  0  0  0  0  0  0  0
    1.9377    1.0586   -1.2163 H   0  0  0  0  0  0  0  0  0  0  0  0
    0.3905   -0.4389   -1.4497 C   0  0  2  0  0  0  0  0  0  0  0  0
   -0.2953    0.1424   -2.6827 C   0  0  2  0  0  0  0  0  0  0  0  0
   -1.3009   -0.2715   -2.7582 H   0  0  0  0  0  0  0  0  0  0  0  0
    0.4779   -0.1820   -3.9707 C   0  0  0  0  0  0  0  0  0  0  0  0
    1.8813    0.3673   -3.8004 C   0  0  1  0  0  0  0  0  0  0  0  0
    2.5604   -0.4320   -2.6343 C   0  0  1  0  0  0  0  0  0  0  0  0
    2.4406   -1.5020   -2.8043 H   0  0  0  0  0  0  0  0  0  0  0  0
    4.0310   -0.0171   -2.7578 C   0  0  0  0  0  0  0  0  0  0  0  0
    4.2662   -0.0212   -4.2930 C   0  0  0  0  0  0  0  0  0  0  0  0
    2.8402    0.1576   -4.9675 C   0  0  1  0  0  0  0  0  0  0  0  0
    2.4477   -1.0921   -5.7580 C   0  0  0  0  0  0  0  0  0  0  0  0
    2.8404    1.3042   -5.8203 O   0  0  0  0  0  0  0  0  0  0  0  0
    1.8164    1.8536   -3.4430 C   0  0  0  0  0  0  0  0  0  0  0  0
   -0.3854    1.5614   -2.5401 O   0  0  0  0  0  0  0  0  0  0  0  0
    0.3310   -1.8347   -1.5231 F   0  0  0  0  0  0  0  0  0  0  0  0
    0.6319    1.9155   -0.5108 H   0  0  0  0  0  0  0  0  0  0  0  0
   -1.1154    1.9334   -0.8499 H   0  0  0  0  0  0  0  0  0  0  0  0
   -0.5356    1.9128    0.8328 H   0  0  0  0  0  0  0  0  0  0  0  0
   -2.3288    0.2084   -0.9989 H   0  0  0  0  0  0  0  0  0  0  0  0
   -1.8263   -1.4573   -0.6490 H   0  0  0  0  0  0  0  0  0  0  0  0
   -2.5162    0.6738    1.4222 H   0  0  0  0  0  0  0  0  0  0  0  0
   -3.5242   -0.7294    0.9741 H   0  0  0  0  0  0  0  0  0  0  0  0
    0.2978   -1.3432    2.9289 H   0  0  0  0  0  0  0  0  0  0  0  0
    2.0714    0.8113    1.2740 H   0  0  0  0  0  0  0  0  0  0  0  0
    2.2464   -0.8165    1.9791 H   0  0  0  0  0  0  0  0  0  0  0  0
    3.5754   -0.5201   -0.1357 H   0  0  0  0  0  0  0  0  0  0  0  0
    2.3575   -1.8139   -0.2586 H   0  0  0  0  0  0  0  0  0  0  0  0
    0.5169   -1.2612   -4.1186 H   0  0  0  0  0  0  0  0  0  0  0  0
   -0.0060    0.2935   -4.8239 H   0  0  0  0  0  0  0  0  0  0  0  0
    4.1861    0.9804   -2.3466 H   0  0  0  0  0  0  0  0  0  0  0  0
    4.6790   -0.7429   -2.2665 H   0  0  0  0  0  0  0  0  0  0  0  0
    4.9319    0.7956   -4.5717 H   0  0  0  0  0  0  0  0  0  0  0  0
    4.6929   -0.9749   -4.6037 H   0  0  0  0  0  0  0  0  0  0  0  0
    1.4357   -0.9740   -6.1454 H   0  0  0  0  0  0  0  0  0  0  0  0
    3.1407   -1.2296   -6.5881 H   0  0  0  0  0  0  0  0  0  0  0  0
    2.4870   -1.9631   -5.1039 H   0  0  0  0  0  0  0  0  0  0  0  0
    3.4326    1.2286   -6.5810 H   0  0  0  0  0  0  0  0  0  0  0  0
    1.4342    1.9671   -2.4286 H   0  0  0  0  0  0  0  0  0  0  0  0
    2.8150    2.2862   -3.5056 H   0  0  0  0  0  0  0  0  0  0  0  0
    1.1539    2.3664   -4.1404 H   0  0  0  0  0  0  0  0  0  0  0  0
   -0.8110    2.0054   -3.2863 H   0  0  0  0  0  0  0  0  0  0  0  0
  1 28  1  0  0  0  0
  1 29  1  0  0  0  0
  1 30  1  0  0  0  0
  2  1  1  1  0  0  0
  2  8  1  0  0  0  0
  2 13  1  0  0  0  0
  2  3  1  0  0  0  0
  3  4  1  0  0  0  0
  3 31  1  0  0  0  0
  3 32  1  0  0  0  0
  4  5  1  0  0  0  0
  4 33  1  0  0  0  0
  4 34  1  0  0  0  0
  5  6  2  0  0  0  0
  5  7  1  0  0  0  0
  7  8  2  0  0  0  0
  7 35  1  0  0  0  0
  8  9  1  0  0  0  0
  9 10  1  0  0  0  0
  9 36  1  0  0  0  0
  9 37  1  0  0  0  0
 10 11  1  0  0  0  0
 10 38  1  0  0  0  0
 10 39  1  0  0  0  0
 11 12  1  1  0  0  0
 11 18  1  0  0  0  0
 11 13  1  0  0  0  0
 13 14  1  0  0  0  0
 13 27  1  6  0  0  0
 14 15  1  6  0  0  0
 14 16  1  0  0  0  0
 14 26  1  0  0  0  0
 16 17  1  0  0  0  0
 16 40  1  0  0  0  0
 16 41  1  0  0  0  0
 17 22  1  0  0  0  0
 17 18  1  0  0  0  0
 17 25  1  1  0  0  0
 18 19  1  6  0  0  0
 18 20  1  0  0  0  0
 20 21  1  0  0  0  0
 20 42  1  0  0  0  0
 20 43  1  0  0  0  0
 21 22  1  0  0  0  0
 21 44  1  0  0  0  0
 21 45  1  0  0  0  0
 22 23  1  0  0  0  0
 22 24  1  6  0  0  0
 23 46  1  0  0  0  0
 23 47  1  0  0  0  0
 23 48  1  0  0  0  0
 24 49  1  0  0  0  0
 25 50  1  0  0  0  0
 25 51  1  0  0  0  0
 25 52  1  0  0  0  0
 26 53  1  0  0  0  0
M  END
$$$$
