ZINC00001792
 OpenBabel08292219463D

 35 35  0  0  0  0  0  0  0  0999 V2000
   -2.3864   -0.1136    0.8491 C   0  0  0  0  0  0  0  0  0  0  0  0
   -1.1535   -0.7733    0.4119 N   0  0  0  0  0  0  0  0  0  0  0  0
    0.0376   -0.7388    1.2642 C   0  0  0  0  0  0  0  0  0  0  0  0
   -1.1151   -1.4118   -0.7743 C   0  0  0  0  0  0  0  0  0  0  0  0
   -2.1030   -1.4404   -1.4812 O   0  0  0  0  0  0  0  0  0  0  0  0
    0.0183   -2.0183   -1.1762 O   0  0  0  0  0  0  0  0  0  0  0  0
   -0.0166   -2.7362   -2.3300 C   0  0  0  0  0  0  0  0  0  0  0  0
    0.0059   -2.0847   -3.5547 C   0  0  0  0  0  0  0  0  0  0  0  0
   -0.0298   -2.8164   -4.7257 C   0  0  0  0  0  0  0  0  0  0  0  0
   -0.0882   -4.1972   -4.6780 C   0  0  0  0  0  0  0  0  0  0  0  0
   -0.1111   -4.8487   -3.4589 C   0  0  0  0  0  0  0  0  0  0  0  0
   -0.0690   -4.1215   -2.2849 C   0  0  0  0  0  0  0  0  0  0  0  0
   -0.1712   -6.2447   -3.4141 N   0  3  0  0  0  0  0  0  0  0  0  0
   -0.2000   -6.7778   -4.7826 C   0  0  0  0  0  0  0  0  0  0  0  0
    1.0100   -6.7633   -2.7113 C   0  0  0  0  0  0  0  0  0  0  0  0
   -1.3866   -6.6599   -2.7011 C   0  0  0  0  0  0  0  0  0  0  0  0
   -2.3896    0.9188    0.4997 H   0  0  0  0  0  0  0  0  0  0  0  0
   -3.2465   -0.6400    0.4353 H   0  0  0  0  0  0  0  0  0  0  0  0
   -2.4403   -0.1289    1.9377 H   0  0  0  0  0  0  0  0  0  0  0  0
    0.0305   -1.5991    1.9335 H   0  0  0  0  0  0  0  0  0  0  0  0
    0.9313   -0.7706    0.6410 H   0  0  0  0  0  0  0  0  0  0  0  0
    0.0372    0.1790    1.8522 H   0  0  0  0  0  0  0  0  0  0  0  0
    0.0508   -1.0063   -3.5925 H   0  0  0  0  0  0  0  0  0  0  0  0
   -0.0123   -2.3097   -5.6793 H   0  0  0  0  0  0  0  0  0  0  0  0
   -0.1164   -4.7676   -5.5947 H   0  0  0  0  0  0  0  0  0  0  0  0
   -0.0821   -4.6311   -1.3327 H   0  0  0  0  0  0  0  0  0  0  0  0
    0.7019   -6.4697   -5.3116 H   0  0  0  0  0  0  0  0  0  0  0  0
   -0.2468   -7.8662   -4.7476 H   0  0  0  0  0  0  0  0  0  0  0  0
   -1.0764   -6.3930   -5.3040 H   0  0  0  0  0  0  0  0  0  0  0  0
    1.0314   -6.3677   -1.6958 H   0  0  0  0  0  0  0  0  0  0  0  0
    0.9632   -7.8517   -2.6763 H   0  0  0  0  0  0  0  0  0  0  0  0
    1.9119   -6.4552   -3.2403 H   0  0  0  0  0  0  0  0  0  0  0  0
   -2.2631   -6.2751   -3.2226 H   0  0  0  0  0  0  0  0  0  0  0  0
   -1.4334   -7.7483   -2.6661 H   0  0  0  0  0  0  0  0  0  0  0  0
   -1.3652   -6.2643   -1.6857 H   0  0  0  0  0  0  0  0  0  0  0  0
  1  2  1  0  0  0  0
  1 17  1  0  0  0  0
  1 18  1  0  0  0  0
  1 19  1  0  0  0  0
  2  3  1  0  0  0  0
  2  4  1  0  0  0  0
  3 20  1  0  0  0  0
  3 21  1  0  0  0  0
  3 22  1  0  0  0  0
  4  5  2  0  0  0  0
  4  6  1  0  0  0  0
  6  7  1  0  0  0  0
  7 12  2  0  0  0  0
  7  8  1  0  0  0  0
  8  9  2  0  0  0  0
  8 23  1  0  0  0  0
  9 10  1  0  0  0  0
  9 24  1  0  0  0  0
 10 11  2  0  0  0  0
 10 25  1  0  0  0  0
 11 12  1  0  0  0  0
 11 13  1  0  0  0  0
 12 26  1  0  0  0  0
 13 14  1  0  0  0  0
 13 15  1  0  0  0  0
 13 16  1  0  0  0  0
 14 27  1  0  0  0  0
 14 28  1  0  0  0  0
 14 29  1  0  0  0  0
 15 30  1  0  0  0  0
 15 31  1  0  0  0  0
 15 32  1  0  0  0  0
 16 33  1  0  0  0  0
 16 34  1  0  0  0  0
 16 35  1  0  0  0  0
M  CHG  1  13   1
M  END
$$$$
