ZINC03831583
 OpenBabel08292219463D

 51 55  0  0  1  0  0  0  0  0999 V2000
   -3.0955   11.0803   -3.7158 C   0  0  0  0  0  0  0  0  0  0  0  0
   -2.1940   10.6234   -4.6589 C   0  0  0  0  0  0  0  0  0  0  0  0
   -1.9508    9.2683   -4.7831 C   0  0  0  0  0  0  0  0  0  0  0  0
   -2.6092    8.3701   -3.9642 C   0  0  0  0  0  0  0  0  0  0  0  0
   -3.5146    8.8265   -3.0247 C   0  0  0  0  0  0  0  0  0  0  0  0
   -3.7535   10.1820   -2.8966 C   0  0  0  0  0  0  0  0  0  0  0  0
   -2.3445    6.8927   -4.1000 C   0  0  0  0  0  0  0  0  0  0  0  0
   -1.2391    6.5115   -3.2173 N   0  0  0  0  0  0  0  0  0  0  0  0
    0.1822    6.5124   -3.5905 C   0  0  2  0  0  0  0  0  0  0  0  0
    0.4957    7.5056   -3.9121 H   0  0  0  0  0  0  0  0  0  0  0  0
    0.3655    5.4740   -4.7477 C   0  0  0  0  0  0  0  0  0  0  0  0
    0.7618    3.9814   -3.7960 S   0  0  1  0  0  3  0  0  0  0  0  0
    2.2157    3.1385   -4.4823 C   0  0  0  0  0  0  0  0  0  0  0  0
    3.0487    2.9036   -3.1771 C   0  0  0  0  0  0  0  0  0  0  0  0
    2.6716    3.8858   -2.0362 C   0  0  0  0  0  0  0  0  0  0  0  0
    1.7467    4.9108   -2.4987 C   0  0  2  0  0  0  0  0  0  0  0  0
    2.4187    5.3772   -3.2192 H   0  0  0  0  0  0  0  0  0  0  0  0
    0.9097    6.1112   -2.2658 C   0  0  2  0  0  0  0  0  0  0  0  0
    1.5071    6.9442   -1.8951 H   0  0  0  0  0  0  0  0  0  0  0  0
   -0.2098    5.8374   -1.3433 N   0  0  0  0  0  0  0  0  0  0  0  0
   -1.3690    6.1101   -1.9488 C   0  0  0  0  0  0  0  0  0  0  0  0
   -2.4463    6.0030   -1.3953 O   0  0  0  0  0  0  0  0  0  0  0  0
   -0.0705    5.3471    0.0302 C   0  0  0  0  0  0  0  0  0  0  0  0
    0.1717    6.5105    0.9568 C   0  0  0  0  0  0  0  0  0  0  0  0
   -0.8956    7.1383    1.5716 C   0  0  0  0  0  0  0  0  0  0  0  0
   -0.6735    8.2058    2.4213 C   0  0  0  0  0  0  0  0  0  0  0  0
    0.6159    8.6450    2.6569 C   0  0  0  0  0  0  0  0  0  0  0  0
    1.6827    8.0204    2.0384 C   0  0  0  0  0  0  0  0  0  0  0  0
    1.4609    6.9503    1.1918 C   0  0  0  0  0  0  0  0  0  0  0  0
   -3.2854   12.1390   -3.6187 H   0  0  0  0  0  0  0  0  0  0  0  0
   -1.6799   11.3252   -5.2989 H   0  0  0  0  0  0  0  0  0  0  0  0
   -1.2468    8.9114   -5.5202 H   0  0  0  0  0  0  0  0  0  0  0  0
   -4.0322    8.1244   -2.3879 H   0  0  0  0  0  0  0  0  0  0  0  0
   -4.4576   10.5390   -2.1595 H   0  0  0  0  0  0  0  0  0  0  0  0
   -2.0802    6.6643   -5.1325 H   0  0  0  0  0  0  0  0  0  0  0  0
   -3.2396    6.3362   -3.8224 H   0  0  0  0  0  0  0  0  0  0  0  0
   -0.5577    5.3472   -5.3133 H   0  0  0  0  0  0  0  0  0  0  0  0
    1.1902    5.7552   -5.4026 H   0  0  0  0  0  0  0  0  0  0  0  0
    1.9398    2.1933   -4.9499 H   0  0  0  0  0  0  0  0  0  0  0  0
    2.7508    3.7809   -5.1817 H   0  0  0  0  0  0  0  0  0  0  0  0
    2.8812    1.8832   -2.8321 H   0  0  0  0  0  0  0  0  0  0  0  0
    4.1069    3.0237   -3.4090 H   0  0  0  0  0  0  0  0  0  0  0  0
    2.2071    3.3270   -1.2238 H   0  0  0  0  0  0  0  0  0  0  0  0
    3.5772    4.3662   -1.6657 H   0  0  0  0  0  0  0  0  0  0  0  0
    0.7713    4.6569    0.0859 H   0  0  0  0  0  0  0  0  0  0  0  0
   -0.9838    4.8309    0.3261 H   0  0  0  0  0  0  0  0  0  0  0  0
   -1.9029    6.7949    1.3878 H   0  0  0  0  0  0  0  0  0  0  0  0
   -1.5073    8.6965    2.9013 H   0  0  0  0  0  0  0  0  0  0  0  0
    0.7894    9.4790    3.3208 H   0  0  0  0  0  0  0  0  0  0  0  0
    2.6898    8.3663    2.2190 H   0  0  0  0  0  0  0  0  0  0  0  0
    2.2947    6.4601    0.7112 H   0  0  0  0  0  0  0  0  0  0  0  0
  1  6  2  0  0  0  0
  1  2  1  0  0  0  0
  1 30  1  0  0  0  0
  2  3  2  0  0  0  0
  2 31  1  0  0  0  0
  3  4  1  0  0  0  0
  3 32  1  0  0  0  0
  4  5  2  0  0  0  0
  4  7  1  0  0  0  0
  5  6  1  0  0  0  0
  5 33  1  0  0  0  0
  6 34  1  0  0  0  0
  7  8  1  0  0  0  0
  7 35  1  0  0  0  0
  7 36  1  0  0  0  0
  8 21  1  0  0  0  0
  8  9  1  0  0  0  0
  9 10  1  6  0  0  0
  9 18  1  0  0  0  0
  9 11  1  0  0  0  0
 11 37  1  0  0  0  0
 11 38  1  0  0  0  0
 12 11  1  6  0  0  0
 12 16  1  0  0  0  0
 12 13  1  0  0  0  0
 13 14  1  0  0  0  0
 13 39  1  0  0  0  0
 13 40  1  0  0  0  0
 14 15  1  0  0  0  0
 14 41  1  0  0  0  0
 14 42  1  0  0  0  0
 15 16  1  0  0  0  0
 15 43  1  0  0  0  0
 15 44  1  0  0  0  0
 16 17  1  6  0  0  0
 16 18  1  0  0  0  0
 18 19  1  1  0  0  0
 18 20  1  0  0  0  0
 20 21  1  0  0  0  0
 20 23  1  0  0  0  0
 21 22  2  0  0  0  0
 23 24  1  0  0  0  0
 23 45  1  0  0  0  0
 23 46  1  0  0  0  0
 24 29  2  0  0  0  0
 24 25  1  0  0  0  0
 25 26  2  0  0  0  0
 25 47  1  0  0  0  0
 26 27  1  0  0  0  0
 26 48  1  0  0  0  0
 27 28  2  0  0  0  0
 27 49  1  0  0  0  0
 28 29  1  0  0  0  0
 28 50  1  0  0  0  0
 29 51  1  0  0  0  0
M  END
$$$$
