ZINC01530757
 OpenBabel08292219463D

 38 38  0  0  0  0  0  0  0  0999 V2000
    0.1308    1.4503    0.2088 C   0  0  0  0  0  0  0  0  0  0  0  0
    0.0188   -0.0656    0.0344 C   0  0  0  0  0  0  0  0  0  0  0  0
    0.5763   -0.4511   -1.2689 N   0  3  0  0  0  0  0  0  0  0  0  0
    2.0192   -0.1759   -1.2850 C   0  0  0  0  0  0  0  0  0  0  0  0
    2.5730   -0.4396   -2.6866 C   0  0  0  0  0  0  0  0  0  0  0  0
    0.3486   -1.8847   -1.4941 C   0  0  0  0  0  0  0  0  0  0  0  0
   -1.1541   -2.1518   -1.6017 C   0  0  0  0  0  0  0  0  0  0  0  0
   -1.6718   -1.4997   -2.7631 O   0  0  0  0  0  0  0  0  0  0  0  0
   -2.9905   -1.6366   -3.0048 C   0  0  0  0  0  0  0  0  0  0  0  0
   -3.6818   -2.2917   -2.2501 O   0  0  0  0  0  0  0  0  0  0  0  0
   -3.5942   -0.9917   -4.1846 C   0  0  0  0  0  0  0  0  0  0  0  0
   -2.7989   -0.2422   -5.0574 C   0  0  0  0  0  0  0  0  0  0  0  0
   -3.3637    0.3560   -6.1542 C   0  0  0  0  0  0  0  0  0  0  0  0
   -4.7274    0.2184   -6.3994 C   0  0  0  0  0  0  0  0  0  0  0  0
   -5.5220   -0.5271   -5.5325 C   0  0  0  0  0  0  0  0  0  0  0  0
   -4.9626   -1.1327   -4.4369 C   0  0  0  0  0  0  0  0  0  0  0  0
   -5.2969    0.8270   -7.5119 N   0  0  0  0  0  0  0  0  0  0  0  0
    1.1818    1.7320    0.2723 H   0  0  0  0  0  0  0  0  0  0  0  0
   -0.3282    1.9491   -0.6448 H   0  0  0  0  0  0  0  0  0  0  0  0
   -0.3815    1.7496    1.1232 H   0  0  0  0  0  0  0  0  0  0  0  0
    0.5736   -0.5647    0.8289 H   0  0  0  0  0  0  0  0  0  0  0  0
   -1.0295   -0.3604    0.0828 H   0  0  0  0  0  0  0  0  0  0  0  0
    2.1935    0.8657   -1.0154 H   0  0  0  0  0  0  0  0  0  0  0  0
    2.5210   -0.8256   -0.5679 H   0  0  0  0  0  0  0  0  0  0  0  0
    2.4989   -1.5034   -2.9124 H   0  0  0  0  0  0  0  0  0  0  0  0
    1.9971    0.1280   -3.4175 H   0  0  0  0  0  0  0  0  0  0  0  0
    3.6177   -0.1312   -2.7284 H   0  0  0  0  0  0  0  0  0  0  0  0
    0.8389   -2.1896   -2.4187 H   0  0  0  0  0  0  0  0  0  0  0  0
    0.7599   -2.4534   -0.6601 H   0  0  0  0  0  0  0  0  0  0  0  0
   -1.3277   -3.2250   -1.6798 H   0  0  0  0  0  0  0  0  0  0  0  0
   -1.6560   -1.7662   -0.7144 H   0  0  0  0  0  0  0  0  0  0  0  0
   -1.7412   -0.1345   -4.8674 H   0  0  0  0  0  0  0  0  0  0  0  0
   -2.7501    0.9350   -6.8286 H   0  0  0  0  0  0  0  0  0  0  0  0
   -6.5794   -0.6319   -5.7255 H   0  0  0  0  0  0  0  0  0  0  0  0
   -5.5786   -1.7145   -3.7673 H   0  0  0  0  0  0  0  0  0  0  0  0
   -4.7444    1.3469   -8.1164 H   0  0  0  0  0  0  0  0  0  0  0  0
   -6.2468    0.7318   -7.6837 H   0  0  0  0  0  0  0  0  0  0  0  0
    0.1245    0.0799   -1.9983 H   0  0  0  0  0  0  0  0  0  0  0  0
  1  2  1  0  0  0  0
  1 18  1  0  0  0  0
  1 19  1  0  0  0  0
  1 20  1  0  0  0  0
  2  3  1  0  0  0  0
  2 21  1  0  0  0  0
  2 22  1  0  0  0  0
  3  4  1  0  0  0  0
  3  6  1  0  0  0  0
  3 38  1  0  0  0  0
  4  5  1  0  0  0  0
  4 23  1  0  0  0  0
  4 24  1  0  0  0  0
  5 25  1  0  0  0  0
  5 26  1  0  0  0  0
  5 27  1  0  0  0  0
  6  7  1  0  0  0  0
  6 28  1  0  0  0  0
  6 29  1  0  0  0  0
  7  8  1  0  0  0  0
  7 30  1  0  0  0  0
  7 31  1  0  0  0  0
  8  9  1  0  0  0  0
  9 10  2  0  0  0  0
  9 11  1  0  0  0  0
 11 16  2  0  0  0  0
 11 12  1  0  0  0  0
 12 13  2  0  0  0  0
 12 32  1  0  0  0  0
 13 14  1  0  0  0  0
 13 33  1  0  0  0  0
 14 15  2  0  0  0  0
 14 17  1  0  0  0  0
 15 16  1  0  0  0  0
 15 34  1  0  0  0  0
 16 35  1  0  0  0  0
 17 36  1  0  0  0  0
 17 37  1  0  0  0  0
M  CHG  1   3   1
M  END
$$$$
