ZINC00967933
 OpenBabel08292219463D

 59 60  0  0  1  0  0  0  0  0999 V2000
   -0.0187    1.5258    0.0104 C   0  0  0  0  0  0  0  0  0  0  0  0
    0.0021   -0.0041    0.0020 C   0  0  0  0  0  0  0  0  0  0  0  0
   -1.3761   -0.5125    0.0124 N   0  3  0  0  0  0  0  0  0  0  0  0
   -2.0866   -0.0259   -1.1777 C   0  0  0  0  0  0  0  0  0  0  0  0
   -1.3704   -0.5193   -2.4365 C   0  0  0  0  0  0  0  0  0  0  0  0
   -1.3562   -1.9814    0.0044 C   0  0  0  0  0  0  0  0  0  0  0  0
   -2.7915   -2.5110    0.0152 C   0  0  0  0  0  0  0  0  0  0  0  0
   -2.0637   -0.0388    1.2211 C   0  0  0  0  0  0  0  0  0  0  0  0
   -1.3237   -0.5456    2.4606 C   0  0  0  0  0  0  0  0  0  0  0  0
   -2.0398   -0.0522    3.7194 C   0  0  2  0  0  0  0  0  0  0  0  0
   -2.1689    1.4484    3.6683 C   0  0  0  0  0  0  0  0  0  0  0  0
   -1.1713    2.2463    4.1966 C   0  0  0  0  0  0  0  0  0  0  0  0
   -1.2897    3.6228    4.1497 C   0  0  0  0  0  0  0  0  0  0  0  0
   -2.4054    4.2013    3.5742 C   0  0  0  0  0  0  0  0  0  0  0  0
   -3.4026    3.4034    3.0452 C   0  0  0  0  0  0  0  0  0  0  0  0
   -3.2822    2.0270    3.0882 C   0  0  0  0  0  0  0  0  0  0  0  0
   -1.2324   -0.4529    4.9557 C   0  0  0  0  0  0  0  0  0  0  0  0
   -1.1013   -1.9763    5.0075 C   0  0  0  0  0  0  0  0  0  0  0  0
   -0.2939   -2.3770    6.2438 C   0  0  0  0  0  0  0  0  0  0  0  0
   -1.0100   -1.8836    7.5026 C   0  0  0  0  0  0  0  0  0  0  0  0
   -1.1411   -0.3601    7.4508 C   0  0  0  0  0  0  0  0  0  0  0  0
   -1.9485    0.0406    6.2145 C   0  0  0  0  0  0  0  0  0  0  0  0
   -3.3404   -0.6401    3.7888 O   0  0  0  0  0  0  0  0  0  0  0  0
    1.0039    1.9031    0.0027 H   0  0  0  0  0  0  0  0  0  0  0  0
   -0.5459    1.8868   -0.8726 H   0  0  0  0  0  0  0  0  0  0  0  0
   -0.5289    1.8773    0.9072 H   0  0  0  0  0  0  0  0  0  0  0  0
    0.5123   -0.3556   -0.8948 H   0  0  0  0  0  0  0  0  0  0  0  0
    0.5293   -0.3651    0.8851 H   0  0  0  0  0  0  0  0  0  0  0  0
   -3.1092   -0.4032   -1.1699 H   0  0  0  0  0  0  0  0  0  0  0  0
   -2.1013    1.0640   -1.1717 H   0  0  0  0  0  0  0  0  0  0  0  0
   -0.3478   -0.1421   -2.4442 H   0  0  0  0  0  0  0  0  0  0  0  0
   -1.3557   -1.6092   -2.4425 H   0  0  0  0  0  0  0  0  0  0  0  0
   -1.8976   -0.1583   -3.3195 H   0  0  0  0  0  0  0  0  0  0  0  0
   -0.8460   -2.3329   -0.8924 H   0  0  0  0  0  0  0  0  0  0  0  0
   -0.8290   -2.3425    0.8874 H   0  0  0  0  0  0  0  0  0  0  0  0
   -2.7768   -3.6008    0.0092 H   0  0  0  0  0  0  0  0  0  0  0  0
   -3.3017   -2.1594    0.9120 H   0  0  0  0  0  0  0  0  0  0  0  0
   -3.3187   -2.1499   -0.8678 H   0  0  0  0  0  0  0  0  0  0  0  0
   -2.0784    1.0511    1.2271 H   0  0  0  0  0  0  0  0  0  0  0  0
   -3.0863   -0.4161    1.2288 H   0  0  0  0  0  0  0  0  0  0  0  0
   -1.3089   -1.6355    2.4546 H   0  0  0  0  0  0  0  0  0  0  0  0
   -0.3011   -0.1683    2.4529 H   0  0  0  0  0  0  0  0  0  0  0  0
   -0.2996    1.7943    4.6462 H   0  0  0  0  0  0  0  0  0  0  0  0
   -0.5106    4.2461    4.5631 H   0  0  0  0  0  0  0  0  0  0  0  0
   -2.4983    5.2767    3.5383 H   0  0  0  0  0  0  0  0  0  0  0  0
   -4.2745    3.8555    2.5958 H   0  0  0  0  0  0  0  0  0  0  0  0
   -4.0595    1.4037    2.6715 H   0  0  0  0  0  0  0  0  0  0  0  0
   -0.2403   -0.0044    4.9027 H   0  0  0  0  0  0  0  0  0  0  0  0
   -2.0934   -2.4248    5.0605 H   0  0  0  0  0  0  0  0  0  0  0  0
   -0.5911   -2.3279    4.1107 H   0  0  0  0  0  0  0  0  0  0  0  0
   -0.2005   -3.4624    6.2807 H   0  0  0  0  0  0  0  0  0  0  0  0
    0.6982   -1.9286    6.1908 H   0  0  0  0  0  0  0  0  0  0  0  0
   -2.0021   -2.3320    7.5556 H   0  0  0  0  0  0  0  0  0  0  0  0
   -0.4348   -2.1690    8.3834 H   0  0  0  0  0  0  0  0  0  0  0  0
   -1.6513   -0.0086    8.3476 H   0  0  0  0  0  0  0  0  0  0  0  0
   -0.1490    0.0883    7.3978 H   0  0  0  0  0  0  0  0  0  0  0  0
   -2.0419    1.1259    6.1775 H   0  0  0  0  0  0  0  0  0  0  0  0
   -2.9406   -0.4078    6.2675 H   0  0  0  0  0  0  0  0  0  0  0  0
   -3.3339   -1.6064    3.8245 H   0  0  0  0  0  0  0  0  0  0  0  0
  1  2  1  0  0  0  0
  1 24  1  0  0  0  0
  1 25  1  0  0  0  0
  1 26  1  0  0  0  0
  2  3  1  0  0  0  0
  2 27  1  0  0  0  0
  2 28  1  0  0  0  0
  3  4  1  0  0  0  0
  3  6  1  0  0  0  0
  3  8  1  0  0  0  0
  4  5  1  0  0  0  0
  4 29  1  0  0  0  0
  4 30  1  0  0  0  0
  5 31  1  0  0  0  0
  5 32  1  0  0  0  0
  5 33  1  0  0  0  0
  6  7  1  0  0  0  0
  6 34  1  0  0  0  0
  6 35  1  0  0  0  0
  7 36  1  0  0  0  0
  7 37  1  0  0  0  0
  7 38  1  0  0  0  0
  8  9  1  0  0  0  0
  8 39  1  0  0  0  0
  8 40  1  0  0  0  0
  9 10  1  0  0  0  0
  9 41  1  0  0  0  0
  9 42  1  0  0  0  0
 10 11  1  0  0  0  0
 10 17  1  0  0  0  0
 10 23  1  1  0  0  0
 11 16  2  0  0  0  0
 11 12  1  0  0  0  0
 12 13  2  0  0  0  0
 12 43  1  0  0  0  0
 13 14  1  0  0  0  0
 13 44  1  0  0  0  0
 14 15  2  0  0  0  0
 14 45  1  0  0  0  0
 15 16  1  0  0  0  0
 15 46  1  0  0  0  0
 16 47  1  0  0  0  0
 17 22  1  0  0  0  0
 17 18  1  0  0  0  0
 17 48  1  0  0  0  0
 18 19  1  0  0  0  0
 18 49  1  0  0  0  0
 18 50  1  0  0  0  0
 19 20  1  0  0  0  0
 19 51  1  0  0  0  0
 19 52  1  0  0  0  0
 20 21  1  0  0  0  0
 20 53  1  0  0  0  0
 20 54  1  0  0  0  0
 21 22  1  0  0  0  0
 21 55  1  0  0  0  0
 21 56  1  0  0  0  0
 22 57  1  0  0  0  0
 22 58  1  0  0  0  0
 23 59  1  0  0  0  0
M  CHG  1   3   1
M  END
$$$$
