ZINC03873296
 OpenBabel08292219463D

 39 41  0  0  0  0  0  0  0  0999 V2000
   -1.1981    1.7002   -0.5928 C   0  0  0  0  0  0  0  0  0  0  0  0
    0.0066    1.0317   -0.4797 C   0  0  0  0  0  0  0  0  0  0  0  0
    1.1935    1.7396   -0.4855 C   0  0  0  0  0  0  0  0  0  0  0  0
    1.1764    3.1186   -0.5992 C   0  0  0  0  0  0  0  0  0  0  0  0
   -0.0288    3.7885   -0.7066 C   0  0  0  0  0  0  0  0  0  0  0  0
   -1.2167    3.0793   -0.7003 C   0  0  0  0  0  0  0  0  0  0  0  0
   -2.7300    3.9193   -0.8351 Cl  0  0  0  0  0  0  0  0  0  0  0  0
    2.6675    4.0076   -0.6075 Cl  0  0  0  0  0  0  0  0  0  0  0  0
    2.5067    1.0095   -0.3684 C   0  0  0  0  0  0  0  0  0  0  0  0
    2.2607   -0.3802   -0.1440 O   0  0  0  0  0  0  0  0  0  0  0  0
    3.4311   -1.1415    0.0917 N   0  0  0  0  0  0  0  0  0  0  0  0
    3.3531   -2.4271    0.2128 C   0  0  0  0  0  0  0  0  0  0  0  0
    4.6093   -3.2494    0.3422 C   0  0  0  0  0  0  0  0  0  0  0  0
    4.9618   -3.3831    1.7579 N   0  0  0  0  0  0  0  0  0  0  0  0
    5.7686   -2.5431    2.4768 C   0  0  0  0  0  0  0  0  0  0  0  0
    5.8206   -3.0314    3.7308 C   0  0  0  0  0  0  0  0  0  0  0  0
    5.0736   -4.1445    3.7739 N   0  0  0  0  0  0  0  0  0  0  0  0
    4.5560   -4.3614    2.5957 C   0  0  0  0  0  0  0  0  0  0  0  0
    2.0338   -3.0883    0.2243 C   0  0  0  0  0  0  0  0  0  0  0  0
    1.1415   -2.8550    1.2730 C   0  0  0  0  0  0  0  0  0  0  0  0
   -0.0914   -3.4724    1.2759 C   0  0  0  0  0  0  0  0  0  0  0  0
   -0.4425   -4.3308    0.2468 C   0  0  0  0  0  0  0  0  0  0  0  0
    0.4385   -4.5708   -0.7936 C   0  0  0  0  0  0  0  0  0  0  0  0
    1.6743   -3.9552   -0.8111 C   0  0  0  0  0  0  0  0  0  0  0  0
    2.7784   -4.2568   -2.1163 Cl  0  0  0  0  0  0  0  0  0  0  0  0
   -1.9940   -5.1095    0.2624 Cl  0  0  0  0  0  0  0  0  0  0  0  0
   -2.1251    1.1461   -0.5927 H   0  0  0  0  0  0  0  0  0  0  0  0
    0.0205   -0.0446   -0.3913 H   0  0  0  0  0  0  0  0  0  0  0  0
   -0.0426    4.8647   -0.7957 H   0  0  0  0  0  0  0  0  0  0  0  0
    3.0749    1.1338   -1.2903 H   0  0  0  0  0  0  0  0  0  0  0  0
    3.0759    1.4173    0.4670 H   0  0  0  0  0  0  0  0  0  0  0  0
    4.4421   -4.2379   -0.0855 H   0  0  0  0  0  0  0  0  0  0  0  0
    5.4228   -2.7562   -0.1898 H   0  0  0  0  0  0  0  0  0  0  0  0
    6.2660   -1.6575    2.1097 H   0  0  0  0  0  0  0  0  0  0  0  0
    6.3716   -2.6045    4.5558 H   0  0  0  0  0  0  0  0  0  0  0  0
    3.9098   -5.1862    2.3342 H   0  0  0  0  0  0  0  0  0  0  0  0
    1.4151   -2.1893    2.0782 H   0  0  0  0  0  0  0  0  0  0  0  0
   -0.7834   -3.2895    2.0846 H   0  0  0  0  0  0  0  0  0  0  0  0
    0.1589   -5.2411   -1.5929 H   0  0  0  0  0  0  0  0  0  0  0  0
  1  6  2  0  0  0  0
  1  2  1  0  0  0  0
  1 27  1  0  0  0  0
  2  3  2  0  0  0  0
  2 28  1  0  0  0  0
  3  4  1  0  0  0  0
  3  9  1  0  0  0  0
  4  5  2  0  0  0  0
  4  8  1  0  0  0  0
  5  6  1  0  0  0  0
  5 29  1  0  0  0  0
  6  7  1  0  0  0  0
  9 10  1  0  0  0  0
  9 30  1  0  0  0  0
  9 31  1  0  0  0  0
 10 11  1  0  0  0  0
 11 12  2  0  0  0  0
 12 13  1  0  0  0  0
 12 19  1  0  0  0  0
 13 14  1  0  0  0  0
 13 32  1  0  0  0  0
 13 33  1  0  0  0  0
 14 18  1  0  0  0  0
 14 15  1  0  0  0  0
 15 16  2  0  0  0  0
 15 34  1  0  0  0  0
 16 17  1  0  0  0  0
 16 35  1  0  0  0  0
 17 18  2  0  0  0  0
 18 36  1  0  0  0  0
 19 24  2  0  0  0  0
 19 20  1  0  0  0  0
 20 21  2  0  0  0  0
 20 37  1  0  0  0  0
 21 22  1  0  0  0  0
 21 38  1  0  0  0  0
 22 23  2  0  0  0  0
 22 26  1  0  0  0  0
 23 24  1  0  0  0  0
 23 39  1  0  0  0  0
 24 25  1  0  0  0  0
M  END
$$$$
