ZINC00000693
 OpenBabel08292219463D

 27 27  0  0  1  0  0  0  0  0999 V2000
   -0.0187    1.5258    0.0104 C   0  0  0  0  0  0  0  0  0  0  0  0
    0.0021   -0.0041    0.0020 C   0  0  2  0  0  0  0  0  0  0  0  0
    0.7421   -0.5109    1.2415 C   0  0  0  0  0  0  0  0  0  0  0  0
   -0.0298   -0.1295    2.4784 C   0  0  0  0  0  0  0  0  0  0  0  0
    0.2188    1.0795    3.1016 C   0  0  0  0  0  0  0  0  0  0  0  0
   -0.4871    1.4313    4.2358 C   0  0  0  0  0  0  0  0  0  0  0  0
   -1.4464    0.5706    4.7491 C   0  0  0  0  0  0  0  0  0  0  0  0
   -1.6943   -0.6417    4.1217 C   0  0  0  0  0  0  0  0  0  0  0  0
   -0.9894   -0.9865    2.9848 C   0  0  0  0  0  0  0  0  0  0  0  0
   -2.1419    0.9142    5.8650 O   0  0  0  0  0  0  0  0  0  0  0  0
    0.7074   -0.4901   -1.2379 C   0  0  0  0  0  0  0  0  0  0  0  0
    1.8687   -0.1786   -1.4402 O   0  0  0  0  0  0  0  0  0  0  0  0
    0.1168   -1.1947   -2.0386 O   0  0  0  0  0  1  0  0  0  0  0  0
   -1.3761   -0.5125    0.0124 N   0  3  0  0  0  0  0  0  0  0  0  0
    1.0039    1.9031    0.0027 H   0  0  0  0  0  0  0  0  0  0  0  0
   -0.5459    1.8868   -0.8726 H   0  0  0  0  0  0  0  0  0  0  0  0
   -0.5289    1.8773    0.9072 H   0  0  0  0  0  0  0  0  0  0  0  0
    0.8346   -1.5958    1.1912 H   0  0  0  0  0  0  0  0  0  0  0  0
    1.7350   -0.0630    1.2804 H   0  0  0  0  0  0  0  0  0  0  0  0
    0.9658    1.7492    2.7016 H   0  0  0  0  0  0  0  0  0  0  0  0
   -0.2920    2.3754    4.7226 H   0  0  0  0  0  0  0  0  0  0  0  0
   -2.4406   -1.3134    4.5194 H   0  0  0  0  0  0  0  0  0  0  0  0
   -1.1851   -1.9281    2.4934 H   0  0  0  0  0  0  0  0  0  0  0  0
   -2.9585    1.3999    5.6855 H   0  0  0  0  0  0  0  0  0  0  0  0
   -1.8641   -0.1783   -0.8050 H   0  0  0  0  0  0  0  0  0  0  0  0
   -1.3624   -1.5214    0.0069 H   0  0  0  0  0  0  0  0  0  0  0  0
   -1.8484   -0.1871    0.8426 H   0  0  0  0  0  0  0  0  0  0  0  0
  1  2  1  0  0  0  0
  1 15  1  0  0  0  0
  1 16  1  0  0  0  0
  1 17  1  0  0  0  0
  2  3  1  0  0  0  0
  2 11  1  6  0  0  0
  2 14  1  0  0  0  0
  3  4  1  0  0  0  0
  3 18  1  0  0  0  0
  3 19  1  0  0  0  0
  4  9  2  0  0  0  0
  4  5  1  0  0  0  0
  5  6  2  0  0  0  0
  5 20  1  0  0  0  0
  6  7  1  0  0  0  0
  6 21  1  0  0  0  0
  7  8  2  0  0  0  0
  7 10  1  0  0  0  0
  8  9  1  0  0  0  0
  8 22  1  0  0  0  0
  9 23  1  0  0  0  0
 10 24  1  0  0  0  0
 11 12  2  0  0  0  0
 11 13  1  0  0  0  0
 14 25  1  0  0  0  0
 14 26  1  0  0  0  0
 14 27  1  0  0  0  0
M  CHG  1  14   1
M  END
$$$$
