ZINC00001051
 OpenBabel08292219463D

 29 31  0  0  0  0  0  0  0  0999 V2000
   -2.7558    2.5532    4.6781 C   0  0  0  0  0  0  0  0  0  0  0  0
   -2.8629    3.9017    4.9844 C   0  0  0  0  0  0  0  0  0  0  0  0
   -2.2933    4.8372    4.1378 C   0  0  0  0  0  0  0  0  0  0  0  0
   -1.6537    4.4633    3.0498 N   0  0  0  0  0  0  0  0  0  0  0  0
   -1.5289    3.1840    2.7209 C   0  0  0  0  0  0  0  0  0  0  0  0
   -2.0819    2.1891    3.5242 C   0  0  0  0  0  0  0  0  0  0  0  0
   -0.7997    2.8104    1.4846 C   0  0  0  0  0  0  0  0  0  0  0  0
   -0.7017    1.5597    1.2077 N   0  0  0  0  0  0  0  0  0  0  0  0
   -0.0127    1.0858    0.0080 C   0  0  0  0  0  0  0  0  0  0  0  0
   -0.7449    1.5864   -1.2071 C   0  0  0  0  0  0  0  0  0  0  0  0
   -1.2501    0.7850   -1.9643 O   0  0  0  0  0  0  0  0  0  0  0  0
   -0.8530    2.8864   -1.4724 N   0  0  0  0  0  0  0  0  0  0  0  0
   -0.2799    3.9033   -0.7241 C   0  0  0  0  0  0  0  0  0  0  0  0
   -0.2406    3.8995    0.6691 C   0  0  0  0  0  0  0  0  0  0  0  0
    0.3580    4.9752    1.3425 C   0  0  0  0  0  0  0  0  0  0  0  0
    0.9033    6.0247    0.6380 C   0  0  0  0  0  0  0  0  0  0  0  0
    0.8642    6.0246   -0.7470 C   0  0  0  0  0  0  0  0  0  0  0  0
    0.2795    4.9754   -1.4218 C   0  0  0  0  0  0  0  0  0  0  0  0
    1.7055    7.4672    1.5609 Br  0  0  0  0  0  0  0  0  0  0  0  0
   -3.1917    1.8043    5.3227 H   0  0  0  0  0  0  0  0  0  0  0  0
   -3.3852    4.2188    5.8749 H   0  0  0  0  0  0  0  0  0  0  0  0
   -2.3744    5.8880    4.3734 H   0  0  0  0  0  0  0  0  0  0  0  0
   -1.9829    1.1484    3.2530 H   0  0  0  0  0  0  0  0  0  0  0  0
    0.0021   -0.0041    0.0020 H   0  0  0  0  0  0  0  0  0  0  0  0
    1.0093    1.4648    0.0003 H   0  0  0  0  0  0  0  0  0  0  0  0
   -1.3731    3.1422   -2.2502 H   0  0  0  0  0  0  0  0  0  0  0  0
    0.3908    4.9800    2.4220 H   0  0  0  0  0  0  0  0  0  0  0  0
    1.2926    6.8484   -1.2985 H   0  0  0  0  0  0  0  0  0  0  0  0
    0.2534    4.9824   -2.5014 H   0  0  0  0  0  0  0  0  0  0  0  0
  1  6  2  0  0  0  0
  1  2  1  0  0  0  0
  1 20  1  0  0  0  0
  2  3  2  0  0  0  0
  2 21  1  0  0  0  0
  3  4  1  0  0  0  0
  3 22  1  0  0  0  0
  4  5  2  0  0  0  0
  5  6  1  0  0  0  0
  5  7  1  0  0  0  0
  6 23  1  0  0  0  0
  7 14  1  0  0  0  0
  7  8  2  0  0  0  0
  8  9  1  0  0  0  0
  9 10  1  0  0  0  0
  9 24  1  0  0  0  0
  9 25  1  0  0  0  0
 10 11  2  0  0  0  0
 10 12  1  0  0  0  0
 12 13  1  0  0  0  0
 12 26  1  0  0  0  0
 13 18  2  0  0  0  0
 13 14  1  0  0  0  0
 14 15  2  0  0  0  0
 15 16  1  0  0  0  0
 15 27  1  0  0  0  0
 16 17  2  0  0  0  0
 16 19  1  0  0  0  0
 17 18  1  0  0  0  0
 17 28  1  0  0  0  0
 18 29  1  0  0  0  0
M  END
$$$$
