ZINC03787097
 OpenBabel08292219463D

 48 51  0  0  1  0  0  0  0  0999 V2000
    0.0793    1.0829   -0.6846 C   0  0  0  0  0  0  0  0  0  0  0  0
    1.2331    1.7963   -0.3495 C   0  0  0  0  0  0  0  0  0  0  0  0
    1.2180    3.2028   -0.3308 C   0  0  0  0  0  0  0  0  0  0  0  0
    0.0418    3.8733   -0.6491 C   0  0  0  0  0  0  0  0  0  0  0  0
   -1.0947    3.1519   -0.9790 C   0  0  0  0  0  0  0  0  0  0  0  0
   -1.0672    1.7550   -1.0005 C   0  0  0  0  0  0  0  0  0  0  0  0
   -2.1816    1.0657   -1.3295 F   0  0  0  0  0  0  0  0  0  0  0  0
   -2.2724    3.8251   -1.2982 N   0  0  0  0  0  0  0  0  0  0  0  0
   -2.6440    3.5834   -2.6239 C   0  0  0  0  0  0  0  0  0  0  0  0
   -3.8123    4.4916   -3.0658 C   0  0  0  0  0  0  0  0  0  0  0  0
   -5.0984    3.9507   -2.4948 C   0  0  0  0  0  0  0  0  0  0  0  0
   -5.4614    4.5918   -1.1405 C   0  0  0  0  0  0  0  0  0  0  0  0
   -4.2304    4.7551   -0.2327 C   0  0  2  0  0  0  0  0  0  0  0  0
   -3.6721    5.6374   -0.5456 H   0  0  0  0  0  0  0  0  0  0  0  0
   -3.3258    3.5503   -0.3010 C   0  0  0  0  0  0  0  0  0  0  0  0
   -0.0028    5.6087   -0.6327 Cl  0  0  0  0  0  0  0  0  0  0  0  0
    2.3576    3.9067   -0.0008 N   0  0  0  0  0  0  0  0  0  0  0  0
    3.5140    3.3080    0.3126 C   0  0  0  0  0  0  0  0  0  0  0  0
    3.6497    1.9349    0.3286 C   0  0  0  0  0  0  0  0  0  0  0  0
    2.4853    1.1000   -0.0104 C   0  0  0  0  0  0  0  0  0  0  0  0
    2.5552   -0.1169   -0.0108 O   0  0  0  0  0  0  0  0  0  0  0  0
    4.9359    1.3159    0.6775 C   0  0  0  0  0  0  0  0  0  0  0  0
    5.0446    0.1051    0.6886 O   0  0  0  0  0  0  0  0  0  0  0  0
    2.3006    5.3705    0.0066 C   0  0  0  0  0  0  0  0  0  0  0  0
    2.5261    6.0931   -1.3230 C   0  0  0  0  0  0  0  0  0  0  0  0
    3.6062    6.1296   -0.2389 C   0  0  0  0  0  0  0  0  0  0  0  0
    0.0952    0.0031   -0.6981 H   0  0  0  0  0  0  0  0  0  0  0  0
   -1.7870    3.7664   -3.2720 H   0  0  0  0  0  0  0  0  0  0  0  0
   -2.9482    2.5415   -2.7233 H   0  0  0  0  0  0  0  0  0  0  0  0
   -3.6469    5.5039   -2.6972 H   0  0  0  0  0  0  0  0  0  0  0  0
   -3.8722    4.5050   -4.1541 H   0  0  0  0  0  0  0  0  0  0  0  0
   -5.9055    4.1410   -3.2022 H   0  0  0  0  0  0  0  0  0  0  0  0
   -4.9975    2.8741   -2.3574 H   0  0  0  0  0  0  0  0  0  0  0  0
   -5.9026    5.5724   -1.3193 H   0  0  0  0  0  0  0  0  0  0  0  0
   -6.1936    3.9621   -0.6351 H   0  0  0  0  0  0  0  0  0  0  0  0
   -3.9004    2.6750   -0.6039 H   0  0  0  0  0  0  0  0  0  0  0  0
   -2.8725    3.3744    0.6746 H   0  0  0  0  0  0  0  0  0  0  0  0
   -5.2600    5.7586    1.2409 H   0  0  0  0  0  0  0  0  0  0  0  0
   -5.1587    4.1175    1.4907 H   0  0  0  0  0  0  0  0  0  0  0  0
    4.3683    3.9202    0.5613 H   0  0  0  0  0  0  0  0  0  0  0  0
    1.5865    5.8097    0.7033 H   0  0  0  0  0  0  0  0  0  0  0  0
    2.7169    5.4793   -2.2033 H   0  0  0  0  0  0  0  0  0  0  0  0
    1.9607    7.0078   -1.5010 H   0  0  0  0  0  0  0  0  0  0  0  0
    3.7509    7.0683    0.2959 H   0  0  0  0  0  0  0  0  0  0  0  0
    4.5076    5.5398   -0.4056 H   0  0  0  0  0  0  0  0  0  0  0  0
   -4.6561    4.9417    1.1657 N   0  3  0  0  0  0  0  0  0  0  0  0
   -3.8271    5.0826    1.7549 H   0  0  0  0  0  0  0  0  0  0  0  0
    5.9954    2.0906    0.9853 O   0  0  0  0  0  1  0  0  0  0  0  0
  1  6  2  0  0  0  0
  1  2  1  0  0  0  0
  1 27  1  0  0  0  0
  2 20  1  0  0  0  0
  2  3  2  0  0  0  0
  3  4  1  0  0  0  0
  3 17  1  0  0  0  0
  4  5  2  0  0  0  0
  4 16  1  0  0  0  0
  5  6  1  0  0  0  0
  5  8  1  0  0  0  0
  6  7  1  0  0  0  0
  8 15  1  0  0  0  0
  8  9  1  0  0  0  0
  9 10  1  0  0  0  0
  9 28  1  0  0  0  0
  9 29  1  0  0  0  0
 10 11  1  0  0  0  0
 10 30  1  0  0  0  0
 10 31  1  0  0  0  0
 11 12  1  0  0  0  0
 11 32  1  0  0  0  0
 11 33  1  0  0  0  0
 12 13  1  0  0  0  0
 12 34  1  0  0  0  0
 12 35  1  0  0  0  0
 13 14  1  6  0  0  0
 13 15  1  0  0  0  0
 13 46  1  0  0  0  0
 15 36  1  0  0  0  0
 15 37  1  0  0  0  0
 17 18  1  0  0  0  0
 17 24  1  0  0  0  0
 18 19  2  0  0  0  0
 18 40  1  0  0  0  0
 19 20  1  0  0  0  0
 19 22  1  0  0  0  0
 20 21  2  0  0  0  0
 22 23  2  0  0  0  0
 22 48  1  0  0  0  0
 24 26  1  0  0  0  0
 24 25  1  0  0  0  0
 24 41  1  0  0  0  0
 25 26  1  0  0  0  0
 25 42  1  0  0  0  0
 25 43  1  0  0  0  0
 26 44  1  0  0  0  0
 26 45  1  0  0  0  0
 38 46  1  0  0  0  0
 39 46  1  0  0  0  0
 46 47  1  0  0  0  0
M  CHG  1  46   1
M  END
$$$$
