ZINC03806104
 OpenBabel08292219463D

 66 67  0  0  1  0  0  0  0  0999 V2000
   -0.0187    1.5258    0.0104 C   0  0  0  0  0  0  0  0  0  0  0  0
    0.0021   -0.0041    0.0020 C   0  0  0  0  0  0  0  0  0  0  0  0
    0.7421   -0.5109    1.2415 C   0  0  0  0  0  0  0  0  0  0  0  0
    0.7628   -2.0407    1.2331 C   0  0  0  0  0  0  0  0  0  0  0  0
    1.6402   -2.6417    2.7027 S   0  0  0  0  0  0  0  0  0  0  0  0
    3.0192   -2.3092    2.6195 O   0  0  0  0  0  0  0  0  0  0  0  0
    0.8928   -2.3449    3.8744 O   0  0  0  0  0  0  0  0  0  0  0  0
    1.5954   -4.2925    2.5798 N   0  0  0  0  0  0  0  0  0  0  0  0
    2.2935   -4.9644    1.4810 C   0  0  1  0  0  0  0  0  0  0  0  0
    3.1099   -4.3335    1.1295 H   0  0  0  0  0  0  0  0  0  0  0  0
    2.8563   -6.2988    1.9746 C   0  0  0  0  0  0  0  0  0  0  0  0
    3.9112   -6.0431    3.0200 C   0  0  0  0  0  0  0  0  0  0  0  0
    5.2318   -5.8831    2.6432 C   0  0  0  0  0  0  0  0  0  0  0  0
    6.2007   -5.6491    3.5997 C   0  0  0  0  0  0  0  0  0  0  0  0
    5.8476   -5.5743    4.9392 C   0  0  0  0  0  0  0  0  0  0  0  0
    4.5218   -5.7347    5.3147 C   0  0  0  0  0  0  0  0  0  0  0  0
    3.5558   -5.9634    4.3539 C   0  0  0  0  0  0  0  0  0  0  0  0
    6.7990   -5.3447    5.8821 O   0  0  0  0  0  0  0  0  0  0  0  0
    6.3630   -5.2802    7.2414 C   0  0  0  0  0  0  0  0  0  0  0  0
    7.5650   -5.0168    8.1506 C   0  0  0  0  0  0  0  0  0  0  0  0
    7.0982   -4.9477    9.6061 C   0  0  0  0  0  0  0  0  0  0  0  0
    8.3002   -4.6843   10.5153 C   0  0  0  0  0  0  0  0  0  0  0  0
    7.8334   -4.6153   11.9707 C   0  0  0  0  0  0  0  0  0  0  0  0
    6.9210   -3.3998   12.1587 C   0  0  0  0  0  0  0  0  0  0  0  0
    6.5221   -3.2914   13.6320 C   0  0  0  0  0  0  0  0  0  0  0  0
    7.7252   -3.1344   14.4581 N   0  3  0  0  0  0  0  0  0  0  0  0
    8.5709   -4.3281   14.3383 C   0  0  0  0  0  0  0  0  0  0  0  0
    9.0486   -4.4765   12.8922 C   0  0  0  0  0  0  0  0  0  0  0  0
    1.3286   -5.2135    0.3505 C   0  0  0  0  0  0  0  0  0  0  0  0
    0.1656   -4.8624    0.4531 O   0  0  0  0  0  0  0  0  0  0  0  0
    1.7110   -5.7662   -0.6667 O   0  0  0  0  0  1  0  0  0  0  0  0
    1.0039    1.9031    0.0027 H   0  0  0  0  0  0  0  0  0  0  0  0
   -0.5459    1.8868   -0.8726 H   0  0  0  0  0  0  0  0  0  0  0  0
   -0.5289    1.8773    0.9072 H   0  0  0  0  0  0  0  0  0  0  0  0
   -1.0205   -0.3814    0.0098 H   0  0  0  0  0  0  0  0  0  0  0  0
    0.5123   -0.3556   -0.8948 H   0  0  0  0  0  0  0  0  0  0  0  0
    1.7647   -0.1336    1.2338 H   0  0  0  0  0  0  0  0  0  0  0  0
    0.2319   -0.1594    2.1383 H   0  0  0  0  0  0  0  0  0  0  0  0
   -0.2598   -2.4180    1.2409 H   0  0  0  0  0  0  0  0  0  0  0  0
    1.2730   -2.3923    0.3363 H   0  0  0  0  0  0  0  0  0  0  0  0
    1.1068   -4.8146    3.2353 H   0  0  0  0  0  0  0  0  0  0  0  0
    2.0525   -6.8942    2.4075 H   0  0  0  0  0  0  0  0  0  0  0  0
    3.2981   -6.8388    1.1371 H   0  0  0  0  0  0  0  0  0  0  0  0
    5.5062   -5.9414    1.6003 H   0  0  0  0  0  0  0  0  0  0  0  0
    7.2323   -5.5249    3.3049 H   0  0  0  0  0  0  0  0  0  0  0  0
    4.2444   -5.6770    6.3569 H   0  0  0  0  0  0  0  0  0  0  0  0
    2.5229   -6.0840    4.6452 H   0  0  0  0  0  0  0  0  0  0  0  0
    5.6392   -4.4728    7.3530 H   0  0  0  0  0  0  0  0  0  0  0  0
    5.8978   -6.2260    7.5190 H   0  0  0  0  0  0  0  0  0  0  0  0
    8.2888   -5.8241    8.0391 H   0  0  0  0  0  0  0  0  0  0  0  0
    8.0302   -4.0709    7.8730 H   0  0  0  0  0  0  0  0  0  0  0  0
    6.3744   -4.1404    9.7176 H   0  0  0  0  0  0  0  0  0  0  0  0
    6.6330   -5.8936    9.8837 H   0  0  0  0  0  0  0  0  0  0  0  0
    9.0240   -5.4917   10.4037 H   0  0  0  0  0  0  0  0  0  0  0  0
    8.7654   -3.7385   10.2376 H   0  0  0  0  0  0  0  0  0  0  0  0
    7.2874   -5.5247   12.2218 H   0  0  0  0  0  0  0  0  0  0  0  0
    7.4515   -2.4964   11.8578 H   0  0  0  0  0  0  0  0  0  0  0  0
    6.0264   -3.5181   11.5472 H   0  0  0  0  0  0  0  0  0  0  0  0
    5.8723   -2.4271   13.7694 H   0  0  0  0  0  0  0  0  0  0  0  0
    5.9915   -4.1951   13.9318 H   0  0  0  0  0  0  0  0  0  0  0  0
    8.2417   -2.3250   14.1478 H   0  0  0  0  0  0  0  0  0  0  0  0
    9.4336   -4.2293   14.9971 H   0  0  0  0  0  0  0  0  0  0  0  0
    7.9966   -5.2097   14.6230 H   0  0  0  0  0  0  0  0  0  0  0  0
    9.6748   -5.3643   12.8050 H   0  0  0  0  0  0  0  0  0  0  0  0
    9.6233   -3.5954   12.6065 H   0  0  0  0  0  0  0  0  0  0  0  0
    7.4559   -3.0096   15.4224 H   0  0  0  0  0  0  0  0  0  0  0  0
  1  2  1  0  0  0  0
  1 32  1  0  0  0  0
  1 33  1  0  0  0  0
  1 34  1  0  0  0  0
  2  3  1  0  0  0  0
  2 35  1  0  0  0  0
  2 36  1  0  0  0  0
  3  4  1  0  0  0  0
  3 37  1  0  0  0  0
  3 38  1  0  0  0  0
  4  5  1  0  0  0  0
  4 39  1  0  0  0  0
  4 40  1  0  0  0  0
  5  6  2  0  0  0  0
  5  7  2  0  0  0  0
  5  8  1  0  0  0  0
  8  9  1  0  0  0  0
  8 41  1  0  0  0  0
  9 10  1  6  0  0  0
  9 11  1  0  0  0  0
  9 29  1  0  0  0  0
 11 12  1  0  0  0  0
 11 42  1  0  0  0  0
 11 43  1  0  0  0  0
 12 17  2  0  0  0  0
 12 13  1  0  0  0  0
 13 14  2  0  0  0  0
 13 44  1  0  0  0  0
 14 15  1  0  0  0  0
 14 45  1  0  0  0  0
 15 16  2  0  0  0  0
 15 18  1  0  0  0  0
 16 17  1  0  0  0  0
 16 46  1  0  0  0  0
 17 47  1  0  0  0  0
 18 19  1  0  0  0  0
 19 20  1  0  0  0  0
 19 48  1  0  0  0  0
 19 49  1  0  0  0  0
 20 21  1  0  0  0  0
 20 50  1  0  0  0  0
 20 51  1  0  0  0  0
 21 22  1  0  0  0  0
 21 52  1  0  0  0  0
 21 53  1  0  0  0  0
 22 23  1  0  0  0  0
 22 54  1  0  0  0  0
 22 55  1  0  0  0  0
 23 28  1  0  0  0  0
 23 24  1  0  0  0  0
 23 56  1  0  0  0  0
 24 25  1  0  0  0  0
 24 57  1  0  0  0  0
 24 58  1  0  0  0  0
 25 26  1  0  0  0  0
 25 59  1  0  0  0  0
 25 60  1  0  0  0  0
 26 27  1  0  0  0  0
 26 61  1  0  0  0  0
 26 66  1  0  0  0  0
 27 28  1  0  0  0  0
 27 62  1  0  0  0  0
 27 63  1  0  0  0  0
 28 64  1  0  0  0  0
 28 65  1  0  0  0  0
 29 30  2  0  0  0  0
 29 31  1  0  0  0  0
M  CHG  1  26   1
M  END
$$$$
