ZINC05459680
 OpenBabel08292219463D

 61 64  0  0  1  0  0  0  0  0999 V2000
   -1.9118   -1.4611    3.8188 C   0  0  0  0  0  0  0  0  0  0  0  0
   -1.0489   -0.3685    3.1844 C   0  0  0  0  0  0  0  0  0  0  0  0
   -1.8870    0.4429    2.2303 C   0  0  0  0  0  0  0  0  0  0  0  0
   -3.0541    0.1750    2.0739 O   0  0  0  0  0  0  0  0  0  0  0  0
   -1.2687    1.5888    1.4714 C   0  0  1  0  0  0  0  0  0  0  0  0
    0.2016    1.2518    1.1068 C   0  0  1  0  0  0  0  0  0  0  0  0
    0.4009    0.1973    1.2951 H   0  0  0  0  0  0  0  0  0  0  0  0
    0.3658    1.5640   -0.4073 C   0  0  0  0  0  0  0  0  0  0  0  0
   -0.8570    2.4364   -0.7088 C   0  0  2  0  0  0  0  0  0  0  0  0
   -0.6627    3.4311   -0.2485 H   0  0  0  0  0  0  0  0  0  0  0  0
   -1.9627    1.7354    0.1044 C   0  0  2  0  0  0  0  0  0  0  0  0
   -3.2254    2.5537    0.0669 C   0  0  0  0  0  0  0  0  0  0  0  0
   -3.6525    2.8124   -1.3937 C   0  0  1  0  0  0  0  0  0  0  0  0
   -4.5066    3.5084   -1.3273 H   0  0  0  0  0  0  0  0  0  0  0  0
   -2.5498    3.4604   -2.1947 C   0  0  1  0  0  0  0  0  0  0  0  0
   -2.3303    4.4185   -1.6659 H   0  0  0  0  0  0  0  0  0  0  0  0
   -1.2260    2.6848   -2.1357 C   0  0  2  0  0  0  0  0  0  0  0  0
   -0.4501    3.3480   -2.5742 H   0  0  0  0  0  0  0  0  0  0  0  0
   -1.3291    1.4533   -3.0242 C   0  0  0  0  0  0  0  0  0  0  0  0
   -1.3010    1.9205   -4.4820 C   0  0  0  0  0  0  0  0  0  0  0  0
   -2.1201    3.1663   -4.6786 C   0  0  0  0  0  0  0  0  0  0  0  0
   -2.1283    3.6776   -5.9290 C   0  0  0  0  0  0  0  0  0  0  0  0
   -2.8421    4.9566   -6.1464 C   0  0  0  0  0  0  0  0  0  0  0  0
   -3.3854    5.2238   -7.2088 O   0  0  0  0  0  0  0  0  0  0  0  0
   -2.8613    5.8941   -4.9977 C   0  0  0  0  0  0  0  0  0  0  0  0
   -2.8354    5.3703   -3.7647 C   0  0  0  0  0  0  0  0  0  0  0  0
   -2.8717    3.8719   -3.6033 C   0  0  2  0  0  0  0  0  0  0  0  0
   -4.3376    3.5301   -3.8693 C   0  0  0  0  0  0  0  0  0  0  0  0
   -4.1225    1.5973   -1.9628 O   0  0  0  0  0  0  0  0  0  0  0  0
   -2.2242    0.3036   -0.3787 C   0  0  0  0  0  0  0  0  0  0  0  0
    1.1572    2.1201    1.9272 C   0  0  0  0  0  0  0  0  0  0  0  0
   -1.3388    2.8721    2.2875 C   0  0  0  0  0  0  0  0  0  0  0  0
   -2.7383   -1.0021    4.3613 H   0  0  0  0  0  0  0  0  0  0  0  0
   -2.3063   -2.1116    3.0382 H   0  0  0  0  0  0  0  0  0  0  0  0
   -1.3056   -2.0480    4.5089 H   0  0  0  0  0  0  0  0  0  0  0  0
   -0.2906   -0.7896    2.6867 H   0  0  0  0  0  0  0  0  0  0  0  0
   -0.6544    0.2820    3.9650 H   0  0  0  0  0  0  0  0  0  0  0  0
    1.2865    2.1284   -0.5797 H   0  0  0  0  0  0  0  0  0  0  0  0
    0.3697    0.6541   -0.9996 H   0  0  0  0  0  0  0  0  0  0  0  0
   -4.0341    2.0220    0.5806 H   0  0  0  0  0  0  0  0  0  0  0  0
   -3.0852    3.5254    0.5488 H   0  0  0  0  0  0  0  0  0  0  0  0
   -0.4803    0.7865   -2.8463 H   0  0  0  0  0  0  0  0  0  0  0  0
   -2.2571    0.9093   -2.8593 H   0  0  0  0  0  0  0  0  0  0  0  0
   -1.6968    1.1300   -5.1194 H   0  0  0  0  0  0  0  0  0  0  0  0
   -0.2690    2.1279   -4.7699 H   0  0  0  0  0  0  0  0  0  0  0  0
   -1.6251    3.1620   -6.7457 H   0  0  0  0  0  0  0  0  0  0  0  0
   -2.8957    6.9723   -5.1526 H   0  0  0  0  0  0  0  0  0  0  0  0
   -2.7877    6.0102   -2.8868 H   0  0  0  0  0  0  0  0  0  0  0  0
   -4.9702    4.0699   -3.1647 H   0  0  0  0  0  0  0  0  0  0  0  0
   -4.5991    3.8190   -4.8873 H   0  0  0  0  0  0  0  0  0  0  0  0
   -4.4889    2.4578   -3.7457 H   0  0  0  0  0  0  0  0  0  0  0  0
   -4.8296    1.1737   -1.4571 H   0  0  0  0  0  0  0  0  0  0  0  0
   -2.9950   -0.1539    0.2414 H   0  0  0  0  0  0  0  0  0  0  0  0
   -2.5578    0.3254   -1.4161 H   0  0  0  0  0  0  0  0  0  0  0  0
   -1.3055   -0.2782   -0.3046 H   0  0  0  0  0  0  0  0  0  0  0  0
    1.0079    1.9218    2.9885 H   0  0  0  0  0  0  0  0  0  0  0  0
    2.1861    1.8852    1.6548 H   0  0  0  0  0  0  0  0  0  0  0  0
    0.9584    3.1722    1.7227 H   0  0  0  0  0  0  0  0  0  0  0  0
   -0.8984    3.6900    1.7172 H   0  0  0  0  0  0  0  0  0  0  0  0
   -2.3802    3.1043    2.5107 H   0  0  0  0  0  0  0  0  0  0  0  0
   -0.7882    2.7409    3.2190 H   0  0  0  0  0  0  0  0  0  0  0  0
  1  2  1  0  0  0  0
  1 33  1  0  0  0  0
  1 34  1  0  0  0  0
  1 35  1  0  0  0  0
  2  3  1  0  0  0  0
  2 36  1  0  0  0  0
  2 37  1  0  0  0  0
  3  4  2  0  0  0  0
  5  3  1  1  0  0  0
  5 11  1  0  0  0  0
  5  6  1  0  0  0  0
  5 32  1  0  0  0  0
  6  7  1  1  0  0  0
  6  8  1  0  0  0  0
  6 31  1  0  0  0  0
  8  9  1  0  0  0  0
  8 38  1  0  0  0  0
  8 39  1  0  0  0  0
  9 10  1  1  0  0  0
  9 17  1  0  0  0  0
  9 11  1  0  0  0  0
 11 12  1  0  0  0  0
 11 30  1  6  0  0  0
 12 13  1  0  0  0  0
 12 40  1  0  0  0  0
 12 41  1  0  0  0  0
 13 14  1  1  0  0  0
 13 15  1  0  0  0  0
 13 29  1  0  0  0  0
 15 16  1  1  0  0  0
 15 27  1  0  0  0  0
 15 17  1  0  0  0  0
 17 18  1  6  0  0  0
 17 19  1  0  0  0  0
 19 20  1  0  0  0  0
 19 42  1  0  0  0  0
 19 43  1  0  0  0  0
 20 21  1  0  0  0  0
 20 44  1  0  0  0  0
 20 45  1  0  0  0  0
 21 27  1  0  0  0  0
 21 22  2  0  0  0  0
 22 23  1  0  0  0  0
 22 46  1  0  0  0  0
 23 24  2  0  0  0  0
 23 25  1  0  0  0  0
 25 26  2  0  0  0  0
 25 47  1  0  0  0  0
 26 27  1  0  0  0  0
 26 48  1  0  0  0  0
 27 28  1  6  0  0  0
 28 49  1  0  0  0  0
 28 50  1  0  0  0  0
 28 51  1  0  0  0  0
 29 52  1  0  0  0  0
 30 53  1  0  0  0  0
 30 54  1  0  0  0  0
 30 55  1  0  0  0  0
 31 56  1  0  0  0  0
 31 57  1  0  0  0  0
 31 58  1  0  0  0  0
 32 59  1  0  0  0  0
 32 60  1  0  0  0  0
 32 61  1  0  0  0  0
M  END
$$$$
