ZINC03943279
 OpenBabel08292219463D

 87 90  0  0  0  0  0  0  0  0999 V2000
    2.4022    0.7769   -6.4418 C   0  0  0  0  0  0  0  0  0  0  0  0
    2.2429   -0.5705   -5.7346 C   0  0  0  0  0  0  0  0  0  0  0  0
    1.0833   -0.4904   -4.7397 C   0  0  0  0  0  0  0  0  0  0  0  0
    0.9240   -1.8378   -4.0326 C   0  0  0  0  0  0  0  0  0  0  0  0
   -0.2356   -1.7577   -3.0377 C   0  0  0  0  0  0  0  0  0  0  0  0
   -0.3949   -3.1051   -2.3305 C   0  0  0  0  0  0  0  0  0  0  0  0
   -1.4779   -3.0303   -1.4013 O   0  0  0  0  0  0  0  0  0  0  0  0
   -1.7528   -4.1436   -0.6899 C   0  0  0  0  0  0  0  0  0  0  0  0
   -1.0896   -5.1507   -0.8552 O   0  0  0  0  0  0  0  0  0  0  0  0
   -2.7558   -4.1403    0.1984 N   0  0  0  0  0  0  0  0  0  0  0  0
   -3.0800   -5.2549    0.8346 C   0  0  0  0  0  0  0  0  0  0  0  0
   -2.2294   -6.4504    0.7059 C   0  0  0  0  0  0  0  0  0  0  0  0
   -0.9155   -6.4312    1.1863 C   0  0  0  0  0  0  0  0  0  0  0  0
   -0.1266   -7.5458    1.0648 C   0  0  0  0  0  0  0  0  0  0  0  0
   -0.6314   -8.6960    0.4638 C   0  0  0  0  0  0  0  0  0  0  0  0
   -1.9387   -8.7188   -0.0155 C   0  0  0  0  0  0  0  0  0  0  0  0
   -2.7353   -7.6099    0.1082 C   0  0  0  0  0  0  0  0  0  0  0  0
    0.1717   -9.8240    0.3415 N   0  0  0  0  0  0  0  0  0  0  0  0
   -0.3576  -11.0351   -0.2905 C   0  0  0  0  0  0  0  0  0  0  0  0
    0.7051  -12.1035   -0.2977 C   0  0  0  0  0  0  0  0  0  0  0  0
    1.5754  -12.2821   -1.2476 N   0  0  0  0  0  0  0  0  0  0  0  0
    2.3826  -13.3290   -0.9341 C   0  0  0  0  0  0  0  0  0  0  0  0
    3.4574  -13.9392   -1.5790 C   0  0  0  0  0  0  0  0  0  0  0  0
    4.0914  -15.0226   -0.9788 C   0  0  0  0  0  0  0  0  0  0  0  0
    3.6518  -15.4959    0.2650 C   0  0  0  0  0  0  0  0  0  0  0  0
    2.6001  -14.9015    0.8987 C   0  0  0  0  0  0  0  0  0  0  0  0
    1.9546  -13.8172    0.3140 C   0  0  0  0  0  0  0  0  0  0  0  0
    0.8974  -13.0181    0.6916 N   0  0  0  0  0  0  0  0  0  0  0  0
    0.1208  -13.1342    1.9284 C   0  0  0  0  0  0  0  0  0  0  0  0
    5.2303  -15.6757   -1.6543 C   0  0  0  0  0  0  0  0  0  0  0  0
    5.2677  -15.7290   -2.8683 O   0  0  0  0  0  0  0  0  0  0  0  0
    6.2284  -16.2128   -0.9251 N   0  0  0  0  0  0  0  0  0  0  0  0
    6.1081  -16.2954    0.5326 C   0  0  0  0  0  0  0  0  0  0  0  0
    5.7344  -17.7239    0.9334 C   0  0  0  0  0  0  0  0  0  0  0  0
    5.6106  -17.8088    2.4329 C   0  0  0  0  0  0  0  0  0  0  0  0
    5.8018  -16.8275    3.1114 O   0  0  0  0  0  0  0  0  0  0  0  0
    5.2881  -18.9747    3.0147 O   0  0  0  0  0  0  0  0  0  0  0  0
    5.1881  -18.9825    4.4402 C   0  0  0  0  0  0  0  0  0  0  0  0
    4.8149  -20.3874    4.9175 C   0  0  0  0  0  0  0  0  0  0  0  0
    7.3745  -16.6895   -1.5576 C   0  0  0  0  0  0  0  0  0  0  0  0
    7.6434  -16.3155   -2.8698 C   0  0  0  0  0  0  0  0  0  0  0  0
    8.7853  -16.7958   -3.4857 C   0  0  0  0  0  0  0  0  0  0  0  0
    9.6227  -17.6370   -2.7654 C   0  0  0  0  0  0  0  0  0  0  0  0
    9.2939  -17.9671   -1.4656 C   0  0  0  0  0  0  0  0  0  0  0  0
    8.2005  -17.4897   -0.9023 N   0  0  0  0  0  0  0  0  0  0  0  0
   -4.2042   -5.2963    1.6109 N   0  0  0  0  0  0  0  0  0  0  0  0
    3.2283    0.7198   -7.1506 H   0  0  0  0  0  0  0  0  0  0  0  0
    1.4824    1.0186   -6.9745 H   0  0  0  0  0  0  0  0  0  0  0  0
    2.6093    1.5521   -5.7041 H   0  0  0  0  0  0  0  0  0  0  0  0
    2.0358   -1.3458   -6.4723 H   0  0  0  0  0  0  0  0  0  0  0  0
    3.1626   -0.8123   -5.2019 H   0  0  0  0  0  0  0  0  0  0  0  0
    1.2904    0.2848   -4.0020 H   0  0  0  0  0  0  0  0  0  0  0  0
    0.1636   -0.2487   -5.2724 H   0  0  0  0  0  0  0  0  0  0  0  0
    0.7169   -2.6131   -4.7703 H   0  0  0  0  0  0  0  0  0  0  0  0
    1.8437   -2.0795   -3.4999 H   0  0  0  0  0  0  0  0  0  0  0  0
   -0.0285   -0.9824   -2.3000 H   0  0  0  0  0  0  0  0  0  0  0  0
   -1.1553   -1.5160   -3.5704 H   0  0  0  0  0  0  0  0  0  0  0  0
   -0.6020   -3.8803   -3.0682 H   0  0  0  0  0  0  0  0  0  0  0  0
    0.5249   -3.3468   -1.7978 H   0  0  0  0  0  0  0  0  0  0  0  0
   -0.5231   -5.5392    1.6519 H   0  0  0  0  0  0  0  0  0  0  0  0
    0.8878   -7.5316    1.4354 H   0  0  0  0  0  0  0  0  0  0  0  0
   -2.3268   -9.6125   -0.4814 H   0  0  0  0  0  0  0  0  0  0  0  0
   -3.7506   -7.6299   -0.2593 H   0  0  0  0  0  0  0  0  0  0  0  0
    1.0826   -9.8093    0.6746 H   0  0  0  0  0  0  0  0  0  0  0  0
   -1.2239  -11.3880    0.2690 H   0  0  0  0  0  0  0  0  0  0  0  0
   -0.6539  -10.8104   -1.3152 H   0  0  0  0  0  0  0  0  0  0  0  0
    3.7952  -13.5739   -2.5376 H   0  0  0  0  0  0  0  0  0  0  0  0
    4.1489  -16.3373    0.7247 H   0  0  0  0  0  0  0  0  0  0  0  0
    2.2680  -15.2737    1.8566 H   0  0  0  0  0  0  0  0  0  0  0  0
   -0.7216  -13.8067    1.7668 H   0  0  0  0  0  0  0  0  0  0  0  0
    0.7560  -13.5312    2.7203 H   0  0  0  0  0  0  0  0  0  0  0  0
   -0.2497  -12.1510    2.2184 H   0  0  0  0  0  0  0  0  0  0  0  0
    7.0595  -16.0264    0.9915 H   0  0  0  0  0  0  0  0  0  0  0  0
    5.3335  -15.6081    0.8727 H   0  0  0  0  0  0  0  0  0  0  0  0
    4.7830  -17.9929    0.4745 H   0  0  0  0  0  0  0  0  0  0  0  0
    6.5090  -18.4111    0.5932 H   0  0  0  0  0  0  0  0  0  0  0  0
    6.1460  -18.6942    4.8732 H   0  0  0  0  0  0  0  0  0  0  0  0
    4.4200  -18.2760    4.7544 H   0  0  0  0  0  0  0  0  0  0  0  0
    4.7386  -20.3934    6.0048 H   0  0  0  0  0  0  0  0  0  0  0  0
    3.8570  -20.6757    4.4845 H   0  0  0  0  0  0  0  0  0  0  0  0
    5.5830  -21.0940    4.6032 H   0  0  0  0  0  0  0  0  0  0  0  0
    6.9698  -15.6594   -3.4009 H   0  0  0  0  0  0  0  0  0  0  0  0
    9.0199  -16.5228   -4.5040 H   0  0  0  0  0  0  0  0  0  0  0  0
   10.5218  -18.0294   -3.2171 H   0  0  0  0  0  0  0  0  0  0  0  0
    9.9420  -18.6214   -0.9016 H   0  0  0  0  0  0  0  0  0  0  0  0
   -4.7644   -4.5089    1.6956 H   0  0  0  0  0  0  0  0  0  0  0  0
   -4.4419   -6.1130    2.0771 H   0  0  0  0  0  0  0  0  0  0  0  0
  1  2  1  0  0  0  0
  1 47  1  0  0  0  0
  1 48  1  0  0  0  0
  1 49  1  0  0  0  0
  2  3  1  0  0  0  0
  2 50  1  0  0  0  0
  2 51  1  0  0  0  0
  3  4  1  0  0  0  0
  3 52  1  0  0  0  0
  3 53  1  0  0  0  0
  4  5  1  0  0  0  0
  4 54  1  0  0  0  0
  4 55  1  0  0  0  0
  5  6  1  0  0  0  0
  5 56  1  0  0  0  0
  5 57  1  0  0  0  0
  6  7  1  0  0  0  0
  6 58  1  0  0  0  0
  6 59  1  0  0  0  0
  7  8  1  0  0  0  0
  8  9  2  0  0  0  0
  8 10  1  0  0  0  0
 10 11  2  0  0  0  0
 11 12  1  0  0  0  0
 11 46  1  0  0  0  0
 12 17  2  0  0  0  0
 12 13  1  0  0  0  0
 13 14  2  0  0  0  0
 13 60  1  0  0  0  0
 14 15  1  0  0  0  0
 14 61  1  0  0  0  0
 15 16  2  0  0  0  0
 15 18  1  0  0  0  0
 16 17  1  0  0  0  0
 16 62  1  0  0  0  0
 17 63  1  0  0  0  0
 18 19  1  0  0  0  0
 18 64  1  0  0  0  0
 19 20  1  0  0  0  0
 19 65  1  0  0  0  0
 19 66  1  0  0  0  0
 20 28  1  0  0  0  0
 20 21  2  0  0  0  0
 21 22  1  0  0  0  0
 22 27  2  0  0  0  0
 22 23  1  0  0  0  0
 23 24  2  0  0  0  0
 23 67  1  0  0  0  0
 24 25  1  0  0  0  0
 24 30  1  0  0  0  0
 25 26  2  0  0  0  0
 25 68  1  0  0  0  0
 26 27  1  0  0  0  0
 26 69  1  0  0  0  0
 27 28  1  0  0  0  0
 28 29  1  0  0  0  0
 29 70  1  0  0  0  0
 29 71  1  0  0  0  0
 29 72  1  0  0  0  0
 30 31  2  0  0  0  0
 30 32  1  0  0  0  0
 32 33  1  0  0  0  0
 32 40  1  0  0  0  0
 33 34  1  0  0  0  0
 33 73  1  0  0  0  0
 33 74  1  0  0  0  0
 34 35  1  0  0  0  0
 34 75  1  0  0  0  0
 34 76  1  0  0  0  0
 35 36  2  0  0  0  0
 35 37  1  0  0  0  0
 37 38  1  0  0  0  0
 38 39  1  0  0  0  0
 38 77  1  0  0  0  0
 38 78  1  0  0  0  0
 39 79  1  0  0  0  0
 39 80  1  0  0  0  0
 39 81  1  0  0  0  0
 40 45  2  0  0  0  0
 40 41  1  0  0  0  0
 41 42  2  0  0  0  0
 41 82  1  0  0  0  0
 42 43  1  0  0  0  0
 42 83  1  0  0  0  0
 43 44  2  0  0  0  0
 43 84  1  0  0  0  0
 44 45  1  0  0  0  0
 44 85  1  0  0  0  0
 46 86  1  0  0  0  0
 46 87  1  0  0  0  0
M  END
$$$$
