ZINC05179119
 OpenBabel08292219463D

 23 23  0  0  0  0  0  0  0  0999 V2000
   -0.0184    1.5028    0.0103 C   0  0  0  0  0  0  0  0  0  0  0  0
    0.0021   -0.0041    0.0020 C   0  0  0  0  0  0  0  0  0  0  0  0
    0.0215   -0.6552    1.1159 N   0  0  0  0  0  0  0  0  0  0  0  0
    0.0440   -2.3110    1.1068 S   0  0  0  0  0  0  0  0  0  0  0  0
   -1.2010   -2.7311    0.5656 O   0  0  0  0  0  0  0  0  0  0  0  0
    1.2894   -2.6972    0.5420 O   0  0  0  0  0  0  0  0  0  0  0  0
    0.0671   -2.8410    2.7871 C   0  0  0  0  0  0  0  0  0  0  0  0
    1.2744   -3.0267    3.4353 C   0  0  0  0  0  0  0  0  0  0  0  0
    1.2962   -3.4420    4.7522 C   0  0  0  0  0  0  0  0  0  0  0  0
    0.1034   -3.6732    5.4257 C   0  0  0  0  0  0  0  0  0  0  0  0
   -1.1076   -3.4856    4.7716 C   0  0  0  0  0  0  0  0  0  0  0  0
   -1.1222   -3.0648    3.4563 C   0  0  0  0  0  0  0  0  0  0  0  0
    0.1218   -4.0937    6.7575 N   0  0  0  0  0  0  0  0  0  0  0  0
    0.0001   -0.6723   -1.1701 O   0  5  0  0  0  0  0  0  0  0  0  0
    1.0042    1.8801    0.0026 H   0  0  0  0  0  0  0  0  0  0  0  0
   -0.5455    1.8639   -0.8728 H   0  0  0  0  0  0  0  0  0  0  0  0
   -0.5286    1.8543    0.9071 H   0  0  0  0  0  0  0  0  0  0  0  0
    2.2014   -2.8471    2.9109 H   0  0  0  0  0  0  0  0  0  0  0  0
    2.2394   -3.5872    5.2578 H   0  0  0  0  0  0  0  0  0  0  0  0
   -2.0367   -3.6649    5.2922 H   0  0  0  0  0  0  0  0  0  0  0  0
   -2.0634   -2.9145    2.9484 H   0  0  0  0  0  0  0  0  0  0  0  0
    0.9680   -4.2247    7.2132 H   0  0  0  0  0  0  0  0  0  0  0  0
   -0.7117   -4.2548    7.2268 H   0  0  0  0  0  0  0  0  0  0  0  0
  1  2  1  0  0  0  0
  1 15  1  0  0  0  0
  1 16  1  0  0  0  0
  1 17  1  0  0  0  0
  2  3  2  0  0  0  0
  2 14  1  0  0  0  0
  3  4  1  0  0  0  0
  4  5  2  0  0  0  0
  4  6  2  0  0  0  0
  4  7  1  0  0  0  0
  7 12  2  0  0  0  0
  7  8  1  0  0  0  0
  8  9  2  0  0  0  0
  8 18  1  0  0  0  0
  9 10  1  0  0  0  0
  9 19  1  0  0  0  0
 10 11  2  0  0  0  0
 10 13  1  0  0  0  0
 11 12  1  0  0  0  0
 11 20  1  0  0  0  0
 12 21  1  0  0  0  0
 13 22  1  0  0  0  0
 13 23  1  0  0  0  0
M  CHG  1  14  -1
M  END
$$$$
