ZINC00538386
 OpenBabel08292219463D

 58 60  0  0  1  0  0  0  0  0999 V2000
    2.2669   -3.2495    2.2539 C   0  0  0  0  0  0  0  0  0  0  0  0
    2.2073   -2.3527    1.0158 C   0  0  0  0  0  0  0  0  0  0  0  0
    3.4803   -1.5526    0.9132 C   0  0  0  0  0  0  0  0  0  0  0  0
    4.3894   -1.7574    1.6895 O   0  0  0  0  0  0  0  0  0  0  0  0
    3.6085   -0.6096   -0.0410 N   0  0  0  0  0  0  0  0  0  0  0  0
    2.5242   -0.3010   -0.8698 C   0  0  0  0  0  0  0  0  0  0  0  0
    2.0052   -1.2647   -1.7245 C   0  0  0  0  0  0  0  0  0  0  0  0
    0.9346   -0.9571   -2.5410 C   0  0  0  0  0  0  0  0  0  0  0  0
    0.3797    0.3091   -2.5084 C   0  0  0  0  0  0  0  0  0  0  0  0
    0.8942    1.2710   -1.6585 C   0  0  0  0  0  0  0  0  0  0  0  0
    1.9644    0.9696   -0.8392 C   0  0  0  0  0  0  0  0  0  0  0  0
    4.8831    0.0925   -0.2106 C   0  0  2  0  0  0  0  0  0  0  0  0
    4.8346    0.9407   -1.4844 C   0  0  0  0  0  0  0  0  0  0  0  0
    4.6453    0.0216   -2.6950 C   0  0  0  0  0  0  0  0  0  0  0  0
    5.7938   -1.7924   -1.5714 C   0  0  0  0  0  0  0  0  0  0  0  0
    6.0180   -0.9287   -0.3281 C   0  0  0  0  0  0  0  0  0  0  0  0
    5.6813   -1.7427   -3.9891 C   0  0  0  0  0  0  0  0  0  0  0  0
    5.8945   -0.8413   -5.2069 C   0  0  0  0  0  0  0  0  0  0  0  0
    5.8174   -1.6688   -6.4640 C   0  0  0  0  0  0  0  0  0  0  0  0
    4.7359   -1.9668   -7.2248 C   0  0  0  0  0  0  0  0  0  0  0  0
    4.9040   -2.7501   -8.3512 C   0  0  0  0  0  0  0  0  0  0  0  0
    6.1436   -3.2060   -8.6558 C   0  0  0  0  0  0  0  0  0  0  0  0
    7.1255   -2.5176   -7.3332 S   0  0  0  0  0  0  0  0  0  0  0  0
    5.1329    0.9977    0.9973 C   0  0  0  0  0  0  0  0  0  0  0  0
    4.0532    1.9245    1.1293 O   0  0  0  0  0  0  0  0  0  0  0  0
    4.1888    2.8214    2.2335 C   0  0  0  0  0  0  0  0  0  0  0  0
    1.3462   -3.8282    2.3281 H   0  0  0  0  0  0  0  0  0  0  0  0
    3.1165   -3.9274    2.1709 H   0  0  0  0  0  0  0  0  0  0  0  0
    2.3806   -2.6319    3.1448 H   0  0  0  0  0  0  0  0  0  0  0  0
    1.3578   -1.6748    1.0987 H   0  0  0  0  0  0  0  0  0  0  0  0
    2.0936   -2.9703    0.1249 H   0  0  0  0  0  0  0  0  0  0  0  0
    2.4386   -2.2536   -1.7509 H   0  0  0  0  0  0  0  0  0  0  0  0
    0.5305   -1.7061   -3.2058 H   0  0  0  0  0  0  0  0  0  0  0  0
   -0.4543    0.5487   -3.1513 H   0  0  0  0  0  0  0  0  0  0  0  0
    0.4589    2.2591   -1.6356 H   0  0  0  0  0  0  0  0  0  0  0  0
    2.3655    1.7211   -0.1753 H   0  0  0  0  0  0  0  0  0  0  0  0
    4.0018    1.6412   -1.4237 H   0  0  0  0  0  0  0  0  0  0  0  0
    5.7685    1.4929   -1.5897 H   0  0  0  0  0  0  0  0  0  0  0  0
    4.6251    0.6203   -3.6056 H   0  0  0  0  0  0  0  0  0  0  0  0
    3.7047   -0.5201   -2.5956 H   0  0  0  0  0  0  0  0  0  0  0  0
    6.6078   -2.5112   -1.6658 H   0  0  0  0  0  0  0  0  0  0  0  0
    4.8478   -2.3256   -1.4774 H   0  0  0  0  0  0  0  0  0  0  0  0
    6.9704   -0.4058   -0.4151 H   0  0  0  0  0  0  0  0  0  0  0  0
    6.0305   -1.5625    0.5586 H   0  0  0  0  0  0  0  0  0  0  0  0
    6.4539   -2.5112   -3.9661 H   0  0  0  0  0  0  0  0  0  0  0  0
    4.7010   -2.2148   -4.0537 H   0  0  0  0  0  0  0  0  0  0  0  0
    5.1219   -0.0728   -5.2298 H   0  0  0  0  0  0  0  0  0  0  0  0
    6.8748   -0.3692   -5.1422 H   0  0  0  0  0  0  0  0  0  0  0  0
    3.7579   -1.5953   -6.9565 H   0  0  0  0  0  0  0  0  0  0  0  0
    4.0595   -2.9990   -8.9767 H   0  0  0  0  0  0  0  0  0  0  0  0
    6.4561   -3.8253   -9.4835 H   0  0  0  0  0  0  0  0  0  0  0  0
    5.2019    0.3894    1.8992 H   0  0  0  0  0  0  0  0  0  0  0  0
    6.0653    1.5440    0.8553 H   0  0  0  0  0  0  0  0  0  0  0  0
    4.2382    2.2509    3.1610 H   0  0  0  0  0  0  0  0  0  0  0  0
    5.1017    3.4055    2.1172 H   0  0  0  0  0  0  0  0  0  0  0  0
    3.3299    3.4918    2.2647 H   0  0  0  0  0  0  0  0  0  0  0  0
    5.7823   -0.9209   -2.7654 N   0  3  1  0  0  0  0  0  0  0  0  0
    6.6577   -0.3851   -2.7950 H   0  0  0  0  0  0  0  0  0  0  0  0
  1  2  1  0  0  0  0
  1 27  1  0  0  0  0
  1 28  1  0  0  0  0
  1 29  1  0  0  0  0
  2  3  1  0  0  0  0
  2 30  1  0  0  0  0
  2 31  1  0  0  0  0
  3  4  2  0  0  0  0
  3  5  1  0  0  0  0
  5  6  1  0  0  0  0
  6 11  2  0  0  0  0
  6  7  1  0  0  0  0
  7  8  2  0  0  0  0
  7 32  1  0  0  0  0
  8  9  1  0  0  0  0
  8 33  1  0  0  0  0
  9 10  2  0  0  0  0
  9 34  1  0  0  0  0
 10 11  1  0  0  0  0
 10 35  1  0  0  0  0
 11 36  1  0  0  0  0
 12  5  1  1  0  0  0
 12 16  1  0  0  0  0
 12 13  1  0  0  0  0
 12 24  1  0  0  0  0
 13 14  1  0  0  0  0
 13 37  1  0  0  0  0
 13 38  1  0  0  0  0
 14 39  1  0  0  0  0
 14 40  1  0  0  0  0
 14 57  1  0  0  0  0
 15 16  1  0  0  0  0
 15 41  1  0  0  0  0
 15 42  1  0  0  0  0
 15 57  1  0  0  0  0
 16 43  1  0  0  0  0
 16 44  1  0  0  0  0
 17 18  1  0  0  0  0
 17 45  1  0  0  0  0
 17 46  1  0  0  0  0
 17 57  1  0  0  0  0
 18 19  1  0  0  0  0
 18 47  1  0  0  0  0
 18 48  1  0  0  0  0
 19 23  1  0  0  0  0
 19 20  2  0  0  0  0
 20 21  1  0  0  0  0
 20 49  1  0  0  0  0
 21 22  2  0  0  0  0
 21 50  1  0  0  0  0
 22 23  1  0  0  0  0
 22 51  1  0  0  0  0
 24 25  1  0  0  0  0
 24 52  1  0  0  0  0
 24 53  1  0  0  0  0
 25 26  1  0  0  0  0
 26 54  1  0  0  0  0
 26 55  1  0  0  0  0
 26 56  1  0  0  0  0
 57 58  1  6  0  0  0
M  CHG  1  57   1
M  END
$$$$
