ZINC01713960
 OpenBabel08292219463D

 46 49  0  0  1  0  0  0  0  0999 V2000
   -0.0178    1.4648    0.0101 C   0  0  0  0  0  0  0  0  0  0  0  0
    0.0021   -0.0041    0.0020 N   0  3  1  0  0  0  0  0  0  0  0  0
    0.6815   -0.4760   -1.2105 C   0  0  0  0  0  0  0  0  0  0  0  0
    0.6339   -2.0045   -1.2642 C   0  0  0  0  0  0  0  0  0  0  0  0
    1.3359   -2.5754   -0.0287 C   0  0  0  0  0  0  0  0  0  0  0  0
    0.6658   -2.0178    1.2303 C   0  0  2  0  0  0  0  0  0  0  0  0
   -0.3718   -2.3496    1.2677 H   0  0  0  0  0  0  0  0  0  0  0  0
    0.7122   -0.4888    1.1916 C   0  0  0  0  0  0  0  0  0  0  0  0
    1.4081   -2.5213    2.4698 C   0  0  0  0  0  0  0  0  0  0  0  0
    1.2591   -4.0406    2.5715 C   0  0  0  0  0  0  0  0  0  0  0  0
   -0.1970   -4.3606    2.6380 C   0  0  0  0  0  0  0  0  0  0  0  0
   -0.8769   -4.5281    1.4354 C   0  0  0  0  0  0  0  0  0  0  0  0
   -2.2269   -4.8076    1.4194 C   0  0  0  0  0  0  0  0  0  0  0  0
   -2.9271   -4.9235    2.6066 C   0  0  0  0  0  0  0  0  0  0  0  0
   -2.2638   -4.7663    3.8055 C   0  0  0  0  0  0  0  0  0  0  0  0
   -0.8981   -4.4933    3.8232 C   0  0  0  0  0  0  0  0  0  0  0  0
   -0.0821   -4.3440    5.3763 S   0  0  0  0  0  0  0  0  0  0  0  0
    1.6067   -4.6720    5.0016 C   0  0  0  0  0  0  0  0  0  0  0  0
    2.0924   -4.5131    3.7161 C   0  0  0  0  0  0  0  0  0  0  0  0
    3.4300   -4.8027    3.4647 C   0  0  0  0  0  0  0  0  0  0  0  0
    4.2632   -5.2298    4.4769 C   0  0  0  0  0  0  0  0  0  0  0  0
    3.7763   -5.3757    5.7633 C   0  0  0  0  0  0  0  0  0  0  0  0
    2.4510   -5.0981    6.0244 C   0  0  0  0  0  0  0  0  0  0  0  0
    1.0047    1.8421    0.0024 H   0  0  0  0  0  0  0  0  0  0  0  0
   -0.5450    1.8259   -0.8730 H   0  0  0  0  0  0  0  0  0  0  0  0
   -0.5280    1.8163    0.9069 H   0  0  0  0  0  0  0  0  0  0  0  0
    0.1827   -0.0663   -2.0888 H   0  0  0  0  0  0  0  0  0  0  0  0
    1.7201   -0.1456   -1.1964 H   0  0  0  0  0  0  0  0  0  0  0  0
   -0.4044   -2.3361   -1.2786 H   0  0  0  0  0  0  0  0  0  0  0  0
    1.1404   -2.3531   -2.1643 H   0  0  0  0  0  0  0  0  0  0  0  0
    1.2554   -3.6625   -0.0335 H   0  0  0  0  0  0  0  0  0  0  0  0
    2.3869   -2.2866   -0.0407 H   0  0  0  0  0  0  0  0  0  0  0  0
    1.7502   -0.1581    1.1545 H   0  0  0  0  0  0  0  0  0  0  0  0
    0.2361   -0.0886    2.0867 H   0  0  0  0  0  0  0  0  0  0  0  0
    2.4644   -2.2644    2.3900 H   0  0  0  0  0  0  0  0  0  0  0  0
    0.9869   -2.0544    3.3602 H   0  0  0  0  0  0  0  0  0  0  0  0
    1.6583   -4.4799    1.6574 H   0  0  0  0  0  0  0  0  0  0  0  0
   -0.3402   -4.4376    0.5025 H   0  0  0  0  0  0  0  0  0  0  0  0
   -2.7391   -4.9359    0.4774 H   0  0  0  0  0  0  0  0  0  0  0  0
   -3.9861   -5.1354    2.5948 H   0  0  0  0  0  0  0  0  0  0  0  0
   -2.8061   -4.8549    4.7353 H   0  0  0  0  0  0  0  0  0  0  0  0
    3.8207   -4.6910    2.4641 H   0  0  0  0  0  0  0  0  0  0  0  0
    5.2987   -5.4515    4.2646 H   0  0  0  0  0  0  0  0  0  0  0  0
    4.4297   -5.7042    6.5579 H   0  0  0  0  0  0  0  0  0  0  0  0
    2.0656   -5.2115    7.0269 H   0  0  0  0  0  0  0  0  0  0  0  0
   -0.9449   -0.3523    0.0117 H   0  0  0  0  0  0  0  0  0  0  0  0
  1  2  1  0  0  0  0
  1 24  1  0  0  0  0
  1 25  1  0  0  0  0
  1 26  1  0  0  0  0
  2  8  1  0  0  0  0
  2  3  1  0  0  0  0
  2 46  1  1  0  0  0
  3  4  1  0  0  0  0
  3 27  1  0  0  0  0
  3 28  1  0  0  0  0
  4  5  1  0  0  0  0
  4 29  1  0  0  0  0
  4 30  1  0  0  0  0
  5  6  1  0  0  0  0
  5 31  1  0  0  0  0
  5 32  1  0  0  0  0
  6  7  1  1  0  0  0
  6  8  1  0  0  0  0
  6  9  1  0  0  0  0
  8 33  1  0  0  0  0
  8 34  1  0  0  0  0
  9 10  1  0  0  0  0
  9 35  1  0  0  0  0
  9 36  1  0  0  0  0
 10 19  1  0  0  0  0
 10 11  1  0  0  0  0
 10 37  1  0  0  0  0
 11 16  2  0  0  0  0
 11 12  1  0  0  0  0
 12 13  2  0  0  0  0
 12 38  1  0  0  0  0
 13 14  1  0  0  0  0
 13 39  1  0  0  0  0
 14 15  2  0  0  0  0
 14 40  1  0  0  0  0
 15 16  1  0  0  0  0
 15 41  1  0  0  0  0
 16 17  1  0  0  0  0
 17 18  1  0  0  0  0
 18 23  2  0  0  0  0
 18 19  1  0  0  0  0
 19 20  2  0  0  0  0
 20 21  1  0  0  0  0
 20 42  1  0  0  0  0
 21 22  2  0  0  0  0
 21 43  1  0  0  0  0
 22 23  1  0  0  0  0
 22 44  1  0  0  0  0
 23 45  1  0  0  0  0
M  CHG  1   2   1
M  END
$$$$
