ZINC00968273
 OpenBabel08292219463D

 54 56  0  0  1  0  0  0  0  0999 V2000
    0.0762    1.3452   -0.3150 C   0  0  0  0  0  0  0  0  0  0  0  0
    1.2713    2.0393   -0.3470 C   0  0  0  0  0  0  0  0  0  0  0  0
    2.4688    1.3595   -0.2265 C   0  0  0  0  0  0  0  0  0  0  0  0
    2.4714   -0.0144   -0.0737 C   0  0  0  0  0  0  0  0  0  0  0  0
    1.2763   -0.7084   -0.0408 C   0  0  0  0  0  0  0  0  0  0  0  0
    0.0788   -0.0287   -0.1627 C   0  0  0  0  0  0  0  0  0  0  0  0
    3.7770   -0.7557    0.0566 C   0  0  1  0  0  0  0  0  0  0  0  0
    4.1663   -0.8472    1.5335 C   0  0  0  0  0  0  0  0  0  0  0  0
    4.2922    0.5619    2.1160 C   0  0  0  0  0  0  0  0  0  0  0  0
    4.8004    0.4794    3.4918 N   0  3  0  0  0  0  0  0  0  0  0  0
    3.8171   -0.2117    4.3344 C   0  0  0  0  0  0  0  0  0  0  0  0
    4.3758   -0.3722    5.7499 C   0  0  0  0  0  0  0  0  0  0  0  0
    4.6703    1.0114    6.3365 C   0  0  0  0  0  0  0  0  0  0  0  0
    5.6396    1.7518    5.4105 C   0  0  0  0  0  0  0  0  0  0  0  0
    5.0341    1.8336    4.0076 C   0  0  0  0  0  0  0  0  0  0  0  0
    3.6229   -2.1650   -0.5185 C   0  0  0  0  0  0  0  0  0  0  0  0
    4.9235   -2.9444   -0.3139 C   0  0  0  0  0  0  0  0  0  0  0  0
    4.7694   -4.3538   -0.8890 C   0  0  0  0  0  0  0  0  0  0  0  0
    4.4590   -4.2632   -2.3844 C   0  0  0  0  0  0  0  0  0  0  0  0
    3.1584   -3.4839   -2.5891 C   0  0  0  0  0  0  0  0  0  0  0  0
    3.3125   -2.0745   -2.0139 C   0  0  0  0  0  0  0  0  0  0  0  0
    4.7953   -0.0567   -0.6620 O   0  0  0  0  0  0  0  0  0  0  0  0
   -0.8596    1.8768   -0.4046 H   0  0  0  0  0  0  0  0  0  0  0  0
    1.2693    3.1127   -0.4664 H   0  0  0  0  0  0  0  0  0  0  0  0
    3.4025    1.9017   -0.2522 H   0  0  0  0  0  0  0  0  0  0  0  0
    1.2783   -1.7818    0.0782 H   0  0  0  0  0  0  0  0  0  0  0  0
   -0.8549   -0.5710   -0.1374 H   0  0  0  0  0  0  0  0  0  0  0  0
    3.3994   -1.3982    2.0779 H   0  0  0  0  0  0  0  0  0  0  0  0
    5.1207   -1.3654    1.6262 H   0  0  0  0  0  0  0  0  0  0  0  0
    4.9830    1.1460    1.5079 H   0  0  0  0  0  0  0  0  0  0  0  0
    3.3141    1.0430    2.1182 H   0  0  0  0  0  0  0  0  0  0  0  0
    2.8971    0.3717    4.3714 H   0  0  0  0  0  0  0  0  0  0  0  0
    3.6061   -1.1949    3.9139 H   0  0  0  0  0  0  0  0  0  0  0  0
    3.6435   -0.8840    6.3743 H   0  0  0  0  0  0  0  0  0  0  0  0
    5.2958   -0.9557    5.7140 H   0  0  0  0  0  0  0  0  0  0  0  0
    3.7423    1.5769    6.4201 H   0  0  0  0  0  0  0  0  0  0  0  0
    5.1212    0.9007    7.3227 H   0  0  0  0  0  0  0  0  0  0  0  0
    5.8107    2.7583    5.7923 H   0  0  0  0  0  0  0  0  0  0  0  0
    6.5858    1.2124    5.3676 H   0  0  0  0  0  0  0  0  0  0  0  0
    5.7215    2.3604    3.3457 H   0  0  0  0  0  0  0  0  0  0  0  0
    4.0881    2.3734    4.0515 H   0  0  0  0  0  0  0  0  0  0  0  0
    2.8077   -2.6784   -0.0086 H   0  0  0  0  0  0  0  0  0  0  0  0
    5.7387   -2.4310   -0.8237 H   0  0  0  0  0  0  0  0  0  0  0  0
    5.1447   -3.0089    0.7515 H   0  0  0  0  0  0  0  0  0  0  0  0
    5.6960   -4.9090   -0.7432 H   0  0  0  0  0  0  0  0  0  0  0  0
    3.9542   -4.8671   -0.3791 H   0  0  0  0  0  0  0  0  0  0  0  0
    5.2742   -3.7499   -2.8943 H   0  0  0  0  0  0  0  0  0  0  0  0
    4.3492   -5.2673   -2.7942 H   0  0  0  0  0  0  0  0  0  0  0  0
    2.9372   -3.4194   -3.6544 H   0  0  0  0  0  0  0  0  0  0  0  0
    2.3431   -3.9973   -2.0792 H   0  0  0  0  0  0  0  0  0  0  0  0
    2.3859   -1.5193   -2.1597 H   0  0  0  0  0  0  0  0  0  0  0  0
    4.1277   -1.5612   -2.5238 H   0  0  0  0  0  0  0  0  0  0  0  0
    4.9474    0.8461   -0.3505 H   0  0  0  0  0  0  0  0  0  0  0  0
    5.6677   -0.0362    3.4986 H   0  0  0  0  0  0  0  0  0  0  0  0
  1  6  2  0  0  0  0
  1  2  1  0  0  0  0
  1 23  1  0  0  0  0
  2  3  2  0  0  0  0
  2 24  1  0  0  0  0
  3  4  1  0  0  0  0
  3 25  1  0  0  0  0
  4  5  2  0  0  0  0
  4  7  1  0  0  0  0
  5  6  1  0  0  0  0
  5 26  1  0  0  0  0
  6 27  1  0  0  0  0
  7  8  1  0  0  0  0
  7 16  1  0  0  0  0
  7 22  1  6  0  0  0
  8  9  1  0  0  0  0
  8 28  1  0  0  0  0
  8 29  1  0  0  0  0
  9 10  1  0  0  0  0
  9 30  1  0  0  0  0
  9 31  1  0  0  0  0
 10 15  1  0  0  0  0
 10 11  1  0  0  0  0
 10 54  1  0  0  0  0
 11 12  1  0  0  0  0
 11 32  1  0  0  0  0
 11 33  1  0  0  0  0
 12 13  1  0  0  0  0
 12 34  1  0  0  0  0
 12 35  1  0  0  0  0
 13 14  1  0  0  0  0
 13 36  1  0  0  0  0
 13 37  1  0  0  0  0
 14 15  1  0  0  0  0
 14 38  1  0  0  0  0
 14 39  1  0  0  0  0
 15 40  1  0  0  0  0
 15 41  1  0  0  0  0
 16 21  1  0  0  0  0
 16 17  1  0  0  0  0
 16 42  1  0  0  0  0
 17 18  1  0  0  0  0
 17 43  1  0  0  0  0
 17 44  1  0  0  0  0
 18 19  1  0  0  0  0
 18 45  1  0  0  0  0
 18 46  1  0  0  0  0
 19 20  1  0  0  0  0
 19 47  1  0  0  0  0
 19 48  1  0  0  0  0
 20 21  1  0  0  0  0
 20 49  1  0  0  0  0
 20 50  1  0  0  0  0
 21 51  1  0  0  0  0
 21 52  1  0  0  0  0
 22 53  1  0  0  0  0
M  CHG  1  10   1
M  END
$$$$
