ZINC00001261
 OpenBabel08292219463D

 42 45  0  0  0  0  0  0  0  0999 V2000
   -0.2107    0.9756    0.5610 C   0  0  0  0  0  0  0  0  0  0  0  0
    0.8872    1.7907    0.3694 C   0  0  0  0  0  0  0  0  0  0  0  0
    2.1528    1.2227    0.1733 C   0  0  0  0  0  0  0  0  0  0  0  0
    2.2463   -0.1552    0.1921 C   0  0  0  0  0  0  0  0  0  0  0  0
    1.1542   -0.9088    0.3665 N   0  0  0  0  0  0  0  0  0  0  0  0
   -0.0402   -0.3967    0.5485 C   0  0  0  0  0  0  0  0  0  0  0  0
    3.5236   -0.8885    0.0550 C   0  0  0  0  0  0  0  0  0  0  0  0
    3.5732   -1.9766   -0.7230 C   0  0  0  0  0  0  0  0  0  0  0  0
    2.3880   -2.3886   -1.5714 C   0  0  0  0  0  0  0  0  0  0  0  0
    2.8920   -2.6758   -2.9903 C   0  0  0  0  0  0  0  0  0  0  0  0
    3.9749   -3.6649   -2.9342 N   0  3  0  0  0  0  0  0  0  0  0  0
    5.1477   -3.0945   -2.2608 C   0  0  0  0  0  0  0  0  0  0  0  0
    4.8187   -2.8359   -0.7908 C   0  0  0  0  0  0  0  0  0  0  0  0
    4.7482   -0.4455    0.7586 C   0  0  0  0  0  0  0  0  0  0  0  0
    5.3707   -1.2514    1.7078 C   0  0  0  0  0  0  0  0  0  0  0  0
    6.5181   -0.7921    2.3275 C   0  0  0  0  0  0  0  0  0  0  0  0
    7.0306    0.4518    1.9995 C   0  0  0  0  0  0  0  0  0  0  0  0
    6.4017    1.2475    1.0567 C   0  0  0  0  0  0  0  0  0  0  0  0
    5.2492    0.7919    0.4373 C   0  0  0  0  0  0  0  0  0  0  0  0
    4.5456    1.6531   -0.5659 C   0  0  0  0  0  0  0  0  0  0  0  0
    3.2532    2.2255   -0.0494 C   0  0  0  0  0  0  0  0  0  0  0  0
    8.4749    1.0192    2.7779 Cl  0  0  0  0  0  0  0  0  0  0  0  0
   -1.1887    1.4040    0.7230 H   0  0  0  0  0  0  0  0  0  0  0  0
    0.7704    2.8644    0.3703 H   0  0  0  0  0  0  0  0  0  0  0  0
   -0.8907   -1.0475    0.6886 H   0  0  0  0  0  0  0  0  0  0  0  0
    1.9316   -3.2864   -1.1545 H   0  0  0  0  0  0  0  0  0  0  0  0
    1.6560   -1.5814   -1.5975 H   0  0  0  0  0  0  0  0  0  0  0  0
    2.0735   -3.0671   -3.5944 H   0  0  0  0  0  0  0  0  0  0  0  0
    3.2647   -1.7540   -3.4370 H   0  0  0  0  0  0  0  0  0  0  0  0
    3.6596   -4.4773   -2.4256 H   0  0  0  0  0  0  0  0  0  0  0  0
    5.9819   -3.7927   -2.3304 H   0  0  0  0  0  0  0  0  0  0  0  0
    5.4201   -2.1541   -2.7399 H   0  0  0  0  0  0  0  0  0  0  0  0
    5.6503   -2.3164   -0.3148 H   0  0  0  0  0  0  0  0  0  0  0  0
    4.6390   -3.7846   -0.2850 H   0  0  0  0  0  0  0  0  0  0  0  0
    4.9635   -2.2203    1.9565 H   0  0  0  0  0  0  0  0  0  0  0  0
    7.0141   -1.4029    3.0673 H   0  0  0  0  0  0  0  0  0  0  0  0
    6.8072    2.2164    0.8054 H   0  0  0  0  0  0  0  0  0  0  0  0
    5.2051    2.4742   -0.8469 H   0  0  0  0  0  0  0  0  0  0  0  0
    4.3348    1.0566   -1.4535 H   0  0  0  0  0  0  0  0  0  0  0  0
    2.8992    2.9708   -0.7617 H   0  0  0  0  0  0  0  0  0  0  0  0
    3.4547    2.7293    0.8959 H   0  0  0  0  0  0  0  0  0  0  0  0
    4.2277   -3.9375   -3.8722 H   0  0  0  0  0  0  0  0  0  0  0  0
  1  6  2  0  0  0  0
  1  2  1  0  0  0  0
  1 23  1  0  0  0  0
  2  3  2  0  0  0  0
  2 24  1  0  0  0  0
  3 21  1  0  0  0  0
  3  4  1  0  0  0  0
  4  5  2  0  0  0  0
  4  7  1  0  0  0  0
  5  6  1  0  0  0  0
  6 25  1  0  0  0  0
  7  8  2  0  0  0  0
  7 14  1  0  0  0  0
  8 13  1  0  0  0  0
  8  9  1  0  0  0  0
  9 10  1  0  0  0  0
  9 26  1  0  0  0  0
  9 27  1  0  0  0  0
 10 11  1  0  0  0  0
 10 28  1  0  0  0  0
 10 29  1  0  0  0  0
 11 12  1  0  0  0  0
 11 30  1  0  0  0  0
 11 42  1  0  0  0  0
 12 13  1  0  0  0  0
 12 31  1  0  0  0  0
 12 32  1  0  0  0  0
 13 33  1  0  0  0  0
 13 34  1  0  0  0  0
 14 19  2  0  0  0  0
 14 15  1  0  0  0  0
 15 16  2  0  0  0  0
 15 35  1  0  0  0  0
 16 17  1  0  0  0  0
 16 36  1  0  0  0  0
 17 18  2  0  0  0  0
 17 22  1  0  0  0  0
 18 19  1  0  0  0  0
 18 37  1  0  0  0  0
 19 20  1  0  0  0  0
 20 21  1  0  0  0  0
 20 38  1  0  0  0  0
 20 39  1  0  0  0  0
 21 40  1  0  0  0  0
 21 41  1  0  0  0  0
M  CHG  1  11   1
M  END
$$$$
