ZINC03831128
 OpenBabel08292219463D

 67 71  0  0  1  0  0  0  0  0999 V2000
   -1.5911    2.2185    1.0260 C   0  0  0  0  0  0  0  0  0  0  0  0
   -1.1366    0.8203    1.0997 C   0  0  0  0  0  0  0  0  0  0  0  0
   -0.7742   -0.2948    1.1585 C   0  0  0  0  0  0  0  0  0  0  0  0
   -0.3198   -1.6930    1.2322 C   0  0  2  0  0  0  0  0  0  0  0  0
    0.9201   -1.9014    0.3292 C   0  0  0  0  0  0  0  0  0  0  0  0
    0.4929   -2.9015   -0.7780 C   0  0  0  0  0  0  0  0  0  0  0  0
   -1.0311   -2.7307   -0.8306 C   0  0  2  0  0  0  0  0  0  0  0  0
   -1.2952   -1.8113   -1.3532 H   0  0  0  0  0  0  0  0  0  0  0  0
   -1.3918   -2.6271    0.6748 C   0  0  2  0  0  0  0  0  0  0  0  0
   -2.8184   -2.1130    0.7593 C   0  0  0  0  0  0  0  0  0  0  0  0
   -3.7333   -3.2187    0.2111 C   0  0  1  0  0  0  0  0  0  0  0  0
   -4.7482   -2.8315    0.1201 H   0  0  0  0  0  0  0  0  0  0  0  0
   -3.2567   -3.6915   -1.1479 C   0  0  0  0  0  0  0  0  0  0  0  0
   -4.1792   -3.8905   -2.0873 C   0  0  0  0  0  0  0  0  0  0  0  0
   -5.6413   -3.6381   -1.7975 C   0  0  0  0  0  0  0  0  0  0  0  0
   -6.2599   -2.9181   -2.9997 C   0  0  0  0  0  0  0  0  0  0  0  0
   -5.9289   -3.6563   -4.2685 C   0  0  0  0  0  0  0  0  0  0  0  0
   -6.7517   -3.7057   -5.1606 O   0  0  0  0  0  0  0  0  0  0  0  0
   -4.6857   -4.2897   -4.4418 C   0  0  0  0  0  0  0  0  0  0  0  0
   -3.8130   -4.3810   -3.4157 C   0  0  0  0  0  0  0  0  0  0  0  0
   -2.4436   -4.9914   -3.5880 C   0  0  0  0  0  0  0  0  0  0  0  0
   -1.4408   -4.0922   -2.8665 C   0  0  0  0  0  0  0  0  0  0  0  0
   -1.7860   -3.9148   -1.4199 C   0  0  1  0  0  0  0  0  0  0  0  0
   -1.4760   -4.8234   -0.9036 H   0  0  0  0  0  0  0  0  0  0  0  0
   -3.7314   -4.3828    1.1681 C   0  0  0  0  0  0  0  0  0  0  0  0
   -3.8025   -4.1561    2.5304 C   0  0  0  0  0  0  0  0  0  0  0  0
   -3.8010   -5.2206    3.4102 C   0  0  0  0  0  0  0  0  0  0  0  0
   -3.7280   -6.5203    2.9253 C   0  0  0  0  0  0  0  0  0  0  0  0
   -3.6568   -6.7445    1.5562 C   0  0  0  0  0  0  0  0  0  0  0  0
   -3.6644   -5.6756    0.6818 C   0  0  0  0  0  0  0  0  0  0  0  0
   -3.7259   -7.5992    3.8123 N   0  0  0  0  0  0  0  0  0  0  0  0
   -3.8006   -7.3609    5.2558 C   0  0  0  0  0  0  0  0  0  0  0  0
   -3.6488   -8.9692    3.2991 C   0  0  0  0  0  0  0  0  0  0  0  0
   -1.2795   -4.0029    1.3348 C   0  0  0  0  0  0  0  0  0  0  0  0
   -0.0137   -2.0421    2.5836 O   0  0  0  0  0  0  0  0  0  0  0  0
   -0.8174    2.8735    1.4265 H   0  0  0  0  0  0  0  0  0  0  0  0
   -1.7883    2.4821   -0.0131 H   0  0  0  0  0  0  0  0  0  0  0  0
   -2.5040    2.3350    1.6100 H   0  0  0  0  0  0  0  0  0  0  0  0
    1.2206   -0.9540   -0.1182 H   0  0  0  0  0  0  0  0  0  0  0  0
    1.7417   -2.3175    0.9123 H   0  0  0  0  0  0  0  0  0  0  0  0
    0.9438   -2.6339   -1.7336 H   0  0  0  0  0  0  0  0  0  0  0  0
    0.7568   -3.9215   -0.4985 H   0  0  0  0  0  0  0  0  0  0  0  0
   -3.0751   -1.8993    1.7969 H   0  0  0  0  0  0  0  0  0  0  0  0
   -2.9241   -1.2109    0.1566 H   0  0  0  0  0  0  0  0  0  0  0  0
   -6.1519   -4.5876   -1.6371 H   0  0  0  0  0  0  0  0  0  0  0  0
   -5.7358   -3.0140   -0.9088 H   0  0  0  0  0  0  0  0  0  0  0  0
   -7.3423   -2.8754   -2.8780 H   0  0  0  0  0  0  0  0  0  0  0  0
   -5.8638   -1.9043   -3.0572 H   0  0  0  0  0  0  0  0  0  0  0  0
   -4.4266   -4.7067   -5.4038 H   0  0  0  0  0  0  0  0  0  0  0  0
   -2.4263   -5.9896   -3.1506 H   0  0  0  0  0  0  0  0  0  0  0  0
   -2.1945   -5.0470   -4.6477 H   0  0  0  0  0  0  0  0  0  0  0  0
   -0.4467   -4.5317   -2.9487 H   0  0  0  0  0  0  0  0  0  0  0  0
   -1.4349   -3.1124   -3.3440 H   0  0  0  0  0  0  0  0  0  0  0  0
   -3.8589   -3.1453    2.9068 H   0  0  0  0  0  0  0  0  0  0  0  0
   -3.8562   -5.0428    4.4740 H   0  0  0  0  0  0  0  0  0  0  0  0
   -3.5995   -7.7537    1.1759 H   0  0  0  0  0  0  0  0  0  0  0  0
   -3.6134   -5.8493   -0.3830 H   0  0  0  0  0  0  0  0  0  0  0  0
   -4.8450   -7.3421    5.5674 H   0  0  0  0  0  0  0  0  0  0  0  0
   -3.2784   -8.1591    5.7834 H   0  0  0  0  0  0  0  0  0  0  0  0
   -3.3341   -6.4042    5.4908 H   0  0  0  0  0  0  0  0  0  0  0  0
   -2.6039   -9.2687    3.2183 H   0  0  0  0  0  0  0  0  0  0  0  0
   -4.1680   -9.6425    3.9812 H   0  0  0  0  0  0  0  0  0  0  0  0
   -4.1172   -9.0158    2.3159 H   0  0  0  0  0  0  0  0  0  0  0  0
   -1.7051   -3.9607    2.3374 H   0  0  0  0  0  0  0  0  0  0  0  0
   -1.8231   -4.7368    0.7398 H   0  0  0  0  0  0  0  0  0  0  0  0
   -0.2302   -4.2913    1.3974 H   0  0  0  0  0  0  0  0  0  0  0  0
    0.6749   -1.4946    2.9850 H   0  0  0  0  0  0  0  0  0  0  0  0
  1  2  1  0  0  0  0
  1 36  1  0  0  0  0
  1 37  1  0  0  0  0
  1 38  1  0  0  0  0
  2  3  3  0  0  0  0
  4  3  1  6  0  0  0
  4  9  1  0  0  0  0
  4  5  1  0  0  0  0
  4 35  1  0  0  0  0
  5  6  1  0  0  0  0
  5 39  1  0  0  0  0
  5 40  1  0  0  0  0
  6  7  1  0  0  0  0
  6 41  1  0  0  0  0
  6 42  1  0  0  0  0
  7  8  1  6  0  0  0
  7 23  1  0  0  0  0
  7  9  1  0  0  0  0
  9 10  1  0  0  0  0
  9 34  1  1  0  0  0
 10 11  1  0  0  0  0
 10 43  1  0  0  0  0
 10 44  1  0  0  0  0
 11 12  1  6  0  0  0
 11 13  1  0  0  0  0
 11 25  1  0  0  0  0
 13 23  1  0  0  0  0
 13 14  2  0  0  0  0
 14 20  1  0  0  0  0
 14 15  1  0  0  0  0
 15 16  1  0  0  0  0
 15 45  1  0  0  0  0
 15 46  1  0  0  0  0
 16 17  1  0  0  0  0
 16 47  1  0  0  0  0
 16 48  1  0  0  0  0
 17 18  2  0  0  0  0
 17 19  1  0  0  0  0
 19 20  2  0  0  0  0
 19 49  1  0  0  0  0
 20 21  1  0  0  0  0
 21 22  1  0  0  0  0
 21 50  1  0  0  0  0
 21 51  1  0  0  0  0
 22 23  1  0  0  0  0
 22 52  1  0  0  0  0
 22 53  1  0  0  0  0
 23 24  1  1  0  0  0
 25 30  2  0  0  0  0
 25 26  1  0  0  0  0
 26 27  2  0  0  0  0
 26 54  1  0  0  0  0
 27 28  1  0  0  0  0
 27 55  1  0  0  0  0
 28 29  2  0  0  0  0
 28 31  1  0  0  0  0
 29 30  1  0  0  0  0
 29 56  1  0  0  0  0
 30 57  1  0  0  0  0
 31 32  1  0  0  0  0
 31 33  1  0  0  0  0
 32 58  1  0  0  0  0
 32 59  1  0  0  0  0
 32 60  1  0  0  0  0
 33 61  1  0  0  0  0
 33 62  1  0  0  0  0
 33 63  1  0  0  0  0
 34 64  1  0  0  0  0
 34 65  1  0  0  0  0
 34 66  1  0  0  0  0
 35 67  1  0  0  0  0
M  END
$$$$
