ZINC00014360
 OpenBabel08292219463D

 42 43  0  0  0  0  0  0  0  0999 V2000
   -0.0178    1.4608    0.0101 C   0  0  0  0  0  0  0  0  0  0  0  0
    0.0021   -0.0041    0.0020 N   0  0  0  0  0  0  0  0  0  0  0  0
    0.7421   -0.8289    1.2326 S   0  0  0  0  0  0  0  0  0  0  0  0
    0.5924   -2.2002    0.8914 O   0  0  0  0  0  0  0  0  0  0  0  0
    2.0334   -0.2448    1.3355 O   0  0  0  0  0  0  0  0  0  0  0  0
   -0.2382   -0.4417    2.7090 C   0  0  0  0  0  0  0  0  0  0  0  0
    0.3516   -1.1474    3.9028 C   0  0  0  0  0  0  0  0  0  0  0  0
   -0.0784   -2.4267    4.2282 C   0  0  0  0  0  0  0  0  0  0  0  0
    0.4473   -3.0893    5.3155 C   0  0  0  0  0  0  0  0  0  0  0  0
    1.4193   -2.4726    6.0968 C   0  0  0  0  0  0  0  0  0  0  0  0
    1.8519   -1.1765    5.7625 C   0  0  0  0  0  0  0  0  0  0  0  0
    1.3091   -0.5253    4.6530 C   0  0  0  0  0  0  0  0  0  0  0  0
    2.8614   -0.8166    6.7612 C   0  0  0  0  0  0  0  0  0  0  0  0
    2.9754   -1.8603    7.5977 C   0  0  0  0  0  0  0  0  0  0  0  0
    2.1214   -2.8591    7.2163 N   0  0  0  0  0  0  0  0  0  0  0  0
    2.0253   -3.7124    7.6673 H   0  0  0  0  0  0  0  0  0  0  0  0
    3.6270    0.4793    6.8351 C   0  0  0  0  0  0  0  0  0  0  0  0
    2.7992    1.5182    7.5943 C   0  0  0  0  0  0  0  0  0  0  0  0
    3.5455    2.7814    7.6664 N   0  3  0  0  0  0  0  0  0  0  0  0
    3.7116    3.3299    6.3138 C   0  0  0  0  0  0  0  0  0  0  0  0
    2.8051    3.7410    8.4964 C   0  0  0  0  0  0  0  0  0  0  0  0
    1.0048    1.8381    0.0023 H   0  0  0  0  0  0  0  0  0  0  0  0
   -0.5450    1.8219   -0.8730 H   0  0  0  0  0  0  0  0  0  0  0  0
   -0.5280    1.8123    0.9069 H   0  0  0  0  0  0  0  0  0  0  0  0
   -0.4183   -0.4908   -0.7241 H   0  0  0  0  0  0  0  0  0  0  0  0
   -0.2266    0.6346    2.8808 H   0  0  0  0  0  0  0  0  0  0  0  0
   -1.2653   -0.7750    2.5608 H   0  0  0  0  0  0  0  0  0  0  0  0
   -0.8329   -2.9072    3.6230 H   0  0  0  0  0  0  0  0  0  0  0  0
    0.1057   -4.0841    5.5609 H   0  0  0  0  0  0  0  0  0  0  0  0
    1.6421    0.4681    4.3911 H   0  0  0  0  0  0  0  0  0  0  0  0
    3.6421   -1.9048    8.4461 H   0  0  0  0  0  0  0  0  0  0  0  0
    4.5701    0.3149    7.3563 H   0  0  0  0  0  0  0  0  0  0  0  0
    3.8275    0.8410    5.8266 H   0  0  0  0  0  0  0  0  0  0  0  0
    1.8561    1.6826    7.0732 H   0  0  0  0  0  0  0  0  0  0  0  0
    2.5988    1.1565    8.6029 H   0  0  0  0  0  0  0  0  0  0  0  0
    4.2654    4.2672    6.3673 H   0  0  0  0  0  0  0  0  0  0  0  0
    4.2611    2.6179    5.6980 H   0  0  0  0  0  0  0  0  0  0  0  0
    2.7316    3.5116    5.8726 H   0  0  0  0  0  0  0  0  0  0  0  0
    2.6818    3.3340    9.5001 H   0  0  0  0  0  0  0  0  0  0  0  0
    3.3588    4.6783    8.5499 H   0  0  0  0  0  0  0  0  0  0  0  0
    1.8251    3.9226    8.0552 H   0  0  0  0  0  0  0  0  0  0  0  0
    4.4527    2.6132    8.0749 H   0  0  0  0  0  0  0  0  0  0  0  0
  1  2  1  0  0  0  0
  1 22  1  0  0  0  0
  1 23  1  0  0  0  0
  1 24  1  0  0  0  0
  2  3  1  0  0  0  0
  2 25  1  0  0  0  0
  3  4  2  0  0  0  0
  3  5  2  0  0  0  0
  3  6  1  0  0  0  0
  6  7  1  0  0  0  0
  6 26  1  0  0  0  0
  6 27  1  0  0  0  0
  7 12  2  0  0  0  0
  7  8  1  0  0  0  0
  8  9  2  0  0  0  0
  8 28  1  0  0  0  0
  9 10  1  0  0  0  0
  9 29  1  0  0  0  0
 10 15  1  0  0  0  0
 10 11  2  0  0  0  0
 11 12  1  0  0  0  0
 11 13  1  0  0  0  0
 12 30  1  0  0  0  0
 13 14  2  0  0  0  0
 13 17  1  0  0  0  0
 14 15  1  0  0  0  0
 14 31  1  0  0  0  0
 15 16  1  0  0  0  0
 17 18  1  0  0  0  0
 17 32  1  0  0  0  0
 17 33  1  0  0  0  0
 18 19  1  0  0  0  0
 18 34  1  0  0  0  0
 18 35  1  0  0  0  0
 19 20  1  0  0  0  0
 19 21  1  0  0  0  0
 19 42  1  0  0  0  0
 20 36  1  0  0  0  0
 20 37  1  0  0  0  0
 20 38  1  0  0  0  0
 21 39  1  0  0  0  0
 21 40  1  0  0  0  0
 21 41  1  0  0  0  0
M  CHG  1  19   1
M  END
$$$$
