ZINC00402979
 OpenBabel08292219463D

 39 39  0  0  1  0  0  0  0  0999 V2000
    0.2179    1.8012   -0.1444 C   0  0  0  0  0  0  0  0  0  0  0  0
    0.1104    0.2786   -0.0396 C   0  0  0  0  0  0  0  0  0  0  0  0
    0.6480   -0.3602   -1.3217 C   0  0  1  0  0  0  0  0  0  0  0  0
    1.6601   -0.0015   -1.5096 H   0  0  0  0  0  0  0  0  0  0  0  0
    0.6672   -1.8819   -1.1642 C   0  0  1  0  0  0  0  0  0  0  0  0
    0.9655   -2.3410   -2.1067 H   0  0  0  0  0  0  0  0  0  0  0  0
    1.6495   -2.2630   -0.0867 C   0  0  0  0  0  0  0  0  0  0  0  0
    1.2528   -2.2685    1.2377 C   0  0  0  0  0  0  0  0  0  0  0  0
    2.1500   -2.6174    2.2298 C   0  0  0  0  0  0  0  0  0  0  0  0
    3.4502   -2.9630    1.8977 C   0  0  0  0  0  0  0  0  0  0  0  0
    3.8493   -2.9579    0.5647 C   0  0  0  0  0  0  0  0  0  0  0  0
    2.9436   -2.6119   -0.4252 C   0  0  0  0  0  0  0  0  0  0  0  0
    5.1243   -3.2964    0.2338 O   0  0  0  0  0  0  0  0  0  0  0  0
    4.3342   -3.3060    2.8725 O   0  0  0  0  0  0  0  0  0  0  0  0
   -0.6374   -2.3399   -0.8031 O   0  0  0  0  0  0  0  0  0  0  0  0
   -0.2181    0.0043   -2.4508 N   0  3  0  0  0  0  0  0  0  0  0  0
    0.3742   -0.4887   -3.7014 C   0  0  0  0  0  0  0  0  0  0  0  0
   -0.5874   -0.2217   -4.8612 C   0  0  0  0  0  0  0  0  0  0  0  0
    1.6974    0.2349   -3.9591 C   0  0  0  0  0  0  0  0  0  0  0  0
    1.2674    2.0874   -0.2133 H   0  0  0  0  0  0  0  0  0  0  0  0
   -0.3108    2.1423   -1.0345 H   0  0  0  0  0  0  0  0  0  0  0  0
   -0.2262    2.2585    0.7397 H   0  0  0  0  0  0  0  0  0  0  0  0
    0.6948   -0.0691    0.8123 H   0  0  0  0  0  0  0  0  0  0  0  0
   -0.9336   -0.0034    0.0967 H   0  0  0  0  0  0  0  0  0  0  0  0
    0.2397   -1.9993    1.4978 H   0  0  0  0  0  0  0  0  0  0  0  0
    1.8378   -2.6202    3.2636 H   0  0  0  0  0  0  0  0  0  0  0  0
    3.2498   -2.6107   -1.4609 H   0  0  0  0  0  0  0  0  0  0  0  0
    5.2487   -4.2397    0.0617 H   0  0  0  0  0  0  0  0  0  0  0  0
    4.3457   -4.2508    3.0784 H   0  0  0  0  0  0  0  0  0  0  0  0
   -0.9677   -1.9712    0.0276 H   0  0  0  0  0  0  0  0  0  0  0  0
   -1.1290   -0.4106   -2.3236 H   0  0  0  0  0  0  0  0  0  0  0  0
    0.5560   -1.5603   -3.6196 H   0  0  0  0  0  0  0  0  0  0  0  0
   -0.7692    0.8499   -4.9430 H   0  0  0  0  0  0  0  0  0  0  0  0
   -0.1479   -0.5875   -5.7891 H   0  0  0  0  0  0  0  0  0  0  0  0
   -1.5300   -0.7372   -4.6776 H   0  0  0  0  0  0  0  0  0  0  0  0
    2.4182   -0.0408   -3.1893 H   0  0  0  0  0  0  0  0  0  0  0  0
    2.0834   -0.0511   -4.9375 H   0  0  0  0  0  0  0  0  0  0  0  0
    1.5333    1.3122   -3.9340 H   0  0  0  0  0  0  0  0  0  0  0  0
   -0.3090    1.0083   -2.4946 H   0  0  0  0  0  0  0  0  0  0  0  0
  1  2  1  0  0  0  0
  1 20  1  0  0  0  0
  1 21  1  0  0  0  0
  1 22  1  0  0  0  0
  2  3  1  0  0  0  0
  2 23  1  0  0  0  0
  2 24  1  0  0  0  0
  3  4  1  6  0  0  0
  3  5  1  0  0  0  0
  3 16  1  0  0  0  0
  5  6  1  6  0  0  0
  5  7  1  0  0  0  0
  5 15  1  0  0  0  0
  7 12  2  0  0  0  0
  7  8  1  0  0  0  0
  8  9  2  0  0  0  0
  8 25  1  0  0  0  0
  9 10  1  0  0  0  0
  9 26  1  0  0  0  0
 10 11  2  0  0  0  0
 10 14  1  0  0  0  0
 11 12  1  0  0  0  0
 11 13  1  0  0  0  0
 12 27  1  0  0  0  0
 13 28  1  0  0  0  0
 14 29  1  0  0  0  0
 15 30  1  0  0  0  0
 16 17  1  0  0  0  0
 16 31  1  0  0  0  0
 16 39  1  0  0  0  0
 17 18  1  0  0  0  0
 17 19  1  0  0  0  0
 17 32  1  0  0  0  0
 18 33  1  0  0  0  0
 18 34  1  0  0  0  0
 18 35  1  0  0  0  0
 19 36  1  0  0  0  0
 19 37  1  0  0  0  0
 19 38  1  0  0  0  0
M  CHG  1  16   1
M  END
$$$$
