ZINC00004028
 OpenBabel08292219463D

 48 50  0  0  1  0  0  0  0  0999 V2000
    2.6184    1.2327    1.6979 C   0  0  0  0  0  0  0  0  0  0  0  0
    2.4485   -0.2812    1.5557 C   0  0  0  0  0  0  0  0  0  0  0  0
    0.9894   -0.6020    1.2256 C   0  0  0  0  0  0  0  0  0  0  0  0
    0.8360   -2.0514    1.0424 N   0  3  1  0  0  0  0  0  0  0  0  0
    1.6121   -2.4819   -0.1282 C   0  0  0  0  0  0  0  0  0  0  0  0
    1.0259   -1.8464   -1.3906 C   0  0  0  0  0  0  0  0  0  0  0  0
    1.7319   -2.3952   -2.6036 C   0  0  0  0  0  0  0  0  0  0  0  0
    1.4198   -3.4790   -3.3554 C   0  0  0  0  0  0  0  0  0  0  0  0
    2.2198   -3.7976   -4.4367 C   0  0  0  0  0  0  0  0  0  0  0  0
    3.2928   -3.0169   -4.7132 C   0  0  0  0  0  0  0  0  0  0  0  0
    3.1920   -1.7820   -3.4279 S   0  0  0  0  0  0  0  0  0  0  0  0
    1.3251   -2.7506    2.2382 C   0  0  1  0  0  0  0  0  0  0  0  0
    2.3765   -2.5120    2.3985 H   0  0  0  0  0  0  0  0  0  0  0  0
    0.5055   -2.3190    3.4600 C   0  0  0  0  0  0  0  0  0  0  0  0
    1.1825   -2.8706    4.7131 C   0  0  0  0  0  0  0  0  0  0  0  0
    1.4456   -4.3464    4.5666 C   0  0  0  0  0  0  0  0  0  0  0  0
    1.4438   -4.9820    3.3461 C   0  0  0  0  0  0  0  0  0  0  0  0
    1.7023   -6.3452    3.2794 C   0  0  0  0  0  0  0  0  0  0  0  0
    1.9552   -7.0706    4.4259 C   0  0  0  0  0  0  0  0  0  0  0  0
    1.9532   -6.4380    5.6538 C   0  0  0  0  0  0  0  0  0  0  0  0
    1.6995   -5.0785    5.7249 C   0  0  0  0  0  0  0  0  0  0  0  0
    1.6981   -4.4542    6.9321 O   0  0  0  0  0  0  0  0  0  0  0  0
    1.1618   -4.2581    2.0553 C   0  0  0  0  0  0  0  0  0  0  0  0
    1.9760    1.5966    2.4997 H   0  0  0  0  0  0  0  0  0  0  0  0
    3.6579    1.4612    1.9330 H   0  0  0  0  0  0  0  0  0  0  0  0
    2.3422    1.7187    0.7621 H   0  0  0  0  0  0  0  0  0  0  0  0
    3.0909   -0.6452    0.7538 H   0  0  0  0  0  0  0  0  0  0  0  0
    2.7247   -0.7673    2.4914 H   0  0  0  0  0  0  0  0  0  0  0  0
    0.3503   -0.2695    2.0436 H   0  0  0  0  0  0  0  0  0  0  0  0
    0.7028   -0.0875    0.3084 H   0  0  0  0  0  0  0  0  0  0  0  0
    2.6495   -2.1682   -0.0117 H   0  0  0  0  0  0  0  0  0  0  0  0
    1.5682   -3.5676   -0.2140 H   0  0  0  0  0  0  0  0  0  0  0  0
   -0.0374   -2.0776   -1.4535 H   0  0  0  0  0  0  0  0  0  0  0  0
    1.1609   -0.7656   -1.3495 H   0  0  0  0  0  0  0  0  0  0  0  0
    0.5591   -4.0847   -3.1131 H   0  0  0  0  0  0  0  0  0  0  0  0
    1.9935   -4.6560   -5.0518 H   0  0  0  0  0  0  0  0  0  0  0  0
    4.0181   -3.1143   -5.5075 H   0  0  0  0  0  0  0  0  0  0  0  0
    0.4685   -1.2308    3.5115 H   0  0  0  0  0  0  0  0  0  0  0  0
   -0.5059   -2.7180    3.3832 H   0  0  0  0  0  0  0  0  0  0  0  0
    2.1277   -2.3508    4.8694 H   0  0  0  0  0  0  0  0  0  0  0  0
    0.5350   -2.7046    5.5741 H   0  0  0  0  0  0  0  0  0  0  0  0
    1.7050   -6.8425    2.3207 H   0  0  0  0  0  0  0  0  0  0  0  0
    2.1539   -8.1303    4.3632 H   0  0  0  0  0  0  0  0  0  0  0  0
    2.1482   -7.0012    6.5544 H   0  0  0  0  0  0  0  0  0  0  0  0
    0.8341   -4.4392    7.3661 H   0  0  0  0  0  0  0  0  0  0  0  0
    0.1413   -4.4732    1.7385 H   0  0  0  0  0  0  0  0  0  0  0  0
    1.8558   -4.6044    1.2895 H   0  0  0  0  0  0  0  0  0  0  0  0
   -0.1383   -2.2711    0.8992 H   0  0  0  0  0  0  0  0  0  0  0  0
  1  2  1  0  0  0  0
  1 24  1  0  0  0  0
  1 25  1  0  0  0  0
  1 26  1  0  0  0  0
  2  3  1  0  0  0  0
  2 27  1  0  0  0  0
  2 28  1  0  0  0  0
  3  4  1  0  0  0  0
  3 29  1  0  0  0  0
  3 30  1  0  0  0  0
  4  5  1  0  0  0  0
  4 12  1  0  0  0  0
  4 48  1  6  0  0  0
  5  6  1  0  0  0  0
  5 31  1  0  0  0  0
  5 32  1  0  0  0  0
  6  7  1  0  0  0  0
  6 33  1  0  0  0  0
  6 34  1  0  0  0  0
  7 11  1  0  0  0  0
  7  8  2  0  0  0  0
  8  9  1  0  0  0  0
  8 35  1  0  0  0  0
  9 10  2  0  0  0  0
  9 36  1  0  0  0  0
 10 11  1  0  0  0  0
 10 37  1  0  0  0  0
 12 13  1  1  0  0  0
 12 23  1  0  0  0  0
 12 14  1  0  0  0  0
 14 15  1  0  0  0  0
 14 38  1  0  0  0  0
 14 39  1  0  0  0  0
 15 16  1  0  0  0  0
 15 40  1  0  0  0  0
 15 41  1  0  0  0  0
 16 21  2  0  0  0  0
 16 17  1  0  0  0  0
 17 18  2  0  0  0  0
 17 23  1  0  0  0  0
 18 19  1  0  0  0  0
 18 42  1  0  0  0  0
 19 20  2  0  0  0  0
 19 43  1  0  0  0  0
 20 21  1  0  0  0  0
 20 44  1  0  0  0  0
 21 22  1  0  0  0  0
 22 45  1  0  0  0  0
 23 46  1  0  0  0  0
 23 47  1  0  0  0  0
M  CHG  1   4   1
M  END
$$$$
