ZINC00113410
 OpenBabel08292219463D

 39 40  0  0  1  0  0  0  0  0999 V2000
    0.1393    1.3034   -0.7375 C   0  0  0  0  0  0  0  0  0  0  0  0
    0.0864   -0.1636   -0.6820 N   0  3  0  0  0  0  0  0  0  0  0  0
    1.0003   -0.6474    0.3614 C   0  0  0  0  0  0  0  0  0  0  0  0
   -1.2835   -0.5928   -0.3705 C   0  0  0  0  0  0  0  0  0  0  0  0
   -1.3670   -2.1192   -0.4352 C   0  0  0  0  0  0  0  0  0  0  0  0
   -2.7938   -2.5661   -0.1108 C   0  0  2  0  0  0  0  0  0  0  0  0
   -3.0930   -2.1550    0.8534 H   0  0  0  0  0  0  0  0  0  0  0  0
   -2.8481   -4.0711   -0.0538 C   0  0  0  0  0  0  0  0  0  0  0  0
   -2.3965   -4.8198   -1.1246 C   0  0  0  0  0  0  0  0  0  0  0  0
   -2.4460   -6.2000   -1.0730 C   0  0  0  0  0  0  0  0  0  0  0  0
   -2.9476   -6.8324    0.0507 C   0  0  0  0  0  0  0  0  0  0  0  0
   -3.3994   -6.0826    1.1221 C   0  0  0  0  0  0  0  0  0  0  0  0
   -3.3441   -4.7025    1.0715 C   0  0  0  0  0  0  0  0  0  0  0  0
   -3.0106   -8.5660    0.1161 Cl  0  0  0  0  0  0  0  0  0  0  0  0
   -3.7313   -2.0698   -1.1812 C   0  0  0  0  0  0  0  0  0  0  0  0
   -3.3064   -2.0281   -2.4959 C   0  0  0  0  0  0  0  0  0  0  0  0
   -4.1766   -1.5699   -3.4728 C   0  0  0  0  0  0  0  0  0  0  0  0
   -5.4475   -1.1690   -3.0893 C   0  0  0  0  0  0  0  0  0  0  0  0
   -5.8018   -1.2390   -1.7555 C   0  0  0  0  0  0  0  0  0  0  0  0
   -4.9493   -1.6855   -0.8536 N   0  0  0  0  0  0  0  0  0  0  0  0
    1.1558    1.6218   -0.9687 H   0  0  0  0  0  0  0  0  0  0  0  0
   -0.5388    1.6623   -1.5117 H   0  0  0  0  0  0  0  0  0  0  0  0
   -0.1599    1.7145    0.2266 H   0  0  0  0  0  0  0  0  0  0  0  0
    2.0168   -0.3290    0.1303 H   0  0  0  0  0  0  0  0  0  0  0  0
    0.7011   -0.2363    1.3256 H   0  0  0  0  0  0  0  0  0  0  0  0
    0.9611   -1.7359    0.4026 H   0  0  0  0  0  0  0  0  0  0  0  0
   -1.5507   -0.2565    0.6313 H   0  0  0  0  0  0  0  0  0  0  0  0
   -1.9734   -0.1601   -1.0950 H   0  0  0  0  0  0  0  0  0  0  0  0
   -1.0998   -2.4555   -1.4370 H   0  0  0  0  0  0  0  0  0  0  0  0
   -0.6771   -2.5518    0.2893 H   0  0  0  0  0  0  0  0  0  0  0  0
   -2.0053   -4.3260   -2.0019 H   0  0  0  0  0  0  0  0  0  0  0  0
   -2.0935   -6.7848   -1.9097 H   0  0  0  0  0  0  0  0  0  0  0  0
   -3.7913   -6.5757    1.9994 H   0  0  0  0  0  0  0  0  0  0  0  0
   -3.6924   -4.1171    1.9097 H   0  0  0  0  0  0  0  0  0  0  0  0
   -2.3089   -2.3481   -2.7585 H   0  0  0  0  0  0  0  0  0  0  0  0
   -3.8719   -1.5259   -4.5080 H   0  0  0  0  0  0  0  0  0  0  0  0
   -6.1513   -0.8062   -3.8237 H   0  0  0  0  0  0  0  0  0  0  0  0
   -6.7897   -0.9286   -1.4487 H   0  0  0  0  0  0  0  0  0  0  0  0
    0.3633   -0.5442   -1.5745 H   0  0  0  0  0  0  0  0  0  0  0  0
  1  2  1  0  0  0  0
  1 21  1  0  0  0  0
  1 22  1  0  0  0  0
  1 23  1  0  0  0  0
  2  3  1  0  0  0  0
  2  4  1  0  0  0  0
  2 39  1  0  0  0  0
  3 24  1  0  0  0  0
  3 25  1  0  0  0  0
  3 26  1  0  0  0  0
  4  5  1  0  0  0  0
  4 27  1  0  0  0  0
  4 28  1  0  0  0  0
  5  6  1  0  0  0  0
  5 29  1  0  0  0  0
  5 30  1  0  0  0  0
  6  7  1  1  0  0  0
  6  8  1  0  0  0  0
  6 15  1  0  0  0  0
  8 13  2  0  0  0  0
  8  9  1  0  0  0  0
  9 10  2  0  0  0  0
  9 31  1  0  0  0  0
 10 11  1  0  0  0  0
 10 32  1  0  0  0  0
 11 12  2  0  0  0  0
 11 14  1  0  0  0  0
 12 13  1  0  0  0  0
 12 33  1  0  0  0  0
 13 34  1  0  0  0  0
 15 20  2  0  0  0  0
 15 16  1  0  0  0  0
 16 17  2  0  0  0  0
 16 35  1  0  0  0  0
 17 18  1  0  0  0  0
 17 36  1  0  0  0  0
 18 19  2  0  0  0  0
 18 37  1  0  0  0  0
 19 20  1  0  0  0  0
 19 38  1  0  0  0  0
M  CHG  1   2   1
M  END
$$$$
