ZINC30690463
 OpenBabel08292219463D

 49 52  0  0  1  0  0  0  0  0999 V2000
   -0.3281    0.9840    1.8023 C   0  0  0  0  0  0  0  0  0  0  0  0
   -0.1584   -0.4996    1.4690 C   0  0  0  0  0  0  0  0  0  0  0  0
    0.3635   -0.7040    0.0178 C   0  0  1  0  0  0  0  0  0  0  0  0
    1.0405    0.1114   -0.2368 H   0  0  0  0  0  0  0  0  0  0  0  0
    1.0752   -1.9791   -0.1148 N   0  0  0  0  0  0  0  0  0  0  0  0
    1.7368   -2.4781    1.0984 C   0  0  2  0  0  0  0  0  0  0  0  0
    1.5462   -3.5188    1.3606 H   0  0  0  0  0  0  0  0  0  0  0  0
    1.2697   -1.2424    2.3796 S   0  0  0  0  0  0  0  0  0  0  0  0
    3.0673   -2.2015    0.4210 C   0  0  1  0  0  0  0  0  0  0  0  0
    3.7261   -3.0682    0.3655 H   0  0  0  0  0  0  0  0  0  0  0  0
    2.2313   -1.9900   -0.8060 C   0  0  0  0  0  0  0  0  0  0  0  0
    2.4974   -1.8722   -1.9833 O   0  0  0  0  0  0  0  0  0  0  0  0
    3.7428   -0.9941    0.9027 N   0  0  0  0  0  0  0  0  0  0  0  0
    3.5627    0.2473    0.4079 C   0  0  0  0  0  0  0  0  0  0  0  0
    2.8255    0.5450   -0.5080 O   0  0  0  0  0  0  0  0  0  0  0  0
    4.4348    1.2065    1.1881 C   0  0  2  0  0  0  0  0  0  0  0  0
    5.3277    1.4588    0.6161 H   0  0  0  0  0  0  0  0  0  0  0  0
    4.8023    0.4669    2.4191 N   0  0  0  0  0  0  0  0  0  0  0  0
    4.7146   -0.9495    2.0021 C   0  0  0  0  0  0  0  0  0  0  0  0
    4.2303   -1.8139    3.1679 C   0  0  0  0  0  0  0  0  0  0  0  0
    6.0812   -1.4370    1.5166 C   0  0  0  0  0  0  0  0  0  0  0  0
    3.6639    2.4545    1.5333 C   0  0  0  0  0  0  0  0  0  0  0  0
    2.7704    2.4454    2.5880 C   0  0  0  0  0  0  0  0  0  0  0  0
    2.0632    3.5902    2.9047 C   0  0  0  0  0  0  0  0  0  0  0  0
    2.2500    4.7442    2.1669 C   0  0  0  0  0  0  0  0  0  0  0  0
    3.1442    4.7536    1.1128 C   0  0  0  0  0  0  0  0  0  0  0  0
    3.8545    3.6100    0.7988 C   0  0  0  0  0  0  0  0  0  0  0  0
   -0.8049   -0.6913   -0.9339 C   0  0  0  0  0  0  0  0  0  0  0  0
   -1.1759    0.3590   -1.4296 O   0  0  0  0  0  0  0  0  0  0  0  0
   -1.3791   -1.7312   -1.2082 O   0  0  0  0  0  1  0  0  0  0  0  0
   -1.4515   -1.2783    1.7185 C   0  0  0  0  0  0  0  0  0  0  0  0
    0.5860    1.5205    1.5477 H   0  0  0  0  0  0  0  0  0  0  0  0
   -1.1606    1.3922    1.2292 H   0  0  0  0  0  0  0  0  0  0  0  0
   -0.5306    1.0963    2.8674 H   0  0  0  0  0  0  0  0  0  0  0  0
    5.7377    0.7013    2.7162 H   0  0  0  0  0  0  0  0  0  0  0  0
    4.1165   -2.8449    2.8330 H   0  0  0  0  0  0  0  0  0  0  0  0
    4.9590   -1.7733    3.9776 H   0  0  0  0  0  0  0  0  0  0  0  0
    3.2705   -1.4394    3.5237 H   0  0  0  0  0  0  0  0  0  0  0  0
    6.4286   -0.7963    0.7061 H   0  0  0  0  0  0  0  0  0  0  0  0
    6.7940   -1.3996    2.3404 H   0  0  0  0  0  0  0  0  0  0  0  0
    5.9945   -2.4625    1.1575 H   0  0  0  0  0  0  0  0  0  0  0  0
    2.6245    1.5438    3.1644 H   0  0  0  0  0  0  0  0  0  0  0  0
    1.3646    3.5829    3.7282 H   0  0  0  0  0  0  0  0  0  0  0  0
    1.6970    5.6385    2.4139 H   0  0  0  0  0  0  0  0  0  0  0  0
    3.2899    5.6551    0.5362 H   0  0  0  0  0  0  0  0  0  0  0  0
    4.5559    3.6183   -0.0224 H   0  0  0  0  0  0  0  0  0  0  0  0
   -2.2436   -0.8800    1.0844 H   0  0  0  0  0  0  0  0  0  0  0  0
   -1.2928   -2.3309    1.4836 H   0  0  0  0  0  0  0  0  0  0  0  0
   -1.7393   -1.1790    2.7651 H   0  0  0  0  0  0  0  0  0  0  0  0
  1  2  1  0  0  0  0
  1 32  1  0  0  0  0
  1 33  1  0  0  0  0
  1 34  1  0  0  0  0
  2  8  1  0  0  0  0
  2  3  1  0  0  0  0
  2 31  1  0  0  0  0
  3  4  1  6  0  0  0
  3  5  1  0  0  0  0
  3 28  1  0  0  0  0
  5 11  1  0  0  0  0
  5  6  1  0  0  0  0
  6  7  1  1  0  0  0
  6  8  1  0  0  0  0
  6  9  1  0  0  0  0
  9 10  1  6  0  0  0
  9 11  1  0  0  0  0
  9 13  1  0  0  0  0
 11 12  2  0  0  0  0
 13 19  1  0  0  0  0
 13 14  1  0  0  0  0
 14 15  2  0  0  0  0
 14 16  1  0  0  0  0
 16 17  1  6  0  0  0
 16 18  1  0  0  0  0
 16 22  1  0  0  0  0
 18 19  1  0  0  0  0
 18 35  1  0  0  0  0
 19 20  1  0  0  0  0
 19 21  1  0  0  0  0
 20 36  1  0  0  0  0
 20 37  1  0  0  0  0
 20 38  1  0  0  0  0
 21 39  1  0  0  0  0
 21 40  1  0  0  0  0
 21 41  1  0  0  0  0
 22 27  2  0  0  0  0
 22 23  1  0  0  0  0
 23 24  2  0  0  0  0
 23 42  1  0  0  0  0
 24 25  1  0  0  0  0
 24 43  1  0  0  0  0
 25 26  2  0  0  0  0
 25 44  1  0  0  0  0
 26 27  1  0  0  0  0
 26 45  1  0  0  0  0
 27 46  1  0  0  0  0
 28 29  2  0  0  0  0
 28 30  1  0  0  0  0
 31 47  1  0  0  0  0
 31 48  1  0  0  0  0
 31 49  1  0  0  0  0
M  END
$$$$
