ZINC00020248
 OpenBabel08292219463D

 46 48  0  0  0  0  0  0  0  0999 V2000
   -5.6600    1.3618    0.4597 C   0  0  0  0  0  0  0  0  0  0  0  0
   -5.6471   -0.0878    0.2218 N   0  3  0  0  0  0  0  0  0  0  0  0
   -6.3574   -0.3850   -1.0293 C   0  0  0  0  0  0  0  0  0  0  0  0
   -4.2581   -0.5548    0.1191 C   0  0  0  0  0  0  0  0  0  0  0  0
   -4.2405   -2.0797   -0.0038 C   0  0  0  0  0  0  0  0  0  0  0  0
   -2.7938   -2.5661   -0.1108 C   0  0  0  0  0  0  0  0  0  0  0  0
   -2.7704   -4.0309   -0.1190 N   0  0  0  0  0  0  0  0  0  0  0  0
   -2.7303   -4.6837   -1.3451 C   0  0  0  0  0  0  0  0  0  0  0  0
   -1.8260   -4.1660   -2.2811 C   0  0  0  0  0  0  0  0  0  0  0  0
   -1.6797   -4.7476   -3.5192 C   0  0  0  0  0  0  0  0  0  0  0  0
   -2.4365   -5.8609   -3.8384 C   0  0  0  0  0  0  0  0  0  0  0  0
   -3.3330   -6.3646   -2.9249 C   0  0  0  0  0  0  0  0  0  0  0  0
   -3.5037   -5.7750   -1.6688 C   0  0  0  0  0  0  0  0  0  0  0  0
   -4.5743   -6.4166   -0.8216 C   0  0  0  0  0  0  0  0  0  0  0  0
   -4.9918   -5.6033    0.3783 C   0  0  0  0  0  0  0  0  0  0  0  0
   -3.8887   -5.4681    1.3836 C   0  0  0  0  0  0  0  0  0  0  0  0
   -2.7839   -4.6994    1.1019 C   0  0  0  0  0  0  0  0  0  0  0  0
   -1.7322   -4.5882    1.9998 C   0  0  0  0  0  0  0  0  0  0  0  0
   -1.8086   -5.2524    3.2126 C   0  0  0  0  0  0  0  0  0  0  0  0
   -2.9248   -6.0132    3.5136 C   0  0  0  0  0  0  0  0  0  0  0  0
   -3.9754   -6.1256    2.6005 C   0  0  0  0  0  0  0  0  0  0  0  0
   -0.5058   -5.1313    4.3535 Cl  0  0  0  0  0  0  0  0  0  0  0  0
   -6.6906    1.7083    0.5359 H   0  0  0  0  0  0  0  0  0  0  0  0
   -5.1330    1.5823    1.3879 H   0  0  0  0  0  0  0  0  0  0  0  0
   -5.1660    1.8703   -0.3683 H   0  0  0  0  0  0  0  0  0  0  0  0
   -5.8633    0.1235   -1.8572 H   0  0  0  0  0  0  0  0  0  0  0  0
   -6.3478   -1.4606   -1.2058 H   0  0  0  0  0  0  0  0  0  0  0  0
   -7.3880   -0.0385   -0.9531 H   0  0  0  0  0  0  0  0  0  0  0  0
   -3.7907   -0.1139   -0.7614 H   0  0  0  0  0  0  0  0  0  0  0  0
   -3.7074   -0.2558    1.0110 H   0  0  0  0  0  0  0  0  0  0  0  0
   -4.7079   -2.5206    0.8766 H   0  0  0  0  0  0  0  0  0  0  0  0
   -4.7912   -2.3787   -0.8957 H   0  0  0  0  0  0  0  0  0  0  0  0
   -2.3515   -2.1905   -1.0335 H   0  0  0  0  0  0  0  0  0  0  0  0
   -2.2229   -2.1984    0.7418 H   0  0  0  0  0  0  0  0  0  0  0  0
   -1.2357   -3.2979   -2.0274 H   0  0  0  0  0  0  0  0  0  0  0  0
   -0.9815   -4.3392   -4.2348 H   0  0  0  0  0  0  0  0  0  0  0  0
   -2.3238   -6.3333   -4.8030 H   0  0  0  0  0  0  0  0  0  0  0  0
   -3.9182   -7.2346   -3.1839 H   0  0  0  0  0  0  0  0  0  0  0  0
   -5.4518   -6.5884   -1.4450 H   0  0  0  0  0  0  0  0  0  0  0  0
   -4.2074   -7.3823   -0.4739 H   0  0  0  0  0  0  0  0  0  0  0  0
   -5.2905   -4.6094    0.0453 H   0  0  0  0  0  0  0  0  0  0  0  0
   -5.8457   -6.0866    0.8532 H   0  0  0  0  0  0  0  0  0  0  0  0
   -0.8653   -3.9919    1.7562 H   0  0  0  0  0  0  0  0  0  0  0  0
   -2.9858   -6.5230    4.4638 H   0  0  0  0  0  0  0  0  0  0  0  0
   -4.8449   -6.7215    2.8354 H   0  0  0  0  0  0  0  0  0  0  0  0
   -6.1044   -0.5585    0.9882 H   0  0  0  0  0  0  0  0  0  0  0  0
  1  2  1  0  0  0  0
  1 23  1  0  0  0  0
  1 24  1  0  0  0  0
  1 25  1  0  0  0  0
  2  3  1  0  0  0  0
  2  4  1  0  0  0  0
  2 46  1  0  0  0  0
  3 26  1  0  0  0  0
  3 27  1  0  0  0  0
  3 28  1  0  0  0  0
  4  5  1  0  0  0  0
  4 29  1  0  0  0  0
  4 30  1  0  0  0  0
  5  6  1  0  0  0  0
  5 31  1  0  0  0  0
  5 32  1  0  0  0  0
  6  7  1  0  0  0  0
  6 33  1  0  0  0  0
  6 34  1  0  0  0  0
  7 17  1  0  0  0  0
  7  8  1  0  0  0  0
  8 13  2  0  0  0  0
  8  9  1  0  0  0  0
  9 10  2  0  0  0  0
  9 35  1  0  0  0  0
 10 11  1  0  0  0  0
 10 36  1  0  0  0  0
 11 12  2  0  0  0  0
 11 37  1  0  0  0  0
 12 13  1  0  0  0  0
 12 38  1  0  0  0  0
 13 14  1  0  0  0  0
 14 15  1  0  0  0  0
 14 39  1  0  0  0  0
 14 40  1  0  0  0  0
 15 16  1  0  0  0  0
 15 41  1  0  0  0  0
 15 42  1  0  0  0  0
 16 21  2  0  0  0  0
 16 17  1  0  0  0  0
 17 18  2  0  0  0  0
 18 19  1  0  0  0  0
 18 43  1  0  0  0  0
 19 20  2  0  0  0  0
 19 22  1  0  0  0  0
 20 21  1  0  0  0  0
 20 44  1  0  0  0  0
 21 45  1  0  0  0  0
M  CHG  1   2   1
M  END
$$$$
