ZINC03871978
 OpenBabel08292219463D

 44 46  0  0  1  0  0  0  0  0999 V2000
    2.2807   -4.4509    3.4010 C   0  0  0  0  0  0  0  0  0  0  0  0
    1.5608   -3.9843    2.2582 O   0  0  0  0  0  0  0  0  0  0  0  0
    1.4497   -2.5747    2.1836 N   0  0  0  0  0  0  0  0  0  0  0  0
    0.8149   -2.0223    1.1867 C   0  0  0  0  0  0  0  0  0  0  0  0
    0.6020   -0.5646    1.1660 C   0  0  0  0  0  0  0  0  0  0  0  0
    1.0188    0.3186    2.1166 C   0  0  0  0  0  0  0  0  0  0  0  0
    0.6038    1.5946    1.6935 C   0  0  0  0  0  0  0  0  0  0  0  0
   -0.0391    1.4326    0.5185 C   0  0  0  0  0  0  0  0  0  0  0  0
   -0.0338    0.1286    0.2010 O   0  0  0  0  0  0  0  0  0  0  0  0
    0.3079   -2.8612    0.0747 C   0  0  0  0  0  0  0  0  0  0  0  0
    0.3933   -4.0716    0.1390 O   0  0  0  0  0  0  0  0  0  0  0  0
   -0.2476   -2.2814   -1.0078 N   0  0  0  0  0  0  0  0  0  0  0  0
   -0.8536   -3.1103   -2.0528 C   0  0  1  0  0  0  0  0  0  0  0  0
   -1.1894   -4.0771   -1.6779 H   0  0  0  0  0  0  0  0  0  0  0  0
   -1.9131   -2.3787   -2.8599 C   0  0  2  0  0  0  0  0  0  0  0  0
   -2.8109   -2.9492   -3.0979 H   0  0  0  0  0  0  0  0  0  0  0  0
   -0.8415   -2.3487   -3.9000 N   0  0  0  0  0  0  0  0  0  0  0  0
   -0.0035   -3.2157   -3.2993 C   0  0  0  0  0  0  0  0  0  0  0  0
    0.9987   -3.8201   -3.6177 O   0  0  0  0  0  0  0  0  0  0  0  0
   -0.7971   -1.4947   -5.0219 C   0  0  0  0  0  0  0  0  0  0  0  0
   -1.5129   -0.3809   -5.0456 C   0  0  0  0  0  0  0  0  0  0  0  0
   -2.4678    0.1331   -4.0179 C   0  0  0  0  0  0  0  0  0  0  0  0
   -2.2111   -0.6446   -2.3763 S   0  0  0  0  0  0  0  0  0  0  0  0
   -1.3413    0.4816   -6.2694 C   0  0  0  0  0  0  0  0  0  0  0  0
   -2.0801    1.6938   -6.1052 O   0  0  0  0  0  0  0  0  0  0  0  0
   -2.1167    2.5345   -7.1562 C   0  0  0  0  0  0  0  0  0  0  0  0
   -1.5371    2.2469   -8.1847 O   0  0  0  0  0  0  0  0  0  0  0  0
   -2.7961    3.6951   -7.0675 N   0  0  0  0  0  0  0  0  0  0  0  0
    0.0506   -1.8436   -6.1734 C   0  0  0  0  0  0  0  0  0  0  0  0
    0.0137   -1.1623   -7.1890 O   0  0  0  0  0  0  0  0  0  0  0  0
    0.7922   -2.8150   -6.1150 O   0  0  0  0  0  1  0  0  0  0  0  0
    1.7760   -4.1196    4.3086 H   0  0  0  0  0  0  0  0  0  0  0  0
    2.3215   -5.5401    3.3850 H   0  0  0  0  0  0  0  0  0  0  0  0
    3.2937   -4.0490    3.3813 H   0  0  0  0  0  0  0  0  0  0  0  0
    1.5619    0.0842    3.0202 H   0  0  0  0  0  0  0  0  0  0  0  0
    0.7684    2.5277    2.2118 H   0  0  0  0  0  0  0  0  0  0  0  0
   -0.4819    2.2220   -0.0707 H   0  0  0  0  0  0  0  0  0  0  0  0
   -0.2463   -1.3154   -1.0949 H   0  0  0  0  0  0  0  0  0  0  0  0
   -2.3424    1.2119   -3.9250 H   0  0  0  0  0  0  0  0  0  0  0  0
   -3.4866   -0.0776   -4.3433 H   0  0  0  0  0  0  0  0  0  0  0  0
   -0.2852    0.7153   -6.4041 H   0  0  0  0  0  0  0  0  0  0  0  0
   -1.7098   -0.0527   -7.1451 H   0  0  0  0  0  0  0  0  0  0  0  0
   -3.2587    3.9247   -6.2464 H   0  0  0  0  0  0  0  0  0  0  0  0
   -2.8224    4.3008   -7.8247 H   0  0  0  0  0  0  0  0  0  0  0  0
  1  2  1  0  0  0  0
  1 32  1  0  0  0  0
  1 33  1  0  0  0  0
  1 34  1  0  0  0  0
  2  3  1  0  0  0  0
  3  4  2  0  0  0  0
  4  5  1  0  0  0  0
  4 10  1  0  0  0  0
  5  9  1  0  0  0  0
  5  6  2  0  0  0  0
  6  7  1  0  0  0  0
  6 35  1  0  0  0  0
  7  8  2  0  0  0  0
  7 36  1  0  0  0  0
  8  9  1  0  0  0  0
  8 37  1  0  0  0  0
 10 11  2  0  0  0  0
 10 12  1  0  0  0  0
 12 13  1  0  0  0  0
 12 38  1  0  0  0  0
 13 14  1  1  0  0  0
 13 18  1  0  0  0  0
 13 15  1  0  0  0  0
 15 16  1  6  0  0  0
 15 23  1  0  0  0  0
 15 17  1  0  0  0  0
 17 18  1  0  0  0  0
 17 20  1  0  0  0  0
 18 19  2  0  0  0  0
 20 21  2  0  0  0  0
 20 29  1  0  0  0  0
 21 22  1  0  0  0  0
 21 24  1  0  0  0  0
 22 23  1  0  0  0  0
 22 39  1  0  0  0  0
 22 40  1  0  0  0  0
 24 25  1  0  0  0  0
 24 41  1  0  0  0  0
 24 42  1  0  0  0  0
 25 26  1  0  0  0  0
 26 27  2  0  0  0  0
 26 28  1  0  0  0  0
 28 43  1  0  0  0  0
 28 44  1  0  0  0  0
 29 30  2  0  0  0  0
 29 31  1  0  0  0  0
M  END
$$$$
