ZINC30691679
 OpenBabel08292219463D

 54 57  0  0  1  0  0  0  0  0999 V2000
   -3.9372    4.0440    1.2047 C   0  0  0  0  0  0  0  0  0  0  0  0
   -3.2768    3.7983    2.5628 C   0  0  2  0  0  0  0  0  0  0  0  0
   -1.8690    4.3629    2.5593 C   0  0  0  0  0  0  0  0  0  0  0  0
   -1.1346    3.7438    1.3596 C   0  0  1  0  0  0  0  0  0  0  0  0
   -0.1003    4.1153    1.3134 H   0  0  0  0  0  0  0  0  0  0  0  0
   -1.1287    2.2196    1.4270 C   0  0  1  0  0  0  0  0  0  0  0  0
   -0.5400    1.9275    2.3091 H   0  0  0  0  0  0  0  0  0  0  0  0
   -2.5495    1.6528    1.5768 C   0  0  2  0  0  0  0  0  0  0  0  0
   -3.1681    1.8872    0.6979 H   0  0  0  0  0  0  0  0  0  0  0  0
   -3.1576    2.2724    2.8218 C   0  0  2  0  0  0  0  0  0  0  0  0
   -2.5066    1.9174    3.6343 H   0  0  0  0  0  0  0  0  0  0  0  0
   -4.6142    1.8939    3.1179 C   0  0  0  0  0  0  0  0  0  0  0  0
   -5.1080    3.0670    4.0078 C   0  0  0  0  0  0  0  0  0  0  0  0
   -4.1983    4.2771    3.6799 C   0  0  2  0  0  0  0  0  0  0  0  0
   -5.0293    5.4423    3.2079 C   0  0  0  0  0  0  0  0  0  0  0  0
   -6.1436    5.2555    2.7798 O   0  0  0  0  0  0  0  0  0  0  0  0
   -4.5315    6.6877    3.2631 O   0  0  0  0  0  0  0  0  0  0  0  0
   -5.3879    7.7613    2.7915 C   0  0  0  0  0  0  0  0  0  0  0  0
   -6.6689    8.0906    4.0169 Cl  0  0  0  0  0  0  0  0  0  0  0  0
   -3.4329    4.6468    4.8287 O   0  0  0  0  0  0  0  0  0  0  0  0
   -2.4810    0.1325    1.7337 C   0  0  0  0  0  0  0  0  0  0  0  0
   -1.9057   -0.4912    0.4583 C   0  0  0  0  0  0  0  0  0  0  0  0
   -0.5646    0.1603    0.1771 C   0  0  0  0  0  0  0  0  0  0  0  0
    0.4951   -0.6123   -0.0179 C   0  0  0  0  0  0  0  0  0  0  0  0
    1.8195   -0.0193   -0.2591 C   0  0  0  0  0  0  0  0  0  0  0  0
    2.7876   -0.7247   -0.4731 O   0  0  0  0  0  0  0  0  0  0  0  0
    1.9469    1.4477   -0.2362 C   0  0  0  0  0  0  0  0  0  0  0  0
    0.8743    2.1997   -0.0454 C   0  0  0  0  0  0  0  0  0  0  0  0
   -0.5010    1.6586    0.1473 C   0  0  2  0  0  0  0  0  0  0  0  0
   -1.3622    2.1403   -1.0220 C   0  0  0  0  0  0  0  0  0  0  0  0
   -1.7825    4.1545    0.1540 O   0  0  0  0  0  0  0  0  0  0  0  0
   -4.0188    5.1265    1.0271 H   0  0  0  0  0  0  0  0  0  0  0  0
   -4.9413    3.5947    1.1986 H   0  0  0  0  0  0  0  0  0  0  0  0
   -3.3264    3.5874    0.4120 H   0  0  0  0  0  0  0  0  0  0  0  0
   -1.9133    5.4578    2.4631 H   0  0  0  0  0  0  0  0  0  0  0  0
   -1.3652    4.0977    3.5005 H   0  0  0  0  0  0  0  0  0  0  0  0
   -5.1723    1.8167    2.1731 H   0  0  0  0  0  0  0  0  0  0  0  0
   -4.6427    0.9265    3.6406 H   0  0  0  0  0  0  0  0  0  0  0  0
   -6.1592    3.2889    3.7718 H   0  0  0  0  0  0  0  0  0  0  0  0
   -5.0218    2.7849    5.0675 H   0  0  0  0  0  0  0  0  0  0  0  0
   -4.7863    8.6691    2.6369 H   0  0  0  0  0  0  0  0  0  0  0  0
   -5.8567    7.4659    1.8413 H   0  0  0  0  0  0  0  0  0  0  0  0
   -3.9403    5.0169    5.7318 H   0  0  0  0  0  0  0  0  0  0  0  0
   -1.8343   -0.1192    2.5872 H   0  0  0  0  0  0  0  0  0  0  0  0
   -3.4918   -0.2638    1.9102 H   0  0  0  0  0  0  0  0  0  0  0  0
   -1.7773   -1.5738    0.6052 H   0  0  0  0  0  0  0  0  0  0  0  0
   -2.5957   -0.3143   -0.3799 H   0  0  0  0  0  0  0  0  0  0  0  0
    0.3884   -1.7070   -0.0002 H   0  0  0  0  0  0  0  0  0  0  0  0
    2.9309    1.9188   -0.3772 H   0  0  0  0  0  0  0  0  0  0  0  0
    0.9679    3.2955   -0.0220 H   0  0  0  0  0  0  0  0  0  0  0  0
   -0.9456    1.7587   -1.9658 H   0  0  0  0  0  0  0  0  0  0  0  0
   -1.3701    3.2401   -1.0428 H   0  0  0  0  0  0  0  0  0  0  0  0
   -2.3900    1.7685   -0.8980 H   0  0  0  0  0  0  0  0  0  0  0  0
   -1.4013    3.8122   -0.8194 H   0  0  0  0  0  0  0  0  0  0  0  0
  1 32  1  0  0  0  0
  1 33  1  0  0  0  0
  1 34  1  0  0  0  0
  2  1  1  6  0  0  0
  2 10  1  0  0  0  0
  2 14  1  0  0  0  0
  2  3  1  0  0  0  0
  3  4  1  0  0  0  0
  3 35  1  0  0  0  0
  3 36  1  0  0  0  0
  4  5  1  6  0  0  0
  4  6  1  0  0  0  0
  4 31  1  0  0  0  0
  6  7  1  1  0  0  0
  6 29  1  0  0  0  0
  6  8  1  0  0  0  0
  8  9  1  6  0  0  0
  8 10  1  0  0  0  0
  8 21  1  0  0  0  0
 10 11  1  1  0  0  0
 10 12  1  0  0  0  0
 12 13  1  0  0  0  0
 12 37  1  0  0  0  0
 12 38  1  0  0  0  0
 13 14  1  0  0  0  0
 13 39  1  0  0  0  0
 13 40  1  0  0  0  0
 14 15  1  6  0  0  0
 14 20  1  0  0  0  0
 15 16  2  0  0  0  0
 15 17  1  0  0  0  0
 17 18  1  0  0  0  0
 18 19  1  0  0  0  0
 18 41  1  0  0  0  0
 18 42  1  0  0  0  0
 20 43  1  0  0  0  0
 21 22  1  0  0  0  0
 21 44  1  0  0  0  0
 21 45  1  0  0  0  0
 22 23  1  0  0  0  0
 22 46  1  0  0  0  0
 22 47  1  0  0  0  0
 23 29  1  0  0  0  0
 23 24  2  0  0  0  0
 24 25  1  0  0  0  0
 24 48  1  0  0  0  0
 25 26  2  0  0  0  0
 25 27  1  0  0  0  0
 27 28  2  0  0  0  0
 27 49  1  0  0  0  0
 28 29  1  0  0  0  0
 28 50  1  0  0  0  0
 29 30  1  6  0  0  0
 30 51  1  0  0  0  0
 30 52  1  0  0  0  0
 30 53  1  0  0  0  0
 31 54  1  0  0  0  0
M  END
$$$$
