ZINC53682927
 OpenBabel08292219463D

 71 75  0  0  1  0  0  0  0  0999 V2000
   -0.0158    1.3119    0.0093 C   0  0  0  0  0  0  0  0  0  0  0  0
    1.0888    2.0360    0.0026 N   0  0  0  0  0  0  0  0  0  0  0  0
    2.2875    1.4625   -0.0119 C   0  0  0  0  0  0  0  0  0  0  0  0
    2.3582    0.0588   -0.0202 C   0  0  0  0  0  0  0  0  0  0  0  0
    1.1547   -0.6659   -0.0126 C   0  0  0  0  0  0  0  0  0  0  0  0
    0.0021   -0.0041    0.0020 N   0  0  0  0  0  0  0  0  0  0  0  0
    1.5110   -1.9908   -0.0227 N   0  0  0  0  0  0  0  0  0  0  0  0
    2.8729   -2.0476   -0.0358 C   0  0  0  0  0  0  0  0  0  0  0  0
    3.3680   -0.8441   -0.0343 N   0  0  0  0  0  0  0  0  0  0  0  0
    0.5956   -3.1347   -0.0195 C   0  0  1  0  0  0  0  0  0  0  0  0
   -0.2832   -2.9148    0.5866 H   0  0  0  0  0  0  0  0  0  0  0  0
    0.1775   -3.4928   -1.4629 C   0  0  1  0  0  0  0  0  0  0  0  0
    0.9267   -3.1463   -2.1747 H   0  0  0  0  0  0  0  0  0  0  0  0
    0.1056   -5.0362   -1.4608 C   0  0  1  0  0  0  0  0  0  0  0  0
    0.8193   -5.4528   -2.1716 H   0  0  0  0  0  0  0  0  0  0  0  0
    0.4888   -5.4280   -0.0165 C   0  0  2  0  0  0  0  0  0  0  0  0
   -0.4066   -5.5617    0.5906 H   0  0  0  0  0  0  0  0  0  0  0  0
    1.2661   -4.3138    0.4763 O   0  0  0  0  0  0  0  0  0  0  0  0
    1.3272   -6.7078   -0.0164 C   0  0  0  0  0  0  0  0  0  0  0  0
    1.5723   -7.1166    1.3308 O   0  0  0  0  0  0  0  0  0  0  0  0
    2.4256   -8.4288    1.7075 P   0  0  1  0  0  0  0  0  0  0  0  0
    1.8172   -9.6597    0.9990 O   0  0  0  0  0  0  0  0  0  0  0  0
    3.8887   -8.2411    1.2481 O   0  0  0  0  0  1  0  0  0  0  0  0
    2.3882   -8.6541    3.3012 O   0  0  0  0  0  0  0  0  0  0  0  0
    2.7541   -9.8909    4.2648 P   0  0  1  0  0  0  0  0  0  0  0  0
    2.2714  -11.2082    3.6178 O   0  0  0  0  0  0  0  0  0  0  0  0
    4.2843   -9.9485    4.4702 O   0  0  0  0  0  1  0  0  0  0  0  0
    2.0285   -9.6949    5.6886 O   0  0  0  0  0  0  0  0  0  0  0  0
    2.0725  -10.6764    6.7263 C   0  0  0  0  0  0  0  0  0  0  0  0
    1.2842  -10.1739    7.9374 C   0  0  2  0  0  0  0  0  0  0  0  0
    1.6556   -9.1951    8.2410 H   0  0  0  0  0  0  0  0  0  0  0  0
    1.4229  -11.1716    9.1036 C   0  0  2  0  0  0  0  0  0  0  0  0
    2.0091  -12.0379    8.7969 H   0  0  0  0  0  0  0  0  0  0  0  0
   -0.0337  -11.5882    9.4218 C   0  0  2  0  0  0  0  0  0  0  0  0
   -0.2833  -12.5317    8.9364 H   0  0  0  0  0  0  0  0  0  0  0  0
   -0.8468  -10.4192    8.8097 C   0  0  1  0  0  0  0  0  0  0  0  0
   -0.8694   -9.5690    9.4915 H   0  0  0  0  0  0  0  0  0  0  0  0
   -0.1126  -10.0866    7.6096 O   0  0  0  0  0  0  0  0  0  0  0  0
   -2.2076  -10.8527    8.4831 N   0  0  0  0  0  0  0  0  0  0  0  0
   -2.4123  -11.8191    7.5076 C   0  0  0  0  0  0  0  0  0  0  0  0
   -3.5510  -12.4713    7.4304 C   0  0  0  0  0  0  0  0  0  0  0  0
   -4.6777  -12.2127    8.3888 C   0  0  0  0  0  0  0  0  0  0  0  0
   -4.4735  -10.9156    9.1186 C   0  0  0  0  0  0  0  0  0  0  0  0
   -3.2742  -10.3095    9.1428 C   0  0  0  0  0  0  0  0  0  0  0  0
   -5.5641  -10.3233    9.7975 C   0  0  0  0  0  0  0  0  0  0  0  0
   -5.4122   -9.2719   10.3930 O   0  0  0  0  0  0  0  0  0  0  0  0
   -6.7713  -10.9225    9.7853 N   0  0  0  0  0  0  0  0  0  0  0  0
   -0.2434  -11.6724   10.8328 O   0  0  0  0  0  0  0  0  0  0  0  0
    2.0233  -10.5382   10.2351 O   0  0  0  0  0  0  0  0  0  0  0  0
   -1.2191   -5.4762   -1.7672 O   0  0  0  0  0  0  0  0  0  0  0  0
   -1.0998   -2.9297   -1.7685 O   0  0  0  0  0  0  0  0  0  0  0  0
    3.4393    2.2295   -0.0193 N   0  0  0  0  0  0  0  0  0  0  0  0
   -0.9693    1.8187    0.0257 H   0  0  0  0  0  0  0  0  0  0  0  0
    3.4551   -2.9572   -0.0459 H   0  0  0  0  0  0  0  0  0  0  0  0
    0.7880   -7.4954   -0.5427 H   0  0  0  0  0  0  0  0  0  0  0  0
    2.2767   -6.5201   -0.5176 H   0  0  0  0  0  0  0  0  0  0  0  0
    1.6317  -11.6059    6.3660 H   0  0  0  0  0  0  0  0  0  0  0  0
    3.1085  -10.8536    7.0151 H   0  0  0  0  0  0  0  0  0  0  0  0
   -1.6247  -12.0380    6.8017 H   0  0  0  0  0  0  0  0  0  0  0  0
   -3.6796  -13.2137    6.6567 H   0  0  0  0  0  0  0  0  0  0  0  0
   -5.6158  -12.1687    7.8356 H   0  0  0  0  0  0  0  0  0  0  0  0
   -4.7270  -13.0268    9.1120 H   0  0  0  0  0  0  0  0  0  0  0  0
   -3.1542   -9.3833    9.6851 H   0  0  0  0  0  0  0  0  0  0  0  0
   -6.8923  -11.7599    9.3109 H   0  0  0  0  0  0  0  0  0  0  0  0
   -7.5191  -10.5163   10.2508 H   0  0  0  0  0  0  0  0  0  0  0  0
    0.3111  -12.3302   11.2743 H   0  0  0  0  0  0  0  0  0  0  0  0
    2.1347  -11.1207   10.9989 H   0  0  0  0  0  0  0  0  0  0  0  0
   -1.5313   -5.2049   -2.6412 H   0  0  0  0  0  0  0  0  0  0  0  0
   -1.4113   -3.1237   -2.6632 H   0  0  0  0  0  0  0  0  0  0  0  0
    3.3774    3.1975   -0.0138 H   0  0  0  0  0  0  0  0  0  0  0  0
    4.3085    1.7992   -0.0299 H   0  0  0  0  0  0  0  0  0  0  0  0
  1  6  2  0  0  0  0
  1  2  1  0  0  0  0
  1 53  1  0  0  0  0
  2  3  2  0  0  0  0
  3  4  1  0  0  0  0
  3 52  1  0  0  0  0
  4  9  1  0  0  0  0
  4  5  2  0  0  0  0
  5  6  1  0  0  0  0
  5  7  1  0  0  0  0
  7  8  1  0  0  0  0
  7 10  1  0  0  0  0
  8  9  2  0  0  0  0
  8 54  1  0  0  0  0
 10 11  1  1  0  0  0
 10 18  1  0  0  0  0
 10 12  1  0  0  0  0
 12 13  1  6  0  0  0
 12 14  1  0  0  0  0
 12 51  1  0  0  0  0
 14 15  1  6  0  0  0
 14 16  1  0  0  0  0
 14 50  1  0  0  0  0
 16 17  1  1  0  0  0
 16 18  1  0  0  0  0
 16 19  1  0  0  0  0
 19 20  1  0  0  0  0
 19 55  1  0  0  0  0
 19 56  1  0  0  0  0
 20 21  1  0  0  0  0
 21 22  2  6  0  0  0
 21 23  1  0  0  0  0
 21 24  1  0  0  0  0
 24 25  1  0  0  0  0
 25 26  2  6  0  0  0
 25 27  1  0  0  0  0
 25 28  1  0  0  0  0
 28 29  1  0  0  0  0
 29 30  1  0  0  0  0
 29 57  1  0  0  0  0
 29 58  1  0  0  0  0
 30 31  1  1  0  0  0
 30 38  1  0  0  0  0
 30 32  1  0  0  0  0
 32 33  1  6  0  0  0
 32 34  1  0  0  0  0
 32 49  1  0  0  0  0
 34 35  1  6  0  0  0
 34 36  1  0  0  0  0
 34 48  1  0  0  0  0
 36 37  1  1  0  0  0
 36 38  1  0  0  0  0
 36 39  1  0  0  0  0
 39 44  1  0  0  0  0
 39 40  1  0  0  0  0
 40 41  2  0  0  0  0
 40 59  1  0  0  0  0
 41 42  1  0  0  0  0
 41 60  1  0  0  0  0
 42 43  1  0  0  0  0
 42 61  1  0  0  0  0
 42 62  1  0  0  0  0
 43 44  2  0  0  0  0
 43 45  1  0  0  0  0
 44 63  1  0  0  0  0
 45 46  2  0  0  0  0
 45 47  1  0  0  0  0
 47 64  1  0  0  0  0
 47 65  1  0  0  0  0
 48 66  1  0  0  0  0
 49 67  1  0  0  0  0
 50 68  1  0  0  0  0
 51 69  1  0  0  0  0
 52 70  1  0  0  0  0
 52 71  1  0  0  0  0
M  END
$$$$
