ZINC02041380
 OpenBabel08292219463D

 49 50  0  0  0  0  0  0  0  0999 V2000
   -0.0178    1.4648    0.0101 C   0  0  0  0  0  0  0  0  0  0  0  0
    0.0021   -0.0041    0.0020 N   0  3  0  0  0  0  0  0  0  0  0  0
    0.7116   -0.4854   -1.2024 C   0  0  0  0  0  0  0  0  0  0  0  0
    2.1644   -0.7417   -0.7297 C   0  0  0  0  0  0  0  0  0  0  0  0
    1.9349   -1.3008    0.6992 C   0  0  0  0  0  0  0  0  0  0  0  0
    0.7144   -0.4972    1.1951 C   0  0  0  0  0  0  0  0  0  0  0  0
   -1.3740   -0.5182    0.0002 C   0  0  0  0  0  0  0  0  0  0  0  0
   -2.1112    0.0020   -1.2355 C   0  0  0  0  0  0  0  0  0  0  0  0
   -3.5444   -0.5335   -1.2374 C   0  0  0  0  0  0  0  0  0  0  0  0
   -4.2815   -0.0132   -2.4731 C   0  0  0  0  0  0  0  0  0  0  0  0
   -5.7148   -0.5487   -2.4750 C   0  0  0  0  0  0  0  0  0  0  0  0
   -6.4225   -0.0492   -3.6614 N   0  3  0  0  0  0  0  0  0  0  0  0
   -6.4695    1.4281   -3.6275 C   0  0  0  0  0  0  0  0  0  0  0  0
   -7.8510    1.7938   -4.2252 C   0  0  0  0  0  0  0  0  0  0  0  0
   -8.7466    0.6594   -3.6613 C   0  0  0  0  0  0  0  0  0  0  0  0
   -7.8046   -0.5628   -3.6676 C   0  0  0  0  0  0  0  0  0  0  0  0
   -5.7255   -0.4910   -4.8767 C   0  0  0  0  0  0  0  0  0  0  0  0
    1.0047    1.8421    0.0024 H   0  0  0  0  0  0  0  0  0  0  0  0
   -0.5450    1.8259   -0.8730 H   0  0  0  0  0  0  0  0  0  0  0  0
   -0.5280    1.8163    0.9069 H   0  0  0  0  0  0  0  0  0  0  0  0
    0.2615   -1.4100   -1.5639 H   0  0  0  0  0  0  0  0  0  0  0  0
    0.6951    0.2760   -1.9822 H   0  0  0  0  0  0  0  0  0  0  0  0
    2.6567   -1.4795   -1.3633 H   0  0  0  0  0  0  0  0  0  0  0  0
    2.7345    0.1867   -0.6988 H   0  0  0  0  0  0  0  0  0  0  0  0
    1.7066   -2.3661    0.6641 H   0  0  0  0  0  0  0  0  0  0  0  0
    2.8030   -1.1122    1.3308 H   0  0  0  0  0  0  0  0  0  0  0  0
    1.0466    0.3444    1.8028 H   0  0  0  0  0  0  0  0  0  0  0  0
    0.0578   -1.1425    1.7786 H   0  0  0  0  0  0  0  0  0  0  0  0
   -1.3547   -1.6079   -0.0202 H   0  0  0  0  0  0  0  0  0  0  0  0
   -1.8892   -0.1807    0.8995 H   0  0  0  0  0  0  0  0  0  0  0  0
   -2.1304    1.0917   -1.2151 H   0  0  0  0  0  0  0  0  0  0  0  0
   -1.5960   -0.3355   -2.1348 H   0  0  0  0  0  0  0  0  0  0  0  0
   -3.5251   -1.6231   -1.2578 H   0  0  0  0  0  0  0  0  0  0  0  0
   -4.0596   -0.1960   -0.3381 H   0  0  0  0  0  0  0  0  0  0  0  0
   -4.3008    1.0764   -2.4527 H   0  0  0  0  0  0  0  0  0  0  0  0
   -3.7663   -0.3507   -3.3724 H   0  0  0  0  0  0  0  0  0  0  0  0
   -5.6955   -1.6384   -2.4954 H   0  0  0  0  0  0  0  0  0  0  0  0
   -6.2299   -0.2112   -1.5757 H   0  0  0  0  0  0  0  0  0  0  0  0
   -6.3931    1.7867   -2.6010 H   0  0  0  0  0  0  0  0  0  0  0  0
   -5.6692    1.8473   -4.2373 H   0  0  0  0  0  0  0  0  0  0  0  0
   -8.1849    2.7684   -3.8691 H   0  0  0  0  0  0  0  0  0  0  0  0
   -7.8250    1.7658   -5.3145 H   0  0  0  0  0  0  0  0  0  0  0  0
   -9.0697    0.8918   -2.6466 H   0  0  0  0  0  0  0  0  0  0  0  0
   -9.6052    0.4876   -4.3104 H   0  0  0  0  0  0  0  0  0  0  0  0
   -7.9751   -1.1578   -4.5648 H   0  0  0  0  0  0  0  0  0  0  0  0
   -7.9786   -1.1697   -2.7790 H   0  0  0  0  0  0  0  0  0  0  0  0
   -5.7109   -1.5804   -4.9115 H   0  0  0  0  0  0  0  0  0  0  0  0
   -6.2456   -0.1065   -5.7540 H   0  0  0  0  0  0  0  0  0  0  0  0
   -4.7028   -0.1141   -4.8664 H   0  0  0  0  0  0  0  0  0  0  0  0
  1  2  1  0  0  0  0
  1 18  1  0  0  0  0
  1 19  1  0  0  0  0
  1 20  1  0  0  0  0
  2  6  1  0  0  0  0
  2  3  1  0  0  0  0
  2  7  1  0  0  0  0
  3  4  1  0  0  0  0
  3 21  1  0  0  0  0
  3 22  1  0  0  0  0
  4  5  1  0  0  0  0
  4 23  1  0  0  0  0
  4 24  1  0  0  0  0
  5  6  1  0  0  0  0
  5 25  1  0  0  0  0
  5 26  1  0  0  0  0
  6 27  1  0  0  0  0
  6 28  1  0  0  0  0
  7  8  1  0  0  0  0
  7 29  1  0  0  0  0
  7 30  1  0  0  0  0
  8  9  1  0  0  0  0
  8 31  1  0  0  0  0
  8 32  1  0  0  0  0
  9 10  1  0  0  0  0
  9 33  1  0  0  0  0
  9 34  1  0  0  0  0
 10 11  1  0  0  0  0
 10 35  1  0  0  0  0
 10 36  1  0  0  0  0
 11 12  1  0  0  0  0
 11 37  1  0  0  0  0
 11 38  1  0  0  0  0
 12 16  1  0  0  0  0
 12 13  1  0  0  0  0
 12 17  1  0  0  0  0
 13 14  1  0  0  0  0
 13 39  1  0  0  0  0
 13 40  1  0  0  0  0
 14 15  1  0  0  0  0
 14 41  1  0  0  0  0
 14 42  1  0  0  0  0
 15 16  1  0  0  0  0
 15 43  1  0  0  0  0
 15 44  1  0  0  0  0
 16 45  1  0  0  0  0
 16 46  1  0  0  0  0
 17 47  1  0  0  0  0
 17 48  1  0  0  0  0
 17 49  1  0  0  0  0
M  CHG  2   2   1  12   1
M  END
$$$$
