ZINC00000767
 OpenBabel08292219463D

 29 30  0  0  1  0  0  0  0  0999 V2000
    1.0517   -0.6853    1.4051 C   0  0  0  0  0  0  0  0  0  0  0  0
    1.0563   -2.0771    0.7697 C   0  0  1  0  0  0  0  0  0  0  0  0
    0.0588   -2.5112    0.8385 H   0  0  0  0  0  0  0  0  0  0  0  0
    1.4572   -1.9667   -0.6788 C   0  0  0  0  0  0  0  0  0  0  0  0
    0.7379   -2.3253   -1.7726 C   0  0  0  0  0  0  0  0  0  0  0  0
    1.2829   -2.1430   -3.0193 C   0  0  0  0  0  0  0  0  0  0  0  0
    2.5581   -1.5919   -3.0450 C   0  0  0  0  0  0  0  0  0  0  0  0
    2.8936   -1.3649   -1.3089 S   0  0  0  0  0  0  0  0  0  0  0  0
    3.4037   -1.2759   -4.1972 C   0  0  0  0  0  0  0  0  0  0  0  0
    3.0571   -1.6080   -5.3158 O   0  0  0  0  0  0  0  0  0  0  0  0
    4.6792   -0.5530   -4.0022 C   0  0  0  0  0  0  0  0  0  0  0  0
    4.8846    0.2085   -2.8503 C   0  0  0  0  0  0  0  0  0  0  0  0
    6.0765    0.8802   -2.6747 C   0  0  0  0  0  0  0  0  0  0  0  0
    7.0673    0.8010   -3.6375 C   0  0  0  0  0  0  0  0  0  0  0  0
    6.8700    0.0484   -4.7818 C   0  0  0  0  0  0  0  0  0  0  0  0
    5.6853   -0.6337   -4.9667 C   0  0  0  0  0  0  0  0  0  0  0  0
    2.0389   -2.9582    1.4971 C   0  0  0  0  0  0  0  0  0  0  0  0
    1.8950   -3.1784    2.6876 O   0  0  0  0  0  0  0  0  0  0  0  0
    2.9777   -3.4508    0.8952 O   0  0  0  0  0  1  0  0  0  0  0  0
    2.0492   -0.2512    1.3362 H   0  0  0  0  0  0  0  0  0  0  0  0
    0.3410   -0.0480    0.8789 H   0  0  0  0  0  0  0  0  0  0  0  0
    0.7617   -0.7651    2.4527 H   0  0  0  0  0  0  0  0  0  0  0  0
   -0.2497   -2.7486   -1.6635 H   0  0  0  0  0  0  0  0  0  0  0  0
    0.7545   -2.4110   -3.9223 H   0  0  0  0  0  0  0  0  0  0  0  0
    4.1118    0.2717   -2.0985 H   0  0  0  0  0  0  0  0  0  0  0  0
    6.2367    1.4697   -1.7840 H   0  0  0  0  0  0  0  0  0  0  0  0
    7.9985    1.3291   -3.4953 H   0  0  0  0  0  0  0  0  0  0  0  0
    7.6472   -0.0091   -5.5295 H   0  0  0  0  0  0  0  0  0  0  0  0
    5.5345   -1.2247   -5.8580 H   0  0  0  0  0  0  0  0  0  0  0  0
  1  2  1  0  0  0  0
  1 20  1  0  0  0  0
  1 21  1  0  0  0  0
  1 22  1  0  0  0  0
  2  3  1  1  0  0  0
  2  4  1  0  0  0  0
  2 17  1  0  0  0  0
  4  8  1  0  0  0  0
  4  5  2  0  0  0  0
  5  6  1  0  0  0  0
  5 23  1  0  0  0  0
  6  7  2  0  0  0  0
  6 24  1  0  0  0  0
  7  8  1  0  0  0  0
  7  9  1  0  0  0  0
  9 10  2  0  0  0  0
  9 11  1  0  0  0  0
 11 16  2  0  0  0  0
 11 12  1  0  0  0  0
 12 13  2  0  0  0  0
 12 25  1  0  0  0  0
 13 14  1  0  0  0  0
 13 26  1  0  0  0  0
 14 15  2  0  0  0  0
 14 27  1  0  0  0  0
 15 16  1  0  0  0  0
 15 28  1  0  0  0  0
 16 29  1  0  0  0  0
 17 18  2  0  0  0  0
 17 19  1  0  0  0  0
M  END
$$$$
