ZINC21982937
 OpenBabel08292219463D

 64 64  0  0  1  0  0  0  0  0999 V2000
    2.2576   -0.1487   -2.2460 C   0  0  0  0  0  0  0  0  0  0  0  0
    3.3955    0.6335   -2.1817 C   0  0  0  0  0  0  0  0  0  0  0  0
    4.5961    0.0756   -1.7838 C   0  0  0  0  0  0  0  0  0  0  0  0
    4.6587   -1.2643   -1.4499 C   0  0  0  0  0  0  0  0  0  0  0  0
    3.5205   -2.0463   -1.5134 C   0  0  0  0  0  0  0  0  0  0  0  0
    2.3202   -1.4888   -1.9126 C   0  0  0  0  0  0  0  0  0  0  0  0
    5.9677   -1.8727   -1.0171 C   0  0  0  0  0  0  0  0  0  0  0  0
    6.1001   -1.7588    0.4012 O   0  0  0  0  0  0  0  0  0  0  0  0
    7.3140   -2.3082    0.9176 C   0  0  0  0  0  0  0  0  0  0  0  0
    7.3480   -2.1315    2.4370 C   0  0  1  0  0  0  0  0  0  0  0  0
    8.3026   -2.4889    2.8231 H   0  0  0  0  0  0  0  0  0  0  0  0
    7.1831   -0.6726    2.7768 C   0  0  0  0  0  0  0  0  0  0  0  0
    6.1546   -0.2814    3.3018 O   0  0  0  0  0  0  0  0  0  0  0  0
    8.0783    0.1165    2.5268 O   0  0  0  0  0  1  0  0  0  0  0  0
    6.2547   -2.9023    3.0442 N   0  0  0  0  0  0  0  0  0  0  0  0
    6.2828   -2.7917    4.5087 C   0  0  0  0  0  0  0  0  0  0  0  0
    5.0519   -3.4849    5.0962 C   0  0  0  0  0  0  0  0  0  0  0  0
    5.0178   -3.2736    6.5495 N   0  0  0  0  0  0  0  0  0  0  0  0
    3.9914   -4.1144    7.1799 C   0  0  0  0  0  0  0  0  0  0  0  0
    4.4892   -5.5594    7.2516 C   0  0  0  0  0  0  0  0  0  0  0  0
    3.4230   -6.4188    7.7831 N   0  3  0  0  0  0  0  0  0  0  0  0
    2.3056   -6.4588    6.8303 C   0  0  0  0  0  0  0  0  0  0  0  0
    2.7681   -7.0844    5.5396 C   0  0  0  0  0  0  0  0  0  0  0  0
    3.9438   -7.3691    5.3871 O   0  0  0  0  0  0  0  0  0  0  0  0
    1.9666   -7.3058    4.6479 O   0  0  0  0  0  1  0  0  0  0  0  0
    3.9439   -7.7776    7.9842 C   0  0  0  0  0  0  0  0  0  0  0  0
    2.9141   -8.6087    8.7051 C   0  0  0  0  0  0  0  0  0  0  0  0
    1.8294   -8.1274    8.9850 O   0  0  0  0  0  0  0  0  0  0  0  0
    3.1656   -9.7625    9.0085 O   0  0  0  0  0  1  0  0  0  0  0  0
    4.8068   -1.8557    6.8705 C   0  0  0  0  0  0  0  0  0  0  0  0
    5.1741   -1.6065    8.3106 C   0  0  0  0  0  0  0  0  0  0  0  0
    5.4984   -2.5382    9.0270 O   0  0  0  0  0  0  0  0  0  0  0  0
    5.1471   -0.4732    8.7593 O   0  0  0  0  0  1  0  0  0  0  0  0
    6.3038   -4.3083    2.6214 C   0  0  0  0  0  0  0  0  0  0  0  0
    7.5886   -4.9327    3.1015 C   0  0  0  0  0  0  0  0  0  0  0  0
    8.3999   -4.2637    3.6966 O   0  0  0  0  0  0  0  0  0  0  0  0
    7.8316   -6.2320    2.8682 O   0  0  0  0  0  0  0  0  0  0  0  0
    1.3187    0.2881   -2.5526 H   0  0  0  0  0  0  0  0  0  0  0  0
    3.3467    1.6803   -2.4425 H   0  0  0  0  0  0  0  0  0  0  0  0
    5.4853    0.6866   -1.7342 H   0  0  0  0  0  0  0  0  0  0  0  0
    3.5695   -3.0933   -1.2528 H   0  0  0  0  0  0  0  0  0  0  0  0
    1.4311   -2.0999   -1.9626 H   0  0  0  0  0  0  0  0  0  0  0  0
    5.9908   -2.9249   -1.3008 H   0  0  0  0  0  0  0  0  0  0  0  0
    6.7905   -1.3475   -1.5022 H   0  0  0  0  0  0  0  0  0  0  0  0
    7.3650   -3.3695    0.6740 H   0  0  0  0  0  0  0  0  0  0  0  0
    8.1647   -1.7920    0.4727 H   0  0  0  0  0  0  0  0  0  0  0  0
    7.1854   -3.2677    4.8918 H   0  0  0  0  0  0  0  0  0  0  0  0
    6.2779   -1.7396    4.7938 H   0  0  0  0  0  0  0  0  0  0  0  0
    4.1507   -3.0674    4.6471 H   0  0  0  0  0  0  0  0  0  0  0  0
    5.1014   -4.5532    4.8855 H   0  0  0  0  0  0  0  0  0  0  0  0
    3.7905   -3.7490    8.1870 H   0  0  0  0  0  0  0  0  0  0  0  0
    3.0760   -4.0743    6.5895 H   0  0  0  0  0  0  0  0  0  0  0  0
    4.7654   -5.8984    6.2531 H   0  0  0  0  0  0  0  0  0  0  0  0
    5.3588   -5.6120    7.9066 H   0  0  0  0  0  0  0  0  0  0  0  0
    1.4916   -7.0503    7.2495 H   0  0  0  0  0  0  0  0  0  0  0  0
    1.9559   -5.4446    6.6376 H   0  0  0  0  0  0  0  0  0  0  0  0
    4.1631   -8.2295    7.0169 H   0  0  0  0  0  0  0  0  0  0  0  0
    4.8559   -7.7326    8.5794 H   0  0  0  0  0  0  0  0  0  0  0  0
    5.4322   -1.2399    6.2242 H   0  0  0  0  0  0  0  0  0  0  0  0
    3.7590   -1.5996    6.7132 H   0  0  0  0  0  0  0  0  0  0  0  0
    5.4570   -4.8458    3.0481 H   0  0  0  0  0  0  0  0  0  0  0  0
    6.2578   -4.3624    1.5337 H   0  0  0  0  0  0  0  0  0  0  0  0
    8.6801   -6.5416    3.2135 H   0  0  0  0  0  0  0  0  0  0  0  0
    3.1004   -6.0484    8.6644 H   0  0  0  0  0  0  0  0  0  0  0  0
  1  6  2  0  0  0  0
  1  2  1  0  0  0  0
  1 38  1  0  0  0  0
  2  3  2  0  0  0  0
  2 39  1  0  0  0  0
  3  4  1  0  0  0  0
  3 40  1  0  0  0  0
  4  5  2  0  0  0  0
  4  7  1  0  0  0  0
  5  6  1  0  0  0  0
  5 41  1  0  0  0  0
  6 42  1  0  0  0  0
  7  8  1  0  0  0  0
  7 43  1  0  0  0  0
  7 44  1  0  0  0  0
  8  9  1  0  0  0  0
  9 10  1  0  0  0  0
  9 45  1  0  0  0  0
  9 46  1  0  0  0  0
 10 11  1  1  0  0  0
 10 12  1  0  0  0  0
 10 15  1  0  0  0  0
 12 13  2  0  0  0  0
 12 14  1  0  0  0  0
 15 16  1  0  0  0  0
 15 34  1  0  0  0  0
 16 17  1  0  0  0  0
 16 47  1  0  0  0  0
 16 48  1  0  0  0  0
 17 18  1  0  0  0  0
 17 49  1  0  0  0  0
 17 50  1  0  0  0  0
 18 19  1  0  0  0  0
 18 30  1  0  0  0  0
 19 20  1  0  0  0  0
 19 51  1  0  0  0  0
 19 52  1  0  0  0  0
 20 21  1  0  0  0  0
 20 53  1  0  0  0  0
 20 54  1  0  0  0  0
 21 22  1  0  0  0  0
 21 26  1  0  0  0  0
 21 64  1  0  0  0  0
 22 23  1  0  0  0  0
 22 55  1  0  0  0  0
 22 56  1  0  0  0  0
 23 24  2  0  0  0  0
 23 25  1  0  0  0  0
 26 27  1  0  0  0  0
 26 57  1  0  0  0  0
 26 58  1  0  0  0  0
 27 28  2  0  0  0  0
 27 29  1  0  0  0  0
 30 31  1  0  0  0  0
 30 59  1  0  0  0  0
 30 60  1  0  0  0  0
 31 32  2  0  0  0  0
 31 33  1  0  0  0  0
 34 35  1  0  0  0  0
 34 61  1  0  0  0  0
 34 62  1  0  0  0  0
 35 36  2  0  0  0  0
 35 37  1  0  0  0  0
 37 63  1  0  0  0  0
M  CHG  1  21   1
M  END
$$$$
