MODEL 1
REMARK VINA RESULT:       3.6      0.000      0.000
REMARK  Name = *****
REMARK                            x       y       z     vdW  Elec       q    Type
REMARK                         _______ _______ _______ _____ _____    ______ ____
ROOT
ATOM      1  C   LIG    1       27.487 -16.332   3.917  0.00  0.00    -0.021 C 
ATOM      2  C   LIG    1       27.081 -17.586   4.242  0.00  0.00    -0.035 C 
ATOM      3  C   LIG    1       25.854 -18.228   3.613  0.00  0.00    +0.059 C 
ATOM      4  C   LIG    1       26.088 -19.612   2.959  0.00  0.00    +0.085 C 
ATOM      5  C   LIG    1       24.758 -20.214   2.540  0.00  0.00    -0.011 C 
ATOM      6  C   LIG    1       23.608 -19.897   3.144  0.00  0.00    +0.009 C 
ATOM      7  C   LIG    1       23.568 -18.974   4.280  0.00  0.00    +0.051 C 
ATOM      8  S   LIG    1       26.909 -20.852   4.012  0.00  0.00    -0.116 S 
ATOM      9  C   LIG    1       27.878 -19.842   5.121  0.00  0.00    +0.016 A 
ATOM     10  C   LIG    1       28.681 -20.579   6.014  0.00  0.00    +0.015 A 
ATOM     11  C   LIG    1       29.475 -19.947   6.967  0.00  0.00    +0.001 A 
ATOM     12  C   LIG    1       29.462 -18.564   7.052  0.00  0.00    +0.001 A 
ATOM     13  C   LIG    1       28.669 -17.821   6.174  0.00  0.00    +0.009 A 
ATOM     14  C   LIG    1       24.640 -18.195   4.521  0.00  0.00    -0.005 C 
ATOM     15  C   LIG    1       27.883 -18.434   5.173  0.00  0.00    -0.008 A 
ENDROOT
BRANCH   7  16
ATOM     16  C   LIG    1       22.303 -18.878   5.100  0.00  0.00    +0.417 C 
ATOM     17  F   LIG    1       21.830 -17.603   5.127  0.00  0.00    -0.166 F 
ATOM     18  F   LIG    1       22.506 -19.245   6.390  0.00  0.00    -0.166 F 
ATOM     19  F   LIG    1       21.294 -19.653   4.624  0.00  0.00    -0.166 F 
ENDBRANCH   7  16
BRANCH   1  20
ATOM     20  C   LIG    1       26.820 -15.419   2.915  0.00  0.00    +0.043 C 
BRANCH  20  21
ATOM     21  C   LIG    1       27.655 -14.210   2.429  0.00  0.00    +0.088 C 
BRANCH  21  25
ATOM     22  N   LIG    1       24.154 -12.855   3.375  0.00  0.00    -0.298 NA
ATOM     23  C   LIG    1       24.825 -12.624   2.073  0.00  0.00    +0.100 C 
ATOM     24  C   LIG    1       26.309 -12.170   2.137  0.00  0.00    +0.100 C 
ATOM     25  N   LIG    1       27.185 -12.949   3.042  0.00  0.00    -0.300 NA
ATOM     26  C   LIG    1       26.489 -13.142   4.331  0.00  0.00    +0.100 C 
ATOM     27  C   LIG    1       25.046 -13.677   4.212  0.00  0.00    +0.100 C 
BRANCH  22  28
ATOM     28  C   LIG    1       23.745 -11.591   4.022  0.00  0.00    +0.112 C 
BRANCH  28  29
ATOM     29  C   LIG    1       23.468 -11.724   5.536  0.00  0.00    +0.171 C 
BRANCH  29  30
ATOM     30  O   LIG    1       24.645 -11.453   6.295  0.00  0.00    -0.394 OA
ATOM     31  H   LIG    1       25.208 -12.245   6.225  0.00  0.00    +0.209 HD
ENDBRANCH  29  30
ENDBRANCH  28  29
ENDBRANCH  22  28
ENDBRANCH  21  25
ENDBRANCH  20  21
ENDBRANCH   1  20
TORSDOF 7
ENDMDL
MODEL 2
REMARK VINA RESULT:       6.1      1.971      2.588
REMARK  Name = *****
REMARK                            x       y       z     vdW  Elec       q    Type
REMARK                         _______ _______ _______ _____ _____    ______ ____
ROOT
ATOM      1  C   LIG    1       26.938 -17.574   3.680  0.00  0.00    -0.021 C 
ATOM      2  C   LIG    1       25.863 -18.227   4.192  0.00  0.00    -0.035 C 
ATOM      3  C   LIG    1       24.438 -17.878   3.790  0.00  0.00    +0.059 C 
ATOM      4  C   LIG    1       23.583 -19.062   3.276  0.00  0.00    +0.085 C 
ATOM      5  C   LIG    1       22.143 -18.614   3.089  0.00  0.00    -0.011 C 
ATOM      6  C   LIG    1       21.615 -17.602   3.785  0.00  0.00    +0.009 C 
ATOM      7  C   LIG    1       22.385 -16.887   4.805  0.00  0.00    +0.051 C 
ATOM      8  S   LIG    1       23.533 -20.526   4.360  0.00  0.00    -0.116 S 
ATOM      9  C   LIG    1       25.093 -20.427   5.222  0.00  0.00    +0.016 A 
ATOM     10  C   LIG    1       25.337 -21.509   6.092  0.00  0.00    +0.015 A 
ATOM     11  C   LIG    1       26.493 -21.571   6.866  0.00  0.00    +0.001 A 
ATOM     12  C   LIG    1       27.415 -20.539   6.793  0.00  0.00    +0.001 A 
ATOM     13  C   LIG    1       27.185 -19.460   5.936  0.00  0.00    +0.009 A 
ATOM     14  C   LIG    1       23.724 -17.032   4.826  0.00  0.00    -0.005 C 
ATOM     15  C   LIG    1       26.039 -19.389   5.112  0.00  0.00    -0.008 A 
ENDROOT
BRANCH   7  16
ATOM     16  C   LIG    1       21.661 -15.960   5.753  0.00  0.00    +0.417 C 
ATOM     17  F   LIG    1       20.313 -16.109   5.651  0.00  0.00    -0.166 F 
ATOM     18  F   LIG    1       21.931 -14.656   5.492  0.00  0.00    -0.166 F 
ATOM     19  F   LIG    1       21.973 -16.174   7.057  0.00  0.00    -0.166 F 
ENDBRANCH   7  16
BRANCH   1  20
ATOM     20  C   LIG    1       26.892 -16.455   2.666  0.00  0.00    +0.043 C 
BRANCH  20  21
ATOM     21  C   LIG    1       27.764 -15.215   2.975  0.00  0.00    +0.088 C 
BRANCH  21  25
ATOM     22  N   LIG    1       24.872 -13.332   4.729  0.00  0.00    -0.298 NA
ATOM     23  C   LIG    1       24.695 -14.342   3.658  0.00  0.00    +0.100 C 
ATOM     24  C   LIG    1       25.603 -14.183   2.407  0.00  0.00    +0.100 C 
ATOM     25  N   LIG    1       27.041 -13.960   2.678  0.00  0.00    -0.300 NA
ATOM     26  C   LIG    1       27.176 -12.936   3.735  0.00  0.00    +0.100 C 
ATOM     27  C   LIG    1       26.316 -13.189   4.991  0.00  0.00    +0.100 C 
BRANCH  22  28
ATOM     28  C   LIG    1       24.209 -12.052   4.402  0.00  0.00    +0.112 C 
BRANCH  28  29
ATOM     29  C   LIG    1       23.611 -12.004   2.978  0.00  0.00    +0.171 C 
BRANCH  29  30
ATOM     30  O   LIG    1       24.590 -11.588   2.028  0.00  0.00    -0.394 OA
ATOM     31  H   LIG    1       24.196 -11.725   1.148  0.00  0.00    +0.209 HD
ENDBRANCH  29  30
ENDBRANCH  28  29
ENDBRANCH  22  28
ENDBRANCH  21  25
ENDBRANCH  20  21
ENDBRANCH   1  20
TORSDOF 7
ENDMDL
