MODEL 1
REMARK VINA RESULT:       1.0      0.000      0.000
REMARK  Name = *****
REMARK                            x       y       z     vdW  Elec       q    Type
REMARK                         _______ _______ _______ _____ _____    ______ ____
ROOT
ATOM      1  C   LIG    1       22.292 -31.591   9.640  0.00  0.00    +0.210 C 
ATOM      2  C   LIG    1       22.388 -32.869  10.608  0.00  0.00    +0.126 C 
ATOM      3  C   LIG    1       21.035 -33.604  10.720  0.00  0.00    +0.048 C 
ATOM      4  C   LIG    1       22.982 -32.617  12.074  0.00  0.00    +0.160 C 
ATOM      5  C   LIG    1       24.527 -32.499  12.242  0.00  0.00    +0.035 C 
ATOM      6  C   LIG    1       25.296 -33.773  11.798  0.00  0.00    +0.012 C 
ATOM      7  C   LIG    1       24.778 -32.152  13.753  0.00  0.00    +0.064 C 
ATOM      8  N   LIG    1       24.332 -33.290  14.561  0.00  0.00    -0.286 NA
ATOM      9  H   LIG    1       24.435 -33.096  15.557  0.00  0.00    +0.125 HD
ATOM     10  C   LIG    1       22.927 -33.579  14.352  0.00  0.00    +0.213 C 
ATOM     11  C   LIG    1       26.243 -31.672  14.057  0.00  0.00    +0.006 C 
ATOM     12  C   LIG    1       26.832 -32.213  15.385  0.00  0.00    +0.009 C 
ATOM     13  C   LIG    1       26.339 -30.069  14.062  0.00  0.00    +0.042 C 
ATOM     14  C   LIG    1       27.209 -29.366  12.969  0.00  0.00    +0.090 C 
ATOM     15  C   LIG    1       28.326 -28.496  13.620  0.00  0.00    +0.044 C 
ATOM     16  C   LIG    1       26.453 -28.383  11.794  0.00  0.00    +0.158 C 
ATOM     17  C   LIG    1       26.771 -29.062  10.386  0.00  0.00    +0.047 C 
ATOM     18  C   LIG    1       28.316 -29.003  10.175  0.00  0.00    +0.013 C 
ATOM     19  C   LIG    1       26.086 -28.729   8.975  0.00  0.00    +0.140 C 
ATOM     20  C   LIG    1       25.495 -30.025   8.308  0.00  0.00    +0.124 C 
ATOM     21  C   LIG    1       26.235 -31.337   8.558  0.00  0.00    +0.022 C 
ATOM     22  C   LIG    1       23.952 -30.237   8.454  0.00  0.00    +0.313 C 
ATOM     23  O   LIG    1       23.195 -29.971   7.583  0.00  0.00    -0.250 OA
ATOM     24  O   LIG    1       22.559 -33.689  12.956  0.00  0.00    -0.353 OA
ATOM     25  O   LIG    1       23.586 -30.857   9.641  0.00  0.00    -0.458 OA
ENDROOT
BRANCH   1  27
ATOM     26  C   LIG    1       21.067 -29.764  11.130  0.00  0.00    +0.007 C 
ATOM     27  C   LIG    1       21.088 -30.620   9.854  0.00  0.00    +0.044 C 
ENDBRANCH   1  27
BRANCH  14  28
ATOM     28  O   LIG    1       27.919 -30.465  12.355  0.00  0.00    -0.386 OA
ATOM     29  H   LIG    1       28.814 -30.531  12.731  0.00  0.00    +0.210 HD
ENDBRANCH  14  28
BRANCH   2  30
ATOM     30  O   LIG    1       23.203 -33.825   9.899  0.00  0.00    -0.383 OA
ATOM     31  H   LIG    1       22.586 -34.479   9.520  0.00  0.00    +0.210 HD
ENDBRANCH   2  30
BRANCH  16  32
ATOM     32  O   LIG    1       25.048 -28.071  12.100  0.00  0.00    -0.342 OA
BRANCH  32  33
ATOM     33  C   LIG    1       24.773 -27.771  13.508  0.00  0.00    +0.281 C 
ATOM     34  C   LIG    1       25.525 -26.501  14.129  0.00  0.00    +0.187 C 
ATOM     35  C   LIG    1       24.666 -25.166  14.273  0.00  0.00    +0.092 C 
ATOM     36  C   LIG    1       23.199 -25.519  13.997  0.00  0.00    +0.053 C 
ATOM     37  C   LIG    1       22.905 -26.832  14.708  0.00  0.00    +0.120 C 
ATOM     38  C   LIG    1       21.426 -27.045  14.980  0.00  0.00    +0.038 C 
ATOM     39  O   LIG    1       23.380 -27.879  13.859  0.00  0.00    -0.346 OA
BRANCH  35  40
ATOM     40  N   LIG    1       25.122 -23.901  13.605  0.00  0.00    -0.303 NA
ATOM     41  C   LIG    1       25.559 -22.856  14.528  0.00  0.00    +0.105 C 
ATOM     42  C   LIG    1       26.193 -24.141  12.612  0.00  0.00    +0.105 C 
ENDBRANCH  35  40
BRANCH  34  43
ATOM     43  O   LIG    1       25.844 -26.939  15.500  0.00  0.00    -0.385 OA
ATOM     44  H   LIG    1       26.491 -27.663  15.464  0.00  0.00    +0.210 HD
ENDBRANCH  34  43
ENDBRANCH  32  33
ENDBRANCH  16  32
BRANCH  19  45
ATOM     45  O   LIG    1       27.093 -28.049   8.124  0.00  0.00    -0.347 OA
BRANCH  45  46
ATOM     46  C   LIG    1       26.688 -27.128   7.079  0.00  0.00    +0.254 C 
ATOM     47  O   LIG    1       25.878 -26.112   7.641  0.00  0.00    -0.346 OA
ATOM     48  C   LIG    1       25.289 -25.154   6.760  0.00  0.00    +0.150 C 
ATOM     49  C   LIG    1       26.281 -24.131   6.217  0.00  0.00    +0.040 C 
ATOM     50  C   LIG    1       24.396 -25.874   5.738  0.00  0.00    +0.175 C 
ATOM     51  C   LIG    1       25.132 -27.014   4.965  0.00  0.00    +0.099 C 
ATOM     52  C   LIG    1       26.022 -26.404   3.864  0.00  0.00    +0.044 C 
ATOM     53  C   LIG    1       25.904 -27.904   5.980  0.00  0.00    +0.098 C 
BRANCH  51  54
ATOM     54  O   LIG    1       24.105 -27.793   4.288  0.00  0.00    -0.374 OA
ATOM     55  C   LIG    1       24.130 -29.203   4.478  0.00  0.00    +0.195 C 
ENDBRANCH  51  54
BRANCH  50  56
ATOM     56  O   LIG    1       23.301 -26.434   6.501  0.00  0.00    -0.386 OA
ATOM     57  H   LIG    1       23.470 -27.392   6.567  0.00  0.00    +0.210 HD
ENDBRANCH  50  56
ENDBRANCH  45  46
ENDBRANCH  19  45
BRANCH  10  58
ATOM     58  C   LIG    1       21.945 -32.679  15.163  0.00  0.00    +0.207 C 
BRANCH  58  59
ATOM     59  O   LIG    1       21.746 -31.329  14.713  0.00  0.00    -0.374 OA
BRANCH  59  60
ATOM     60  C   LIG    1       20.451 -31.040  14.121  0.00  0.00    +0.188 C 
BRANCH  60  61
ATOM     61  C   LIG    1       19.360 -32.155  14.076  0.00  0.00    +0.187 C 
BRANCH  61  62
ATOM     62  O   LIG    1       18.269 -31.981  13.166  0.00  0.00    -0.381 OA
ATOM     63  C   LIG    1       17.622 -30.731  13.280  0.00  0.00    +0.194 C 
ENDBRANCH  61  62
ENDBRANCH  60  61
ENDBRANCH  59  60
ENDBRANCH  58  59
ENDBRANCH  10  58
TORSDOF 16
ENDMDL
MODEL 2
REMARK VINA RESULT:       1.9      2.389      8.843
REMARK  Name = *****
REMARK                            x       y       z     vdW  Elec       q    Type
REMARK                         _______ _______ _______ _____ _____    ______ ____
ROOT
ATOM      1  C   LIG    1       25.273 -26.330  13.379  0.00  0.00    +0.210 C 
ATOM      2  C   LIG    1       26.530 -27.014  14.109  0.00  0.00    +0.126 C 
ATOM      3  C   LIG    1       27.742 -26.059  14.174  0.00  0.00    +0.048 C 
ATOM      4  C   LIG    1       27.001 -28.437  13.547  0.00  0.00    +0.160 C 
ATOM      5  C   LIG    1       26.197 -29.705  13.964  0.00  0.00    +0.035 C 
ATOM      6  C   LIG    1       26.185 -29.953  15.496  0.00  0.00    +0.012 C 
ATOM      7  C   LIG    1       26.834 -30.906  13.175  0.00  0.00    +0.064 C 
ATOM      8  N   LIG    1       28.210 -31.082  13.647  0.00  0.00    -0.286 NA
ATOM      9  H   LIG    1       28.682 -31.824  13.133  0.00  0.00    +0.125 HD
ATOM     10  C   LIG    1       29.004 -29.885  13.443  0.00  0.00    +0.213 C 
ATOM     11  C   LIG    1       25.964 -32.215  13.204  0.00  0.00    +0.006 C 
ATOM     12  C   LIG    1       26.780 -33.523  13.361  0.00  0.00    +0.009 C 
ATOM     13  C   LIG    1       25.045 -32.329  11.893  0.00  0.00    +0.042 C 
ATOM     14  C   LIG    1       23.491 -32.271  12.057  0.00  0.00    +0.090 C 
ATOM     15  C   LIG    1       22.821 -33.560  11.493  0.00  0.00    +0.044 C 
ATOM     16  C   LIG    1       22.623 -30.950  11.408  0.00  0.00    +0.158 C 
ATOM     17  C   LIG    1       21.922 -30.235  12.649  0.00  0.00    +0.047 C 
ATOM     18  C   LIG    1       20.909 -31.251  13.264  0.00  0.00    +0.013 C 
ATOM     19  C   LIG    1       21.218 -28.795  12.664  0.00  0.00    +0.140 C 
ATOM     20  C   LIG    1       21.820 -27.877  13.791  0.00  0.00    +0.124 C 
ATOM     21  C   LIG    1       22.285 -28.564  15.073  0.00  0.00    +0.022 C 
ATOM     22  C   LIG    1       22.874 -26.817  13.331  0.00  0.00    +0.313 C 
ATOM     23  O   LIG    1       22.590 -25.679  13.163  0.00  0.00    -0.250 OA
ATOM     24  O   LIG    1       28.376 -28.680  13.942  0.00  0.00    -0.353 OA
ATOM     25  O   LIG    1       24.167 -27.316  13.249  0.00  0.00    -0.458 OA
ENDROOT
BRANCH   1  27
ATOM     26  C   LIG    1       26.666 -26.133  11.126  0.00  0.00    +0.007 C 
ATOM     27  C   LIG    1       25.543 -25.597  12.026  0.00  0.00    +0.044 C 
ENDBRANCH   1  27
BRANCH  14  28
ATOM     28  O   LIG    1       23.307 -32.366  13.488  0.00  0.00    -0.386 OA
ATOM     29  H   LIG    1       23.937 -31.780  13.942  0.00  0.00    +0.210 HD
ENDBRANCH  14  28
BRANCH   2  30
ATOM     30  O   LIG    1       26.150 -27.127  15.496  0.00  0.00    -0.383 OA
ATOM     31  H   LIG    1       26.192 -26.224  15.864  0.00  0.00    +0.210 HD
ENDBRANCH   2  30
BRANCH  16  32
ATOM     32  O   LIG    1       23.420 -30.112  10.498  0.00  0.00    -0.342 OA
BRANCH  32  33
ATOM     33  C   LIG    1       23.907 -30.793   9.294  0.00  0.00    +0.281 C 
ATOM     34  C   LIG    1       23.666 -30.041   7.901  0.00  0.00    +0.187 C 
ATOM     35  C   LIG    1       24.920 -29.278   7.279  0.00  0.00    +0.092 C 
ATOM     36  C   LIG    1       26.162 -29.682   8.084  0.00  0.00    +0.053 C 
ATOM     37  C   LIG    1       26.080 -31.181   8.327  0.00  0.00    +0.120 C 
ATOM     38  C   LIG    1       27.429 -31.812   8.625  0.00  0.00    +0.038 C 
ATOM     39  O   LIG    1       25.216 -31.373   9.449  0.00  0.00    -0.346 OA
BRANCH  35  40
ATOM     40  N   LIG    1       24.838 -27.808   6.984  0.00  0.00    -0.303 NA
ATOM     41  C   LIG    1       26.082 -27.077   7.215  0.00  0.00    +0.105 C 
ATOM     42  C   LIG    1       24.371 -27.534   5.607  0.00  0.00    +0.105 C 
ENDBRANCH  35  40
BRANCH  34  43
ATOM     43  O   LIG    1       23.351 -31.144   6.976  0.00  0.00    -0.385 OA
ATOM     44  H   LIG    1       22.726 -31.754   7.403  0.00  0.00    +0.210 HD
ENDBRANCH  34  43
ENDBRANCH  32  33
ENDBRANCH  16  32
BRANCH  19  45
ATOM     45  O   LIG    1       19.755 -28.998  12.805  0.00  0.00    -0.347 OA
BRANCH  45  46
ATOM     46  C   LIG    1       19.195 -30.330  12.939  0.00  0.00    +0.254 C 
ATOM     47  O   LIG    1       18.523 -30.675  11.743  0.00  0.00    -0.346 OA
ATOM     48  C   LIG    1       17.813 -31.914  11.701  0.00  0.00    +0.150 C 
ATOM     49  C   LIG    1       18.718 -33.136  11.604  0.00  0.00    +0.040 C 
ATOM     50  C   LIG    1       16.736 -31.927  12.796  0.00  0.00    +0.175 C 
ATOM     51  C   LIG    1       17.295 -31.613  14.221  0.00  0.00    +0.099 C 
ATOM     52  C   LIG    1       17.991 -32.864  14.792  0.00  0.00    +0.044 C 
ATOM     53  C   LIG    1       18.211 -30.358  14.144  0.00  0.00    +0.098 C 
BRANCH  51  54
ATOM     54  O   LIG    1       16.145 -31.349  15.074  0.00  0.00    -0.374 OA
ATOM     55  C   LIG    1       15.776 -29.987  15.260  0.00  0.00    +0.195 C 
ENDBRANCH  51  54
BRANCH  50  56
ATOM     56  O   LIG    1       15.779 -30.910  12.416  0.00  0.00    -0.386 OA
ATOM     57  H   LIG    1       15.523 -31.100  11.494  0.00  0.00    +0.210 HD
ENDBRANCH  50  56
ENDBRANCH  45  46
ENDBRANCH  19  45
BRANCH  10  58
ATOM     58  C   LIG    1       29.570 -29.713  12.000  0.00  0.00    +0.207 C 
BRANCH  58  59
ATOM     59  O   LIG    1       30.995 -29.771  11.826  0.00  0.00    -0.374 OA
BRANCH  59  60
ATOM     60  C   LIG    1       31.784 -29.776  13.046  0.00  0.00    +0.188 C 
BRANCH  60  61
ATOM     61  C   LIG    1       32.579 -28.497  13.454  0.00  0.00    +0.187 C 
BRANCH  61  62
ATOM     62  O   LIG    1       32.930 -28.344  14.833  0.00  0.00    -0.381 OA
ATOM     63  C   LIG    1       32.448 -27.153  15.418  0.00  0.00    +0.194 C 
ENDBRANCH  61  62
ENDBRANCH  60  61
ENDBRANCH  59  60
ENDBRANCH  58  59
ENDBRANCH  10  58
TORSDOF 16
ENDMDL
MODEL 3
REMARK VINA RESULT:       2.1      1.201      1.958
REMARK  Name = *****
REMARK                            x       y       z     vdW  Elec       q    Type
REMARK                         _______ _______ _______ _____ _____    ______ ____
ROOT
ATOM      1  C   LIG    1       22.005 -31.659  10.017  0.00  0.00    +0.210 C 
ATOM      2  C   LIG    1       22.332 -32.943  10.926  0.00  0.00    +0.126 C 
ATOM      3  C   LIG    1       21.065 -33.776  11.215  0.00  0.00    +0.048 C 
ATOM      4  C   LIG    1       23.118 -32.672  12.295  0.00  0.00    +0.160 C 
ATOM      5  C   LIG    1       24.659 -32.445  12.237  0.00  0.00    +0.035 C 
ATOM      6  C   LIG    1       25.440 -33.652  11.652  0.00  0.00    +0.012 C 
ATOM      7  C   LIG    1       25.106 -32.106  13.705  0.00  0.00    +0.064 C 
ATOM      8  N   LIG    1       24.866 -33.287  14.538  0.00  0.00    -0.286 NA
ATOM      9  H   LIG    1       25.102 -33.102  15.512  0.00  0.00    +0.125 HD
ATOM     10  C   LIG    1       23.468 -33.674  14.530  0.00  0.00    +0.213 C 
ATOM     11  C   LIG    1       26.564 -31.526  13.803  0.00  0.00    +0.006 C 
ATOM     12  C   LIG    1       27.379 -32.045  15.014  0.00  0.00    +0.009 C 
ATOM     13  C   LIG    1       26.548 -29.920  13.837  0.00  0.00    +0.042 C 
ATOM     14  C   LIG    1       27.195 -29.138  12.648  0.00  0.00    +0.090 C 
ATOM     15  C   LIG    1       28.333 -28.200  13.151  0.00  0.00    +0.044 C 
ATOM     16  C   LIG    1       26.207 -28.193  11.623  0.00  0.00    +0.158 C 
ATOM     17  C   LIG    1       26.358 -28.824  10.167  0.00  0.00    +0.047 C 
ATOM     18  C   LIG    1       27.848 -28.650   9.732  0.00  0.00    +0.013 C 
ATOM     19  C   LIG    1       25.450 -28.518   8.881  0.00  0.00    +0.140 C 
ATOM     20  C   LIG    1       24.858 -29.843   8.272  0.00  0.00    +0.124 C 
ATOM     21  C   LIG    1       25.717 -31.101   8.376  0.00  0.00    +0.022 C 
ATOM     22  C   LIG    1       23.373 -30.169   8.638  0.00  0.00    +0.313 C 
ATOM     23  O   LIG    1       22.478 -29.944   7.895  0.00  0.00    -0.250 OA
ATOM     24  O   LIG    1       22.906 -33.786  13.200  0.00  0.00    -0.353 OA
ATOM     25  O   LIG    1       23.230 -30.833   9.849  0.00  0.00    -0.458 OA
ENDROOT
BRANCH   1  27
ATOM     26  C   LIG    1       19.387 -31.213   9.953  0.00  0.00    +0.007 C 
ATOM     27  C   LIG    1       20.781 -30.782  10.432  0.00  0.00    +0.044 C 
ENDBRANCH   1  27
BRANCH  14  28
ATOM     28  O   LIG    1       27.881 -30.172  11.907  0.00  0.00    -0.386 OA
ATOM     29  H   LIG    1       28.082 -30.921  12.494  0.00  0.00    +0.210 HD
ENDBRANCH  14  28
BRANCH   2  30
ATOM     30  O   LIG    1       23.097 -33.825  10.079  0.00  0.00    -0.383 OA
ATOM     31  H   LIG    1       22.674 -33.792   9.201  0.00  0.00    +0.210 HD
ENDBRANCH   2  30
BRANCH  16  32
ATOM     32  O   LIG    1       24.845 -27.990  12.141  0.00  0.00    -0.342 OA
BRANCH  32  33
ATOM     33  C   LIG    1       24.756 -27.788  13.590  0.00  0.00    +0.281 C 
ATOM     34  C   LIG    1       25.697 -26.652  14.213  0.00  0.00    +0.187 C 
ATOM     35  C   LIG    1       25.000 -25.260  14.556  0.00  0.00    +0.092 C 
ATOM     36  C   LIG    1       23.483 -25.450  14.427  0.00  0.00    +0.053 C 
ATOM     37  C   LIG    1       23.136 -26.786  15.066  0.00  0.00    +0.120 C 
ATOM     38  C   LIG    1       21.681 -26.883  15.493  0.00  0.00    +0.038 C 
ATOM     39  O   LIG    1       23.405 -27.795  14.092  0.00  0.00    -0.346 OA
BRANCH  35  40
ATOM     40  N   LIG    1       25.507 -23.990  13.937  0.00  0.00    -0.303 NA
ATOM     41  C   LIG    1       24.505 -23.250  13.173  0.00  0.00    +0.105 C 
ATOM     42  C   LIG    1       26.117 -23.081  14.933  0.00  0.00    +0.105 C 
ENDBRANCH  35  40
BRANCH  34  43
ATOM     43  O   LIG    1       26.116 -27.234  15.500  0.00  0.00    -0.385 OA
ATOM     44  H   LIG    1       26.687 -28.003  15.335  0.00  0.00    +0.210 HD
ENDBRANCH  34  43
ENDBRANCH  32  33
ENDBRANCH  16  32
BRANCH  19  45
ATOM     45  O   LIG    1       26.270 -27.753   7.909  0.00  0.00    -0.347 OA
BRANCH  45  46
ATOM     46  C   LIG    1       25.655 -26.820   6.984  0.00  0.00    +0.254 C 
ATOM     47  O   LIG    1       26.574 -26.510   5.954  0.00  0.00    -0.346 OA
ATOM     48  C   LIG    1       26.199 -25.526   4.989  0.00  0.00    +0.150 C 
ATOM     49  C   LIG    1       25.163 -26.017   3.984  0.00  0.00    +0.040 C 
ATOM     50  C   LIG    1       25.911 -24.193   5.697  0.00  0.00    +0.175 C 
ATOM     51  C   LIG    1       24.866 -24.318   6.851  0.00  0.00    +0.099 C 
ATOM     52  C   LIG    1       23.445 -24.392   6.259  0.00  0.00    +0.044 C 
ATOM     53  C   LIG    1       25.240 -25.530   7.751  0.00  0.00    +0.098 C 
BRANCH  51  54
ATOM     54  O   LIG    1       24.935 -23.080   7.615  0.00  0.00    -0.374 OA
ATOM     55  C   LIG    1       23.991 -22.066   7.292  0.00  0.00    +0.195 C 
ENDBRANCH  51  54
BRANCH  50  56
ATOM     56  O   LIG    1       27.180 -23.754   6.236  0.00  0.00    -0.386 OA
ATOM     57  H   LIG    1       27.796 -23.693   5.483  0.00  0.00    +0.210 HD
ENDBRANCH  50  56
ENDBRANCH  45  46
ENDBRANCH  19  45
BRANCH  10  58
ATOM     58  C   LIG    1       22.558 -32.861  15.499  0.00  0.00    +0.207 C 
BRANCH  58  59
ATOM     59  O   LIG    1       21.230 -32.533  15.058  0.00  0.00    -0.374 OA
BRANCH  59  60
ATOM     60  C   LIG    1       20.981 -31.129  14.780  0.00  0.00    +0.188 C 
BRANCH  60  61
ATOM     61  C   LIG    1       19.524 -30.576  14.854  0.00  0.00    +0.187 C 
BRANCH  61  62
ATOM     62  O   LIG    1       19.244 -29.348  14.176  0.00  0.00    -0.381 OA
ATOM     63  C   LIG    1       18.108 -28.667  14.667  0.00  0.00    +0.194 C 
ENDBRANCH  61  62
ENDBRANCH  60  61
ENDBRANCH  59  60
ENDBRANCH  58  59
ENDBRANCH  10  58
TORSDOF 16
ENDMDL
MODEL 4
REMARK VINA RESULT:       2.2      2.856      8.931
REMARK  Name = *****
REMARK                            x       y       z     vdW  Elec       q    Type
REMARK                         _______ _______ _______ _____ _____    ______ ____
ROOT
ATOM      1  C   LIG    1       25.274 -26.453  13.345  0.00  0.00    +0.210 C 
ATOM      2  C   LIG    1       26.538 -27.109  14.089  0.00  0.00    +0.126 C 
ATOM      3  C   LIG    1       27.732 -26.132  14.153  0.00  0.00    +0.048 C 
ATOM      4  C   LIG    1       27.037 -28.529  13.542  0.00  0.00    +0.160 C 
ATOM      5  C   LIG    1       26.252 -29.807  13.965  0.00  0.00    +0.035 C 
ATOM      6  C   LIG    1       26.234 -30.042  15.499  0.00  0.00    +0.012 C 
ATOM      7  C   LIG    1       26.915 -31.003  13.190  0.00  0.00    +0.064 C 
ATOM      8  N   LIG    1       28.291 -31.151  13.673  0.00  0.00    -0.286 NA
ATOM      9  H   LIG    1       28.779 -31.890  13.168  0.00  0.00    +0.125 HD
ATOM     10  C   LIG    1       29.065 -29.943  13.463  0.00  0.00    +0.213 C 
ATOM     11  C   LIG    1       26.068 -32.326  13.225  0.00  0.00    +0.006 C 
ATOM     12  C   LIG    1       26.905 -33.619  13.399  0.00  0.00    +0.009 C 
ATOM     13  C   LIG    1       25.159 -32.468  11.909  0.00  0.00    +0.042 C 
ATOM     14  C   LIG    1       23.603 -32.435  12.063  0.00  0.00    +0.090 C 
ATOM     15  C   LIG    1       22.960 -33.740  11.506  0.00  0.00    +0.044 C 
ATOM     16  C   LIG    1       22.717 -31.135  11.397  0.00  0.00    +0.158 C 
ATOM     17  C   LIG    1       21.996 -30.422  12.627  0.00  0.00    +0.047 C 
ATOM     18  C   LIG    1       20.996 -31.450  13.244  0.00  0.00    +0.013 C 
ATOM     19  C   LIG    1       21.267 -28.994  12.625  0.00  0.00    +0.140 C 
ATOM     20  C   LIG    1       21.845 -28.057  13.748  0.00  0.00    +0.124 C 
ATOM     21  C   LIG    1       22.314 -28.724  15.039  0.00  0.00    +0.022 C 
ATOM     22  C   LIG    1       22.884 -26.982  13.286  0.00  0.00    +0.313 C 
ATOM     23  O   LIG    1       22.581 -25.851  13.106  0.00  0.00    -0.250 OA
ATOM     24  O   LIG    1       28.413 -28.745  13.949  0.00  0.00    -0.353 OA
ATOM     25  O   LIG    1       24.186 -27.459  13.216  0.00  0.00    -0.458 OA
ENDROOT
BRANCH   1  27
ATOM     26  C   LIG    1       26.609 -26.312  11.053  0.00  0.00    +0.007 C 
ATOM     27  C   LIG    1       25.540 -25.728  11.988  0.00  0.00    +0.044 C 
ENDBRANCH   1  27
BRANCH  14  28
ATOM     28  O   LIG    1       23.412 -32.522  13.493  0.00  0.00    -0.386 OA
ATOM     29  H   LIG    1       24.268 -32.434  13.947  0.00  0.00    +0.210 HD
ENDBRANCH  14  28
BRANCH   2  30
ATOM     30  O   LIG    1       26.151 -27.217  15.474  0.00  0.00    -0.383 OA
ATOM     31  H   LIG    1       26.942 -27.525  15.954  0.00  0.00    +0.210 HD
ENDBRANCH   2  30
BRANCH  16  32
ATOM     32  O   LIG    1       23.505 -30.291  10.484  0.00  0.00    -0.342 OA
BRANCH  32  33
ATOM     33  C   LIG    1       23.395 -30.641   9.065  0.00  0.00    +0.281 C 
ATOM     34  C   LIG    1       24.765 -30.713   8.238  0.00  0.00    +0.187 C 
ATOM     35  C   LIG    1       25.351 -32.169   7.960  0.00  0.00    +0.092 C 
ATOM     36  C   LIG    1       24.280 -33.191   8.358  0.00  0.00    +0.053 C 
ATOM     37  C   LIG    1       22.943 -32.672   7.850  0.00  0.00    +0.120 C 
ATOM     38  C   LIG    1       21.901 -33.766   7.687  0.00  0.00    +0.038 C 
ATOM     39  O   LIG    1       22.476 -31.720   8.806  0.00  0.00    -0.346 OA
BRANCH  35  40
ATOM     40  N   LIG    1       26.733 -32.526   8.424  0.00  0.00    -0.303 NA
ATOM     41  C   LIG    1       26.794 -33.703   9.288  0.00  0.00    +0.105 C 
ATOM     42  C   LIG    1       27.677 -32.710   7.299  0.00  0.00    +0.105 C 
ENDBRANCH  35  40
BRANCH  34  43
ATOM     43  O   LIG    1       24.392 -30.158   6.925  0.00  0.00    -0.385 OA
ATOM     44  H   LIG    1       23.514 -30.491   6.673  0.00  0.00    +0.210 HD
ENDBRANCH  34  43
ENDBRANCH  32  33
ENDBRANCH  16  32
BRANCH  19  45
ATOM     45  O   LIG    1       19.807 -29.221  12.759  0.00  0.00    -0.347 OA
BRANCH  45  46
ATOM     46  C   LIG    1       19.237 -30.543  12.578  0.00  0.00    +0.254 C 
ATOM     47  O   LIG    1       18.513 -30.577  11.363  0.00  0.00    -0.346 OA
ATOM     48  C   LIG    1       17.786 -31.764  11.043  0.00  0.00    +0.150 C 
ATOM     49  C   LIG    1       18.673 -32.925  10.605  0.00  0.00    +0.040 C 
ATOM     50  C   LIG    1       16.754 -32.050  12.144  0.00  0.00    +0.175 C 
ATOM     51  C   LIG    1       17.374 -32.103  13.577  0.00  0.00    +0.099 C 
ATOM     52  C   LIG    1       18.078 -33.459  13.787  0.00  0.00    +0.044 C 
ATOM     53  C   LIG    1       18.302 -30.871  13.778  0.00  0.00    +0.098 C 
BRANCH  51  54
ATOM     54  O   LIG    1       16.263 -32.060  14.517  0.00  0.00    -0.374 OA
ATOM     55  C   LIG    1       15.938 -33.270  15.191  0.00  0.00    +0.195 C 
ENDBRANCH  51  54
BRANCH  50  56
ATOM     56  O   LIG    1       15.795 -30.968  12.071  0.00  0.00    -0.386 OA
ATOM     57  H   LIG    1       16.308 -30.152  11.922  0.00  0.00    +0.210 HD
ENDBRANCH  50  56
ENDBRANCH  45  46
ENDBRANCH  19  45
BRANCH  10  58
ATOM     58  C   LIG    1       29.637 -29.773  12.023  0.00  0.00    +0.207 C 
BRANCH  58  59
ATOM     59  O   LIG    1       30.649 -28.773  11.816  0.00  0.00    -0.374 OA
BRANCH  59  60
ATOM     60  C   LIG    1       31.957 -29.067  12.377  0.00  0.00    +0.188 C 
BRANCH  60  61
ATOM     61  C   LIG    1       32.340 -30.544  12.704  0.00  0.00    +0.187 C 
BRANCH  61  62
ATOM     62  O   LIG    1       32.008 -31.044  14.003  0.00  0.00    -0.381 OA
ATOM     63  C   LIG    1       32.930 -30.683  15.009  0.00  0.00    +0.194 C 
ENDBRANCH  61  62
ENDBRANCH  60  61
ENDBRANCH  59  60
ENDBRANCH  58  59
ENDBRANCH  10  58
TORSDOF 16
ENDMDL
