MODEL 1
REMARK VINA RESULT:      -3.3      0.000      0.000
REMARK  Name = *****
REMARK                            x       y       z     vdW  Elec       q    Type
REMARK                         _______ _______ _______ _____ _____    ______ ____
ROOT
ATOM      1  O   LIG    1       26.780 -16.864   3.312  0.00  0.00    -0.270 OA
ATOM      2  C   LIG    1       25.680 -16.538   3.716  0.00  0.00    +0.255 C 
ATOM      3  N   LIG    1       25.260 -15.324   4.188  0.00  0.00    -0.222 N 
ATOM      4  C   LIG    1       23.920 -15.331   4.467  0.00  0.00    +0.255 C 
ATOM      5  O   LIG    1       23.218 -14.421   4.866  0.00  0.00    -0.270 OA
ATOM      6  C   LIG    1       23.444 -16.688   4.208  0.00  0.00    +0.049 A 
ATOM      7  C   LIG    1       22.186 -17.239   4.350  0.00  0.00    +0.014 A 
ATOM      8  C   LIG    1       22.039 -18.589   4.013  0.00  0.00    +0.001 A 
ATOM      9  C   LIG    1       23.137 -19.342   3.547  0.00  0.00    +0.001 A 
ATOM     10  C   LIG    1       24.401 -18.758   3.410  0.00  0.00    +0.014 A 
ATOM     11  C   LIG    1       24.521 -17.427   3.752  0.00  0.00    +0.049 A 
ENDROOT
BRANCH   3  12
ATOM     12  C   LIG    1       26.063 -14.112   4.206  0.00  0.00    +0.171 C 
ATOM     13  C   LIG    1       26.789 -13.967   2.865  0.00  0.00    +0.240 C 
ATOM     14  O   LIG    1       26.385 -14.458   1.812  0.00  0.00    -0.273 OA
ATOM     15  N   LIG    1       27.906 -13.162   2.874  0.00  0.00    -0.255 N 
ATOM     16  H   LIG    1       28.368 -13.036   1.983  0.00  0.00    +0.158 HD
ATOM     17  C   LIG    1       28.490 -12.538   3.949  0.00  0.00    +0.219 C 
ATOM     18  O   LIG    1       29.474 -11.820   3.806  0.00  0.00    -0.275 OA
ATOM     19  C   LIG    1       27.810 -12.716   5.288  0.00  0.00    +0.098 C 
ATOM     20  C   LIG    1       27.061 -14.039   5.358  0.00  0.00    +0.042 C 
ENDBRANCH   3  12
TORSDOF 1
ENDMDL
MODEL 2
REMARK VINA RESULT:      -3.3      1.487      1.857
REMARK  Name = *****
REMARK                            x       y       z     vdW  Elec       q    Type
REMARK                         _______ _______ _______ _____ _____    ______ ____
ROOT
ATOM      1  O   LIG    1       26.410 -18.579   2.770  0.00  0.00    -0.270 OA
ATOM      2  C   LIG    1       25.436 -18.061   3.283  0.00  0.00    +0.255 C 
ATOM      3  N   LIG    1       25.190 -16.737   3.525  0.00  0.00    -0.222 N 
ATOM      4  C   LIG    1       23.937 -16.546   4.042  0.00  0.00    +0.255 C 
ATOM      5  O   LIG    1       23.383 -15.504   4.337  0.00  0.00    -0.270 OA
ATOM      6  C   LIG    1       23.343 -17.871   4.204  0.00  0.00    +0.049 A 
ATOM      7  C   LIG    1       22.112 -18.247   4.703  0.00  0.00    +0.014 A 
ATOM      8  C   LIG    1       21.824 -19.615   4.728  0.00  0.00    +0.001 A 
ATOM      9  C   LIG    1       22.760 -20.560   4.257  0.00  0.00    +0.001 A 
ATOM     10  C   LIG    1       24.000 -20.153   3.754  0.00  0.00    +0.014 A 
ATOM     11  C   LIG    1       24.261 -18.797   3.744  0.00  0.00    +0.049 A 
ENDROOT
BRANCH   3  12
ATOM     12  C   LIG    1       26.047 -15.638   3.106  0.00  0.00    +0.171 C 
ATOM     13  C   LIG    1       27.358 -15.691   3.897  0.00  0.00    +0.240 C 
ATOM     14  O   LIG    1       27.821 -16.720   4.387  0.00  0.00    -0.273 OA
ATOM     15  N   LIG    1       28.064 -14.510   3.963  0.00  0.00    -0.255 N 
ATOM     16  H   LIG    1       28.946 -14.549   4.455  0.00  0.00    +0.158 HD
ATOM     17  C   LIG    1       27.699 -13.279   3.475  0.00  0.00    +0.219 C 
ATOM     18  O   LIG    1       28.445 -12.311   3.580  0.00  0.00    -0.275 OA
ATOM     19  C   LIG    1       26.382 -13.205   2.737  0.00  0.00    +0.098 C 
ATOM     20  C   LIG    1       25.405 -14.260   3.237  0.00  0.00    +0.042 C 
ENDBRANCH   3  12
TORSDOF 1
ENDMDL
MODEL 3
REMARK VINA RESULT:      -3.2      1.513      2.771
REMARK  Name = *****
REMARK                            x       y       z     vdW  Elec       q    Type
REMARK                         _______ _______ _______ _____ _____    ______ ____
ROOT
ATOM      1  O   LIG    1       23.412 -15.607   4.381  0.00  0.00    -0.270 OA
ATOM      2  C   LIG    1       23.953 -16.630   4.006  0.00  0.00    +0.255 C 
ATOM      3  N   LIG    1       25.141 -16.784   3.345  0.00  0.00    -0.222 N 
ATOM      4  C   LIG    1       25.451 -18.107   3.174  0.00  0.00    +0.255 C 
ATOM      5  O   LIG    1       26.439 -18.600   2.663  0.00  0.00    -0.270 OA
ATOM      6  C   LIG    1       24.334 -18.874   3.720  0.00  0.00    +0.049 A 
ATOM      7  C   LIG    1       24.128 -20.238   3.780  0.00  0.00    +0.014 A 
ATOM      8  C   LIG    1       22.942 -20.678   4.377  0.00  0.00    +0.001 A 
ATOM      9  C   LIG    1       22.007 -19.757   4.894  0.00  0.00    +0.001 A 
ATOM     10  C   LIG    1       22.241 -18.380   4.822  0.00  0.00    +0.014 A 
ATOM     11  C   LIG    1       23.417 -17.971   4.226  0.00  0.00    +0.049 A 
ENDROOT
BRANCH   3  12
ATOM     12  C   LIG    1       26.072 -15.710   3.037  0.00  0.00    +0.171 C 
ATOM     13  C   LIG    1       27.316 -15.852   3.920  0.00  0.00    +0.240 C 
ATOM     14  O   LIG    1       27.697 -16.918   4.399  0.00  0.00    -0.273 OA
ATOM     15  N   LIG    1       28.063 -14.707   4.087  0.00  0.00    -0.255 N 
ATOM     16  H   LIG    1       28.904 -14.803   4.640  0.00  0.00    +0.158 HD
ATOM     17  C   LIG    1       27.788 -13.443   3.625  0.00  0.00    +0.219 C 
ATOM     18  O   LIG    1       28.564 -12.513   3.825  0.00  0.00    -0.275 OA
ATOM     19  C   LIG    1       26.535 -13.282   2.795  0.00  0.00    +0.098 C 
ATOM     20  C   LIG    1       25.480 -14.310   3.177  0.00  0.00    +0.042 C 
ENDBRANCH   3  12
TORSDOF 1
ENDMDL
MODEL 4
REMARK VINA RESULT:      -2.5      0.497      2.061
REMARK  Name = *****
REMARK                            x       y       z     vdW  Elec       q    Type
REMARK                         _______ _______ _______ _____ _____    ______ ____
ROOT
ATOM      1  O   LIG    1       23.270 -14.327   5.070  0.00  0.00    -0.270 OA
ATOM      2  C   LIG    1       23.974 -15.155   4.524  0.00  0.00    +0.255 C 
ATOM      3  N   LIG    1       25.270 -15.040   4.100  0.00  0.00    -0.222 N 
ATOM      4  C   LIG    1       25.743 -16.227   3.608  0.00  0.00    +0.255 C 
ATOM      5  O   LIG    1       26.853 -16.490   3.184  0.00  0.00    -0.270 OA
ATOM      6  C   LIG    1       24.635 -17.177   3.664  0.00  0.00    +0.049 A 
ATOM      7  C   LIG    1       24.566 -18.498   3.271  0.00  0.00    +0.014 A 
ATOM      8  C   LIG    1       23.347 -19.157   3.458  0.00  0.00    +0.001 A 
ATOM      9  C   LIG    1       22.243 -18.488   4.027  0.00  0.00    +0.001 A 
ATOM     10  C   LIG    1       22.339 -17.149   4.419  0.00  0.00    +0.014 A 
ATOM     11  C   LIG    1       23.552 -16.521   4.220  0.00  0.00    +0.049 A 
ENDROOT
BRANCH   3  12
ATOM     12  C   LIG    1       26.122 -13.881   4.320  0.00  0.00    +0.171 C 
ATOM     13  C   LIG    1       26.441 -13.226   2.973  0.00  0.00    +0.240 C 
ATOM     14  O   LIG    1       25.723 -13.319   1.979  0.00  0.00    -0.273 OA
ATOM     15  N   LIG    1       27.564 -12.429   2.948  0.00  0.00    -0.255 N 
ATOM     16  H   LIG    1       27.760 -11.967   2.070  0.00  0.00    +0.158 HD
ATOM     17  C   LIG    1       28.470 -12.213   3.958  0.00  0.00    +0.219 C 
ATOM     18  O   LIG    1       29.417 -11.448   3.805  0.00  0.00    -0.275 OA
ATOM     19  C   LIG    1       28.191 -12.896   5.277  0.00  0.00    +0.098 C 
ATOM     20  C   LIG    1       27.410 -14.187   5.079  0.00  0.00    +0.042 C 
ENDBRANCH   3  12
TORSDOF 1
ENDMDL
MODEL 5
REMARK VINA RESULT:      -2.0      2.664      4.040
REMARK  Name = *****
REMARK                            x       y       z     vdW  Elec       q    Type
REMARK                         _______ _______ _______ _____ _____    ______ ____
ROOT
ATOM      1  O   LIG    1       24.773 -18.229   3.362  0.00  0.00    -0.270 OA
ATOM      2  C   LIG    1       25.809 -17.678   3.683  0.00  0.00    +0.255 C 
ATOM      3  N   LIG    1       26.169 -16.366   3.537  0.00  0.00    -0.222 N 
ATOM      4  C   LIG    1       27.390 -16.116   4.104  0.00  0.00    +0.255 C 
ATOM      5  O   LIG    1       27.991 -15.062   4.189  0.00  0.00    -0.270 OA
ATOM      6  C   LIG    1       27.889 -17.393   4.608  0.00  0.00    +0.049 A 
ATOM      7  C   LIG    1       29.075 -17.705   5.242  0.00  0.00    +0.014 A 
ATOM      8  C   LIG    1       29.269 -19.039   5.614  0.00  0.00    +0.001 A 
ATOM      9  C   LIG    1       28.284 -20.014   5.349  0.00  0.00    +0.001 A 
ATOM     10  C   LIG    1       27.089 -19.671   4.707  0.00  0.00    +0.014 A 
ATOM     11  C   LIG    1       26.925 -18.349   4.347  0.00  0.00    +0.049 A 
ENDROOT
BRANCH   3  12
ATOM     12  C   LIG    1       25.301 -15.313   3.036  0.00  0.00    +0.171 C 
ATOM     13  C   LIG    1       26.153 -14.244   2.343  0.00  0.00    +0.240 C 
ATOM     14  O   LIG    1       27.254 -14.465   1.843  0.00  0.00    -0.273 OA
ATOM     15  N   LIG    1       25.571 -13.001   2.224  0.00  0.00    -0.255 N 
ATOM     16  H   LIG    1       26.115 -12.302   1.737  0.00  0.00    +0.158 HD
ATOM     17  C   LIG    1       24.358 -12.585   2.718  0.00  0.00    +0.219 C 
ATOM     18  O   LIG    1       23.948 -11.447   2.510  0.00  0.00    -0.275 OA
ATOM     19  C   LIG    1       23.532 -13.618   3.448  0.00  0.00    +0.098 C 
ATOM     20  C   LIG    1       24.414 -14.674   4.100  0.00  0.00    +0.042 C 
ENDBRANCH   3  12
TORSDOF 1
ENDMDL
MODEL 6
REMARK VINA RESULT:      -2.0      1.828      2.980
REMARK  Name = *****
REMARK                            x       y       z     vdW  Elec       q    Type
REMARK                         _______ _______ _______ _____ _____    ______ ____
ROOT
ATOM      1  O   LIG    1       22.412 -16.019   5.036  0.00  0.00    -0.270 OA
ATOM      2  C   LIG    1       23.234 -16.738   4.501  0.00  0.00    +0.255 C 
ATOM      3  N   LIG    1       24.412 -16.397   3.893  0.00  0.00    -0.222 N 
ATOM      4  C   LIG    1       25.105 -17.506   3.486  0.00  0.00    +0.255 C 
ATOM      5  O   LIG    1       26.194 -17.571   2.949  0.00  0.00    -0.270 OA
ATOM      6  C   LIG    1       24.272 -18.663   3.806  0.00  0.00    +0.049 A 
ATOM      7  C   LIG    1       24.484 -20.009   3.586  0.00  0.00    +0.014 A 
ATOM      8  C   LIG    1       23.487 -20.891   4.014  0.00  0.00    +0.001 A 
ATOM      9  C   LIG    1       22.320 -20.412   4.645  0.00  0.00    +0.001 A 
ATOM     10  C   LIG    1       22.129 -19.042   4.858  0.00  0.00    +0.014 A 
ATOM     11  C   LIG    1       23.126 -18.193   4.422  0.00  0.00    +0.049 A 
ENDROOT
BRANCH   3  12
ATOM     12  C   LIG    1       24.976 -15.057   3.857  0.00  0.00    +0.171 C 
ATOM     13  C   LIG    1       24.013 -14.125   3.114  0.00  0.00    +0.240 C 
ATOM     14  O   LIG    1       22.802 -14.317   3.030  0.00  0.00    -0.273 OA
ATOM     15  N   LIG    1       24.572 -12.976   2.600  0.00  0.00    -0.255 N 
ATOM     16  H   LIG    1       23.935 -12.341   2.139  0.00  0.00    +0.158 HD
ATOM     17  C   LIG    1       25.895 -12.603   2.605  0.00  0.00    +0.219 C 
ATOM     18  O   LIG    1       26.251 -11.528   2.133  0.00  0.00    -0.275 OA
ATOM     19  C   LIG    1       26.861 -13.542   3.291  0.00  0.00    +0.098 C 
ATOM     20  C   LIG    1       26.369 -14.981   3.239  0.00  0.00    +0.042 C 
ENDBRANCH   3  12
TORSDOF 1
ENDMDL
MODEL 7
REMARK VINA RESULT:      -1.7      2.385      6.456
REMARK  Name = *****
REMARK                            x       y       z     vdW  Elec       q    Type
REMARK                         _______ _______ _______ _____ _____    ______ ____
ROOT
ATOM      1  O   LIG    1       22.753 -15.428   4.390  0.00  0.00    -0.270 OA
ATOM      2  C   LIG    1       23.900 -15.674   4.067  0.00  0.00    +0.255 C 
ATOM      3  N   LIG    1       24.480 -16.885   3.802  0.00  0.00    -0.222 N 
ATOM      4  C   LIG    1       25.776 -16.738   3.385  0.00  0.00    +0.255 C 
ATOM      5  O   LIG    1       26.568 -17.594   3.036  0.00  0.00    -0.270 OA
ATOM      6  C   LIG    1       26.077 -15.310   3.443  0.00  0.00    +0.049 A 
ATOM      7  C   LIG    1       27.241 -14.627   3.154  0.00  0.00    +0.014 A 
ATOM      8  C   LIG    1       27.220 -13.236   3.305  0.00  0.00    +0.001 A 
ATOM      9  C   LIG    1       26.051 -12.573   3.732  0.00  0.00    +0.001 A 
ATOM     10  C   LIG    1       24.883 -13.289   4.016  0.00  0.00    +0.014 A 
ATOM     11  C   LIG    1       24.931 -14.660   3.863  0.00  0.00    +0.049 A 
ENDROOT
BRANCH   3  12
ATOM     12  C   LIG    1       23.777 -18.157   3.761  0.00  0.00    +0.171 C 
ATOM     13  C   LIG    1       22.570 -18.097   4.703  0.00  0.00    +0.240 C 
ATOM     14  O   LIG    1       21.999 -17.055   5.018  0.00  0.00    -0.273 OA
ATOM     15  N   LIG    1       22.081 -19.313   5.125  0.00  0.00    -0.255 N 
ATOM     16  H   LIG    1       21.263 -19.280   5.719  0.00  0.00    +0.158 HD
ATOM     17  C   LIG    1       22.589 -20.564   4.869  0.00  0.00    +0.219 C 
ATOM     18  O   LIG    1       22.029 -21.572   5.289  0.00  0.00    -0.275 OA
ATOM     19  C   LIG    1       23.811 -20.631   3.983  0.00  0.00    +0.098 C 
ATOM     20  C   LIG    1       24.648 -19.364   4.095  0.00  0.00    +0.042 C 
ENDBRANCH   3  12
TORSDOF 1
ENDMDL
MODEL 8
REMARK VINA RESULT:      -1.2      1.978      2.365
REMARK  Name = *****
REMARK                            x       y       z     vdW  Elec       q    Type
REMARK                         _______ _______ _______ _____ _____    ______ ____
ROOT
ATOM      1  O   LIG    1       26.141 -17.452   2.974  0.00  0.00    -0.270 OA
ATOM      2  C   LIG    1       25.073 -17.394   3.555  0.00  0.00    +0.255 C 
ATOM      3  N   LIG    1       24.419 -16.298   4.049  0.00  0.00    -0.222 N 
ATOM      4  C   LIG    1       23.195 -16.635   4.562  0.00  0.00    +0.255 C 
ATOM      5  O   LIG    1       22.344 -15.913   5.045  0.00  0.00    -0.270 OA
ATOM      6  C   LIG    1       23.075 -18.087   4.443  0.00  0.00    +0.049 A 
ATOM      7  C   LIG    1       22.057 -18.936   4.828  0.00  0.00    +0.014 A 
ATOM      8  C   LIG    1       22.234 -20.300   4.574  0.00  0.00    +0.001 A 
ATOM      9  C   LIG    1       23.406 -20.773   3.948  0.00  0.00    +0.001 A 
ATOM     10  C   LIG    1       24.422 -19.891   3.566  0.00  0.00    +0.014 A 
ATOM     11  C   LIG    1       24.225 -18.551   3.831  0.00  0.00    +0.049 A 
ENDROOT
BRANCH   3  12
ATOM     12  C   LIG    1       24.850 -14.920   3.878  0.00  0.00    +0.171 C 
ATOM     13  C   LIG    1       23.773 -14.146   3.110  0.00  0.00    +0.240 C 
ATOM     14  O   LIG    1       22.583 -14.456   3.101  0.00  0.00    -0.273 OA
ATOM     15  N   LIG    1       24.199 -12.998   2.479  0.00  0.00    -0.255 N 
ATOM     16  H   LIG    1       23.485 -12.465   2.000  0.00  0.00    +0.158 HD
ATOM     17  C   LIG    1       25.478 -12.507   2.391  0.00  0.00    +0.219 C 
ATOM     18  O   LIG    1       25.710 -11.447   1.817  0.00  0.00    -0.275 OA
ATOM     19  C   LIG    1       26.557 -13.291   3.102  0.00  0.00    +0.098 C 
ATOM     20  C   LIG    1       26.203 -14.769   3.188  0.00  0.00    +0.042 C 
ENDBRANCH   3  12
TORSDOF 1
ENDMDL
MODEL 9
REMARK VINA RESULT:      -1.2      2.378      6.119
REMARK  Name = *****
REMARK                            x       y       z     vdW  Elec       q    Type
REMARK                         _______ _______ _______ _____ _____    ______ ____
ROOT
ATOM      1  O   LIG    1       26.614 -17.583   2.972  0.00  0.00    -0.270 OA
ATOM      2  C   LIG    1       25.793 -16.754   3.318  0.00  0.00    +0.255 C 
ATOM      3  N   LIG    1       24.465 -16.922   3.603  0.00  0.00    -0.222 N 
ATOM      4  C   LIG    1       23.895 -15.757   4.042  0.00  0.00    +0.255 C 
ATOM      5  O   LIG    1       22.754 -15.557   4.412  0.00  0.00    -0.270 OA
ATOM      6  C   LIG    1       24.934 -14.731   3.979  0.00  0.00    +0.049 A 
ATOM      7  C   LIG    1       24.885 -13.386   4.283  0.00  0.00    +0.014 A 
ATOM      8  C   LIG    1       26.064 -12.651   4.121  0.00  0.00    +0.001 A 
ATOM      9  C   LIG    1       27.246 -13.272   3.668  0.00  0.00    +0.001 A 
ATOM     10  C   LIG    1       27.270 -14.639   3.368  0.00  0.00    +0.014 A 
ATOM     11  C   LIG    1       26.093 -15.340   3.532  0.00  0.00    +0.049 A 
ENDROOT
BRANCH   3  12
ATOM     12  C   LIG    1       23.774 -18.202   3.641  0.00  0.00    +0.171 C 
ATOM     13  C   LIG    1       22.610 -18.116   4.633  0.00  0.00    +0.240 C 
ATOM     14  O   LIG    1       22.043 -17.068   4.935  0.00  0.00    -0.273 OA
ATOM     15  N   LIG    1       22.154 -19.320   5.123  0.00  0.00    -0.255 N 
ATOM     16  H   LIG    1       21.363 -19.272   5.751  0.00  0.00    +0.158 HD
ATOM     17  C   LIG    1       22.663 -20.575   4.891  0.00  0.00    +0.219 C 
ATOM     18  O   LIG    1       22.134 -21.571   5.373  0.00  0.00    -0.275 OA
ATOM     19  C   LIG    1       23.845 -20.664   3.953  0.00  0.00    +0.098 C 
ATOM     20  C   LIG    1       24.673 -19.387   3.980  0.00  0.00    +0.042 C 
ENDBRANCH   3  12
TORSDOF 1
ENDMDL
