MODEL 1
REMARK VINA RESULT:       4.7      0.000      0.000
REMARK  Name = *****
REMARK                            x       y       z     vdW  Elec       q    Type
REMARK                         _______ _______ _______ _____ _____    ______ ____
ROOT
ATOM      1  N   LIG    1       26.935 -15.759   3.224  0.00  0.00    -0.283 NA
ENDROOT
BRANCH   1   2
ATOM      2  C   LIG    1       26.594 -17.241   3.073  0.00  0.00    +0.181 C 
BRANCH   2   5
ATOM      3  C   LIG    1       29.073 -17.795   4.621  0.00  0.00    +0.132 C 
ATOM      4  N   LIG    1       27.911 -18.619   4.938  0.00  0.00    -0.298 N 
ATOM      5  C   LIG    1       26.631 -18.259   4.363  0.00  0.00    +0.230 C 
ATOM      6  O   LIG    1       25.637 -18.797   4.746  0.00  0.00    -0.274 OA
BRANCH   4   7
ATOM      7  C   LIG    1       28.180 -19.773   6.068  0.00  0.00    +0.035 C 
ATOM      8  C   LIG    1       29.259 -19.230   7.061  0.00  0.00    +0.032 C 
ATOM      9  C   LIG    1       28.806 -21.086   5.514  0.00  0.00    +0.032 C 
BRANCH   7  10
ATOM     10  C   LIG    1       26.878 -20.098   6.929  0.00  0.00    +0.060 C 
BRANCH  10  11
ATOM     11  C   LIG    1       25.576 -20.686   6.326  0.00  0.00    -0.045 A 
ATOM     12  C   LIG    1       25.495 -20.991   4.951  0.00  0.00    +0.003 A 
ATOM     13  C   LIG    1       24.304 -21.453   4.358  0.00  0.00    +0.000 A 
ATOM     14  C   LIG    1       23.141 -21.571   5.111  0.00  0.00    +0.000 A 
ATOM     15  C   LIG    1       23.174 -21.221   6.458  0.00  0.00    +0.000 A 
ATOM     16  C   LIG    1       24.379 -20.797   7.061  0.00  0.00    +0.003 A 
ENDBRANCH  10  11
ENDBRANCH   7  10
ENDBRANCH   4   7
ENDBRANCH   2   5
ENDBRANCH   1   2
BRANCH   1  17
ATOM     17  C   LIG    1       25.771 -15.010   2.636  0.00  0.00    +0.181 C 
BRANCH  17  18
ATOM     18  C   LIG    1       25.651 -13.501   2.497  0.00  0.00    +0.230 C 
ATOM     19  N   LIG    1       24.793 -12.934   3.484  0.00  0.00    -0.298 N 
ATOM     20  C   LIG    1       24.638 -11.462   3.302  0.00  0.00    +0.132 C 
ATOM     21  O   LIG    1       26.380 -12.881   1.812  0.00  0.00    -0.274 OA
BRANCH  19  22
ATOM     22  C   LIG    1       23.757 -13.744   4.282  0.00  0.00    +0.035 C 
ATOM     23  C   LIG    1       22.807 -12.671   4.989  0.00  0.00    +0.032 C 
ATOM     24  C   LIG    1       24.509 -14.370   5.508  0.00  0.00    +0.032 C 
BRANCH  22  25
ATOM     25  C   LIG    1       23.035 -15.305   3.539  0.00  0.00    +0.060 C 
BRANCH  25  26
ATOM     26  C   LIG    1       22.102 -16.753   4.029  0.00  0.00    -0.045 A 
ATOM     27  C   LIG    1       22.511 -17.677   5.028  0.00  0.00    +0.003 A 
ATOM     28  C   LIG    1       22.032 -19.034   5.056  0.00  0.00    +0.000 A 
ATOM     29  C   LIG    1       21.013 -19.496   4.229  0.00  0.00    +0.000 A 
ATOM     30  C   LIG    1       20.439 -18.589   3.382  0.00  0.00    +0.000 A 
ATOM     31  C   LIG    1       20.909 -17.251   3.362  0.00  0.00    +0.003 A 
ENDBRANCH  25  26
ENDBRANCH  22  25
ENDBRANCH  19  22
ENDBRANCH  17  18
ENDBRANCH   1  17
BRANCH   1  32
ATOM     32  C   LIG    1       27.725 -15.367   4.479  0.00  0.00    +0.113 C 
BRANCH  32  33
ATOM     33  C   LIG    1       28.208 -13.968   5.258  0.00  0.00    +0.171 C 
BRANCH  33  34
ATOM     34  O   LIG    1       28.129 -12.725   4.565  0.00  0.00    -0.394 OA
ATOM     35  H   LIG    1       29.043 -12.392   4.450  0.00  0.00    +0.209 HD
ENDBRANCH  33  34
ENDBRANCH  32  33
ENDBRANCH   1  32
TORSDOF 13
ENDMDL
MODEL 2
REMARK VINA RESULT:       5.5      2.242      7.777
REMARK  Name = *****
REMARK                            x       y       z     vdW  Elec       q    Type
REMARK                         _______ _______ _______ _____ _____    ______ ____
ROOT
ATOM      1  N   LIG    1       23.839 -17.151   4.076  0.00  0.00    -0.283 NA
ENDROOT
BRANCH   1   2
ATOM      2  C   LIG    1       25.210 -16.591   3.705  0.00  0.00    +0.181 C 
BRANCH   2   5
ATOM      3  C   LIG    1       23.953 -14.199   4.949  0.00  0.00    +0.132 C 
ATOM      4  N   LIG    1       24.573 -14.002   3.642  0.00  0.00    -0.298 N 
ATOM      5  C   LIG    1       25.372 -15.076   3.087  0.00  0.00    +0.230 C 
ATOM      6  O   LIG    1       26.036 -14.878   2.115  0.00  0.00    -0.274 OA
BRANCH   4   7
ATOM      7  C   LIG    1       24.421 -12.488   3.035  0.00  0.00    +0.035 C 
ATOM      8  C   LIG    1       23.750 -11.597   4.132  0.00  0.00    +0.032 C 
ATOM      9  C   LIG    1       23.459 -12.374   1.817  0.00  0.00    +0.032 C 
BRANCH   7  10
ATOM     10  C   LIG    1       25.830 -11.823   2.696  0.00  0.00    +0.060 C 
BRANCH  10  11
ATOM     11  C   LIG    1       27.119 -12.079   3.520  0.00  0.00    -0.045 A 
ATOM     12  C   LIG    1       28.298 -12.527   2.889  0.00  0.00    +0.003 A 
ATOM     13  C   LIG    1       29.461 -12.842   3.618  0.00  0.00    +0.000 A 
ATOM     14  C   LIG    1       29.463 -12.772   5.007  0.00  0.00    +0.000 A 
ATOM     15  C   LIG    1       28.296 -12.391   5.662  0.00  0.00    +0.000 A 
ATOM     16  C   LIG    1       27.143 -12.036   4.928  0.00  0.00    +0.003 A 
ENDBRANCH  10  11
ENDBRANCH   7  10
ENDBRANCH   4   7
ENDBRANCH   2   5
ENDBRANCH   1   2
BRANCH   1  17
ATOM     17  C   LIG    1       23.983 -18.648   4.031  0.00  0.00    +0.181 C 
BRANCH  17  18
ATOM     18  C   LIG    1       22.886 -19.647   3.700  0.00  0.00    +0.230 C 
ATOM     19  N   LIG    1       22.608 -20.524   4.788  0.00  0.00    -0.298 N 
ATOM     20  C   LIG    1       21.571 -21.536   4.432  0.00  0.00    +0.132 C 
ATOM     21  O   LIG    1       22.201 -19.525   2.751  0.00  0.00    -0.274 OA
BRANCH  19  22
ATOM     22  C   LIG    1       23.575 -20.764   5.961  0.00  0.00    +0.035 C 
ATOM     23  C   LIG    1       22.743 -21.571   7.061  0.00  0.00    +0.032 C 
ATOM     24  C   LIG    1       23.791 -19.381   6.668  0.00  0.00    +0.032 C 
BRANCH  22  25
ATOM     25  C   LIG    1       25.360 -21.209   5.608  0.00  0.00    +0.060 C 
BRANCH  25  26
ATOM     26  C   LIG    1       26.990 -20.466   5.633  0.00  0.00    -0.045 A 
ATOM     27  C   LIG    1       28.033 -20.841   6.523  0.00  0.00    +0.003 A 
ATOM     28  C   LIG    1       29.108 -19.946   6.859  0.00  0.00    +0.000 A 
ATOM     29  C   LIG    1       29.309 -18.727   6.219  0.00  0.00    +0.000 A 
ATOM     30  C   LIG    1       28.446 -18.405   5.208  0.00  0.00    +0.000 A 
ATOM     31  C   LIG    1       27.392 -19.293   4.874  0.00  0.00    +0.003 A 
ENDBRANCH  25  26
ENDBRANCH  22  25
ENDBRANCH  19  22
ENDBRANCH  17  18
ENDBRANCH   1  17
BRANCH   1  32
ATOM     32  C   LIG    1       23.031 -16.348   5.104  0.00  0.00    +0.113 C 
BRANCH  32  33
ATOM     33  C   LIG    1       21.580 -16.482   5.924  0.00  0.00    +0.171 C 
BRANCH  33  34
ATOM     34  O   LIG    1       21.093 -15.362   6.662  0.00  0.00    -0.394 OA
ATOM     35  H   LIG    1       21.774 -14.661   6.617  0.00  0.00    +0.209 HD
ENDBRANCH  33  34
ENDBRANCH  32  33
ENDBRANCH   1  32
TORSDOF 13
ENDMDL
