MODEL 1
REMARK VINA RESULT:      -8.3      0.000      0.000
REMARK  Name = *****
REMARK                            x       y       z     vdW  Elec       q    Type
REMARK                         _______ _______ _______ _____ _____    ______ ____
ROOT
ATOM      1 CL   LIG    1       25.685 -26.636   6.048  0.00  0.00    -0.084 Cl
ATOM      2  C   LIG    1       25.028 -25.064   6.283  0.00  0.00    +0.042 A 
ATOM      3  C   LIG    1       25.858 -23.948   6.197  0.00  0.00    +0.039 A 
ATOM      4  C   LIG    1       25.325 -22.667   6.398  0.00  0.00    +0.109 A 
ATOM      5  C   LIG    1       26.250 -21.488   6.373  0.00  0.00    +0.325 C 
ATOM      6  N   LIG    1       25.945 -20.347   5.819  0.00  0.00    -0.038 NA
ATOM      7  C   LIG    1       24.707 -20.068   5.225  0.00  0.00    +0.218 A 
ATOM      8  C   LIG    1       23.469 -20.480   5.734  0.00  0.00    +0.179 A 
ATOM      9  O   LIG    1       23.373 -21.295   6.839  0.00  0.00    -0.451 OA
ATOM     10  C   LIG    1       22.268 -20.061   5.152  0.00  0.00    +0.051 A 
ATOM     11  C   LIG    1       22.293 -19.240   4.027  0.00  0.00    +0.004 A 
ATOM     12  C   LIG    1       23.514 -18.830   3.497  0.00  0.00    +0.004 A 
ATOM     13  C   LIG    1       24.709 -19.234   4.100  0.00  0.00    +0.059 A 
ATOM     14  C   LIG    1       23.962 -22.519   6.653  0.00  0.00    +0.144 A 
ATOM     15  C   LIG    1       23.137 -23.643   6.761  0.00  0.00    +0.048 A 
ATOM     16  C   LIG    1       23.672 -24.918   6.572  0.00  0.00    +0.023 A 
ENDROOT
BRANCH   5  17
ATOM     17  N   LIG    1       27.522 -21.648   6.945  0.00  0.00    -0.217 N 
ATOM     18  C   LIG    1       28.688 -21.064   6.242  0.00  0.00    +0.241 C 
ATOM     19  C   LIG    1       28.928 -19.602   6.682  0.00  0.00    +0.124 C 
ATOM     20  N   LIG    1       29.101 -19.460   8.147  0.00  0.00    -0.309 NA
ATOM     21  H   LIG    1       29.930 -19.988   8.421  0.00  0.00    +0.122 HD
ATOM     22  C   LIG    1       27.926 -20.055   8.817  0.00  0.00    +0.124 C 
ATOM     23  C   LIG    1       27.669 -21.525   8.413  0.00  0.00    +0.241 C 
ENDBRANCH   5  17
TORSDOF 1
ENDMDL
MODEL 2
REMARK VINA RESULT:      -7.6      2.512      4.767
REMARK  Name = *****
REMARK                            x       y       z     vdW  Elec       q    Type
REMARK                         _______ _______ _______ _____ _____    ______ ____
ROOT
ATOM      1 CL   LIG    1       29.454 -20.186   8.606  0.00  0.00    -0.084 Cl
ATOM      2  C   LIG    1       28.388 -20.174   7.256  0.00  0.00    +0.042 A 
ATOM      3  C   LIG    1       27.217 -20.927   7.293  0.00  0.00    +0.039 A 
ATOM      4  C   LIG    1       26.352 -20.926   6.191  0.00  0.00    +0.109 A 
ATOM      5  C   LIG    1       25.136 -21.800   6.225  0.00  0.00    +0.325 C 
ATOM      6  N   LIG    1       23.971 -21.431   5.766  0.00  0.00    -0.038 NA
ATOM      7  C   LIG    1       23.726 -20.198   5.146  0.00  0.00    +0.218 A 
ATOM      8  C   LIG    1       24.601 -19.571   4.250  0.00  0.00    +0.179 A 
ATOM      9  O   LIG    1       25.847 -20.084   3.971  0.00  0.00    -0.451 OA
ATOM     10  C   LIG    1       24.235 -18.400   3.577  0.00  0.00    +0.051 A 
ATOM     11  C   LIG    1       22.991 -17.823   3.817  0.00  0.00    +0.004 A 
ATOM     12  C   LIG    1       22.111 -18.424   4.715  0.00  0.00    +0.004 A 
ATOM     13  C   LIG    1       22.476 -19.607   5.364  0.00  0.00    +0.059 A 
ATOM     14  C   LIG    1       26.658 -20.146   5.075  0.00  0.00    +0.144 A 
ATOM     15  C   LIG    1       27.846 -19.410   5.031  0.00  0.00    +0.048 A 
ATOM     16  C   LIG    1       28.711 -19.422   6.127  0.00  0.00    +0.023 A 
ENDROOT
BRANCH   5  17
ATOM     17  N   LIG    1       25.261 -23.065   6.820  0.00  0.00    -0.217 N 
ATOM     18  C   LIG    1       24.085 -23.633   7.521  0.00  0.00    +0.241 C 
ATOM     19  C   LIG    1       23.192 -24.436   6.549  0.00  0.00    +0.124 C 
ATOM     20  N   LIG    1       23.926 -25.513   5.844  0.00  0.00    -0.309 NA
ATOM     21  H   LIG    1       24.266 -26.174   6.543  0.00  0.00    +0.122 HD
ATOM     22  C   LIG    1       25.093 -24.915   5.161  0.00  0.00    +0.124 C 
ATOM     23  C   LIG    1       26.018 -24.121   6.111  0.00  0.00    +0.241 C 
ENDBRANCH   5  17
TORSDOF 1
ENDMDL
MODEL 3
REMARK VINA RESULT:      -7.3      2.705      5.623
REMARK  Name = *****
REMARK                            x       y       z     vdW  Elec       q    Type
REMARK                         _______ _______ _______ _____ _____    ______ ____
ROOT
ATOM      1 CL   LIG    1       29.622 -18.744   6.031  0.00  0.00    -0.084 Cl
ATOM      2  C   LIG    1       28.579 -20.016   6.533  0.00  0.00    +0.042 A 
ATOM      3  C   LIG    1       27.317 -20.143   5.957  0.00  0.00    +0.039 A 
ATOM      4  C   LIG    1       26.462 -21.173   6.373  0.00  0.00    +0.109 A 
ATOM      5  C   LIG    1       25.082 -21.245   5.793  0.00  0.00    +0.325 C 
ATOM      6  N   LIG    1       24.500 -22.364   5.461  0.00  0.00    -0.038 NA
ATOM      7  C   LIG    1       25.068 -23.632   5.647  0.00  0.00    +0.218 A 
ATOM      8  C   LIG    1       25.805 -24.014   6.775  0.00  0.00    +0.179 A 
ATOM      9  O   LIG    1       26.118 -23.123   7.776  0.00  0.00    -0.451 OA
ATOM     10  C   LIG    1       26.239 -25.333   6.946  0.00  0.00    +0.051 A 
ATOM     11  C   LIG    1       25.962 -26.286   5.969  0.00  0.00    +0.004 A 
ATOM     12  C   LIG    1       25.242 -25.922   4.833  0.00  0.00    +0.004 A 
ATOM     13  C   LIG    1       24.792 -24.607   4.683  0.00  0.00    +0.059 A 
ATOM     14  C   LIG    1       26.895 -22.081   7.339  0.00  0.00    +0.144 A 
ATOM     15  C   LIG    1       28.154 -21.937   7.931  0.00  0.00    +0.048 A 
ATOM     16  C   LIG    1       28.999 -20.903   7.523  0.00  0.00    +0.023 A 
ENDROOT
BRANCH   5  17
ATOM     17  N   LIG    1       24.409 -20.035   5.564  0.00  0.00    -0.217 N 
ATOM     18  C   LIG    1       24.662 -19.319   4.292  0.00  0.00    +0.241 C 
ATOM     19  C   LIG    1       23.698 -19.797   3.182  0.00  0.00    +0.124 C 
ATOM     20  N   LIG    1       22.271 -19.664   3.559  0.00  0.00    -0.309 NA
ATOM     21  H   LIG    1       22.074 -18.675   3.711  0.00  0.00    +0.122 HD
ATOM     22  C   LIG    1       22.054 -20.384   4.831  0.00  0.00    +0.124 C 
ATOM     23  C   LIG    1       22.990 -19.915   5.969  0.00  0.00    +0.241 C 
ENDBRANCH   5  17
TORSDOF 1
ENDMDL
MODEL 4
REMARK VINA RESULT:      -6.6      6.397      9.181
REMARK  Name = *****
REMARK                            x       y       z     vdW  Elec       q    Type
REMARK                         _______ _______ _______ _____ _____    ______ ____
ROOT
ATOM      1 CL   LIG    1       24.545 -30.835  12.477  0.00  0.00    -0.084 Cl
ATOM      2  C   LIG    1       25.235 -29.959  11.167  0.00  0.00    +0.042 A 
ATOM      3  C   LIG    1       24.993 -30.368   9.857  0.00  0.00    +0.039 A 
ATOM      4  C   LIG    1       25.562 -29.661   8.790  0.00  0.00    +0.109 A 
ATOM      5  C   LIG    1       25.349 -30.162   7.395  0.00  0.00    +0.325 C 
ATOM      6  N   LIG    1       25.122 -29.379   6.375  0.00  0.00    -0.038 NA
ATOM      7  C   LIG    1       25.098 -27.980   6.450  0.00  0.00    +0.218 A 
ATOM      8  C   LIG    1       25.984 -27.209   7.214  0.00  0.00    +0.179 A 
ATOM      9  O   LIG    1       26.913 -27.785   8.050  0.00  0.00    -0.451 OA
ATOM     10  C   LIG    1       25.977 -25.812   7.144  0.00  0.00    +0.051 A 
ATOM     11  C   LIG    1       25.058 -25.164   6.323  0.00  0.00    +0.004 A 
ATOM     12  C   LIG    1       24.160 -25.913   5.565  0.00  0.00    +0.004 A 
ATOM     13  C   LIG    1       24.191 -27.309   5.623  0.00  0.00    +0.059 A 
ATOM     14  C   LIG    1       26.343 -28.534   9.048  0.00  0.00    +0.144 A 
ATOM     15  C   LIG    1       26.603 -28.139  10.364  0.00  0.00    +0.048 A 
ATOM     16  C   LIG    1       26.044 -28.853  11.426  0.00  0.00    +0.023 A 
ENDROOT
BRANCH   5  17
ATOM     17  N   LIG    1       25.355 -31.552   7.195  0.00  0.00    -0.217 N 
ATOM     18  C   LIG    1       24.056 -32.264   7.160  0.00  0.00    +0.241 C 
ATOM     19  C   LIG    1       23.477 -32.294   5.727  0.00  0.00    +0.124 C 
ATOM     20  N   LIG    1       24.405 -32.893   4.740  0.00  0.00    -0.309 NA
ATOM     21  H   LIG    1       24.571 -33.863   5.009  0.00  0.00    +0.122 HD
ATOM     22  C   LIG    1       25.690 -32.165   4.804  0.00  0.00    +0.124 C 
ATOM     23  C   LIG    1       26.306 -32.133   6.221  0.00  0.00    +0.241 C 
ENDBRANCH   5  17
TORSDOF 1
ENDMDL
MODEL 5
REMARK VINA RESULT:      -6.5      5.826      8.837
REMARK  Name = *****
REMARK                            x       y       z     vdW  Elec       q    Type
REMARK                         _______ _______ _______ _____ _____    ______ ____
ROOT
ATOM      1 CL   LIG    1       27.391 -28.302  11.636  0.00  0.00    -0.084 Cl
ATOM      2  C   LIG    1       26.264 -28.864  10.465  0.00  0.00    +0.042 A 
ATOM      3  C   LIG    1       26.406 -28.485   9.132  0.00  0.00    +0.039 A 
ATOM      4  C   LIG    1       25.482 -28.934   8.178  0.00  0.00    +0.109 A 
ATOM      5  C   LIG    1       25.612 -28.454   6.765  0.00  0.00    +0.325 C 
ATOM      6  N   LIG    1       25.419 -29.219   5.725  0.00  0.00    -0.038 NA
ATOM      7  C   LIG    1       25.024 -30.561   5.800  0.00  0.00    +0.218 A 
ATOM      8  C   LIG    1       24.080 -31.063   6.705  0.00  0.00    +0.179 A 
ATOM      9  O   LIG    1       23.520 -30.273   7.683  0.00  0.00    -0.451 OA
ATOM     10  C   LIG    1       23.647 -32.391   6.640  0.00  0.00    +0.051 A 
ATOM     11  C   LIG    1       24.176 -33.247   5.678  0.00  0.00    +0.004 A 
ATOM     12  C   LIG    1       25.126 -32.771   4.777  0.00  0.00    +0.004 A 
ATOM     13  C   LIG    1       25.536 -31.436   4.834  0.00  0.00    +0.059 A 
ATOM     14  C   LIG    1       24.445 -29.782   8.568  0.00  0.00    +0.144 A 
ATOM     15  C   LIG    1       24.293 -30.142   9.910  0.00  0.00    +0.048 A 
ATOM     16  C   LIG    1       25.208 -29.684  10.860  0.00  0.00    +0.023 A 
ENDROOT
BRANCH   5  17
ATOM     17  N   LIG    1       26.001 -27.121   6.564  0.00  0.00    -0.217 N 
ATOM     18  C   LIG    1       26.659 -26.764   5.286  0.00  0.00    +0.241 C 
ATOM     19  C   LIG    1       25.618 -26.378   4.211  0.00  0.00    +0.124 C 
ATOM     20  N   LIG    1       24.724 -25.277   4.640  0.00  0.00    -0.309 NA
ATOM     21  H   LIG    1       25.296 -24.449   4.802  0.00  0.00    +0.122 HD
ATOM     22  C   LIG    1       24.087 -25.662   5.917  0.00  0.00    +0.124 C 
ATOM     23  C   LIG    1       25.103 -26.035   7.021  0.00  0.00    +0.241 C 
ENDBRANCH   5  17
TORSDOF 1
ENDMDL
MODEL 6
REMARK VINA RESULT:      -5.8      7.274     10.448
REMARK  Name = *****
REMARK                            x       y       z     vdW  Elec       q    Type
REMARK                         _______ _______ _______ _____ _____    ______ ____
ROOT
ATOM      1 CL   LIG    1       23.952 -25.517   6.129  0.00  0.00    -0.084 Cl
ATOM      2  C   LIG    1       24.551 -27.124   5.991  0.00  0.00    +0.042 A 
ATOM      3  C   LIG    1       24.099 -28.107   6.868  0.00  0.00    +0.039 A 
ATOM      4  C   LIG    1       24.593 -29.415   6.763  0.00  0.00    +0.109 A 
ATOM      5  C   LIG    1       24.148 -30.438   7.763  0.00  0.00    +0.325 C 
ATOM      6  N   LIG    1       23.872 -31.675   7.452  0.00  0.00    -0.038 NA
ATOM      7  C   LIG    1       24.003 -32.208   6.163  0.00  0.00    +0.218 A 
ATOM      8  C   LIG    1       25.055 -31.918   5.285  0.00  0.00    +0.179 A 
ATOM      9  O   LIG    1       26.022 -30.988   5.591  0.00  0.00    -0.451 OA
ATOM     10  C   LIG    1       25.182 -32.582   4.060  0.00  0.00    +0.051 A 
ATOM     11  C   LIG    1       24.236 -33.532   3.684  0.00  0.00    +0.004 A 
ATOM     12  C   LIG    1       23.174 -33.825   4.538  0.00  0.00    +0.004 A 
ATOM     13  C   LIG    1       23.069 -33.174   5.770  0.00  0.00    +0.059 A 
ATOM     14  C   LIG    1       25.513 -29.726   5.762  0.00  0.00    +0.144 A 
ATOM     15  C   LIG    1       25.982 -28.731   4.898  0.00  0.00    +0.048 A 
ATOM     16  C   LIG    1       25.496 -27.427   5.012  0.00  0.00    +0.023 A 
ENDROOT
BRANCH   5  17
ATOM     17  N   LIG    1       23.985 -30.020   9.093  0.00  0.00    -0.217 N 
ATOM     18  C   LIG    1       22.877 -30.603   9.884  0.00  0.00    +0.241 C 
ATOM     19  C   LIG    1       23.321 -31.903  10.591  0.00  0.00    +0.124 C 
ATOM     20  N   LIG    1       24.510 -31.714  11.455  0.00  0.00    -0.309 NA
ATOM     21  H   LIG    1       24.265 -31.051  12.190  0.00  0.00    +0.122 HD
ATOM     22  C   LIG    1       25.594 -31.128  10.639  0.00  0.00    +0.124 C 
ATOM     23  C   LIG    1       25.187 -29.814   9.933  0.00  0.00    +0.241 C 
ENDBRANCH   5  17
TORSDOF 1
ENDMDL
MODEL 7
REMARK VINA RESULT:      -5.8      6.335      8.807
REMARK  Name = *****
REMARK                            x       y       z     vdW  Elec       q    Type
REMARK                         _______ _______ _______ _____ _____    ______ ____
ROOT
ATOM      1 CL   LIG    1       28.017 -33.825   5.850  0.00  0.00    -0.084 Cl
ATOM      2  C   LIG    1       26.891 -32.525   5.876  0.00  0.00    +0.042 A 
ATOM      3  C   LIG    1       26.774 -31.735   7.018  0.00  0.00    +0.039 A 
ATOM      4  C   LIG    1       25.850 -30.681   7.044  0.00  0.00    +0.109 A 
ATOM      5  C   LIG    1       25.690 -29.892   8.308  0.00  0.00    +0.325 C 
ATOM      6  N   LIG    1       25.529 -28.597   8.332  0.00  0.00    -0.038 NA
ATOM      7  C   LIG    1       25.441 -27.795   7.185  0.00  0.00    +0.218 A 
ATOM      8  C   LIG    1       24.751 -28.150   6.019  0.00  0.00    +0.179 A 
ATOM      9  O   LIG    1       24.169 -29.387   5.866  0.00  0.00    -0.451 OA
ATOM     10  C   LIG    1       24.604 -27.247   4.960  0.00  0.00    +0.051 A 
ATOM     11  C   LIG    1       25.173 -25.979   5.046  0.00  0.00    +0.004 A 
ATOM     12  C   LIG    1       25.874 -25.612   6.193  0.00  0.00    +0.004 A 
ATOM     13  C   LIG    1       25.995 -26.512   7.255  0.00  0.00    +0.059 A 
ATOM     14  C   LIG    1       25.076 -30.414   5.915  0.00  0.00    +0.144 A 
ATOM     15  C   LIG    1       25.180 -31.223   4.779  0.00  0.00    +0.048 A 
ATOM     16  C   LIG    1       26.093 -32.279   4.760  0.00  0.00    +0.023 A 
ENDROOT
BRANCH   5  17
ATOM     17  N   LIG    1       25.758 -30.590   9.523  0.00  0.00    -0.217 N 
ATOM     18  C   LIG    1       26.535 -29.995  10.635  0.00  0.00    +0.241 C 
ATOM     19  C   LIG    1       25.654 -29.057  11.490  0.00  0.00    +0.124 C 
ATOM     20  N   LIG    1       24.445 -29.726  12.024  0.00  0.00    -0.309 NA
ATOM     21  H   LIG    1       24.746 -30.482  12.638  0.00  0.00    +0.122 HD
ATOM     22  C   LIG    1       23.696 -30.312  10.893  0.00  0.00    +0.124 C 
ATOM     23  C   LIG    1       24.544 -31.272  10.028  0.00  0.00    +0.241 C 
ENDBRANCH   5  17
TORSDOF 1
ENDMDL
MODEL 8
REMARK VINA RESULT:      -5.7      9.317     11.553
REMARK  Name = *****
REMARK                            x       y       z     vdW  Elec       q    Type
REMARK                         _______ _______ _______ _____ _____    ______ ____
ROOT
ATOM      1 CL   LIG    1       19.537 -26.245  13.351  0.00  0.00    -0.084 Cl
ATOM      2  C   LIG    1       21.052 -27.040  13.177  0.00  0.00    +0.042 A 
ATOM      3  C   LIG    1       21.115 -28.277  12.539  0.00  0.00    +0.039 A 
ATOM      4  C   LIG    1       22.347 -28.930  12.406  0.00  0.00    +0.109 A 
ATOM      5  C   LIG    1       22.380 -30.292  11.782  0.00  0.00    +0.325 C 
ATOM      6  N   LIG    1       23.311 -30.683  10.955  0.00  0.00    -0.038 NA
ATOM      7  C   LIG    1       24.414 -29.900  10.588  0.00  0.00    +0.218 A 
ATOM      8  C   LIG    1       25.133 -29.079  11.466  0.00  0.00    +0.179 A 
ATOM      9  O   LIG    1       24.746 -28.897  12.774  0.00  0.00    -0.451 OA
ATOM     10  C   LIG    1       26.297 -28.420  11.054  0.00  0.00    +0.051 A 
ATOM     11  C   LIG    1       26.743 -28.555   9.742  0.00  0.00    +0.004 A 
ATOM     12  C   LIG    1       26.034 -29.358   8.850  0.00  0.00    +0.004 A 
ATOM     13  C   LIG    1       24.886 -30.030   9.277  0.00  0.00    +0.059 A 
ATOM     14  C   LIG    1       23.506 -28.322  12.889  0.00  0.00    +0.144 A 
ATOM     15  C   LIG    1       23.436 -27.091  13.549  0.00  0.00    +0.048 A 
ATOM     16  C   LIG    1       22.206 -26.448  13.690  0.00  0.00    +0.023 A 
ENDROOT
BRANCH   5  17
ATOM     17  N   LIG    1       21.325 -31.169  12.080  0.00  0.00    -0.217 N 
ATOM     18  C   LIG    1       20.286 -31.396  11.048  0.00  0.00    +0.241 C 
ATOM     19  C   LIG    1       20.679 -32.558  10.109  0.00  0.00    +0.124 C 
ATOM     20  N   LIG    1       20.953 -33.821  10.834  0.00  0.00    -0.309 NA
ATOM     21  H   LIG    1       20.096 -34.106  11.308  0.00  0.00    +0.122 HD
ATOM     22  C   LIG    1       21.987 -33.560  11.856  0.00  0.00    +0.124 C 
ATOM     23  C   LIG    1       21.616 -32.415  12.825  0.00  0.00    +0.241 C 
ENDBRANCH   5  17
TORSDOF 1
ENDMDL
MODEL 9
REMARK VINA RESULT:      -5.5      2.570      5.240
REMARK  Name = *****
REMARK                            x       y       z     vdW  Elec       q    Type
REMARK                         _______ _______ _______ _____ _____    ______ ____
ROOT
ATOM      1 CL   LIG    1       21.392 -21.441   4.475  0.00  0.00    -0.084 Cl
ATOM      2  C   LIG    1       22.615 -21.343   5.681  0.00  0.00    +0.042 A 
ATOM      3  C   LIG    1       23.554 -22.365   5.799  0.00  0.00    +0.039 A 
ATOM      4  C   LIG    1       24.545 -22.290   6.786  0.00  0.00    +0.109 A 
ATOM      5  C   LIG    1       25.498 -23.436   6.942  0.00  0.00    +0.325 C 
ATOM      6  N   LIG    1       26.772 -23.284   7.185  0.00  0.00    -0.038 NA
ATOM      7  C   LIG    1       27.392 -22.042   7.376  0.00  0.00    +0.218 A 
ATOM      8  C   LIG    1       26.834 -20.976   8.092  0.00  0.00    +0.179 A 
ATOM      9  O   LIG    1       25.555 -21.031   8.599  0.00  0.00    -0.451 OA
ATOM     10  C   LIG    1       27.563 -19.809   8.344  0.00  0.00    +0.051 A 
ATOM     11  C   LIG    1       28.861 -19.684   7.855  0.00  0.00    +0.004 A 
ATOM     12  C   LIG    1       29.430 -20.728   7.129  0.00  0.00    +0.004 A 
ATOM     13  C   LIG    1       28.702 -21.900   6.903  0.00  0.00    +0.059 A 
ATOM     14  C   LIG    1       24.601 -21.177   7.625  0.00  0.00    +0.144 A 
ATOM     15  C   LIG    1       23.643 -20.164   7.519  0.00  0.00    +0.048 A 
ATOM     16  C   LIG    1       22.650 -20.246   6.541  0.00  0.00    +0.023 A 
ENDROOT
BRANCH   5  17
ATOM     17  N   LIG    1       24.989 -24.733   6.775  0.00  0.00    -0.217 N 
ATOM     18  C   LIG    1       24.211 -25.032   5.551  0.00  0.00    +0.241 C 
ATOM     19  C   LIG    1       25.135 -25.498   4.403  0.00  0.00    +0.124 C 
ATOM     20  N   LIG    1       25.966 -26.669   4.769  0.00  0.00    -0.309 NA
ATOM     21  H   LIG    1       25.341 -27.448   4.976  0.00  0.00    +0.122 HD
ATOM     22  C   LIG    1       26.724 -26.341   5.994  0.00  0.00    +0.124 C 
ATOM     23  C   LIG    1       25.826 -25.889   7.169  0.00  0.00    +0.241 C 
ENDBRANCH   5  17
TORSDOF 1
ENDMDL
