MODEL 1
REMARK VINA RESULT:      -5.5      0.000      0.000
REMARK  Name = *****
REMARK                            x       y       z     vdW  Elec       q    Type
REMARK                         _______ _______ _______ _____ _____    ______ ____
ROOT
ATOM      1  C   LIG    1       22.838 -18.916   4.255  0.00  0.00    +0.124 A 
ATOM      2  C   LIG    1       24.116 -19.077   3.729  0.00  0.00    +0.091 A 
ATOM      3  C   LIG    1       24.903 -17.952   3.466  0.00  0.00    +0.131 A 
ATOM      4  C   LIG    1       24.431 -16.648   3.715  0.00  0.00    +0.064 A 
ATOM      5  C   LIG    1       23.149 -16.497   4.249  0.00  0.00    +0.019 A 
ATOM      6  C   LIG    1       22.354 -17.627   4.497  0.00  0.00    +0.046 A 
ENDROOT
BRANCH   1   8
ATOM      7  C   LIG    1       22.484 -20.996   5.323  0.00  0.00    +0.277 C 
ATOM      8  O   LIG    1       21.964 -19.930   4.534  0.00  0.00    -0.495 OA
ENDBRANCH   1   8
BRANCH   3   9
ATOM      9  O   LIG    1       26.150 -18.204   2.951  0.00  0.00    -0.506 OA
ATOM     10  H   LIG    1       26.242 -17.673   2.126  0.00  0.00    +0.292 HD
ENDBRANCH   3   9
BRANCH   4  11
ATOM     11  C   LIG    1       25.335 -15.491   3.468  0.00  0.00    +0.197 C 
ATOM     12  O   LIG    1       26.534 -15.740   3.288  0.00  0.00    -0.286 OA
BRANCH  11  13
ATOM     13  C   LIG    1       24.901 -14.073   3.384  0.00  0.00    +0.022 A 
ATOM     14  C   LIG    1       25.039 -13.418   2.148  0.00  0.00    +0.012 A 
ATOM     15  C   LIG    1       24.578 -12.111   1.980  0.00  0.00    +0.001 A 
ATOM     16  C   LIG    1       23.976 -11.447   3.044  0.00  0.00    +0.000 A 
ATOM     17  C   LIG    1       23.824 -12.093   4.273  0.00  0.00    +0.001 A 
ATOM     18  C   LIG    1       24.274 -13.407   4.441  0.00  0.00    +0.012 A 
ENDBRANCH  11  13
ENDBRANCH   4  11
TORSDOF 4
ENDMDL
MODEL 2
REMARK VINA RESULT:      -5.5      1.477      6.009
REMARK  Name = *****
REMARK                            x       y       z     vdW  Elec       q    Type
REMARK                         _______ _______ _______ _____ _____    ______ ____
ROOT
ATOM      1  C   LIG    1       24.521 -13.552   4.163  0.00  0.00    +0.124 A 
ATOM      2  C   LIG    1       25.774 -14.040   3.805  0.00  0.00    +0.091 A 
ATOM      3  C   LIG    1       25.949 -15.411   3.598  0.00  0.00    +0.131 A 
ATOM      4  C   LIG    1       24.884 -16.321   3.749  0.00  0.00    +0.064 A 
ATOM      5  C   LIG    1       23.628 -15.820   4.102  0.00  0.00    +0.019 A 
ATOM      6  C   LIG    1       23.458 -14.445   4.326  0.00  0.00    +0.046 A 
ENDROOT
BRANCH   1   8
ATOM      7  C   LIG    1       23.795 -11.475   3.293  0.00  0.00    +0.277 C 
ATOM      8  O   LIG    1       24.226 -12.240   4.415  0.00  0.00    -0.495 OA
ENDBRANCH   1   8
BRANCH   3   9
ATOM      9  O   LIG    1       27.216 -15.805   3.247  0.00  0.00    -0.506 OA
ATOM     10  H   LIG    1       27.774 -15.764   4.057  0.00  0.00    +0.292 HD
ENDBRANCH   3   9
BRANCH   4  11
ATOM     11  C   LIG    1       25.117 -17.763   3.461  0.00  0.00    +0.197 C 
ATOM     12  O   LIG    1       26.046 -18.042   2.693  0.00  0.00    -0.286 OA
BRANCH  11  13
ATOM     13  C   LIG    1       24.345 -18.886   4.052  0.00  0.00    +0.022 A 
ATOM     14  C   LIG    1       25.066 -19.989   4.542  0.00  0.00    +0.012 A 
ATOM     15  C   LIG    1       24.408 -21.042   5.181  0.00  0.00    +0.001 A 
ATOM     16  C   LIG    1       23.026 -21.002   5.337  0.00  0.00    +0.000 A 
ATOM     17  C   LIG    1       22.302 -19.906   4.865  0.00  0.00    +0.001 A 
ATOM     18  C   LIG    1       22.959 -18.843   4.234  0.00  0.00    +0.012 A 
ENDBRANCH  11  13
ENDBRANCH   4  11
TORSDOF 4
ENDMDL
MODEL 3
REMARK VINA RESULT:      -5.4      2.175      6.210
REMARK  Name = *****
REMARK                            x       y       z     vdW  Elec       q    Type
REMARK                         _______ _______ _______ _____ _____    ______ ____
ROOT
ATOM      1  C   LIG    1       26.973 -14.311   3.958  0.00  0.00    +0.124 A 
ATOM      2  C   LIG    1       27.800 -15.419   4.116  0.00  0.00    +0.091 A 
ATOM      3  C   LIG    1       27.290 -16.701   3.888  0.00  0.00    +0.131 A 
ATOM      4  C   LIG    1       25.949 -16.903   3.507  0.00  0.00    +0.064 A 
ATOM      5  C   LIG    1       25.129 -15.783   3.344  0.00  0.00    +0.019 A 
ATOM      6  C   LIG    1       25.638 -14.499   3.590  0.00  0.00    +0.046 A 
ENDROOT
BRANCH   1   8
ATOM      7  C   LIG    1       28.738 -12.740   4.068  0.00  0.00    +0.277 C 
ATOM      8  O   LIG    1       27.343 -13.012   4.172  0.00  0.00    -0.495 OA
ENDBRANCH   1   8
BRANCH   3   9
ATOM      9  O   LIG    1       28.175 -17.735   4.065  0.00  0.00    -0.506 OA
ATOM     10  H   LIG    1       28.878 -17.644   3.382  0.00  0.00    +0.292 HD
ENDBRANCH   3   9
BRANCH   4  11
ATOM     11  C   LIG    1       25.477 -18.287   3.223  0.00  0.00    +0.197 C 
ATOM     12  O   LIG    1       25.946 -18.848   2.225  0.00  0.00    -0.286 OA
BRANCH  11  13
ATOM     13  C   LIG    1       24.521 -19.050   4.064  0.00  0.00    +0.022 A 
ATOM     14  C   LIG    1       25.045 -20.029   4.927  0.00  0.00    +0.012 A 
ATOM     15  C   LIG    1       24.210 -20.727   5.801  0.00  0.00    +0.001 A 
ATOM     16  C   LIG    1       22.846 -20.455   5.822  0.00  0.00    +0.000 A 
ATOM     17  C   LIG    1       22.317 -19.476   4.978  0.00  0.00    +0.001 A 
ATOM     18  C   LIG    1       23.153 -18.766   4.108  0.00  0.00    +0.012 A 
ENDBRANCH  11  13
ENDBRANCH   4  11
TORSDOF 4
ENDMDL
MODEL 4
REMARK VINA RESULT:      -5.3      1.712      6.222
REMARK  Name = *****
REMARK                            x       y       z     vdW  Elec       q    Type
REMARK                         _______ _______ _______ _____ _____    ______ ____
ROOT
ATOM      1  C   LIG    1       24.921 -14.640   3.723  0.00  0.00    +0.124 A 
ATOM      2  C   LIG    1       25.858 -15.587   3.319  0.00  0.00    +0.091 A 
ATOM      3  C   LIG    1       25.524 -16.944   3.342  0.00  0.00    +0.131 A 
ATOM      4  C   LIG    1       24.257 -17.384   3.773  0.00  0.00    +0.064 A 
ATOM      5  C   LIG    1       23.321 -16.425   4.171  0.00  0.00    +0.019 A 
ATOM      6  C   LIG    1       23.664 -15.064   4.163  0.00  0.00    +0.046 A 
ENDROOT
BRANCH   1   8
ATOM      7  C   LIG    1       23.965 -12.478   3.673  0.00  0.00    +0.277 C 
ATOM      8  O   LIG    1       25.132 -13.290   3.768  0.00  0.00    -0.495 OA
ENDBRANCH   1   8
BRANCH   3   9
ATOM      9  O   LIG    1       26.506 -17.807   2.925  0.00  0.00    -0.506 OA
ATOM     10  H   LIG    1       27.271 -17.703   3.535  0.00  0.00    +0.292 HD
ENDBRANCH   3   9
BRANCH   4  11
ATOM     11  C   LIG    1       23.939 -18.838   3.723  0.00  0.00    +0.197 C 
ATOM     12  O   LIG    1       23.540 -19.290   2.643  0.00  0.00    -0.286 OA
BRANCH  11  13
ATOM     13  C   LIG    1       24.098 -19.785   4.856  0.00  0.00    +0.022 A 
ATOM     14  C   LIG    1       25.386 -20.284   5.116  0.00  0.00    +0.012 A 
ATOM     15  C   LIG    1       25.620 -21.116   6.212  0.00  0.00    +0.001 A 
ATOM     16  C   LIG    1       24.569 -21.456   7.059  0.00  0.00    +0.000 A 
ATOM     17  C   LIG    1       23.289 -20.955   6.818  0.00  0.00    +0.001 A 
ATOM     18  C   LIG    1       23.053 -20.112   5.726  0.00  0.00    +0.012 A 
ENDBRANCH  11  13
ENDBRANCH   4  11
TORSDOF 4
ENDMDL
MODEL 5
REMARK VINA RESULT:      -5.2      1.307      1.627
REMARK  Name = *****
REMARK                            x       y       z     vdW  Elec       q    Type
REMARK                         _______ _______ _______ _____ _____    ______ ____
ROOT
ATOM      1  C   LIG    1       23.886 -20.265   4.355  0.00  0.00    +0.124 A 
ATOM      2  C   LIG    1       25.260 -20.222   4.578  0.00  0.00    +0.091 A 
ATOM      3  C   LIG    1       25.973 -19.057   4.283  0.00  0.00    +0.131 A 
ATOM      4  C   LIG    1       25.336 -17.917   3.754  0.00  0.00    +0.064 A 
ATOM      5  C   LIG    1       23.956 -17.968   3.540  0.00  0.00    +0.019 A 
ATOM      6  C   LIG    1       23.244 -19.144   3.821  0.00  0.00    +0.046 A 
ENDROOT
BRANCH   1   8
ATOM      7  C   LIG    1       22.710 -21.572   5.937  0.00  0.00    +0.277 C 
ATOM      8  O   LIG    1       23.082 -21.347   4.580  0.00  0.00    -0.495 OA
ENDBRANCH   1   8
BRANCH   3   9
ATOM      9  O   LIG    1       27.321 -19.103   4.535  0.00  0.00    -0.506 OA
ATOM     10  H   LIG    1       27.486 -19.875   5.124  0.00  0.00    +0.292 HD
ENDBRANCH   3   9
BRANCH   4  11
ATOM     11  C   LIG    1       26.138 -16.686   3.512  0.00  0.00    +0.197 C 
ATOM     12  O   LIG    1       27.354 -16.831   3.335  0.00  0.00    -0.286 OA
BRANCH  11  13
ATOM     13  C   LIG    1       25.584 -15.311   3.431  0.00  0.00    +0.022 A 
ATOM     14  C   LIG    1       26.203 -14.406   2.550  0.00  0.00    +0.012 A 
ATOM     15  C   LIG    1       25.686 -13.123   2.367  0.00  0.00    +0.001 A 
ATOM     16  C   LIG    1       24.545 -12.732   3.061  0.00  0.00    +0.000 A 
ATOM     17  C   LIG    1       23.915 -13.626   3.928  0.00  0.00    +0.001 A 
ATOM     18  C   LIG    1       24.424 -14.918   4.105  0.00  0.00    +0.012 A 
ENDBRANCH  11  13
ENDBRANCH   4  11
TORSDOF 4
ENDMDL
MODEL 6
REMARK VINA RESULT:      -4.9      2.060      6.500
REMARK  Name = *****
REMARK                            x       y       z     vdW  Elec       q    Type
REMARK                         _______ _______ _______ _____ _____    ______ ____
ROOT
ATOM      1  C   LIG    1       25.522 -14.896   3.710  0.00  0.00    +0.124 A 
ATOM      2  C   LIG    1       24.209 -15.119   4.115  0.00  0.00    +0.091 A 
ATOM      3  C   LIG    1       23.700 -16.421   4.120  0.00  0.00    +0.131 A 
ATOM      4  C   LIG    1       24.482 -17.520   3.717  0.00  0.00    +0.064 A 
ATOM      5  C   LIG    1       25.801 -17.286   3.319  0.00  0.00    +0.019 A 
ATOM      6  C   LIG    1       26.306 -15.977   3.297  0.00  0.00    +0.046 A 
ENDROOT
BRANCH   1   8
ATOM      7  C   LIG    1       27.549 -13.692   3.512  0.00  0.00    +0.277 C 
ATOM      8  O   LIG    1       26.130 -13.673   3.638  0.00  0.00    -0.495 OA
ENDBRANCH   1   8
BRANCH   3   9
ATOM      9  O   LIG    1       22.398 -16.549   4.535  0.00  0.00    -0.506 OA
ATOM     10  H   LIG    1       22.128 -15.691   4.936  0.00  0.00    +0.292 HD
ENDBRANCH   3   9
BRANCH   4  11
ATOM     11  C   LIG    1       23.903 -18.890   3.797  0.00  0.00    +0.197 C 
ATOM     12  O   LIG    1       23.206 -19.264   2.846  0.00  0.00    -0.286 OA
BRANCH  11  13
ATOM     13  C   LIG    1       24.129 -19.848   4.909  0.00  0.00    +0.022 A 
ATOM     14  C   LIG    1       25.422 -20.377   5.065  0.00  0.00    +0.012 A 
ATOM     15  C   LIG    1       25.722 -21.220   6.136  0.00  0.00    +0.001 A 
ATOM     16  C   LIG    1       24.734 -21.542   7.061  0.00  0.00    +0.000 A 
ATOM     17  C   LIG    1       23.450 -21.012   6.923  0.00  0.00    +0.001 A 
ATOM     18  C   LIG    1       23.149 -20.157   5.857  0.00  0.00    +0.012 A 
ENDBRANCH  11  13
ENDBRANCH   4  11
TORSDOF 4
ENDMDL
MODEL 7
REMARK VINA RESULT:      -4.9      2.134      2.999
REMARK  Name = *****
REMARK                            x       y       z     vdW  Elec       q    Type
REMARK                         _______ _______ _______ _____ _____    ______ ____
ROOT
ATOM      1  C   LIG    1       24.044 -19.503   3.772  0.00  0.00    +0.124 A 
ATOM      2  C   LIG    1       23.014 -18.700   4.253  0.00  0.00    +0.091 A 
ATOM      3  C   LIG    1       23.188 -17.314   4.310  0.00  0.00    +0.131 A 
ATOM      4  C   LIG    1       24.388 -16.704   3.897  0.00  0.00    +0.064 A 
ATOM      5  C   LIG    1       25.413 -17.519   3.408  0.00  0.00    +0.019 A 
ATOM      6  C   LIG    1       25.244 -18.911   3.368  0.00  0.00    +0.046 A 
ENDROOT
BRANCH   1   8
ATOM      7  C   LIG    1       24.410 -21.572   4.859  0.00  0.00    +0.277 C 
ATOM      8  O   LIG    1       24.008 -20.868   3.687  0.00  0.00    -0.495 OA
ENDBRANCH   1   8
BRANCH   3   9
ATOM      9  O   LIG    1       22.122 -16.599   4.796  0.00  0.00    -0.506 OA
ATOM     10  H   LIG    1       22.476 -15.770   5.191  0.00  0.00    +0.292 HD
ENDBRANCH   3   9
BRANCH   4  11
ATOM     11  C   LIG    1       24.495 -15.219   3.927  0.00  0.00    +0.197 C 
ATOM     12  O   LIG    1       23.439 -14.580   4.022  0.00  0.00    -0.286 OA
BRANCH  11  13
ATOM     13  C   LIG    1       25.767 -14.455   3.891  0.00  0.00    +0.022 A 
ATOM     14  C   LIG    1       26.225 -13.887   5.092  0.00  0.00    +0.012 A 
ATOM     15  C   LIG    1       27.453 -13.224   5.144  0.00  0.00    +0.001 A 
ATOM     16  C   LIG    1       28.233 -13.122   3.997  0.00  0.00    +0.000 A 
ATOM     17  C   LIG    1       27.793 -13.692   2.801  0.00  0.00    +0.001 A 
ATOM     18  C   LIG    1       26.569 -14.368   2.748  0.00  0.00    +0.012 A 
ENDBRANCH  11  13
ENDBRANCH   4  11
TORSDOF 4
ENDMDL
MODEL 8
REMARK VINA RESULT:      -4.7      2.130      6.477
REMARK  Name = *****
REMARK                            x       y       z     vdW  Elec       q    Type
REMARK                         _______ _______ _______ _____ _____    ______ ____
ROOT
ATOM      1  C   LIG    1       24.989 -14.912   3.693  0.00  0.00    +0.124 A 
ATOM      2  C   LIG    1       23.768 -15.464   4.069  0.00  0.00    +0.091 A 
ATOM      3  C   LIG    1       23.607 -16.852   4.070  0.00  0.00    +0.131 A 
ATOM      4  C   LIG    1       24.653 -17.716   3.691  0.00  0.00    +0.064 A 
ATOM      5  C   LIG    1       25.878 -17.152   3.321  0.00  0.00    +0.019 A 
ATOM      6  C   LIG    1       26.032 -15.758   3.304  0.00  0.00    +0.046 A 
ENDROOT
BRANCH   1   8
ATOM      7  C   LIG    1       24.179 -12.735   3.247  0.00  0.00    +0.277 C 
ATOM      8  O   LIG    1       25.266 -13.575   3.628  0.00  0.00    -0.495 OA
ENDBRANCH   1   8
BRANCH   3   9
ATOM      9  O   LIG    1       22.372 -17.309   4.456  0.00  0.00    -0.506 OA
ATOM     10  H   LIG    1       22.383 -17.402   5.436  0.00  0.00    +0.292 HD
ENDBRANCH   3   9
BRANCH   4  11
ATOM     11  C   LIG    1       24.441 -19.187   3.765  0.00  0.00    +0.197 C 
ATOM     12  O   LIG    1       23.873 -19.724   2.807  0.00  0.00    -0.286 OA
BRANCH  11  13
ATOM     13  C   LIG    1       24.892 -20.058   4.880  0.00  0.00    +0.022 A 
ATOM     14  C   LIG    1       26.264 -20.070   5.189  0.00  0.00    +0.012 A 
ATOM     15  C   LIG    1       26.743 -20.805   6.275  0.00  0.00    +0.001 A 
ATOM     16  C   LIG    1       25.857 -21.535   7.062  0.00  0.00    +0.000 A 
ATOM     17  C   LIG    1       24.492 -21.520   6.771  0.00  0.00    +0.001 A 
ATOM     18  C   LIG    1       24.006 -20.775   5.691  0.00  0.00    +0.012 A 
ENDBRANCH  11  13
ENDBRANCH   4  11
TORSDOF 4
ENDMDL
MODEL 9
REMARK VINA RESULT:      -4.4      1.813      2.135
REMARK  Name = *****
REMARK                            x       y       z     vdW  Elec       q    Type
REMARK                         _______ _______ _______ _____ _____    ______ ____
ROOT
ATOM      1  C   LIG    1       23.505 -19.387   4.164  0.00  0.00    +0.124 A 
ATOM      2  C   LIG    1       24.723 -18.903   3.696  0.00  0.00    +0.091 A 
ATOM      3  C   LIG    1       24.925 -17.524   3.592  0.00  0.00    +0.131 A 
ATOM      4  C   LIG    1       23.919 -16.603   3.944  0.00  0.00    +0.064 A 
ATOM      5  C   LIG    1       22.702 -17.099   4.420  0.00  0.00    +0.019 A 
ATOM      6  C   LIG    1       22.494 -18.484   4.507  0.00  0.00    +0.046 A 
ENDROOT
BRANCH   1   8
ATOM      7  C   LIG    1       23.488 -21.308   5.545  0.00  0.00    +0.277 C 
ATOM      8  O   LIG    1       23.175 -20.708   4.290  0.00  0.00    -0.495 OA
ENDBRANCH   1   8
BRANCH   3   9
ATOM      9  O   LIG    1       26.155 -17.135   3.124  0.00  0.00    -0.506 OA
ATOM     10  H   LIG    1       26.119 -17.161   2.140  0.00  0.00    +0.292 HD
ENDBRANCH   3   9
BRANCH   4  11
ATOM     11  C   LIG    1       24.211 -15.145   3.866  0.00  0.00    +0.197 C 
ATOM     12  O   LIG    1       23.243 -14.381   3.766  0.00  0.00    -0.286 OA
BRANCH  11  13
ATOM     13  C   LIG    1       25.566 -14.542   3.935  0.00  0.00    +0.022 A 
ATOM     14  C   LIG    1       26.257 -14.342   2.728  0.00  0.00    +0.012 A 
ATOM     15  C   LIG    1       27.501 -13.708   2.715  0.00  0.00    +0.001 A 
ATOM     16  C   LIG    1       28.065 -13.268   3.908  0.00  0.00    +0.000 A 
ATOM     17  C   LIG    1       27.383 -13.451   5.112  0.00  0.00    +0.001 A 
ATOM     18  C   LIG    1       26.130 -14.075   5.127  0.00  0.00    +0.012 A 
ENDBRANCH  11  13
ENDBRANCH   4  11
TORSDOF 4
ENDMDL
