MODEL 1
REMARK VINA RESULT:      -3.6      0.000      0.000
REMARK  Name = *****
REMARK                            x       y       z     vdW  Elec       q    Type
REMARK                         _______ _______ _______ _____ _____    ______ ____
ROOT
ATOM      1  CA  CYS A  1       24.981 -21.198   5.533  0.00  0.00    +0.191 C 
ENDROOT
BRANCH   1   4
ATOM      2  C   UNK A  0       25.715 -18.173   3.311  0.00  0.00    +0.109 C 
ATOM      3  C   UNK A  0       25.156 -19.521   3.679  0.00  0.00    +0.211 C 
ATOM      4  N   CYS A  1       25.393 -19.889   4.980  0.00  0.00    -0.302 N 
ATOM      5  H   CYS A  1       25.823 -19.231   5.610  0.00  0.00    +0.149 HD
ATOM      6  O   UNK A  0       24.444 -20.184   2.942  0.00  0.00    -0.276 OA
ENDBRANCH   1   4
BRANCH   1   7
ATOM      7  C   CYS A  1       23.498 -21.187   5.930  0.00  0.00    +0.326 C 
ATOM      8  O   CYS A  1       23.095 -20.942   7.062  0.00  0.00    -0.249 OA
BRANCH   7   9
ATOM      9  OXT CYS A  1       22.652 -21.571   4.938  0.00  0.00    -0.479 OA
ATOM     10  HXT CYS A  1       22.423 -20.822   4.358  0.00  0.00    +0.295 HD
ENDBRANCH   7   9
ENDBRANCH   1   7
BRANCH   1  11
ATOM     11  CB  CYS A  1       25.820 -21.570   6.765  0.00  0.00    +0.099 C 
BRANCH  11  12
ATOM     12  SG  CYS A  1       27.423 -20.690   6.837  0.00  0.00    -0.176 S 
ATOM     13  HG  CYS A  1       27.308 -20.209   8.086  0.00  0.00    +0.102 HD
ENDBRANCH  11  12
ENDBRANCH   1  11
TORSDOF 5
ENDMDL
MODEL 2
REMARK VINA RESULT:      -3.5      2.712      3.309
REMARK  Name = *****
REMARK                            x       y       z     vdW  Elec       q    Type
REMARK                         _______ _______ _______ _____ _____    ______ ____
ROOT
ATOM      1  CA  CYS A  1       25.645 -20.816   5.361  0.00  0.00    +0.191 C 
ENDROOT
BRANCH   1   4
ATOM      2  C   UNK A  0       29.122 -19.324   5.912  0.00  0.00    +0.109 C 
ATOM      3  C   UNK A  0       27.944 -20.226   6.163  0.00  0.00    +0.211 C 
ATOM      4  N   CYS A  1       26.918 -20.071   5.265  0.00  0.00    -0.302 N 
ATOM      5  H   CYS A  1       27.043 -19.460   4.473  0.00  0.00    +0.149 HD
ATOM      6  O   UNK A  0       27.936 -21.111   7.004  0.00  0.00    -0.276 OA
ENDBRANCH   1   4
BRANCH   1   7
ATOM      7  C   CYS A  1       24.727 -20.497   4.173  0.00  0.00    +0.326 C 
ATOM      8  O   CYS A  1       24.536 -19.365   3.742  0.00  0.00    -0.249 OA
BRANCH   7   9
ATOM      9  OXT CYS A  1       24.053 -21.571   3.682  0.00  0.00    -0.479 OA
ATOM     10  HXT CYS A  1       23.150 -21.327   3.408  0.00  0.00    +0.295 HD
ENDBRANCH   7   9
ENDBRANCH   1   7
BRANCH   1  11
ATOM     11  CB  CYS A  1       24.901 -20.483   6.663  0.00  0.00    +0.099 C 
BRANCH  11  12
ATOM     12  SG  CYS A  1       23.456 -21.565   6.964  0.00  0.00    -0.176 S 
ATOM     13  HG  CYS A  1       24.013 -22.352   7.899  0.00  0.00    +0.102 HD
ENDBRANCH  11  12
ENDBRANCH   1  11
TORSDOF 5
ENDMDL
MODEL 3
REMARK VINA RESULT:      -3.5      6.705      7.675
REMARK  Name = *****
REMARK                            x       y       z     vdW  Elec       q    Type
REMARK                         _______ _______ _______ _____ _____    ______ ____
ROOT
ATOM      1  CA  CYS A  1       24.830 -13.312   4.248  0.00  0.00    +0.191 C 
ENDROOT
BRANCH   1   4
ATOM      2  C   UNK A  0       28.627 -13.150   3.819  0.00  0.00    +0.109 C 
ATOM      3  C   UNK A  0       27.318 -13.307   4.546  0.00  0.00    +0.211 C 
ATOM      4  N   CYS A  1       26.215 -13.239   3.733  0.00  0.00    -0.302 N 
ATOM      5  H   CYS A  1       26.339 -13.185   2.735  0.00  0.00    +0.149 HD
ATOM      6  O   UNK A  0       27.230 -13.598   5.728  0.00  0.00    -0.276 OA
ENDBRANCH   1   4
BRANCH   1   7
ATOM      7  C   CYS A  1       24.249 -14.722   4.071  0.00  0.00    +0.326 C 
ATOM      8  O   CYS A  1       23.126 -15.049   4.440  0.00  0.00    -0.249 OA
BRANCH   7   9
ATOM      9  OXT CYS A  1       25.122 -15.625   3.553  0.00  0.00    -0.479 OA
ATOM     10  HXT CYS A  1       24.742 -16.523   3.548  0.00  0.00    +0.295 HD
ENDBRANCH   7   9
ENDBRANCH   1   7
BRANCH   1  11
ATOM     11  CB  CYS A  1       23.916 -12.307   3.531  0.00  0.00    +0.099 C 
BRANCH  11  12
ATOM     12  SG  CYS A  1       24.499 -11.877   1.849  0.00  0.00    -0.176 S 
ATOM     13  HG  CYS A  1       25.634 -11.254   2.207  0.00  0.00    +0.102 HD
ENDBRANCH  11  12
ENDBRANCH   1  11
TORSDOF 5
ENDMDL
MODEL 4
REMARK VINA RESULT:      -3.4      6.617      7.669
REMARK  Name = *****
REMARK                            x       y       z     vdW  Elec       q    Type
REMARK                         _______ _______ _______ _____ _____    ______ ____
ROOT
ATOM      1  CA  CYS A  1       26.118 -13.518   4.027  0.00  0.00    +0.191 C 
ENDROOT
BRANCH   1   4
ATOM      2  C   UNK A  0       22.923 -15.496   4.737  0.00  0.00    +0.109 C 
ATOM      3  C   UNK A  0       23.788 -14.435   4.111  0.00  0.00    +0.211 C 
ATOM      4  N   CYS A  1       25.108 -14.499   4.480  0.00  0.00    -0.302 N 
ATOM      5  H   CYS A  1       25.427 -15.269   5.046  0.00  0.00    +0.149 HD
ATOM      6  O   UNK A  0       23.396 -13.661   3.253  0.00  0.00    -0.276 OA
ENDBRANCH   1   4
BRANCH   1   7
ATOM      7  C   CYS A  1       26.196 -13.474   2.494  0.00  0.00    +0.326 C 
ATOM      8  O   CYS A  1       26.735 -14.338   1.812  0.00  0.00    -0.249 OA
BRANCH   7   9
ATOM      9  OXT CYS A  1       25.697 -12.336   1.942  0.00  0.00    -0.479 OA
ATOM     10  HXT CYS A  1       26.377 -11.863   1.430  0.00  0.00    +0.295 HD
ENDBRANCH   7   9
ENDBRANCH   1   7
BRANCH   1  11
ATOM     11  CB  CYS A  1       27.510 -13.855   4.582  0.00  0.00    +0.099 C 
BRANCH  11  12
ATOM     12  SG  CYS A  1       28.805 -12.679   4.043  0.00  0.00    -0.176 S 
ATOM     13  HG  CYS A  1       28.077 -12.020   3.126  0.00  0.00    +0.102 HD
ENDBRANCH  11  12
ENDBRANCH   1  11
TORSDOF 5
ENDMDL
MODEL 5
REMARK VINA RESULT:      -3.4      6.099      7.376
REMARK  Name = *****
REMARK                            x       y       z     vdW  Elec       q    Type
REMARK                         _______ _______ _______ _____ _____    ______ ____
ROOT
ATOM      1  CA  CYS A  1       26.864 -14.173   3.038  0.00  0.00    +0.191 C 
ENDROOT
BRANCH   1   4
ATOM      2  C   UNK A  0       23.810 -12.039   3.900  0.00  0.00    +0.109 C 
ATOM      3  C   UNK A  0       24.785 -12.773   3.020  0.00  0.00    +0.211 C 
ATOM      4  N   CYS A  1       25.770 -13.436   3.708  0.00  0.00    -0.302 N 
ATOM      5  H   CYS A  1       25.733 -13.471   4.714  0.00  0.00    +0.149 HD
ATOM      6  O   UNK A  0       24.655 -12.888   1.812  0.00  0.00    -0.276 OA
ENDBRANCH   1   4
BRANCH   1   7
ATOM      7  C   CYS A  1       26.825 -15.665   3.396  0.00  0.00    +0.326 C 
ATOM      8  O   CYS A  1       25.887 -16.408   3.126  0.00  0.00    -0.249 OA
BRANCH   7   9
ATOM      9  OXT CYS A  1       27.884 -16.091   4.135  0.00  0.00    -0.479 OA
ATOM     10  HXT CYS A  1       27.777 -15.856   5.075  0.00  0.00    +0.295 HD
ENDBRANCH   7   9
ENDBRANCH   1   7
BRANCH   1  11
ATOM     11  CB  CYS A  1       28.237 -13.607   3.427  0.00  0.00    +0.099 C 
BRANCH  11  12
ATOM     12  SG  CYS A  1       28.202 -12.634   4.978  0.00  0.00    -0.176 S 
ATOM     13  HG  CYS A  1       27.045 -11.988   4.757  0.00  0.00    +0.102 HD
ENDBRANCH  11  12
ENDBRANCH   1  11
TORSDOF 5
ENDMDL
MODEL 6
REMARK VINA RESULT:      -3.3      2.635      3.694
REMARK  Name = *****
REMARK                            x       y       z     vdW  Elec       q    Type
REMARK                         _______ _______ _______ _____ _____    ______ ____
ROOT
ATOM      1  CA  CYS A  1       25.213 -20.367   4.054  0.00  0.00    +0.191 C 
ENDROOT
BRANCH   1   4
ATOM      2  C   UNK A  0       27.575 -20.316   7.062  0.00  0.00    +0.109 C 
ATOM      3  C   UNK A  0       27.127 -20.075   5.645  0.00  0.00    +0.211 C 
ATOM      4  N   CYS A  1       25.834 -20.461   5.393  0.00  0.00    -0.302 N 
ATOM      5  H   CYS A  1       25.256 -20.779   6.154  0.00  0.00    +0.149 HD
ATOM      6  O   UNK A  0       27.793 -19.476   4.817  0.00  0.00    -0.276 OA
ENDBRANCH   1   4
BRANCH   1   7
ATOM      7  C   CYS A  1       24.894 -18.909   3.695  0.00  0.00    +0.326 C 
ATOM      8  O   CYS A  1       23.766 -18.429   3.724  0.00  0.00    -0.249 OA
BRANCH   7   9
ATOM      9  OXT CYS A  1       25.961 -18.199   3.242  0.00  0.00    -0.479 OA
ATOM     10  HXT CYS A  1       26.741 -18.770   3.121  0.00  0.00    +0.295 HD
ENDBRANCH   7   9
ENDBRANCH   1   7
BRANCH   1  11
ATOM     11  CB  CYS A  1       23.917 -21.188   3.983  0.00  0.00    +0.099 C 
BRANCH  11  12
ATOM     12  SG  CYS A  1       23.106 -21.396   5.611  0.00  0.00    -0.176 S 
ATOM     13  HG  CYS A  1       22.480 -20.208   5.652  0.00  0.00    +0.102 HD
ENDBRANCH  11  12
ENDBRANCH   1  11
TORSDOF 5
ENDMDL
MODEL 7
REMARK VINA RESULT:      -3.2      7.109      7.635
REMARK  Name = *****
REMARK                            x       y       z     vdW  Elec       q    Type
REMARK                         _______ _______ _______ _____ _____    ______ ____
ROOT
ATOM      1  CA  CYS A  1       24.503 -13.879   3.634  0.00  0.00    +0.191 C 
ENDROOT
BRANCH   1   4
ATOM      2  C   UNK A  0       28.326 -13.976   3.646  0.00  0.00    +0.109 C 
ATOM      3  C   UNK A  0       26.939 -14.035   3.065  0.00  0.00    +0.211 C 
ATOM      4  N   CYS A  1       25.940 -13.810   3.979  0.00  0.00    -0.302 N 
ATOM      5  H   CYS A  1       26.181 -13.538   4.918  0.00  0.00    +0.149 HD
ATOM      6  O   UNK A  0       26.708 -14.144   1.872  0.00  0.00    -0.276 OA
ENDBRANCH   1   4
BRANCH   1   7
ATOM      7  C   CYS A  1       23.983 -12.514   3.163  0.00  0.00    +0.326 C 
ATOM      8  O   CYS A  1       23.578 -11.638   3.921  0.00  0.00    -0.249 OA
BRANCH   7   9
ATOM      9  OXT CYS A  1       23.911 -12.378   1.812  0.00  0.00    -0.479 OA
ATOM     10  HXT CYS A  1       24.755 -12.059   1.443  0.00  0.00    +0.295 HD
ENDBRANCH   7   9
ENDBRANCH   1   7
BRANCH   1  11
ATOM     11  CB  CYS A  1       23.664 -14.341   4.833  0.00  0.00    +0.099 C 
BRANCH  11  12
ATOM     12  SG  CYS A  1       22.756 -15.900   4.519  0.00  0.00    -0.176 S 
ATOM     13  HG  CYS A  1       21.808 -15.747   5.459  0.00  0.00    +0.102 HD
ENDBRANCH  11  12
ENDBRANCH   1  11
TORSDOF 5
ENDMDL
MODEL 8
REMARK VINA RESULT:      -3.0      2.882      3.662
REMARK  Name = *****
REMARK                            x       y       z     vdW  Elec       q    Type
REMARK                         _______ _______ _______ _____ _____    ______ ____
ROOT
ATOM      1  CA  CYS A  1       24.029 -19.777   4.863  0.00  0.00    +0.191 C 
ENDROOT
BRANCH   1   4
ATOM      2  C   UNK A  0       20.726 -18.575   3.356  0.00  0.00    +0.109 C 
ATOM      3  C   UNK A  0       21.965 -18.516   4.209  0.00  0.00    +0.211 C 
ATOM      4  N   CYS A  1       22.789 -19.605   4.075  0.00  0.00    -0.302 N 
ATOM      5  H   CYS A  1       22.577 -20.303   3.380  0.00  0.00    +0.149 HD
ATOM      6  O   UNK A  0       22.288 -17.540   4.867  0.00  0.00    -0.276 OA
ENDBRANCH   1   4
BRANCH   1   7
ATOM      7  C   CYS A  1       25.266 -19.414   4.030  0.00  0.00    +0.326 C 
ATOM      8  O   CYS A  1       25.335 -18.428   3.303  0.00  0.00    -0.249 OA
BRANCH   7   9
ATOM      9  OXT CYS A  1       26.266 -20.333   4.084  0.00  0.00    -0.479 OA
ATOM     10  HXT CYS A  1       26.877 -20.149   4.820  0.00  0.00    +0.295 HD
ENDBRANCH   7   9
ENDBRANCH   1   7
BRANCH   1  11
ATOM     11  CB  CYS A  1       24.176 -21.222   5.361  0.00  0.00    +0.099 C 
BRANCH  11  12
ATOM     12  SG  CYS A  1       23.543 -21.465   7.062  0.00  0.00    -0.176 S 
ATOM     13  HG  CYS A  1       22.235 -21.516   6.761  0.00  0.00    +0.102 HD
ENDBRANCH  11  12
ENDBRANCH   1  11
TORSDOF 5
ENDMDL
MODEL 9
REMARK VINA RESULT:      -2.9      5.576      7.108
REMARK  Name = *****
REMARK                            x       y       z     vdW  Elec       q    Type
REMARK                         _______ _______ _______ _____ _____    ______ ____
ROOT
ATOM      1  CA  CYS A  1       25.744 -13.895   3.827  0.00  0.00    +0.191 C 
ENDROOT
BRANCH   1   4
ATOM      2  C   UNK A  0       25.763 -17.662   3.168  0.00  0.00    +0.109 C 
ATOM      3  C   UNK A  0       26.323 -16.316   3.543  0.00  0.00    +0.211 C 
ATOM      4  N   CYS A  1       25.396 -15.304   3.544  0.00  0.00    -0.302 N 
ATOM      5  H   CYS A  1       24.425 -15.523   3.393  0.00  0.00    +0.149 HD
ATOM      6  O   UNK A  0       27.465 -16.145   3.939  0.00  0.00    -0.276 OA
ENDBRANCH   1   4
BRANCH   1   7
ATOM      7  C   CYS A  1       24.509 -12.989   3.719  0.00  0.00    +0.326 C 
ATOM      8  O   CYS A  1       24.106 -12.272   4.628  0.00  0.00    -0.249 OA
BRANCH   7   9
ATOM      9  OXT CYS A  1       23.825 -13.114   2.551  0.00  0.00    -0.479 OA
ATOM     10  HXT CYS A  1       23.767 -14.047   2.273  0.00  0.00    +0.295 HD
ENDBRANCH   7   9
ENDBRANCH   1   7
BRANCH   1  11
ATOM     11  CB  CYS A  1       26.820 -13.381   2.859  0.00  0.00    +0.099 C 
BRANCH  11  12
ATOM     12  SG  CYS A  1       28.416 -13.022   3.681  0.00  0.00    -0.176 S 
ATOM     13  HG  CYS A  1       29.196 -13.079   2.590  0.00  0.00    +0.102 HD
ENDBRANCH  11  12
ENDBRANCH   1  11
TORSDOF 5
ENDMDL
