MODEL 1
REMARK VINA RESULT:      -8.4      0.000      0.000
REMARK  Name = *****
REMARK                            x       y       z     vdW  Elec       q    Type
REMARK                         _______ _______ _______ _____ _____    ______ ____
ROOT
ATOM      1  C   LIG    1       23.481 -20.578   5.914  0.00  0.00    +0.121 A 
ATOM      2  C   LIG    1       24.670 -20.219   5.271  0.00  0.00    +0.054 A 
ATOM      3  C   LIG    1       25.916 -20.364   5.907  0.00  0.00    -0.014 A 
ATOM      4  C   LIG    1       25.965 -20.890   7.215  0.00  0.00    -0.017 A 
ATOM      5  C   LIG    1       27.208 -21.044   7.857  0.00  0.00    +0.012 A 
ATOM      6  C   LIG    1       28.403 -20.684   7.220  0.00  0.00    -0.046 A 
ATOM      7  C   LIG    1       28.346 -20.155   5.926  0.00  0.00    +0.004 A 
ATOM      8  C   LIG    1       24.767 -21.251   7.850  0.00  0.00    +0.012 A 
ATOM      9  C   LIG    1       27.117 -20.002   5.275  0.00  0.00    +0.009 A 
ATOM     10  C   LIG    1       23.536 -21.094   7.207  0.00  0.00    +0.046 A 
ENDROOT
BRANCH   1  12
ATOM     11  C   LIG    1       22.151 -19.080   4.639  0.00  0.00    +0.277 C 
ATOM     12  O   LIG    1       22.340 -20.381   5.183  0.00  0.00    -0.495 OA
ENDBRANCH   1  12
BRANCH   6  13
ATOM     13  C   LIG    1       29.732 -20.889   7.906  0.00  0.00    +0.042 C 
BRANCH  13  14
ATOM     14  C   LIG    1       30.783 -19.846   7.526  0.00  0.00    +0.079 C 
BRANCH  14  15
ATOM     15  C   LIG    1       31.176 -19.006   8.732  0.00  0.00    +0.131 C 
ATOM     16  O   LIG    1       32.116 -19.298   9.464  0.00  0.00    -0.298 OA
ATOM     17  C   LIG    1       30.339 -17.782   9.005  0.00  0.00    +0.086 C 
ENDBRANCH  14  15
ENDBRANCH  13  14
ENDBRANCH   6  13
TORSDOF 4
ENDMDL
MODEL 2
REMARK VINA RESULT:      -8.2      1.190      2.257
REMARK  Name = *****
REMARK                            x       y       z     vdW  Elec       q    Type
REMARK                         _______ _______ _______ _____ _____    ______ ____
ROOT
ATOM      1  C   LIG    1       23.936 -21.626   5.962  0.00  0.00    +0.121 A 
ATOM      2  C   LIG    1       24.838 -21.588   7.030  0.00  0.00    +0.054 A 
ATOM      3  C   LIG    1       26.080 -20.939   6.915  0.00  0.00    -0.014 A 
ATOM      4  C   LIG    1       26.417 -20.307   5.699  0.00  0.00    -0.017 A 
ATOM      5  C   LIG    1       27.656 -19.650   5.576  0.00  0.00    +0.012 A 
ATOM      6  C   LIG    1       28.565 -19.611   6.642  0.00  0.00    -0.046 A 
ATOM      7  C   LIG    1       28.228 -20.247   7.841  0.00  0.00    +0.004 A 
ATOM      8  C   LIG    1       25.505 -20.348   4.634  0.00  0.00    +0.012 A 
ATOM      9  C   LIG    1       26.997 -20.899   7.978  0.00  0.00    +0.009 A 
ATOM     10  C   LIG    1       24.277 -21.003   4.763  0.00  0.00    +0.046 A 
ENDROOT
BRANCH   1  12
ATOM     11  C   LIG    1       22.887 -23.607   6.743  0.00  0.00    +0.277 C 
ATOM     12  O   LIG    1       22.767 -22.294   6.209  0.00  0.00    -0.495 OA
ENDBRANCH   1  12
BRANCH   6  13
ATOM     13  C   LIG    1       29.875 -18.871   6.508  0.00  0.00    +0.042 C 
BRANCH  13  14
ATOM     14  C   LIG    1       31.055 -19.598   7.151  0.00  0.00    +0.079 C 
BRANCH  14  15
ATOM     15  C   LIG    1       31.399 -18.987   8.501  0.00  0.00    +0.131 C 
ATOM     16  O   LIG    1       32.120 -19.550   9.319  0.00  0.00    -0.298 OA
ATOM     17  C   LIG    1       30.795 -17.639   8.808  0.00  0.00    +0.086 C 
ENDBRANCH  14  15
ENDBRANCH  13  14
ENDBRANCH   6  13
TORSDOF 4
ENDMDL
MODEL 3
REMARK VINA RESULT:      -8.2      0.791      1.879
REMARK  Name = *****
REMARK                            x       y       z     vdW  Elec       q    Type
REMARK                         _______ _______ _______ _____ _____    ______ ____
ROOT
ATOM      1  C   LIG    1       23.571 -20.012   4.985  0.00  0.00    +0.121 A 
ATOM      2  C   LIG    1       23.869 -20.483   6.268  0.00  0.00    +0.054 A 
ATOM      3  C   LIG    1       25.199 -20.666   6.688  0.00  0.00    -0.014 A 
ATOM      4  C   LIG    1       26.250 -20.361   5.798  0.00  0.00    -0.017 A 
ATOM      5  C   LIG    1       27.584 -20.536   6.212  0.00  0.00    +0.012 A 
ATOM      6  C   LIG    1       27.890 -21.009   7.495  0.00  0.00    -0.046 A 
ATOM      7  C   LIG    1       26.842 -21.317   8.368  0.00  0.00    +0.004 A 
ATOM      8  C   LIG    1       25.942 -19.887   4.515  0.00  0.00    +0.012 A 
ATOM      9  C   LIG    1       25.511 -21.142   7.971  0.00  0.00    +0.009 A 
ATOM     10  C   LIG    1       24.614 -19.716   4.111  0.00  0.00    +0.046 A 
ENDROOT
BRANCH   1  12
ATOM     11  C   LIG    1       21.793 -18.596   4.296  0.00  0.00    +0.277 C 
ATOM     12  O   LIG    1       22.236 -19.885   4.706  0.00  0.00    -0.495 OA
ENDBRANCH   1  12
BRANCH   6  13
ATOM     13  C   LIG    1       29.326 -21.157   7.938  0.00  0.00    +0.042 C 
BRANCH  13  14
ATOM     14  C   LIG    1       30.231 -20.018   7.467  0.00  0.00    +0.079 C 
BRANCH  14  15
ATOM     15  C   LIG    1       30.916 -19.346   8.646  0.00  0.00    +0.131 C 
ATOM     16  O   LIG    1       31.957 -19.770   9.138  0.00  0.00    -0.298 OA
ATOM     17  C   LIG    1       30.246 -18.116   9.207  0.00  0.00    +0.086 C 
ENDBRANCH  14  15
ENDBRANCH  13  14
ENDBRANCH   6  13
TORSDOF 4
ENDMDL
MODEL 4
REMARK VINA RESULT:      -8.2      1.163      6.759
REMARK  Name = *****
REMARK                            x       y       z     vdW  Elec       q    Type
REMARK                         _______ _______ _______ _____ _____    ______ ____
ROOT
ATOM      1  C   LIG    1       30.391 -19.669   7.348  0.00  0.00    +0.121 A 
ATOM      2  C   LIG    1       29.498 -20.613   7.867  0.00  0.00    +0.054 A 
ATOM      3  C   LIG    1       28.229 -20.810   7.292  0.00  0.00    -0.014 A 
ATOM      4  C   LIG    1       27.857 -20.046   6.166  0.00  0.00    -0.017 A 
ATOM      5  C   LIG    1       26.592 -20.241   5.582  0.00  0.00    +0.012 A 
ATOM      6  C   LIG    1       25.691 -21.182   6.097  0.00  0.00    -0.046 A 
ATOM      7  C   LIG    1       26.065 -21.930   7.219  0.00  0.00    +0.004 A 
ATOM      8  C   LIG    1       28.760 -19.105   5.652  0.00  0.00    +0.012 A 
ATOM      9  C   LIG    1       27.322 -21.750   7.806  0.00  0.00    +0.009 A 
ATOM     10  C   LIG    1       30.015 -18.916   6.239  0.00  0.00    +0.046 A 
ENDROOT
BRANCH   1  12
ATOM     11  C   LIG    1       31.821 -18.378   8.737  0.00  0.00    +0.277 C 
ATOM     12  O   LIG    1       31.588 -19.577   8.006  0.00  0.00    -0.495 OA
ENDBRANCH   1  12
BRANCH   6  13
ATOM     13  C   LIG    1       24.351 -21.407   5.437  0.00  0.00    +0.042 C 
BRANCH  13  14
ATOM     14  C   LIG    1       23.350 -20.279   5.687  0.00  0.00    +0.079 C 
BRANCH  14  15
ATOM     15  C   LIG    1       23.166 -19.430   4.439  0.00  0.00    +0.131 C 
ATOM     16  O   LIG    1       23.842 -19.585   3.427  0.00  0.00    -0.298 OA
ATOM     17  C   LIG    1       22.106 -18.358   4.500  0.00  0.00    +0.086 C 
ENDBRANCH  14  15
ENDBRANCH  13  14
ENDBRANCH   6  13
TORSDOF 4
ENDMDL
MODEL 5
REMARK VINA RESULT:      -8.0      2.141      6.854
REMARK  Name = *****
REMARK                            x       y       z     vdW  Elec       q    Type
REMARK                         _______ _______ _______ _____ _____    ______ ____
ROOT
ATOM      1  C   LIG    1       30.874 -19.579   7.572  0.00  0.00    +0.121 A 
ATOM      2  C   LIG    1       29.862 -19.208   6.680  0.00  0.00    +0.054 A 
ATOM      3  C   LIG    1       28.673 -19.953   6.574  0.00  0.00    -0.014 A 
ATOM      4  C   LIG    1       28.499 -21.092   7.389  0.00  0.00    -0.017 A 
ATOM      5  C   LIG    1       27.311 -21.839   7.294  0.00  0.00    +0.012 A 
ATOM      6  C   LIG    1       26.293 -21.475   6.401  0.00  0.00    -0.046 A 
ATOM      7  C   LIG    1       26.478 -20.350   5.590  0.00  0.00    +0.004 A 
ATOM      8  C   LIG    1       29.518 -21.454   8.282  0.00  0.00    +0.012 A 
ATOM      9  C   LIG    1       27.652 -19.595   5.680  0.00  0.00    +0.009 A 
ATOM     10  C   LIG    1       30.696 -20.706   8.371  0.00  0.00    +0.046 A 
ENDROOT
BRANCH   1  12
ATOM     11  C   LIG    1       32.062 -17.809   8.616  0.00  0.00    +0.277 C 
ATOM     12  O   LIG    1       31.978 -18.769   7.570  0.00  0.00    -0.495 OA
ENDBRANCH   1  12
BRANCH   6  13
ATOM     13  C   LIG    1       25.008 -22.266   6.336  0.00  0.00    +0.042 C 
BRANCH  13  14
ATOM     14  C   LIG    1       25.123 -23.669   6.931  0.00  0.00    +0.079 C 
BRANCH  14  15
ATOM     15  C   LIG    1       23.919 -24.519   6.556  0.00  0.00    +0.131 C 
ATOM     16  O   LIG    1       22.764 -24.156   6.756  0.00  0.00    -0.298 OA
ATOM     17  C   LIG    1       24.207 -25.858   5.925  0.00  0.00    +0.086 C 
ENDBRANCH  14  15
ENDBRANCH  13  14
ENDBRANCH   6  13
TORSDOF 4
ENDMDL
MODEL 6
REMARK VINA RESULT:      -8.0      1.681      6.897
REMARK  Name = *****
REMARK                            x       y       z     vdW  Elec       q    Type
REMARK                         _______ _______ _______ _____ _____    ______ ____
ROOT
ATOM      1  C   LIG    1       30.614 -19.297   7.172  0.00  0.00    +0.121 A 
ATOM      2  C   LIG    1       29.765 -20.064   7.978  0.00  0.00    +0.054 A 
ATOM      3  C   LIG    1       28.450 -20.361   7.578  0.00  0.00    -0.014 A 
ATOM      4  C   LIG    1       27.983 -19.883   6.335  0.00  0.00    -0.017 A 
ATOM      5  C   LIG    1       26.671 -20.181   5.924  0.00  0.00    +0.012 A 
ATOM      6  C   LIG    1       25.815 -20.946   6.727  0.00  0.00    -0.046 A 
ATOM      7  C   LIG    1       26.282 -21.409   7.962  0.00  0.00    +0.004 A 
ATOM      8  C   LIG    1       28.842 -19.118   5.533  0.00  0.00    +0.012 A 
ATOM      9  C   LIG    1       27.586 -21.125   8.380  0.00  0.00    +0.009 A 
ATOM     10  C   LIG    1       30.145 -18.825   5.949  0.00  0.00    +0.046 A 
ENDROOT
BRANCH   1  12
ATOM     11  C   LIG    1       31.978 -18.062   8.673  0.00  0.00    +0.277 C 
ATOM     12  O   LIG    1       31.864 -19.080   7.685  0.00  0.00    -0.495 OA
ENDBRANCH   1  12
BRANCH   6  13
ATOM     13  C   LIG    1       24.421 -21.288   6.257  0.00  0.00    +0.042 C 
BRANCH  13  14
ATOM     14  C   LIG    1       23.586 -22.023   7.305  0.00  0.00    +0.079 C 
BRANCH  14  15
ATOM     15  C   LIG    1       23.291 -23.448   6.863  0.00  0.00    +0.131 C 
ATOM     16  O   LIG    1       22.150 -23.873   6.712  0.00  0.00    -0.298 OA
ATOM     17  C   LIG    1       24.482 -24.343   6.623  0.00  0.00    +0.086 C 
ENDBRANCH  14  15
ENDBRANCH  13  14
ENDBRANCH   6  13
TORSDOF 4
ENDMDL
MODEL 7
REMARK VINA RESULT:      -8.0      1.156      1.474
REMARK  Name = *****
REMARK                            x       y       z     vdW  Elec       q    Type
REMARK                         _______ _______ _______ _____ _____    ______ ____
ROOT
ATOM      1  C   LIG    1       24.389 -21.216   6.509  0.00  0.00    +0.121 A 
ATOM      2  C   LIG    1       25.398 -20.690   5.695  0.00  0.00    +0.054 A 
ATOM      3  C   LIG    1       26.647 -20.321   6.226  0.00  0.00    -0.014 A 
ATOM      4  C   LIG    1       26.886 -20.493   7.606  0.00  0.00    -0.017 A 
ATOM      5  C   LIG    1       28.135 -20.132   8.144  0.00  0.00    +0.012 A 
ATOM      6  C   LIG    1       29.149 -19.602   7.335  0.00  0.00    -0.046 A 
ATOM      7  C   LIG    1       28.900 -19.426   5.970  0.00  0.00    +0.004 A 
ATOM      8  C   LIG    1       25.870 -21.023   8.413  0.00  0.00    +0.012 A 
ATOM      9  C   LIG    1       27.665 -19.787   5.420  0.00  0.00    +0.009 A 
ATOM     10  C   LIG    1       24.631 -21.379   7.871  0.00  0.00    +0.046 A 
ENDROOT
BRANCH   1  12
ATOM     11  C   LIG    1       22.649 -20.506   5.057  0.00  0.00    +0.277 C 
ATOM     12  O   LIG    1       23.222 -21.528   5.864  0.00  0.00    -0.495 OA
ENDBRANCH   1  12
BRANCH   6  13
ATOM     13  C   LIG    1       30.497 -19.253   7.920  0.00  0.00    +0.042 C 
BRANCH  13  14
ATOM     14  C   LIG    1       30.548 -17.861   8.549  0.00  0.00    +0.079 C 
BRANCH  14  15
ATOM     15  C   LIG    1       30.699 -17.952  10.060  0.00  0.00    +0.131 C 
ATOM     16  O   LIG    1       30.733 -19.022  10.658  0.00  0.00    -0.298 OA
ATOM     17  C   LIG    1       30.796 -16.647  10.810  0.00  0.00    +0.086 C 
ENDBRANCH  14  15
ENDBRANCH  13  14
ENDBRANCH   6  13
TORSDOF 4
ENDMDL
MODEL 8
REMARK VINA RESULT:      -8.0      4.300      5.582
REMARK  Name = *****
REMARK                            x       y       z     vdW  Elec       q    Type
REMARK                         _______ _______ _______ _____ _____    ______ ____
ROOT
ATOM      1  C   LIG    1       24.688 -27.042   5.923  0.00  0.00    +0.121 A 
ATOM      2  C   LIG    1       23.714 -26.054   6.098  0.00  0.00    +0.054 A 
ATOM      3  C   LIG    1       24.063 -24.741   6.464  0.00  0.00    -0.014 A 
ATOM      4  C   LIG    1       25.424 -24.417   6.649  0.00  0.00    -0.017 A 
ATOM      5  C   LIG    1       25.783 -23.105   7.009  0.00  0.00    +0.012 A 
ATOM      6  C   LIG    1       24.813 -22.110   7.189  0.00  0.00    -0.046 A 
ATOM      7  C   LIG    1       23.465 -22.442   7.012  0.00  0.00    +0.004 A 
ATOM      8  C   LIG    1       26.393 -25.414   6.468  0.00  0.00    +0.012 A 
ATOM      9  C   LIG    1       23.095 -23.741   6.648  0.00  0.00    +0.009 A 
ATOM     10  C   LIG    1       26.029 -26.716   6.111  0.00  0.00    +0.046 A 
ENDROOT
BRANCH   1  12
ATOM     11  C   LIG    1       25.178 -29.296   5.359  0.00  0.00    +0.277 C 
ATOM     12  O   LIG    1       24.209 -28.276   5.572  0.00  0.00    -0.495 OA
ENDBRANCH   1  12
BRANCH   6  13
ATOM     13  C   LIG    1       25.215 -20.697   7.539  0.00  0.00    +0.042 C 
BRANCH  13  14
ATOM     14  C   LIG    1       26.399 -20.621   8.503  0.00  0.00    +0.079 C 
BRANCH  14  15
ATOM     15  C   LIG    1       27.654 -20.148   7.785  0.00  0.00    +0.131 C 
ATOM     16  O   LIG    1       28.660 -19.781   8.383  0.00  0.00    -0.298 OA
ATOM     17  C   LIG    1       27.608 -20.137   6.278  0.00  0.00    +0.086 C 
ENDBRANCH  14  15
ENDBRANCH  13  14
ENDBRANCH   6  13
TORSDOF 4
ENDMDL
MODEL 9
REMARK VINA RESULT:      -7.9      1.134      6.754
REMARK  Name = *****
REMARK                            x       y       z     vdW  Elec       q    Type
REMARK                         _______ _______ _______ _____ _____    ______ ____
ROOT
ATOM      1  C   LIG    1       30.625 -19.846   7.416  0.00  0.00    +0.121 A 
ATOM      2  C   LIG    1       29.737 -19.383   6.439  0.00  0.00    +0.054 A 
ATOM      3  C   LIG    1       28.452 -19.936   6.299  0.00  0.00    -0.014 A 
ATOM      4  C   LIG    1       28.050 -20.973   7.168  0.00  0.00    -0.017 A 
ATOM      5  C   LIG    1       26.763 -21.528   7.039  0.00  0.00    +0.012 A 
ATOM      6  C   LIG    1       25.870 -21.071   6.060  0.00  0.00    -0.046 A 
ATOM      7  C   LIG    1       26.279 -20.049   5.197  0.00  0.00    +0.004 A 
ATOM      8  C   LIG    1       28.945 -21.428   8.146  0.00  0.00    +0.012 A 
ATOM      9  C   LIG    1       27.553 -19.484   5.319  0.00  0.00    +0.009 A 
ATOM     10  C   LIG    1       30.222 -20.872   8.268  0.00  0.00    +0.046 A 
ENDROOT
BRANCH   1  12
ATOM     11  C   LIG    1       32.006 -18.181   8.395  0.00  0.00    +0.277 C 
ATOM     12  O   LIG    1       31.843 -19.223   7.439  0.00  0.00    -0.495 OA
ENDBRANCH   1  12
BRANCH   6  13
ATOM     13  C   LIG    1       24.479 -21.651   5.957  0.00  0.00    +0.042 C 
BRANCH  13  14
ATOM     14  C   LIG    1       23.381 -20.690   6.411  0.00  0.00    +0.079 C 
BRANCH  14  15
ATOM     15  C   LIG    1       22.418 -20.389   5.273  0.00  0.00    +0.131 C 
ATOM     16  O   LIG    1       21.640 -21.225   4.826  0.00  0.00    -0.298 OA
ATOM     17  C   LIG    1       22.467 -18.996   4.697  0.00  0.00    +0.086 C 
ENDBRANCH  14  15
ENDBRANCH  13  14
ENDBRANCH   6  13
TORSDOF 4
ENDMDL
