MODEL 1
REMARK VINA RESULT:      -4.9      0.000      0.000
REMARK  Name = *****
REMARK                            x       y       z     vdW  Elec       q    Type
REMARK                         _______ _______ _______ _____ _____    ______ ____
ROOT
ATOM      1  C   LIG    1       25.426 -19.578   3.513  0.00  0.00    +0.149 C 
ATOM      2  N   LIG    1       24.801 -20.061   4.751  0.00  0.00    -0.349 N 
ATOM      3  C   LIG    1       25.583 -20.451   5.884  0.00  0.00    +0.063 C 
ATOM      4  C   LIG    1       26.937 -20.412   5.922  0.00  0.00    +0.183 C 
ATOM      5  C   LIG    1       24.815 -20.919   7.061  0.00  0.00    +0.027 C 
ATOM      6  C   LIG    1       23.473 -20.968   7.062  0.00  0.00    +0.003 C 
ATOM      7  C   LIG    1       22.729 -20.561   5.895  0.00  0.00    +0.018 C 
ATOM      8  C   LIG    1       23.407 -20.136   4.820  0.00  0.00    +0.086 C 
ENDROOT
BRANCH   4   9
ATOM      9  N   LIG    1       27.684 -20.773   6.969  0.00  0.00    -0.036 NA
ATOM     10  O   LIG    1       28.876 -20.955   6.697  0.00  0.00    -0.144 OA
ENDBRANCH   4   9
TORSDOF 1
ENDMDL
MODEL 2
REMARK VINA RESULT:      -4.6      0.982      2.354
REMARK  Name = *****
REMARK                            x       y       z     vdW  Elec       q    Type
REMARK                         _______ _______ _______ _____ _____    ______ ____
ROOT
ATOM      1  C   LIG    1       23.427 -21.571   7.062  0.00  0.00    +0.149 C 
ATOM      2  N   LIG    1       23.876 -20.768   5.917  0.00  0.00    -0.349 N 
ATOM      3  C   LIG    1       25.262 -20.504   5.682  0.00  0.00    +0.063 C 
ATOM      4  C   LIG    1       26.266 -20.957   6.472  0.00  0.00    +0.183 C 
ATOM      5  C   LIG    1       25.563 -19.678   4.490  0.00  0.00    +0.027 C 
ATOM      6  C   LIG    1       24.595 -19.213   3.683  0.00  0.00    +0.003 C 
ATOM      7  C   LIG    1       23.212 -19.510   3.961  0.00  0.00    +0.018 C 
ATOM      8  C   LIG    1       22.919 -20.254   5.036  0.00  0.00    +0.086 C 
ENDROOT
BRANCH   4   9
ATOM      9  N   LIG    1       27.565 -20.720   6.269  0.00  0.00    -0.036 NA
ATOM     10  O   LIG    1       28.311 -21.307   7.061  0.00  0.00    -0.144 OA
ENDBRANCH   4   9
TORSDOF 1
ENDMDL
MODEL 3
REMARK VINA RESULT:      -4.3      2.453      3.378
REMARK  Name = *****
REMARK                            x       y       z     vdW  Elec       q    Type
REMARK                         _______ _______ _______ _____ _____    ______ ____
ROOT
ATOM      1  C   LIG    1       25.737 -21.286   5.338  0.00  0.00    +0.149 C 
ATOM      2  N   LIG    1       24.509 -20.559   4.991  0.00  0.00    -0.349 N 
ATOM      3  C   LIG    1       24.541 -19.364   4.204  0.00  0.00    +0.063 C 
ATOM      4  C   LIG    1       25.676 -18.806   3.717  0.00  0.00    +0.183 C 
ATOM      5  C   LIG    1       23.225 -18.740   3.936  0.00  0.00    +0.027 C 
ATOM      6  C   LIG    1       22.079 -19.266   4.400  0.00  0.00    +0.003 C 
ATOM      7  C   LIG    1       22.100 -20.475   5.187  0.00  0.00    +0.018 C 
ATOM      8  C   LIG    1       23.281 -21.053   5.442  0.00  0.00    +0.086 C 
ENDROOT
BRANCH   4   9
ATOM      9  N   LIG    1       25.724 -17.691   2.982  0.00  0.00    -0.036 NA
ATOM     10  O   LIG    1       26.625 -16.912   3.311  0.00  0.00    -0.144 OA
ENDBRANCH   4   9
TORSDOF 1
ENDMDL
MODEL 4
REMARK VINA RESULT:      -4.3      2.267      3.251
REMARK  Name = *****
REMARK                            x       y       z     vdW  Elec       q    Type
REMARK                         _______ _______ _______ _____ _____    ______ ____
ROOT
ATOM      1  C   LIG    1       26.617 -20.794   6.389  0.00  0.00    +0.149 C 
ATOM      2  N   LIG    1       25.262 -20.715   5.827  0.00  0.00    -0.349 N 
ATOM      3  C   LIG    1       24.968 -19.903   4.687  0.00  0.00    +0.063 C 
ATOM      4  C   LIG    1       25.887 -19.149   4.034  0.00  0.00    +0.183 C 
ATOM      5  C   LIG    1       23.558 -19.922   4.234  0.00  0.00    +0.027 C 
ATOM      6  C   LIG    1       22.621 -20.658   4.854  0.00  0.00    +0.003 C 
ATOM      7  C   LIG    1       22.968 -21.463   5.998  0.00  0.00    +0.018 C 
ATOM      8  C   LIG    1       24.239 -21.458   6.424  0.00  0.00    +0.086 C 
ENDROOT
BRANCH   4   9
ATOM      9  N   LIG    1       25.631 -18.385   2.969  0.00  0.00    -0.036 NA
ATOM     10  O   LIG    1       25.782 -17.175   3.172  0.00  0.00    -0.144 OA
ENDBRANCH   4   9
TORSDOF 1
ENDMDL
MODEL 5
REMARK VINA RESULT:      -3.9      2.949      4.558
REMARK  Name = *****
REMARK                            x       y       z     vdW  Elec       q    Type
REMARK                         _______ _______ _______ _____ _____    ______ ____
ROOT
ATOM      1  C   LIG    1       23.186 -21.571   7.050  0.00  0.00    +0.149 C 
ATOM      2  N   LIG    1       24.115 -20.899   6.132  0.00  0.00    -0.349 N 
ATOM      3  C   LIG    1       23.659 -19.951   5.163  0.00  0.00    +0.063 C 
ATOM      4  C   LIG    1       22.362 -19.592   5.004  0.00  0.00    +0.183 C 
ATOM      5  C   LIG    1       24.710 -19.356   4.306  0.00  0.00    +0.027 C 
ATOM      6  C   LIG    1       26.006 -19.686   4.436  0.00  0.00    +0.003 C 
ATOM      7  C   LIG    1       26.416 -20.645   5.431  0.00  0.00    +0.018 C 
ATOM      8  C   LIG    1       25.479 -21.196   6.215  0.00  0.00    +0.086 C 
ENDROOT
BRANCH   4   9
ATOM      9  N   LIG    1       21.917 -18.709   4.105  0.00  0.00    -0.036 NA
ATOM     10  O   LIG    1       21.967 -17.535   4.488  0.00  0.00    -0.144 OA
ENDBRANCH   4   9
TORSDOF 1
ENDMDL
MODEL 6
REMARK VINA RESULT:      -3.9      2.736      3.846
REMARK  Name = *****
REMARK                            x       y       z     vdW  Elec       q    Type
REMARK                         _______ _______ _______ _____ _____    ______ ____
ROOT
ATOM      1  C   LIG    1       25.722 -18.909   3.543  0.00  0.00    +0.149 C 
ATOM      2  N   LIG    1       25.959 -19.710   4.751  0.00  0.00    -0.349 N 
ATOM      3  C   LIG    1       24.906 -20.444   5.384  0.00  0.00    +0.063 C 
ATOM      4  C   LIG    1       23.625 -20.470   4.940  0.00  0.00    +0.183 C 
ATOM      5  C   LIG    1       25.294 -21.204   6.594  0.00  0.00    +0.027 C 
ATOM      6  C   LIG    1       26.553 -21.204   7.062  0.00  0.00    +0.003 C 
ATOM      7  C   LIG    1       27.580 -20.450   6.386  0.00  0.00    +0.018 C 
ATOM      8  C   LIG    1       27.248 -19.754   5.290  0.00  0.00    +0.086 C 
ENDROOT
BRANCH   4   9
ATOM      9  N   LIG    1       22.630 -21.149   5.518  0.00  0.00    -0.036 NA
ATOM     10  O   LIG    1       21.595 -21.193   4.843  0.00  0.00    -0.144 OA
ENDBRANCH   4   9
TORSDOF 1
ENDMDL
MODEL 7
REMARK VINA RESULT:      -3.7      5.488      6.502
REMARK  Name = *****
REMARK                            x       y       z     vdW  Elec       q    Type
REMARK                         _______ _______ _______ _____ _____    ______ ____
ROOT
ATOM      1  C   LIG    1       28.113 -13.828   3.883  0.00  0.00    +0.149 C 
ATOM      2  N   LIG    1       26.651 -13.906   3.995  0.00  0.00    -0.349 N 
ATOM      3  C   LIG    1       25.939 -15.113   3.706  0.00  0.00    +0.063 C 
ATOM      4  C   LIG    1       26.530 -16.268   3.313  0.00  0.00    +0.183 C 
ATOM      5  C   LIG    1       24.468 -15.041   3.862  0.00  0.00    +0.027 C 
ATOM      6  C   LIG    1       23.847 -13.915   4.252  0.00  0.00    +0.003 C 
ATOM      7  C   LIG    1       24.610 -12.725   4.535  0.00  0.00    +0.018 C 
ATOM      8  C   LIG    1       25.942 -12.770   4.398  0.00  0.00    +0.086 C 
ENDROOT
BRANCH   4   9
ATOM      9  N   LIG    1       25.882 -17.404   3.039  0.00  0.00    -0.036 NA
ATOM     10  O   LIG    1       26.195 -18.349   3.771  0.00  0.00    -0.144 OA
ENDBRANCH   4   9
TORSDOF 1
ENDMDL
MODEL 8
REMARK VINA RESULT:      -3.6      6.233      7.590
REMARK  Name = *****
REMARK                            x       y       z     vdW  Elec       q    Type
REMARK                         _______ _______ _______ _____ _____    ______ ____
ROOT
ATOM      1  C   LIG    1       24.110 -11.940   2.949  0.00  0.00    +0.149 C 
ATOM      2  N   LIG    1       25.028 -13.078   3.094  0.00  0.00    -0.349 N 
ATOM      3  C   LIG    1       24.598 -14.321   3.658  0.00  0.00    +0.063 C 
ATOM      4  C   LIG    1       23.339 -14.560   4.098  0.00  0.00    +0.183 C 
ATOM      5  C   LIG    1       25.634 -15.376   3.742  0.00  0.00    +0.027 C 
ATOM      6  C   LIG    1       26.891 -15.176   3.313  0.00  0.00    +0.003 C 
ATOM      7  C   LIG    1       27.274 -13.905   2.750  0.00  0.00    +0.018 C 
ATOM      8  C   LIG    1       26.351 -12.937   2.667  0.00  0.00    +0.086 C 
ENDROOT
BRANCH   4   9
ATOM      9  N   LIG    1       22.920 -15.714   4.627  0.00  0.00    -0.036 NA
ATOM     10  O   LIG    1       22.202 -15.577   5.624  0.00  0.00    -0.144 OA
ENDBRANCH   4   9
TORSDOF 1
ENDMDL
MODEL 9
REMARK VINA RESULT:      -3.6      6.344      7.131
REMARK  Name = *****
REMARK                            x       y       z     vdW  Elec       q    Type
REMARK                         _______ _______ _______ _____ _____    ______ ____
ROOT
ATOM      1  C   LIG    1       26.720 -16.453   3.423  0.00  0.00    +0.149 C 
ATOM      2  N   LIG    1       25.988 -15.213   3.709  0.00  0.00    -0.349 N 
ATOM      3  C   LIG    1       26.663 -13.960   3.860  0.00  0.00    +0.063 C 
ATOM      4  C   LIG    1       28.005 -13.803   3.755  0.00  0.00    +0.183 C 
ATOM      5  C   LIG    1       25.793 -12.796   4.148  0.00  0.00    +0.027 C 
ATOM      6  C   LIG    1       24.459 -12.912   4.255  0.00  0.00    +0.003 C 
ATOM      7  C   LIG    1       23.826 -14.197   4.092  0.00  0.00    +0.018 C 
ATOM      8  C   LIG    1       24.596 -15.263   3.833  0.00  0.00    +0.086 C 
ENDROOT
BRANCH   4   9
ATOM      9  N   LIG    1       28.652 -12.643   3.893  0.00  0.00    -0.036 NA
ATOM     10  O   LIG    1       28.834 -12.306   5.069  0.00  0.00    -0.144 OA
ENDBRANCH   4   9
TORSDOF 1
ENDMDL
