MODEL 1
REMARK VINA RESULT:      -4.1      0.000      0.000
REMARK  Name = *****
REMARK                            x       y       z     vdW  Elec       q    Type
REMARK                         _______ _______ _______ _____ _____    ______ ____
ROOT
ATOM      1  C   LIG    1       25.960 -14.231   3.158  0.00  0.00    +0.268 C 
ENDROOT
BRANCH   1   2
ATOM      2  P   LIG    1       27.381 -13.746   4.196  0.00  0.00    +0.371 P 
ATOM      3  O   LIG    1       27.136 -13.227   5.576  0.00  0.00    -0.255 OA
BRANCH   2   4
ATOM      4  O   LIG    1       28.312 -12.749   3.359  0.00  0.00    -0.322 OA
ATOM      5  H   LIG    1       28.826 -13.196   2.661  0.00  0.00    +0.220 HD
ENDBRANCH   2   4
BRANCH   2   6
ATOM      6  O   LIG    1       28.327 -15.040   4.283  0.00  0.00    -0.322 OA
ATOM      7  H   LIG    1       28.873 -15.055   5.090  0.00  0.00    +0.220 HD
ENDBRANCH   2   6
ENDBRANCH   1   2
BRANCH   1   8
ATOM      8  P   LIG    1       24.645 -12.957   3.009  0.00  0.00    +0.371 P 
ATOM      9  O   LIG    1       24.779 -11.857   2.004  0.00  0.00    -0.255 OA
BRANCH   8  10
ATOM     10  O   LIG    1       24.421 -12.342   4.478  0.00  0.00    -0.322 OA
ATOM     11  H   LIG    1       25.140 -12.570   5.096  0.00  0.00    +0.220 HD
ENDBRANCH   8  10
BRANCH   8  12
ATOM     12  O   LIG    1       23.247 -13.734   2.867  0.00  0.00    -0.322 OA
ATOM     13  H   LIG    1       22.575 -13.432   3.510  0.00  0.00    +0.220 HD
ENDBRANCH   8  12
ENDBRANCH   1   8
BRANCH   1  14
ATOM     14  O   LIG    1       26.498 -14.407   1.812  0.00  0.00    -0.367 OA
ATOM     15  H   LIG    1       27.090 -13.643   1.662  0.00  0.00    +0.212 HD
ENDBRANCH   1  14
BRANCH   1  16
ATOM     16  C   LIG    1       25.324 -15.569   3.591  0.00  0.00    +0.075 C 
BRANCH  16  17
ATOM     17  C   LIG    1       26.169 -16.804   3.279  0.00  0.00    +0.081 C 
BRANCH  17  18
ATOM     18  N   LIG    1       25.332 -18.004   3.281  0.00  0.00    -0.330 NA
ATOM     19  H   LIG    1       24.828 -18.076   2.398  0.00  0.00    +0.118 HD
ATOM     20  H   LIG    1       25.938 -18.826   3.321  0.00  0.00    +0.118 HD
ENDBRANCH  17  18
ENDBRANCH  16  17
ENDBRANCH   1  16
TORSDOF 10
ENDMDL
MODEL 2
REMARK VINA RESULT:      -4.0      2.657      3.566
REMARK  Name = *****
REMARK                            x       y       z     vdW  Elec       q    Type
REMARK                         _______ _______ _______ _____ _____    ______ ____
ROOT
ATOM      1  C   LIG    1       26.270 -13.503   4.298  0.00  0.00    +0.268 C 
ENDROOT
BRANCH   1   2
ATOM      2  P   LIG    1       26.677 -15.015   3.361  0.00  0.00    +0.371 P 
ATOM      3  O   LIG    1       25.622 -16.054   3.153  0.00  0.00    -0.255 OA
BRANCH   2   4
ATOM      4  O   LIG    1       28.008 -15.657   3.975  0.00  0.00    -0.322 OA
ATOM      5  H   LIG    1       27.843 -16.208   4.763  0.00  0.00    +0.220 HD
ENDBRANCH   2   4
BRANCH   2   6
ATOM      6  O   LIG    1       27.213 -14.519   1.932  0.00  0.00    -0.322 OA
ATOM      7  H   LIG    1       28.058 -14.934   1.680  0.00  0.00    +0.220 HD
ENDBRANCH   2   6
ENDBRANCH   1   2
BRANCH   1   8
ATOM      8  P   LIG    1       24.510 -12.987   4.202  0.00  0.00    +0.371 P 
ATOM      9  O   LIG    1       24.010 -11.868   5.061  0.00  0.00    -0.255 OA
BRANCH   8  10
ATOM     10  O   LIG    1       23.622 -14.307   4.439  0.00  0.00    -0.322 OA
ATOM     11  H   LIG    1       22.665 -14.121   4.457  0.00  0.00    +0.220 HD
ENDBRANCH   8  10
BRANCH   8  12
ATOM     12  O   LIG    1       24.168 -12.753   2.651  0.00  0.00    -0.322 OA
ATOM     13  H   LIG    1       24.491 -11.894   2.314  0.00  0.00    +0.220 HD
ENDBRANCH   8  12
ENDBRANCH   1   8
BRANCH   1  14
ATOM     14  O   LIG    1       26.513 -13.831   5.700  0.00  0.00    -0.367 OA
ATOM     15  H   LIG    1       27.197 -13.201   6.004  0.00  0.00    +0.212 HD
ENDBRANCH   1  14
BRANCH   1  16
ATOM     16  C   LIG    1       27.171 -12.304   3.932  0.00  0.00    +0.075 C 
BRANCH  16  17
ATOM     17  C   LIG    1       28.654 -12.506   4.244  0.00  0.00    +0.081 C 
BRANCH  17  18
ATOM     18  N   LIG    1       28.982 -11.915   5.543  0.00  0.00    -0.330 NA
ATOM     19  H   LIG    1       29.159 -12.652   6.223  0.00  0.00    +0.118 HD
ATOM     20  H   LIG    1       29.862 -11.402   5.455  0.00  0.00    +0.118 HD
ENDBRANCH  17  18
ENDBRANCH  16  17
ENDBRANCH   1  16
TORSDOF 10
ENDMDL
MODEL 3
REMARK VINA RESULT:      -3.9      1.541      3.864
REMARK  Name = *****
REMARK                            x       y       z     vdW  Elec       q    Type
REMARK                         _______ _______ _______ _____ _____    ______ ____
ROOT
ATOM      1  C   LIG    1       25.484 -13.615   3.844  0.00  0.00    +0.268 C 
ENDROOT
BRANCH   1   2
ATOM      2  P   LIG    1       24.659 -12.408   2.752  0.00  0.00    +0.371 P 
ATOM      3  O   LIG    1       25.488 -11.535   1.866  0.00  0.00    -0.255 OA
BRANCH   2   4
ATOM      4  O   LIG    1       23.635 -11.541   3.625  0.00  0.00    -0.322 OA
ATOM      5  H   LIG    1       22.842 -12.040   3.898  0.00  0.00    +0.220 HD
ENDBRANCH   2   4
BRANCH   2   6
ATOM      6  O   LIG    1       23.640 -13.256   1.847  0.00  0.00    -0.322 OA
ATOM      7  H   LIG    1       23.579 -14.190   2.121  0.00  0.00    +0.220 HD
ENDBRANCH   2   6
ENDBRANCH   1   2
BRANCH   1   8
ATOM      8  P   LIG    1       27.231 -13.979   3.409  0.00  0.00    +0.371 P 
ATOM      9  O   LIG    1       28.322 -13.058   3.858  0.00  0.00    -0.255 OA
BRANCH   8  10
ATOM     10  O   LIG    1       27.286 -14.166   1.812  0.00  0.00    -0.322 OA
ATOM     11  H   LIG    1       26.402 -14.258   1.413  0.00  0.00    +0.220 HD
ENDBRANCH   8  10
BRANCH   8  12
ATOM     12  O   LIG    1       27.518 -15.501   3.831  0.00  0.00    -0.322 OA
ATOM     13  H   LIG    1       26.778 -16.103   3.616  0.00  0.00    +0.220 HD
ENDBRANCH   8  12
ENDBRANCH   1   8
BRANCH   1  14
ATOM     14  O   LIG    1       25.525 -12.989   5.163  0.00  0.00    -0.367 OA
ATOM     15  H   LIG    1       25.970 -13.635   5.748  0.00  0.00    +0.212 HD
ENDBRANCH   1  14
BRANCH   1  16
ATOM     16  C   LIG    1       24.707 -14.941   3.976  0.00  0.00    +0.075 C 
BRANCH  16  17
ATOM     17  C   LIG    1       23.372 -14.825   4.711  0.00  0.00    +0.081 C 
BRANCH  17  18
ATOM     18  N   LIG    1       22.630 -16.083   4.616  0.00  0.00    -0.330 NA
ATOM     19  H   LIG    1       22.375 -16.262   3.645  0.00  0.00    +0.118 HD
ATOM     20  H   LIG    1       23.250 -16.849   4.884  0.00  0.00    +0.118 HD
ENDBRANCH  17  18
ENDBRANCH  16  17
ENDBRANCH   1  16
TORSDOF 10
ENDMDL
MODEL 4
REMARK VINA RESULT:      -3.8      6.038      6.943
REMARK  Name = *****
REMARK                            x       y       z     vdW  Elec       q    Type
REMARK                         _______ _______ _______ _____ _____    ______ ____
ROOT
ATOM      1  C   LIG    1       24.922 -20.311   5.093  0.00  0.00    +0.268 C 
ENDROOT
BRANCH   1   2
ATOM      2  P   LIG    1       25.101 -19.049   3.787  0.00  0.00    +0.371 P 
ATOM      3  O   LIG    1       24.089 -17.954   3.684  0.00  0.00    -0.255 OA
BRANCH   2   4
ATOM      4  O   LIG    1       25.299 -19.789   2.382  0.00  0.00    -0.322 OA
ATOM      5  H   LIG    1       24.946 -19.283   1.626  0.00  0.00    +0.220 HD
ENDBRANCH   2   4
BRANCH   2   6
ATOM      6  O   LIG    1       26.555 -18.401   3.995  0.00  0.00    -0.322 OA
ATOM      7  H   LIG    1       26.972 -18.133   3.155  0.00  0.00    +0.220 HD
ENDBRANCH   2   6
ENDBRANCH   1   2
BRANCH   1   8
ATOM      8  P   LIG    1       23.201 -20.577   5.677  0.00  0.00    +0.371 P 
ATOM      9  O   LIG    1       22.950 -21.085   7.062  0.00  0.00    -0.255 OA
BRANCH   8  10
ATOM     10  O   LIG    1       22.484 -21.531   4.598  0.00  0.00    -0.322 OA
ATOM     11  H   LIG    1       22.980 -22.354   4.433  0.00  0.00    +0.220 HD
ENDBRANCH   8  10
BRANCH   8  12
ATOM     12  O   LIG    1       22.384 -19.229   5.374  0.00  0.00    -0.322 OA
ATOM     13  H   LIG    1       22.892 -18.585   4.842  0.00  0.00    +0.220 HD
ENDBRANCH   8  12
ENDBRANCH   1   8
BRANCH   1  14
ATOM     14  O   LIG    1       25.334 -21.572   4.482  0.00  0.00    -0.367 OA
ATOM     15  H   LIG    1       25.749 -22.090   5.201  0.00  0.00    +0.212 HD
ENDBRANCH   1  14
BRANCH   1  16
ATOM     16  C   LIG    1       25.836 -20.056   6.310  0.00  0.00    +0.075 C 
BRANCH  16  17
ATOM     17  C   LIG    1       27.042 -20.992   6.406  0.00  0.00    +0.081 C 
BRANCH  17  18
ATOM     18  N   LIG    1       28.167 -20.448   5.643  0.00  0.00    -0.330 NA
ATOM     19  H   LIG    1       28.693 -19.795   6.221  0.00  0.00    +0.118 HD
ATOM     20  H   LIG    1       28.813 -21.209   5.427  0.00  0.00    +0.118 HD
ENDBRANCH  17  18
ENDBRANCH  16  17
ENDBRANCH   1  16
TORSDOF 10
ENDMDL
MODEL 5
REMARK VINA RESULT:      -3.7      2.522      4.219
REMARK  Name = *****
REMARK                            x       y       z     vdW  Elec       q    Type
REMARK                         _______ _______ _______ _____ _____    ______ ____
ROOT
ATOM      1  C   LIG    1       26.184 -13.255   3.934  0.00  0.00    +0.268 C 
ENDROOT
BRANCH   1   2
ATOM      2  P   LIG    1       24.389 -12.990   4.131  0.00  0.00    +0.371 P 
ATOM      3  O   LIG    1       23.905 -11.875   5.001  0.00  0.00    -0.255 OA
BRANCH   2   4
ATOM      4  O   LIG    1       23.706 -14.380   4.536  0.00  0.00    -0.322 OA
ATOM      5  H   LIG    1       22.834 -14.272   4.959  0.00  0.00    +0.220 HD
ENDBRANCH   2   4
BRANCH   2   6
ATOM      6  O   LIG    1       23.807 -12.789   2.649  0.00  0.00    -0.322 OA
ATOM      7  H   LIG    1       24.034 -13.525   2.051  0.00  0.00    +0.220 HD
ENDBRANCH   2   6
ENDBRANCH   1   2
BRANCH   1   8
ATOM      8  P   LIG    1       26.647 -14.866   3.183  0.00  0.00    +0.371 P 
ATOM      9  O   LIG    1       25.613 -15.934   3.006  0.00  0.00    -0.255 OA
BRANCH   8  10
ATOM     10  O   LIG    1       27.893 -15.435   4.026  0.00  0.00    -0.322 OA
ATOM     11  H   LIG    1       27.617 -15.990   4.779  0.00  0.00    +0.220 HD
ENDBRANCH   8  10
BRANCH   8  12
ATOM     12  O   LIG    1       27.421 -14.546   1.814  0.00  0.00    -0.322 OA
ATOM     13  H   LIG    1       27.167 -15.142   1.082  0.00  0.00    +0.220 HD
ENDBRANCH   8  12
ENDBRANCH   1   8
BRANCH   1  14
ATOM     14  O   LIG    1       26.633 -12.234   2.992  0.00  0.00    -0.367 OA
ATOM     15  H   LIG    1       26.479 -11.377   3.440  0.00  0.00    +0.212 HD
ENDBRANCH   1  14
BRANCH   1  16
ATOM     16  C   LIG    1       26.971 -13.063   5.248  0.00  0.00    +0.075 C 
BRANCH  16  17
ATOM     17  C   LIG    1       28.275 -12.280   5.098  0.00  0.00    +0.081 C 
BRANCH  17  18
ATOM     18  N   LIG    1       29.116 -12.888   4.065  0.00  0.00    -0.330 NA
ATOM     19  H   LIG    1       29.765 -13.547   4.492  0.00  0.00    +0.118 HD
ATOM     20  H   LIG    1       28.523 -13.445   3.447  0.00  0.00    +0.118 HD
ENDBRANCH  17  18
ENDBRANCH  16  17
ENDBRANCH   1  16
TORSDOF 10
ENDMDL
MODEL 6
REMARK VINA RESULT:      -3.7      1.642      3.800
REMARK  Name = *****
REMARK                            x       y       z     vdW  Elec       q    Type
REMARK                         _______ _______ _______ _____ _____    ______ ____
ROOT
ATOM      1  C   LIG    1       25.506 -13.521   4.110  0.00  0.00    +0.268 C 
ENDROOT
BRANCH   1   2
ATOM      2  P   LIG    1       24.572 -12.433   2.980  0.00  0.00    +0.371 P 
ATOM      3  O   LIG    1       23.575 -11.473   3.546  0.00  0.00    -0.255 OA
BRANCH   2   4
ATOM      4  O   LIG    1       23.922 -13.330   1.825  0.00  0.00    -0.322 OA
ATOM      5  H   LIG    1       22.984 -13.545   1.985  0.00  0.00    +0.220 HD
ENDBRANCH   2   4
BRANCH   2   6
ATOM      6  O   LIG    1       25.671 -11.615   2.145  0.00  0.00    -0.322 OA
ATOM      7  H   LIG    1       26.543 -11.601   2.581  0.00  0.00    +0.220 HD
ENDBRANCH   2   6
ENDBRANCH   1   2
BRANCH   1   8
ATOM      8  P   LIG    1       27.139 -14.072   3.474  0.00  0.00    +0.371 P 
ATOM      9  O   LIG    1       27.818 -15.258   4.082  0.00  0.00    -0.255 OA
BRANCH   8  10
ATOM     10  O   LIG    1       28.114 -12.793   3.517  0.00  0.00    -0.322 OA
ATOM     11  H   LIG    1       28.780 -12.802   2.805  0.00  0.00    +0.220 HD
ENDBRANCH   8  10
BRANCH   8  12
ATOM     12  O   LIG    1       27.005 -14.208   1.880  0.00  0.00    -0.322 OA
ATOM     13  H   LIG    1       26.143 -13.895   1.540  0.00  0.00    +0.220 HD
ENDBRANCH   8  12
ENDBRANCH   1   8
BRANCH   1  14
ATOM     14  O   LIG    1       25.792 -12.710   5.291  0.00  0.00    -0.367 OA
ATOM     15  H   LIG    1       26.397 -12.004   4.986  0.00  0.00    +0.212 HD
ENDBRANCH   1  14
BRANCH   1  16
ATOM     16  C   LIG    1       24.698 -14.753   4.569  0.00  0.00    +0.075 C 
BRANCH  16  17
ATOM     17  C   LIG    1       23.187 -14.628   4.377  0.00  0.00    +0.081 C 
BRANCH  17  18
ATOM     18  N   LIG    1       22.523 -15.875   4.761  0.00  0.00    -0.330 NA
ATOM     19  H   LIG    1       22.735 -16.604   4.081  0.00  0.00    +0.118 HD
ATOM     20  H   LIG    1       22.920 -16.197   5.645  0.00  0.00    +0.118 HD
ENDBRANCH  17  18
ENDBRANCH  16  17
ENDBRANCH   1  16
TORSDOF 10
ENDMDL
MODEL 7
REMARK VINA RESULT:      -3.3      0.975      3.590
REMARK  Name = *****
REMARK                            x       y       z     vdW  Elec       q    Type
REMARK                         _______ _______ _______ _____ _____    ______ ____
ROOT
ATOM      1  C   LIG    1       25.638 -14.069   3.634  0.00  0.00    +0.268 C 
ENDROOT
BRANCH   1   2
ATOM      2  P   LIG    1       24.759 -12.665   2.869  0.00  0.00    +0.371 P 
ATOM      3  O   LIG    1       25.522 -11.697   2.022  0.00  0.00    -0.255 OA
BRANCH   2   4
ATOM      4  O   LIG    1       23.919 -11.907   4.001  0.00  0.00    -0.322 OA
ATOM      5  H   LIG    1       24.254 -11.012   4.196  0.00  0.00    +0.220 HD
ENDBRANCH   2   4
BRANCH   2   6
ATOM      6  O   LIG    1       23.576 -13.307   1.995  0.00  0.00    -0.322 OA
ATOM      7  H   LIG    1       23.803 -13.383   1.050  0.00  0.00    +0.220 HD
ENDBRANCH   2   6
ENDBRANCH   1   2
BRANCH   1   8
ATOM      8  P   LIG    1       27.341 -13.691   4.210  0.00  0.00    +0.371 P 
ATOM      9  O   LIG    1       27.551 -12.975   5.507  0.00  0.00    -0.255 OA
BRANCH   8  10
ATOM     10  O   LIG    1       28.074 -12.900   3.016  0.00  0.00    -0.322 OA
ATOM     11  H   LIG    1       28.346 -13.486   2.286  0.00  0.00    +0.220 HD
ENDBRANCH   8  10
BRANCH   8  12
ATOM     12  O   LIG    1       28.182 -15.056   4.133  0.00  0.00    -0.322 OA
ATOM     13  H   LIG    1       29.114 -14.917   3.871  0.00  0.00    +0.220 HD
ENDBRANCH   8  12
ENDBRANCH   1   8
BRANCH   1  14
ATOM     14  O   LIG    1       24.878 -14.404   4.835  0.00  0.00    -0.367 OA
ATOM     15  H   LIG    1       25.299 -15.209   5.198  0.00  0.00    +0.212 HD
ENDBRANCH   1  14
BRANCH   1  16
ATOM     16  C   LIG    1       25.674 -15.323   2.735  0.00  0.00    +0.075 C 
BRANCH  16  17
ATOM     17  C   LIG    1       25.319 -16.627   3.449  0.00  0.00    +0.081 C 
BRANCH  17  18
ATOM     18  N   LIG    1       26.362 -17.629   3.221  0.00  0.00    -0.330 NA
ATOM     19  H   LIG    1       27.102 -17.522   3.913  0.00  0.00    +0.118 HD
ATOM     20  H   LIG    1       25.965 -18.556   3.381  0.00  0.00    +0.118 HD
ENDBRANCH  17  18
ENDBRANCH  16  17
ENDBRANCH   1  16
TORSDOF 10
ENDMDL
MODEL 8
REMARK VINA RESULT:      -3.2      2.664      4.278
REMARK  Name = *****
REMARK                            x       y       z     vdW  Elec       q    Type
REMARK                         _______ _______ _______ _____ _____    ______ ____
ROOT
ATOM      1  C   LIG    1       26.067 -13.324   4.030  0.00  0.00    +0.268 C 
ENDROOT
BRANCH   1   2
ATOM      2  P   LIG    1       24.244 -13.261   3.971  0.00  0.00    +0.371 P 
ATOM      3  O   LIG    1       23.455 -14.434   4.456  0.00  0.00    -0.255 OA
BRANCH   2   4
ATOM      4  O   LIG    1       23.793 -12.829   2.498  0.00  0.00    -0.322 OA
ATOM      5  H   LIG    1       23.413 -13.563   1.979  0.00  0.00    +0.220 HD
ENDBRANCH   2   4
BRANCH   2   6
ATOM      6  O   LIG    1       23.819 -11.961   4.810  0.00  0.00    -0.322 OA
ATOM      7  H   LIG    1       23.869 -12.101   5.774  0.00  0.00    +0.220 HD
ENDBRANCH   2   6
ENDBRANCH   1   2
BRANCH   1   8
ATOM      8  P   LIG    1       26.809 -14.844   3.315  0.00  0.00    +0.371 P 
ATOM      9  O   LIG    1       27.923 -15.542   4.031  0.00  0.00    -0.255 OA
BRANCH   8  10
ATOM     10  O   LIG    1       27.256 -14.484   1.812  0.00  0.00    -0.322 OA
ATOM     11  H   LIG    1       26.516 -14.527   1.178  0.00  0.00    +0.220 HD
ENDBRANCH   8  10
BRANCH   8  12
ATOM     12  O   LIG    1       25.602 -15.842   2.965  0.00  0.00    -0.322 OA
ATOM     13  H   LIG    1       25.606 -16.654   3.509  0.00  0.00    +0.220 HD
ENDBRANCH   8  12
ENDBRANCH   1   8
BRANCH   1  14
ATOM     14  O   LIG    1       26.527 -12.223   3.189  0.00  0.00    -0.367 OA
ATOM     15  H   LIG    1       25.770 -11.607   3.124  0.00  0.00    +0.212 HD
ENDBRANCH   1  14
BRANCH   1  16
ATOM     16  C   LIG    1       26.634 -13.102   5.448  0.00  0.00    +0.075 C 
BRANCH  16  17
ATOM     17  C   LIG    1       28.157 -13.196   5.546  0.00  0.00    +0.081 C 
BRANCH  17  18
ATOM     18  N   LIG    1       28.764 -11.896   5.261  0.00  0.00    -0.330 NA
ATOM     19  H   LIG    1       29.436 -11.987   4.500  0.00  0.00    +0.118 HD
ATOM     20  H   LIG    1       28.039 -11.265   4.916  0.00  0.00    +0.118 HD
ENDBRANCH  17  18
ENDBRANCH  16  17
ENDBRANCH   1  16
TORSDOF 10
ENDMDL
MODEL 9
REMARK VINA RESULT:      -3.1      1.427      3.623
REMARK  Name = *****
REMARK                            x       y       z     vdW  Elec       q    Type
REMARK                         _______ _______ _______ _____ _____    ______ ____
ROOT
ATOM      1  C   LIG    1       26.875 -13.879   4.600  0.00  0.00    +0.268 C 
ENDROOT
BRANCH   1   2
ATOM      2  P   LIG    1       25.235 -13.432   3.936  0.00  0.00    +0.371 P 
ATOM      3  O   LIG    1       25.108 -13.043   2.499  0.00  0.00    -0.255 OA
BRANCH   2   4
ATOM      4  O   LIG    1       24.576 -12.332   4.894  0.00  0.00    -0.322 OA
ATOM      5  H   LIG    1       25.188 -11.998   5.577  0.00  0.00    +0.220 HD
ENDBRANCH   2   4
BRANCH   2   6
ATOM      6  O   LIG    1       24.283 -14.691   4.225  0.00  0.00    -0.322 OA
ATOM      7  H   LIG    1       24.230 -14.915   5.172  0.00  0.00    +0.220 HD
ENDBRANCH   2   6
ENDBRANCH   1   2
BRANCH   1   8
ATOM      8  P   LIG    1       28.246 -12.775   4.074  0.00  0.00    +0.371 P 
ATOM      9  O   LIG    1       28.921 -11.891   5.075  0.00  0.00    -0.255 OA
BRANCH   8  10
ATOM     10  O   LIG    1       27.695 -11.900   2.842  0.00  0.00    -0.322 OA
ATOM     11  H   LIG    1       27.339 -12.448   2.119  0.00  0.00    +0.220 HD
ENDBRANCH   8  10
BRANCH   8  12
ATOM     12  O   LIG    1       29.297 -13.679   3.265  0.00  0.00    -0.322 OA
ATOM     13  H   LIG    1       28.943 -14.010   2.416  0.00  0.00    +0.220 HD
ENDBRANCH   8  12
ENDBRANCH   1   8
BRANCH   1  14
ATOM     14  O   LIG    1       26.771 -13.721   6.048  0.00  0.00    -0.367 OA
ATOM     15  H   LIG    1       27.671 -13.488   6.354  0.00  0.00    +0.212 HD
ENDBRANCH   1  14
BRANCH   1  16
ATOM     16  C   LIG    1       27.264 -15.344   4.313  0.00  0.00    +0.075 C 
BRANCH  16  17
ATOM     17  C   LIG    1       26.642 -15.930   3.046  0.00  0.00    +0.081 C 
BRANCH  17  18
ATOM     18  N   LIG    1       26.207 -17.306   3.284  0.00  0.00    -0.330 NA
ATOM     19  H   LIG    1       26.030 -17.772   2.395  0.00  0.00    +0.118 HD
ATOM     20  H   LIG    1       26.974 -17.821   3.719  0.00  0.00    +0.118 HD
ENDBRANCH  17  18
ENDBRANCH  16  17
ENDBRANCH   1  16
TORSDOF 10
ENDMDL
