MODEL 1
REMARK VINA RESULT:      -9.4      0.000      0.000
REMARK  Name = *****
REMARK                            x       y       z     vdW  Elec       q    Type
REMARK                         _______ _______ _______ _____ _____    ______ ____
ROOT
ATOM      1  C   LIG    1       29.089 -19.140   5.958  0.00  0.00    +0.037 A 
ATOM      2  C   LIG    1       28.026 -20.007   6.152  0.00  0.00    +0.070 A 
ATOM      3  C   LIG    1       26.709 -20.057   5.512  0.00  0.00    +0.256 C 
ATOM      4  N   LIG    1       26.027 -21.096   6.082  0.00  0.00    -0.222 N 
ATOM      5  C   LIG    1       26.782 -21.727   7.032  0.00  0.00    +0.255 C 
ATOM      6  O   LIG    1       26.510 -22.707   7.699  0.00  0.00    -0.270 OA
ATOM      7  O   LIG    1       26.321 -19.270   4.670  0.00  0.00    -0.269 OA
ATOM      8  C   LIG    1       28.060 -21.022   7.093  0.00  0.00    +0.051 A 
ATOM      9  C   LIG    1       29.168 -21.259   7.881  0.00  0.00    +0.014 A 
ATOM     10  C   LIG    1       30.273 -20.431   7.683  0.00  0.00    +0.003 A 
ATOM     11  C   LIG    1       30.238 -19.399   6.719  0.00  0.00    +0.023 A 
ENDROOT
BRANCH   4  12
ATOM     12  C   LIG    1       24.675 -21.509   5.734  0.00  0.00    +0.171 C 
ATOM     13  C   LIG    1       23.670 -20.741   6.591  0.00  0.00    +0.240 C 
ATOM     14  O   LIG    1       23.696 -20.761   7.821  0.00  0.00    -0.273 OA
ATOM     15  N   LIG    1       22.761 -19.956   5.926  0.00  0.00    -0.255 N 
ATOM     16  H   LIG    1       22.113 -19.447   6.513  0.00  0.00    +0.158 HD
ATOM     17  C   LIG    1       22.820 -19.524   4.626  0.00  0.00    +0.219 C 
ATOM     18  O   LIG    1       22.051 -18.656   4.218  0.00  0.00    -0.275 OA
ATOM     19  C   LIG    1       23.901 -20.112   3.752  0.00  0.00    +0.098 C 
ATOM     20  C   LIG    1       24.355 -21.475   4.242  0.00  0.00    +0.042 C 
ENDBRANCH   4  12
BRANCH   1  21
ATOM     21  N   LIG    1       29.129 -18.218   4.910  0.00  0.00    -0.357 N 
ATOM     22  H   LIG    1       29.509 -18.602   4.041  0.00  0.00    +0.142 HD
ATOM     23  H   LIG    1       28.270 -17.698   4.761  0.00  0.00    +0.142 HD
ENDBRANCH   1  21
TORSDOF 2
ENDMDL
MODEL 2
REMARK VINA RESULT:      -9.3      2.426      5.696
REMARK  Name = *****
REMARK                            x       y       z     vdW  Elec       q    Type
REMARK                         _______ _______ _______ _____ _____    ______ ____
ROOT
ATOM      1  C   LIG    1       25.265 -20.472   4.810  0.00  0.00    +0.037 A 
ATOM      2  C   LIG    1       25.896 -20.417   6.042  0.00  0.00    +0.070 A 
ATOM      3  C   LIG    1       27.301 -20.180   6.381  0.00  0.00    +0.256 C 
ATOM      4  N   LIG    1       27.400 -20.249   7.743  0.00  0.00    -0.222 N 
ATOM      5  C   LIG    1       26.187 -20.505   8.319  0.00  0.00    +0.255 C 
ATOM      6  O   LIG    1       25.902 -20.587   9.499  0.00  0.00    -0.270 OA
ATOM      7  O   LIG    1       28.189 -20.009   5.567  0.00  0.00    -0.269 OA
ATOM      8  C   LIG    1       25.221 -20.630   7.231  0.00  0.00    +0.051 A 
ATOM      9  C   LIG    1       23.865 -20.883   7.273  0.00  0.00    +0.014 A 
ATOM     10  C   LIG    1       23.189 -20.904   6.053  0.00  0.00    +0.003 A 
ATOM     11  C   LIG    1       23.878 -20.681   4.841  0.00  0.00    +0.023 A 
ENDROOT
BRANCH   4  12
ATOM     12  C   LIG    1       28.625 -20.064   8.510  0.00  0.00    +0.171 C 
ATOM     13  C   LIG    1       29.659 -21.102   8.078  0.00  0.00    +0.240 C 
ATOM     14  O   LIG    1       29.442 -22.312   8.123  0.00  0.00    -0.273 OA
ATOM     15  N   LIG    1       30.839 -20.625   7.562  0.00  0.00    -0.255 N 
ATOM     16  H   LIG    1       31.504 -21.329   7.271  0.00  0.00    +0.158 HD
ATOM     17  C   LIG    1       31.099 -19.361   7.096  0.00  0.00    +0.219 C 
ATOM     18  O   LIG    1       32.128 -19.124   6.469  0.00  0.00    -0.275 OA
ATOM     19  C   LIG    1       30.043 -18.308   7.333  0.00  0.00    +0.098 C 
ATOM     20  C   LIG    1       29.165 -18.637   8.527  0.00  0.00    +0.042 C 
ENDBRANCH   4  12
BRANCH   1  21
ATOM     21  N   LIG    1       25.897 -20.104   3.621  0.00  0.00    -0.357 N 
ATOM     22  H   LIG    1       25.533 -20.589   2.796  0.00  0.00    +0.142 HD
ATOM     23  H   LIG    1       25.989 -19.104   3.473  0.00  0.00    +0.142 HD
ENDBRANCH   1  21
TORSDOF 2
ENDMDL
MODEL 3
REMARK VINA RESULT:      -8.8      2.367      6.085
REMARK  Name = *****
REMARK                            x       y       z     vdW  Elec       q    Type
REMARK                         _______ _______ _______ _____ _____    ______ ____
ROOT
ATOM      1  C   LIG    1       24.059 -20.965   6.866  0.00  0.00    +0.037 A 
ATOM      2  C   LIG    1       25.411 -20.676   6.958  0.00  0.00    +0.070 A 
ATOM      3  C   LIG    1       26.282 -20.562   8.130  0.00  0.00    +0.256 C 
ATOM      4  N   LIG    1       27.529 -20.238   7.671  0.00  0.00    -0.222 N 
ATOM      5  C   LIG    1       27.548 -20.135   6.308  0.00  0.00    +0.255 C 
ATOM      6  O   LIG    1       28.487 -19.908   5.570  0.00  0.00    -0.270 OA
ATOM      7  O   LIG    1       25.911 -20.690   9.282  0.00  0.00    -0.269 OA
ATOM      8  C   LIG    1       26.188 -20.399   5.846  0.00  0.00    +0.051 A 
ATOM      9  C   LIG    1       25.674 -20.421   4.565  0.00  0.00    +0.014 A 
ATOM     10  C   LIG    1       24.325 -20.750   4.432  0.00  0.00    +0.003 A 
ATOM     11  C   LIG    1       23.535 -21.037   5.566  0.00  0.00    +0.023 A 
ENDROOT
BRANCH   4  12
ATOM     12  C   LIG    1       28.707 -20.036   8.503  0.00  0.00    +0.171 C 
ATOM     13  C   LIG    1       29.778 -21.060   8.129  0.00  0.00    +0.240 C 
ATOM     14  O   LIG    1       29.575 -22.273   8.163  0.00  0.00    -0.273 OA
ATOM     15  N   LIG    1       30.977 -20.566   7.678  0.00  0.00    -0.255 N 
ATOM     16  H   LIG    1       31.667 -21.261   7.424  0.00  0.00    +0.158 HD
ATOM     17  C   LIG    1       31.244 -19.300   7.226  0.00  0.00    +0.219 C 
ATOM     18  O   LIG    1       32.303 -19.047   6.655  0.00  0.00    -0.275 OA
ATOM     19  C   LIG    1       30.163 -18.261   7.404  0.00  0.00    +0.098 C 
ATOM     20  C   LIG    1       29.226 -18.602   8.548  0.00  0.00    +0.042 C 
ENDBRANCH   4  12
BRANCH   1  21
ATOM     21  N   LIG    1       23.304 -21.399   7.957  0.00  0.00    -0.357 N 
ATOM     22  H   LIG    1       22.476 -20.826   8.136  0.00  0.00    +0.142 HD
ATOM     23  H   LIG    1       23.099 -22.393   7.970  0.00  0.00    +0.142 HD
ENDBRANCH   1  21
TORSDOF 2
ENDMDL
MODEL 4
REMARK VINA RESULT:      -8.5      1.100      2.290
REMARK  Name = *****
REMARK                            x       y       z     vdW  Elec       q    Type
REMARK                         _______ _______ _______ _____ _____    ______ ____
ROOT
ATOM      1  C   LIG    1       29.532 -20.740   7.524  0.00  0.00    +0.037 A 
ATOM      2  C   LIG    1       28.319 -20.675   6.858  0.00  0.00    +0.070 A 
ATOM      3  C   LIG    1       27.115 -21.499   6.989  0.00  0.00    +0.256 C 
ATOM      4  N   LIG    1       26.207 -21.027   6.083  0.00  0.00    -0.222 N 
ATOM      5  C   LIG    1       26.710 -19.970   5.377  0.00  0.00    +0.255 C 
ATOM      6  O   LIG    1       26.166 -19.286   4.530  0.00  0.00    -0.270 OA
ATOM      7  O   LIG    1       27.007 -22.448   7.744  0.00  0.00    -0.269 OA
ATOM      8  C   LIG    1       28.071 -19.750   5.859  0.00  0.00    +0.051 A 
ATOM      9  C   LIG    1       29.006 -18.808   5.478  0.00  0.00    +0.014 A 
ATOM     10  C   LIG    1       30.224 -18.818   6.157  0.00  0.00    +0.003 A 
ATOM     11  C   LIG    1       30.474 -19.759   7.180  0.00  0.00    +0.023 A 
ENDROOT
BRANCH   4  12
ATOM     12  C   LIG    1       24.864 -21.554   5.882  0.00  0.00    +0.171 C 
ATOM     13  C   LIG    1       23.878 -20.789   6.764  0.00  0.00    +0.240 C 
ATOM     14  O   LIG    1       24.004 -20.711   7.985  0.00  0.00    -0.273 OA
ATOM     15  N   LIG    1       22.864 -20.120   6.123  0.00  0.00    -0.255 N 
ATOM     16  H   LIG    1       22.230 -19.611   6.724  0.00  0.00    +0.158 HD
ATOM     17  C   LIG    1       22.788 -19.789   4.795  0.00  0.00    +0.219 C 
ATOM     18  O   LIG    1       21.928 -19.009   4.391  0.00  0.00    -0.275 OA
ATOM     19  C   LIG    1       23.836 -20.371   3.877  0.00  0.00    +0.098 C 
ATOM     20  C   LIG    1       24.424 -21.658   4.425  0.00  0.00    +0.042 C 
ENDBRANCH   4  12
BRANCH   1  21
ATOM     21  N   LIG    1       29.739 -21.559   8.636  0.00  0.00    -0.357 N 
ATOM     22  H   LIG    1       29.876 -21.041   9.507  0.00  0.00    +0.142 HD
ATOM     23  H   LIG    1       29.077 -22.322   8.738  0.00  0.00    +0.142 HD
ENDBRANCH   1  21
TORSDOF 2
ENDMDL
MODEL 5
REMARK VINA RESULT:      -8.1      2.414      3.226
REMARK  Name = *****
REMARK                            x       y       z     vdW  Elec       q    Type
REMARK                         _______ _______ _______ _____ _____    ______ ____
ROOT
ATOM      1  C   LIG    1       30.645 -19.802   7.262  0.00  0.00    +0.037 A 
ATOM      2  C   LIG    1       29.361 -20.319   7.190  0.00  0.00    +0.070 A 
ATOM      3  C   LIG    1       28.722 -21.389   7.958  0.00  0.00    +0.256 C 
ATOM      4  N   LIG    1       27.448 -21.520   7.477  0.00  0.00    -0.222 N 
ATOM      5  C   LIG    1       27.202 -20.630   6.469  0.00  0.00    +0.255 C 
ATOM      6  O   LIG    1       26.172 -20.440   5.850  0.00  0.00    -0.270 OA
ATOM      7  O   LIG    1       29.275 -22.046   8.820  0.00  0.00    -0.269 OA
ATOM      8  C   LIG    1       28.431 -19.868   6.269  0.00  0.00    +0.051 A 
ATOM      9  C   LIG    1       28.710 -18.849   5.379  0.00  0.00    +0.014 A 
ATOM     10  C   LIG    1       29.980 -18.277   5.452  0.00  0.00    +0.003 A 
ATOM     11  C   LIG    1       30.926 -18.735   6.395  0.00  0.00    +0.023 A 
ENDROOT
BRANCH   4  12
ATOM     12  C   LIG    1       26.456 -22.467   7.965  0.00  0.00    +0.171 C 
ATOM     13  C   LIG    1       25.263 -21.707   8.543  0.00  0.00    +0.240 C 
ATOM     14  O   LIG    1       25.379 -20.881   9.447  0.00  0.00    -0.273 OA
ATOM     15  N   LIG    1       24.042 -21.930   7.955  0.00  0.00    -0.255 N 
ATOM     16  H   LIG    1       23.269 -21.407   8.344  0.00  0.00    +0.158 HD
ATOM     17  C   LIG    1       23.792 -22.503   6.735  0.00  0.00    +0.219 C 
ATOM     18  O   LIG    1       22.670 -22.453   6.236  0.00  0.00    -0.275 OA
ATOM     19  C   LIG    1       24.961 -23.131   6.015  0.00  0.00    +0.098 C 
ATOM     20  C   LIG    1       26.061 -23.556   6.971  0.00  0.00    +0.042 C 
ENDBRANCH   4  12
BRANCH   1  21
ATOM     21  N   LIG    1       31.536 -20.136   8.284  0.00  0.00    -0.357 N 
ATOM     22  H   LIG    1       31.960 -19.323   8.738  0.00  0.00    +0.142 HD
ATOM     23  H   LIG    1       31.190 -20.817   8.952  0.00  0.00    +0.142 HD
ENDBRANCH   1  21
TORSDOF 2
ENDMDL
MODEL 6
REMARK VINA RESULT:      -7.8      2.105      2.524
REMARK  Name = *****
REMARK                            x       y       z     vdW  Elec       q    Type
REMARK                         _______ _______ _______ _____ _____    ______ ____
ROOT
ATOM      1  C   LIG    1       29.168 -18.788   5.685  0.00  0.00    +0.037 A 
ATOM      2  C   LIG    1       28.754 -19.828   6.501  0.00  0.00    +0.070 A 
ATOM      3  C   LIG    1       27.459 -20.506   6.596  0.00  0.00    +0.256 C 
ATOM      4  N   LIG    1       27.574 -21.450   7.578  0.00  0.00    -0.222 N 
ATOM      5  C   LIG    1       28.826 -21.450   8.127  0.00  0.00    +0.255 C 
ATOM      6  O   LIG    1       29.286 -22.179   8.985  0.00  0.00    -0.270 OA
ATOM      7  O   LIG    1       26.478 -20.216   5.937  0.00  0.00    -0.269 OA
ATOM      8  C   LIG    1       29.582 -20.399   7.451  0.00  0.00    +0.051 A 
ATOM      9  C   LIG    1       30.889 -19.992   7.630  0.00  0.00    +0.014 A 
ATOM     10  C   LIG    1       31.353 -18.974   6.796  0.00  0.00    +0.003 A 
ATOM     11  C   LIG    1       30.508 -18.396   5.823  0.00  0.00    +0.023 A 
ENDROOT
BRANCH   4  12
ATOM     12  C   LIG    1       26.519 -22.363   7.997  0.00  0.00    +0.171 C 
ATOM     13  C   LIG    1       25.356 -21.564   8.583  0.00  0.00    +0.240 C 
ATOM     14  O   LIG    1       25.494 -20.790   9.529  0.00  0.00    -0.273 OA
ATOM     15  N   LIG    1       24.139 -21.691   7.958  0.00  0.00    -0.255 N 
ATOM     16  H   LIG    1       23.387 -21.144   8.355  0.00  0.00    +0.158 HD
ATOM     17  C   LIG    1       23.889 -22.191   6.706  0.00  0.00    +0.219 C 
ATOM     18  O   LIG    1       22.784 -22.055   6.186  0.00  0.00    -0.275 OA
ATOM     19  C   LIG    1       25.039 -22.849   5.984  0.00  0.00    +0.098 C 
ATOM     20  C   LIG    1       26.089 -23.379   6.943  0.00  0.00    +0.042 C 
ENDBRANCH   4  12
BRANCH   1  21
ATOM     21  N   LIG    1       28.399 -18.312   4.621  0.00  0.00    -0.357 N 
ATOM     22  H   LIG    1       28.503 -17.307   4.457  0.00  0.00    +0.142 HD
ATOM     23  H   LIG    1       28.467 -18.853   3.764  0.00  0.00    +0.142 HD
ENDBRANCH   1  21
TORSDOF 2
ENDMDL
MODEL 7
REMARK VINA RESULT:      -7.7      3.197      6.291
REMARK  Name = *****
REMARK                            x       y       z     vdW  Elec       q    Type
REMARK                         _______ _______ _______ _____ _____    ______ ____
ROOT
ATOM      1  C   LIG    1       27.208 -18.931   4.711  0.00  0.00    +0.037 A 
ATOM      2  C   LIG    1       27.825 -19.368   5.872  0.00  0.00    +0.070 A 
ATOM      3  C   LIG    1       29.049 -18.907   6.530  0.00  0.00    +0.256 C 
ATOM      4  N   LIG    1       29.226 -19.689   7.638  0.00  0.00    -0.222 N 
ATOM      5  C   LIG    1       28.227 -20.614   7.760  0.00  0.00    +0.255 C 
ATOM      6  O   LIG    1       28.045 -21.433   8.640  0.00  0.00    -0.270 OA
ATOM      7  O   LIG    1       29.769 -18.022   6.108  0.00  0.00    -0.269 OA
ATOM      8  C   LIG    1       27.333 -20.423   6.621  0.00  0.00    +0.051 A 
ATOM      9  C   LIG    1       26.176 -21.094   6.277  0.00  0.00    +0.014 A 
ATOM     10  C   LIG    1       25.506 -20.653   5.136  0.00  0.00    +0.003 A 
ATOM     11  C   LIG    1       26.006 -19.573   4.376  0.00  0.00    +0.023 A 
ENDROOT
BRANCH   4  12
ATOM     12  C   LIG    1       30.321 -19.567   8.590  0.00  0.00    +0.171 C 
ATOM     13  C   LIG    1       31.602 -19.184   7.849  0.00  0.00    +0.240 C 
ATOM     14  O   LIG    1       32.061 -19.857   6.928  0.00  0.00    -0.273 OA
ATOM     15  N   LIG    1       32.195 -17.999   8.210  0.00  0.00    -0.255 N 
ATOM     16  H   LIG    1       33.034 -17.758   7.699  0.00  0.00    +0.158 HD
ATOM     17  C   LIG    1       31.639 -16.967   8.921  0.00  0.00    +0.219 C 
ATOM     18  O   LIG    1       32.206 -15.879   8.995  0.00  0.00    -0.275 OA
ATOM     19  C   LIG    1       30.287 -17.209   9.546  0.00  0.00    +0.098 C 
ATOM     20  C   LIG    1       30.029 -18.683   9.799  0.00  0.00    +0.042 C 
ENDBRANCH   4  12
BRANCH   1  21
ATOM     21  N   LIG    1       27.602 -17.773   4.037  0.00  0.00    -0.357 N 
ATOM     22  H   LIG    1       27.883 -17.012   4.660  0.00  0.00    +0.142 HD
ATOM     23  H   LIG    1       28.262 -17.919   3.280  0.00  0.00    +0.142 HD
ENDBRANCH   1  21
TORSDOF 2
ENDMDL
MODEL 8
REMARK VINA RESULT:      -7.6      2.008      5.427
REMARK  Name = *****
REMARK                            x       y       z     vdW  Elec       q    Type
REMARK                         _______ _______ _______ _____ _____    ______ ____
ROOT
ATOM      1  C   LIG    1       24.386 -19.175   3.735  0.00  0.00    +0.037 A 
ATOM      2  C   LIG    1       24.462 -19.810   4.963  0.00  0.00    +0.070 A 
ATOM      3  C   LIG    1       25.625 -20.263   5.730  0.00  0.00    +0.256 C 
ATOM      4  N   LIG    1       25.148 -20.849   6.870  0.00  0.00    -0.222 N 
ATOM      5  C   LIG    1       23.782 -20.816   6.914  0.00  0.00    +0.255 C 
ATOM      6  O   LIG    1       23.034 -21.203   7.792  0.00  0.00    -0.270 OA
ATOM      7  O   LIG    1       26.779 -20.160   5.360  0.00  0.00    -0.269 OA
ATOM      8  C   LIG    1       23.336 -20.165   5.685  0.00  0.00    +0.051 A 
ATOM      9  C   LIG    1       22.059 -19.882   5.244  0.00  0.00    +0.014 A 
ATOM     10  C   LIG    1       21.946 -19.205   4.029  0.00  0.00    +0.003 A 
ATOM     11  C   LIG    1       23.097 -18.839   3.297  0.00  0.00    +0.023 A 
ENDROOT
BRANCH   4  12
ATOM     12  C   LIG    1       25.966 -21.431   7.925  0.00  0.00    +0.171 C 
ATOM     13  C   LIG    1       26.903 -22.480   7.325  0.00  0.00    +0.240 C 
ATOM     14  O   LIG    1       26.492 -23.443   6.680  0.00  0.00    -0.273 OA
ATOM     15  N   LIG    1       28.251 -22.265   7.475  0.00  0.00    -0.255 N 
ATOM     16  H   LIG    1       28.852 -22.964   7.060  0.00  0.00    +0.158 HD
ATOM     17  C   LIG    1       28.879 -21.096   7.817  0.00  0.00    +0.219 C 
ATOM     18  O   LIG    1       30.099 -20.985   7.713  0.00  0.00    -0.275 OA
ATOM     19  C   LIG    1       28.006 -19.947   8.261  0.00  0.00    +0.098 C 
ATOM     20  C   LIG    1       26.677 -20.421   8.820  0.00  0.00    +0.042 C 
ENDBRANCH   4  12
BRANCH   1  21
ATOM     21  N   LIG    1       25.509 -18.673   3.074  0.00  0.00    -0.357 N 
ATOM     22  H   LIG    1       25.874 -17.809   3.484  0.00  0.00    +0.142 HD
ATOM     23  H   LIG    1       26.240 -19.352   2.889  0.00  0.00    +0.142 HD
ENDBRANCH   1  21
TORSDOF 2
ENDMDL
MODEL 9
REMARK VINA RESULT:      -7.6      3.156      6.646
REMARK  Name = *****
REMARK                            x       y       z     vdW  Elec       q    Type
REMARK                         _______ _______ _______ _____ _____    ______ ____
ROOT
ATOM      1  C   LIG    1       26.178 -21.263   6.393  0.00  0.00    +0.037 A 
ATOM      2  C   LIG    1       27.342 -20.587   6.719  0.00  0.00    +0.070 A 
ATOM      3  C   LIG    1       28.255 -20.755   7.852  0.00  0.00    +0.256 C 
ATOM      4  N   LIG    1       29.242 -19.819   7.712  0.00  0.00    -0.222 N 
ATOM      5  C   LIG    1       29.054 -19.059   6.591  0.00  0.00    +0.255 C 
ATOM      6  O   LIG    1       29.755 -18.173   6.141  0.00  0.00    -0.270 OA
ATOM      7  O   LIG    1       28.099 -21.560   8.751  0.00  0.00    -0.269 OA
ATOM      8  C   LIG    1       27.827 -19.537   5.959  0.00  0.00    +0.051 A 
ATOM      9  C   LIG    1       27.199 -19.111   4.805  0.00  0.00    +0.014 A 
ATOM     10  C   LIG    1       26.046 -19.797   4.424  0.00  0.00    +0.003 A 
ATOM     11  C   LIG    1       25.555 -20.871   5.198  0.00  0.00    +0.023 A 
ENDROOT
BRANCH   4  12
ATOM     12  C   LIG    1       30.367 -19.639   8.619  0.00  0.00    +0.171 C 
ATOM     13  C   LIG    1       31.594 -19.187   7.827  0.00  0.00    +0.240 C 
ATOM     14  O   LIG    1       32.050 -19.835   6.886  0.00  0.00    -0.273 OA
ATOM     15  N   LIG    1       32.137 -17.972   8.165  0.00  0.00    -0.255 N 
ATOM     16  H   LIG    1       32.940 -17.687   7.621  0.00  0.00    +0.158 HD
ATOM     17  C   LIG    1       31.557 -16.971   8.901  0.00  0.00    +0.219 C 
ATOM     18  O   LIG    1       32.067 -15.855   8.954  0.00  0.00    -0.275 OA
ATOM     19  C   LIG    1       30.246 -17.286   9.581  0.00  0.00    +0.098 C 
ATOM     20  C   LIG    1       30.078 -18.771   9.841  0.00  0.00    +0.042 C 
ENDBRANCH   4  12
BRANCH   1  21
ATOM     21  N   LIG    1       25.765 -22.419   7.059  0.00  0.00    -0.357 N 
ATOM     22  H   LIG    1       26.063 -23.284   6.601  0.00  0.00    +0.142 HD
ATOM     23  H   LIG    1       25.943 -22.427   8.058  0.00  0.00    +0.142 HD
ENDBRANCH   1  21
TORSDOF 2
ENDMDL
