MODEL 1
REMARK VINA RESULT:      -0.5      0.000      0.000
REMARK  Name = *****
REMARK                            x       y       z     vdW  Elec       q    Type
REMARK                         _______ _______ _______ _____ _____    ______ ____
ROOT
ATOM      1  C   LIG    1       22.512 -20.555   4.617  0.00  0.00    +0.135 C 
ATOM      2  C   LIG    1       22.415 -19.167   3.883  0.00  0.00    +0.032 C 
ATOM      3  C   LIG    1       23.860 -18.958   3.290  0.00  0.00    +0.010 C 
ATOM      4  C   LIG    1       24.705 -17.955   4.115  0.00  0.00    +0.024 C 
ATOM      5  C   LIG    1       23.922 -16.667   4.321  0.00  0.00    -0.041 C 
ATOM      6  C   LIG    1       22.671 -16.899   5.017  0.00  0.00    +0.001 C 
ATOM      7  C   LIG    1       24.357 -15.443   3.941  0.00  0.00    -0.040 C 
ATOM      8  C   LIG    1       25.566 -15.307   3.124  0.00  0.00    -0.041 C 
ATOM      9  C   LIG    1       26.113 -14.119   2.820  0.00  0.00    +0.050 C 
ATOM     10  C   LIG    1       25.420 -12.861   3.163  0.00  0.00    +0.157 C 
ATOM     11  C   LIG    1       23.952 -12.953   3.473  0.00  0.00    +0.083 C 
ATOM     12  O   LIG    1       26.011 -11.789   3.054  0.00  0.00    -0.293 OA
ATOM     13  C   LIG    1       26.164 -16.573   2.563  0.00  0.00    +0.036 C 
ATOM     14  C   LIG    1       23.662 -14.157   4.355  0.00  0.00    +0.043 C 
ATOM     15  C   LIG    1       26.124 -17.707   3.571  0.00  0.00    +0.013 C 
ATOM     16  C   LIG    1       24.513 -20.360   3.257  0.00  0.00    +0.009 C 
ATOM     17  C   LIG    1       21.989 -18.039   4.835  0.00  0.00    -0.016 C 
ATOM     18  C   LIG    1       23.473 -21.363   3.742  0.00  0.00    +0.049 C 
ENDROOT
BRANCH   1  20
ATOM     19  C   LIG    1       23.475 -20.363   7.062  0.00  0.00    +0.007 C 
ATOM     20  C   LIG    1       23.040 -20.449   5.957  0.00  0.00    -0.070 C 
ENDBRANCH   1  20
BRANCH   2  21
ATOM     21  C   LIG    1       21.335 -19.111   2.748  0.00  0.00    +0.011 C 
ATOM     22  C   LIG    1       19.955 -18.558   3.077  0.00  0.00    +0.005 C 
ENDBRANCH   2  21
BRANCH   1  23
ATOM     23  O   LIG    1       21.249 -21.207   4.676  0.00  0.00    -0.376 OA
ATOM     24  H   LIG    1       21.427 -22.156   4.800  0.00  0.00    +0.211 HD
ENDBRANCH   1  23
TORSDOF 3
ENDMDL
MODEL 2
REMARK VINA RESULT:       1.3      1.547      6.727
REMARK  Name = *****
REMARK                            x       y       z     vdW  Elec       q    Type
REMARK                         _______ _______ _______ _____ _____    ______ ____
ROOT
ATOM      1  C   LIG    1       26.003 -12.652   3.979  0.00  0.00    +0.135 C 
ATOM      2  C   LIG    1       25.569 -13.899   4.833  0.00  0.00    +0.032 C 
ATOM      3  C   LIG    1       26.329 -15.100   4.151  0.00  0.00    +0.010 C 
ATOM      4  C   LIG    1       25.405 -15.958   3.252  0.00  0.00    +0.024 C 
ATOM      5  C   LIG    1       24.162 -16.367   4.030  0.00  0.00    -0.041 C 
ATOM      6  C   LIG    1       23.413 -15.216   4.497  0.00  0.00    +0.001 C 
ATOM      7  C   LIG    1       23.774 -17.648   4.227  0.00  0.00    -0.040 C 
ATOM      8  C   LIG    1       24.654 -18.756   3.841  0.00  0.00    -0.041 C 
ATOM      9  C   LIG    1       24.277 -20.043   3.899  0.00  0.00    +0.050 C 
ATOM     10  C   LIG    1       22.991 -20.423   4.518  0.00  0.00    +0.157 C 
ATOM     11  C   LIG    1       22.340 -19.411   5.418  0.00  0.00    +0.083 C 
ATOM     12  O   LIG    1       22.571 -21.572   4.395  0.00  0.00    -0.293 OA
ATOM     13  C   LIG    1       26.061 -18.405   3.424  0.00  0.00    +0.036 C 
ATOM     14  C   LIG    1       22.423 -18.020   4.811  0.00  0.00    +0.043 C 
ATOM     15  C   LIG    1       26.097 -17.151   2.569  0.00  0.00    +0.013 C 
ATOM     16  C   LIG    1       27.483 -14.465   3.339  0.00  0.00    +0.009 C 
ATOM     17  C   LIG    1       24.045 -14.087   4.849  0.00  0.00    -0.016 C 
ATOM     18  C   LIG    1       27.449 -12.962   3.589  0.00  0.00    +0.049 C 
ENDROOT
BRANCH   1  20
ATOM     19  C   LIG    1       24.540 -12.328   1.812  0.00  0.00    +0.007 C 
ATOM     20  C   LIG    1       25.202 -12.474   2.791  0.00  0.00    -0.070 C 
ENDBRANCH   1  20
BRANCH   2  21
ATOM     21  C   LIG    1       25.938 -13.800   6.353  0.00  0.00    +0.011 C 
ATOM     22  C   LIG    1       27.406 -13.693   6.745  0.00  0.00    +0.005 C 
ENDBRANCH   2  21
BRANCH   1  23
ATOM     23  O   LIG    1       25.956 -11.451   4.741  0.00  0.00    -0.376 OA
ATOM     24  H   LIG    1       26.760 -10.948   4.526  0.00  0.00    +0.211 HD
ENDBRANCH   1  23
TORSDOF 3
ENDMDL
