MODEL 1
REMARK VINA RESULT:      -5.2      0.000      0.000
REMARK  Name = *****
REMARK                            x       y       z     vdW  Elec       q    Type
REMARK                         _______ _______ _______ _____ _____    ______ ____
ROOT
ATOM      1  C   LIG    1       25.277 -13.943   4.089  0.00  0.00    +0.018 A 
ATOM      2  C   LIG    1       26.086 -13.354   5.065  0.00  0.00    +0.060 A 
ATOM      3  C   LIG    1       27.432 -13.167   4.791  0.00  0.00    +0.159 A 
ATOM      4  C   LIG    1       27.976 -13.555   3.566  0.00  0.00    +0.158 A 
ATOM      5  C   LIG    1       27.175 -14.141   2.592  0.00  0.00    +0.050 A 
ATOM      6  C   LIG    1       25.815 -14.336   2.856  0.00  0.00    +0.015 A 
ENDROOT
BRANCH   1   8
ATOM      7  O   LIG    1       23.325 -15.268   4.322  0.00  0.00    -0.296 OA
ATOM      8  C   LIG    1       23.839 -14.158   4.349  0.00  0.00    +0.258 C 
ENDBRANCH   1   8
BRANCH   3   9
ATOM      9  O   LIG    1       28.231 -12.593   5.737  0.00  0.00    -0.503 OA
ATOM     10  H   LIG    1       29.143 -12.823   5.469  0.00  0.00    +0.292 HD
ENDBRANCH   3   9
BRANCH   4  11
ATOM     11  O   LIG    1       29.311 -13.337   3.369  0.00  0.00    -0.503 OA
ATOM     12  H   LIG    1       29.648 -12.797   4.105  0.00  0.00    +0.292 HD
ENDBRANCH   4  11
TORSDOF 3
ENDMDL
MODEL 2
REMARK VINA RESULT:      -5.1      6.290      7.183
REMARK  Name = *****
REMARK                            x       y       z     vdW  Elec       q    Type
REMARK                         _______ _______ _______ _____ _____    ______ ____
ROOT
ATOM      1  C   LIG    1       23.254 -19.723   5.054  0.00  0.00    +0.018 A 
ATOM      2  C   LIG    1       24.506 -19.599   4.445  0.00  0.00    +0.060 A 
ATOM      3  C   LIG    1       25.595 -20.231   5.026  0.00  0.00    +0.159 A 
ATOM      4  C   LIG    1       25.452 -20.978   6.196  0.00  0.00    +0.158 A 
ATOM      5  C   LIG    1       24.208 -21.104   6.805  0.00  0.00    +0.050 A 
ATOM      6  C   LIG    1       23.101 -20.472   6.230  0.00  0.00    +0.015 A 
ENDROOT
BRANCH   1   8
ATOM      7  O   LIG    1       21.954 -17.845   4.419  0.00  0.00    -0.296 OA
ATOM      8  C   LIG    1       22.073 -19.063   4.462  0.00  0.00    +0.258 C 
ENDBRANCH   1   8
BRANCH   3   9
ATOM      9  O   LIG    1       26.822 -20.117   4.440  0.00  0.00    -0.503 OA
ATOM     10  H   LIG    1       26.680 -20.378   3.508  0.00  0.00    +0.292 HD
ENDBRANCH   3   9
BRANCH   4  11
ATOM     11  O   LIG    1       26.572 -21.572   6.709  0.00  0.00    -0.503 OA
ATOM     12  H   LIG    1       26.584 -21.428   7.671  0.00  0.00    +0.292 HD
ENDBRANCH   4  11
TORSDOF 3
ENDMDL
MODEL 3
REMARK VINA RESULT:      -4.9      7.226      8.592
REMARK  Name = *****
REMARK                            x       y       z     vdW  Elec       q    Type
REMARK                         _______ _______ _______ _____ _____    ______ ____
ROOT
ATOM      1  C   LIG    1       25.621 -20.700   6.148  0.00  0.00    +0.018 A 
ATOM      2  C   LIG    1       25.384 -21.000   4.803  0.00  0.00    +0.060 A 
ATOM      3  C   LIG    1       24.080 -21.227   4.390  0.00  0.00    +0.159 A 
ATOM      4  C   LIG    1       23.020 -21.159   5.294  0.00  0.00    +0.158 A 
ATOM      5  C   LIG    1       23.249 -20.862   6.632  0.00  0.00    +0.050 A 
ATOM      6  C   LIG    1       24.560 -20.630   7.062  0.00  0.00    +0.015 A 
ENDROOT
BRANCH   1   8
ATOM      7  O   LIG    1       27.902 -20.120   5.866  0.00  0.00    -0.296 OA
ATOM      8  C   LIG    1       26.998 -20.453   6.620  0.00  0.00    +0.258 C 
ENDBRANCH   1   8
BRANCH   3   9
ATOM      9  O   LIG    1       23.838 -21.520   3.079  0.00  0.00    -0.503 OA
ATOM     10  H   LIG    1       23.236 -20.814   2.772  0.00  0.00    +0.292 HD
ENDBRANCH   3   9
BRANCH   4  11
ATOM     11  O   LIG    1       21.761 -21.396   4.812  0.00  0.00    -0.503 OA
ATOM     12  H   LIG    1       21.361 -20.544   4.565  0.00  0.00    +0.292 HD
ENDBRANCH   4  11
TORSDOF 3
ENDMDL
MODEL 4
REMARK VINA RESULT:      -4.9      6.557      7.156
REMARK  Name = *****
REMARK                            x       y       z     vdW  Elec       q    Type
REMARK                         _______ _______ _______ _____ _____    ______ ____
ROOT
ATOM      1  C   LIG    1       22.857 -19.065   4.460  0.00  0.00    +0.018 A 
ATOM      2  C   LIG    1       22.731 -19.898   5.574  0.00  0.00    +0.060 A 
ATOM      3  C   LIG    1       23.793 -20.725   5.912  0.00  0.00    +0.159 A 
ATOM      4  C   LIG    1       24.966 -20.729   5.158  0.00  0.00    +0.158 A 
ATOM      5  C   LIG    1       25.097 -19.902   4.048  0.00  0.00    +0.050 A 
ATOM      6  C   LIG    1       24.034 -19.063   3.697  0.00  0.00    +0.015 A 
ENDROOT
BRANCH   1   8
ATOM      7  O   LIG    1       20.742 -18.582   3.504  0.00  0.00    -0.296 OA
ATOM      8  C   LIG    1       21.746 -18.173   4.073  0.00  0.00    +0.258 C 
ENDBRANCH   1   8
BRANCH   3   9
ATOM      9  O   LIG    1       23.680 -21.543   6.998  0.00  0.00    -0.503 OA
ATOM     10  H   LIG    1       24.539 -21.467   7.459  0.00  0.00    +0.292 HD
ENDBRANCH   3   9
BRANCH   4  11
ATOM     11  O   LIG    1       25.969 -21.572   5.553  0.00  0.00    -0.503 OA
ATOM     12  H   LIG    1       25.775 -22.463   5.213  0.00  0.00    +0.292 HD
ENDBRANCH   4  11
TORSDOF 3
ENDMDL
MODEL 5
REMARK VINA RESULT:      -4.8      5.750      6.498
REMARK  Name = *****
REMARK                            x       y       z     vdW  Elec       q    Type
REMARK                         _______ _______ _______ _____ _____    ______ ____
ROOT
ATOM      1  C   LIG    1       23.626 -20.214   5.232  0.00  0.00    +0.018 A 
ATOM      2  C   LIG    1       24.993 -20.492   5.321  0.00  0.00    +0.060 A 
ATOM      3  C   LIG    1       25.878 -19.730   4.573  0.00  0.00    +0.159 A 
ATOM      4  C   LIG    1       25.421 -18.703   3.747  0.00  0.00    +0.158 A 
ATOM      5  C   LIG    1       24.062 -18.422   3.655  0.00  0.00    +0.050 A 
ATOM      6  C   LIG    1       23.159 -19.183   4.404  0.00  0.00    +0.015 A 
ENDROOT
BRANCH   1   8
ATOM      7  O   LIG    1       22.958 -21.571   7.057  0.00  0.00    -0.296 OA
ATOM      8  C   LIG    1       22.656 -21.006   6.014  0.00  0.00    +0.258 C 
ENDBRANCH   1   8
BRANCH   3   9
ATOM      9  O   LIG    1       27.215 -19.993   4.653  0.00  0.00    -0.503 OA
ATOM     10  H   LIG    1       27.631 -19.369   4.026  0.00  0.00    +0.292 HD
ENDBRANCH   3   9
BRANCH   4  11
ATOM     11  O   LIG    1       26.355 -17.996   3.041  0.00  0.00    -0.503 OA
ATOM     12  H   LIG    1       26.294 -18.253   2.105  0.00  0.00    +0.292 HD
ENDBRANCH   4  11
TORSDOF 3
ENDMDL
MODEL 6
REMARK VINA RESULT:      -4.7      6.095      6.854
REMARK  Name = *****
REMARK                            x       y       z     vdW  Elec       q    Type
REMARK                         _______ _______ _______ _____ _____    ______ ____
ROOT
ATOM      1  C   LIG    1       23.394 -20.255   4.856  0.00  0.00    +0.018 A 
ATOM      2  C   LIG    1       24.041 -19.395   3.964  0.00  0.00    +0.060 A 
ATOM      3  C   LIG    1       25.423 -19.299   4.015  0.00  0.00    +0.159 A 
ATOM      4  C   LIG    1       26.161 -20.042   4.936  0.00  0.00    +0.158 A 
ATOM      5  C   LIG    1       25.522 -20.899   5.826  0.00  0.00    +0.050 A 
ATOM      6  C   LIG    1       24.128 -21.006   5.785  0.00  0.00    +0.015 A 
ENDROOT
BRANCH   1   8
ATOM      7  O   LIG    1       21.356 -21.466   4.835  0.00  0.00    -0.296 OA
ATOM      8  C   LIG    1       21.923 -20.381   4.829  0.00  0.00    +0.258 C 
ENDBRANCH   1   8
BRANCH   3   9
ATOM      9  O   LIG    1       26.065 -18.462   3.148  0.00  0.00    -0.503 OA
ATOM     10  H   LIG    1       27.010 -18.698   3.226  0.00  0.00    +0.292 HD
ENDBRANCH   3   9
BRANCH   4  11
ATOM     11  O   LIG    1       27.520 -19.893   4.926  0.00  0.00    -0.503 OA
ATOM     12  H   LIG    1       27.853 -20.160   4.052  0.00  0.00    +0.292 HD
ENDBRANCH   4  11
TORSDOF 3
ENDMDL
MODEL 7
REMARK VINA RESULT:      -4.5      6.701      8.024
REMARK  Name = *****
REMARK                            x       y       z     vdW  Elec       q    Type
REMARK                         _______ _______ _______ _____ _____    ______ ____
ROOT
ATOM      1  C   LIG    1       26.583 -20.445   6.262  0.00  0.00    +0.018 A 
ATOM      2  C   LIG    1       25.453 -20.826   6.992  0.00  0.00    +0.060 A 
ATOM      3  C   LIG    1       24.219 -20.823   6.359  0.00  0.00    +0.159 A 
ATOM      4  C   LIG    1       24.100 -20.450   5.020  0.00  0.00    +0.158 A 
ATOM      5  C   LIG    1       25.221 -20.071   4.290  0.00  0.00    +0.050 A 
ATOM      6  C   LIG    1       26.472 -20.069   4.916  0.00  0.00    +0.015 A 
ENDROOT
BRANCH   1   8
ATOM      7  O   LIG    1       28.952 -20.363   6.265  0.00  0.00    -0.296 OA
ATOM      8  C   LIG    1       27.911 -20.436   6.906  0.00  0.00    +0.258 C 
ENDBRANCH   1   8
BRANCH   3   9
ATOM      9  O   LIG    1       23.109 -21.193   7.062  0.00  0.00    -0.503 OA
ATOM     10  H   LIG    1       23.283 -20.899   7.978  0.00  0.00    +0.292 HD
ENDBRANCH   3   9
BRANCH   4  11
ATOM     11  O   LIG    1       22.850 -20.473   4.465  0.00  0.00    -0.503 OA
ATOM     12  H   LIG    1       22.685 -19.613   4.041  0.00  0.00    +0.292 HD
ENDBRANCH   4  11
TORSDOF 3
ENDMDL
MODEL 8
REMARK VINA RESULT:      -4.5      2.029      2.440
REMARK  Name = *****
REMARK                            x       y       z     vdW  Elec       q    Type
REMARK                         _______ _______ _______ _____ _____    ______ ____
ROOT
ATOM      1  C   LIG    1       25.277 -12.971   2.953  0.00  0.00    +0.018 A 
ATOM      2  C   LIG    1       26.651 -12.720   2.911  0.00  0.00    +0.060 A 
ATOM      3  C   LIG    1       27.525 -13.738   3.263  0.00  0.00    +0.159 A 
ATOM      4  C   LIG    1       27.049 -14.990   3.653  0.00  0.00    +0.158 A 
ATOM      5  C   LIG    1       25.683 -15.244   3.696  0.00  0.00    +0.050 A 
ATOM      6  C   LIG    1       24.790 -14.227   3.343  0.00  0.00    +0.015 A 
ENDROOT
BRANCH   1   8
ATOM      7  O   LIG    1       23.506 -11.453   3.378  0.00  0.00    -0.296 OA
ATOM      8  C   LIG    1       24.319 -11.910   2.584  0.00  0.00    +0.258 C 
ENDBRANCH   1   8
BRANCH   3   9
ATOM      9  O   LIG    1       28.869 -13.504   3.226  0.00  0.00    -0.503 OA
ATOM     10  H   LIG    1       29.222 -14.166   2.599  0.00  0.00    +0.292 HD
ENDBRANCH   3   9
BRANCH   4  11
ATOM     11  O   LIG    1       27.972 -15.943   3.986  0.00  0.00    -0.503 OA
ATOM     12  H   LIG    1       27.502 -16.720   4.332  0.00  0.00    +0.292 HD
ENDBRANCH   4  11
TORSDOF 3
ENDMDL
MODEL 9
REMARK VINA RESULT:      -4.4      5.633      7.181
REMARK  Name = *****
REMARK                            x       y       z     vdW  Elec       q    Type
REMARK                         _______ _______ _______ _____ _____    ______ ____
ROOT
ATOM      1  C   LIG    1       25.029 -18.909   3.836  0.00  0.00    +0.018 A 
ATOM      2  C   LIG    1       25.771 -19.810   4.606  0.00  0.00    +0.060 A 
ATOM      3  C   LIG    1       25.095 -20.686   5.443  0.00  0.00    +0.159 A 
ATOM      4  C   LIG    1       23.702 -20.673   5.520  0.00  0.00    +0.158 A 
ATOM      5  C   LIG    1       22.960 -19.778   4.757  0.00  0.00    +0.050 A 
ATOM      6  C   LIG    1       23.629 -18.890   3.908  0.00  0.00    +0.015 A 
ENDROOT
BRANCH   1   8
ATOM      7  O   LIG    1       26.046 -16.839   3.290  0.00  0.00    -0.296 OA
ATOM      8  C   LIG    1       25.718 -17.963   2.936  0.00  0.00    +0.258 C 
ENDBRANCH   1   8
BRANCH   3   9
ATOM      9  O   LIG    1       25.809 -21.570   6.198  0.00  0.00    -0.503 OA
ATOM     10  H   LIG    1       25.412 -22.442   6.005  0.00  0.00    +0.292 HD
ENDBRANCH   3   9
BRANCH   4  11
ATOM     11  O   LIG    1       23.107 -21.566   6.368  0.00  0.00    -0.503 OA
ATOM     12  H   LIG    1       23.371 -21.350   7.279  0.00  0.00    +0.292 HD
ENDBRANCH   4  11
TORSDOF 3
ENDMDL
