MODEL 1
REMARK VINA RESULT:      -6.5      0.000      0.000
REMARK  Name = *****
REMARK                            x       y       z     vdW  Elec       q    Type
REMARK                         _______ _______ _______ _____ _____    ______ ____
ROOT
ATOM      1  C   LIG    1       24.594 -21.987   5.753  0.00  0.00    +0.128 A 
ATOM      2  N   LIG    1       25.222 -21.600   6.986  0.00  0.00    -0.182 N 
ATOM      3  C   LIG    1       25.903 -22.539   7.791  0.00  0.00    +0.255 A 
ATOM      4  N   LIG    1       26.379 -21.940   8.864  0.00  0.00    -0.197 NA
ATOM      5  C   LIG    1       25.987 -20.652   8.708  0.00  0.00    +0.247 A 
ATOM      6  N   LIG    1       26.018 -23.849   7.454  0.00  0.00    -0.216 NA
ATOM      7  C   LIG    1       25.446 -24.207   6.345  0.00  0.00    +0.045 A 
ATOM      8  C   LIG    1       25.565 -25.654   5.930  0.00  0.00    +0.066 C 
ATOM      9  N   LIG    1       25.298 -20.384   7.604  0.00  0.00    -0.151 NA
ATOM     10  C   LIG    1       24.689 -23.297   5.437  0.00  0.00    +0.067 A 
ENDROOT
BRANCH   1  11
ATOM     11  N   LIG    1       23.912 -21.044   4.919  0.00  0.00    -0.316 N 
BRANCH  11  13
ATOM     12  C   LIG    1       25.736 -19.611   4.034  0.00  0.00    +0.024 C 
ATOM     13  C   LIG    1       24.504 -20.444   3.703  0.00  0.00    +0.103 C 
ENDBRANCH  11  13
BRANCH  11  14
ATOM     14  C   LIG    1       22.528 -20.590   5.180  0.00  0.00    +0.103 C 
ATOM     15  C   LIG    1       22.315 -19.162   4.693  0.00  0.00    +0.024 C 
ENDBRANCH  11  14
ENDBRANCH   1  11
TORSDOF 3
ENDMDL
MODEL 2
REMARK VINA RESULT:      -6.4      4.488      6.534
REMARK  Name = *****
REMARK                            x       y       z     vdW  Elec       q    Type
REMARK                         _______ _______ _______ _____ _____    ______ ____
ROOT
ATOM      1  C   LIG    1       29.411 -19.613   7.956  0.00  0.00    +0.128 A 
ATOM      2  N   LIG    1       30.319 -20.619   8.434  0.00  0.00    -0.182 N 
ATOM      3  C   LIG    1       31.494 -20.274   9.138  0.00  0.00    +0.255 A 
ATOM      4  N   LIG    1       32.156 -21.367   9.458  0.00  0.00    -0.197 NA
ATOM      5  C   LIG    1       31.389 -22.362   8.950  0.00  0.00    +0.247 A 
ATOM      6  N   LIG    1       31.833 -18.988   9.415  0.00  0.00    -0.216 NA
ATOM      7  C   LIG    1       31.021 -18.075   8.979  0.00  0.00    +0.045 A 
ATOM      8  C   LIG    1       31.359 -16.635   9.280  0.00  0.00    +0.066 C 
ATOM      9  N   LIG    1       30.275 -21.980   8.332  0.00  0.00    -0.151 NA
ATOM     10  C   LIG    1       29.768 -18.336   8.211  0.00  0.00    +0.067 A 
ENDROOT
BRANCH   1  11
ATOM     11  N   LIG    1       28.209 -19.948   7.253  0.00  0.00    -0.316 N 
BRANCH  11  13
ATOM     12  C   LIG    1       26.814 -21.752   8.235  0.00  0.00    +0.024 C 
ATOM     13  C   LIG    1       26.928 -20.265   7.921  0.00  0.00    +0.103 C 
ENDBRANCH  11  13
BRANCH  11  14
ATOM     14  C   LIG    1       28.123 -19.988   5.776  0.00  0.00    +0.103 C 
ATOM     15  C   LIG    1       26.674 -19.969   5.308  0.00  0.00    +0.024 C 
ENDBRANCH  11  14
ENDBRANCH   1  11
TORSDOF 3
ENDMDL
MODEL 3
REMARK VINA RESULT:      -6.3      1.828      4.268
REMARK  Name = *****
REMARK                            x       y       z     vdW  Elec       q    Type
REMARK                         _______ _______ _______ _____ _____    ______ ____
ROOT
ATOM      1  C   LIG    1       25.303 -22.744   5.932  0.00  0.00    +0.128 A 
ATOM      2  N   LIG    1       25.018 -21.676   5.014  0.00  0.00    -0.182 N 
ATOM      3  C   LIG    1       25.685 -20.434   5.099  0.00  0.00    +0.255 A 
ATOM      4  N   LIG    1       25.242 -19.627   4.157  0.00  0.00    -0.197 NA
ATOM      5  C   LIG    1       24.314 -20.374   3.511  0.00  0.00    +0.247 A 
ATOM      6  N   LIG    1       26.635 -20.174   6.034  0.00  0.00    -0.216 NA
ATOM      7  C   LIG    1       26.892 -21.132   6.872  0.00  0.00    +0.045 A 
ATOM      8  C   LIG    1       27.953 -20.884   7.917  0.00  0.00    +0.066 C 
ATOM      9  N   LIG    1       24.138 -21.609   3.971  0.00  0.00    -0.151 NA
ATOM     10  C   LIG    1       26.229 -22.469   6.876  0.00  0.00    +0.067 A 
ENDROOT
BRANCH   1  11
ATOM     11  N   LIG    1       24.644 -24.013   5.850  0.00  0.00    -0.316 N 
BRANCH  11  13
ATOM     12  C   LIG    1       26.009 -26.081   5.700  0.00  0.00    +0.024 C 
ATOM     13  C   LIG    1       25.089 -25.113   4.967  0.00  0.00    +0.103 C 
ENDBRANCH  11  13
BRANCH  11  14
ATOM     14  C   LIG    1       23.458 -24.360   6.663  0.00  0.00    +0.103 C 
ATOM     15  C   LIG    1       22.525 -23.166   6.815  0.00  0.00    +0.024 C 
ENDBRANCH  11  14
ENDBRANCH   1  11
TORSDOF 3
ENDMDL
MODEL 4
REMARK VINA RESULT:      -6.3      1.819      4.566
REMARK  Name = *****
REMARK                            x       y       z     vdW  Elec       q    Type
REMARK                         _______ _______ _______ _____ _____    ______ ____
ROOT
ATOM      1  C   LIG    1       25.299 -22.733   5.953  0.00  0.00    +0.128 A 
ATOM      2  N   LIG    1       25.005 -21.671   5.030  0.00  0.00    -0.182 N 
ATOM      3  C   LIG    1       25.667 -20.426   5.106  0.00  0.00    +0.255 A 
ATOM      4  N   LIG    1       25.216 -19.626   4.162  0.00  0.00    -0.197 NA
ATOM      5  C   LIG    1       24.290 -20.381   3.523  0.00  0.00    +0.247 A 
ATOM      6  N   LIG    1       26.620 -20.157   6.036  0.00  0.00    -0.216 NA
ATOM      7  C   LIG    1       26.884 -21.109   6.878  0.00  0.00    +0.045 A 
ATOM      8  C   LIG    1       27.948 -20.851   7.917  0.00  0.00    +0.066 C 
ATOM      9  N   LIG    1       24.121 -21.613   3.991  0.00  0.00    -0.151 NA
ATOM     10  C   LIG    1       26.227 -22.449   6.892  0.00  0.00    +0.067 A 
ENDROOT
BRANCH   1  11
ATOM     11  N   LIG    1       24.646 -24.005   5.879  0.00  0.00    -0.316 N 
BRANCH  11  13
ATOM     12  C   LIG    1       22.508 -23.154   6.812  0.00  0.00    +0.024 C 
ATOM     13  C   LIG    1       23.436 -24.352   6.657  0.00  0.00    +0.103 C 
ENDBRANCH  11  13
BRANCH  11  14
ATOM     14  C   LIG    1       25.105 -25.099   4.995  0.00  0.00    +0.103 C 
ATOM     15  C   LIG    1       26.011 -26.068   5.743  0.00  0.00    +0.024 C 
ENDBRANCH  11  14
ENDBRANCH   1  11
TORSDOF 3
ENDMDL
MODEL 5
REMARK VINA RESULT:      -6.2      1.646      3.883
REMARK  Name = *****
REMARK                            x       y       z     vdW  Elec       q    Type
REMARK                         _______ _______ _______ _____ _____    ______ ____
ROOT
ATOM      1  C   LIG    1       25.005 -22.703   5.573  0.00  0.00    +0.128 A 
ATOM      2  N   LIG    1       25.938 -22.083   6.474  0.00  0.00    -0.182 N 
ATOM      3  C   LIG    1       26.331 -20.737   6.314  0.00  0.00    +0.255 A 
ATOM      4  N   LIG    1       27.194 -20.412   7.255  0.00  0.00    -0.197 NA
ATOM      5  C   LIG    1       27.321 -21.553   7.975  0.00  0.00    +0.247 A 
ATOM      6  N   LIG    1       25.853 -19.945   5.319  0.00  0.00    -0.216 NA
ATOM      7  C   LIG    1       25.016 -20.501   4.498  0.00  0.00    +0.045 A 
ATOM      8  C   LIG    1       24.453 -19.648   3.387  0.00  0.00    +0.066 C 
ATOM      9  N   LIG    1       26.592 -22.585   7.563  0.00  0.00    -0.151 NA
ATOM     10  C   LIG    1       24.555 -21.919   4.571  0.00  0.00    +0.067 A 
ENDROOT
BRANCH   1  11
ATOM     11  N   LIG    1       24.587 -24.063   5.731  0.00  0.00    -0.316 N 
BRANCH  11  13
ATOM     12  C   LIG    1       26.125 -25.999   5.960  0.00  0.00    +0.024 C 
ATOM     13  C   LIG    1       25.219 -25.202   5.029  0.00  0.00    +0.103 C 
ENDBRANCH  11  13
BRANCH  11  14
ATOM     14  C   LIG    1       23.488 -24.471   6.634  0.00  0.00    +0.103 C 
ATOM     15  C   LIG    1       22.492 -23.337   6.836  0.00  0.00    +0.024 C 
ENDBRANCH  11  14
ENDBRANCH   1  11
TORSDOF 3
ENDMDL
MODEL 6
REMARK VINA RESULT:      -6.1      1.719      4.171
REMARK  Name = *****
REMARK                            x       y       z     vdW  Elec       q    Type
REMARK                         _______ _______ _______ _____ _____    ______ ____
ROOT
ATOM      1  C   LIG    1       25.014 -22.639   5.588  0.00  0.00    +0.128 A 
ATOM      2  N   LIG    1       25.975 -22.037   6.470  0.00  0.00    -0.182 N 
ATOM      3  C   LIG    1       26.405 -20.704   6.289  0.00  0.00    +0.255 A 
ATOM      4  N   LIG    1       27.288 -20.393   7.216  0.00  0.00    -0.197 NA
ATOM      5  C   LIG    1       27.391 -21.529   7.948  0.00  0.00    +0.247 A 
ATOM      6  N   LIG    1       25.938 -19.910   5.290  0.00  0.00    -0.216 NA
ATOM      7  C   LIG    1       25.075 -20.452   4.486  0.00  0.00    +0.045 A 
ATOM      8  C   LIG    1       24.523 -19.595   3.372  0.00  0.00    +0.066 C 
ATOM      9  N   LIG    1       26.628 -22.545   7.557  0.00  0.00    -0.151 NA
ATOM     10  C   LIG    1       24.574 -21.854   4.581  0.00  0.00    +0.067 A 
ENDROOT
BRANCH   1  11
ATOM     11  N   LIG    1       24.558 -23.985   5.767  0.00  0.00    -0.316 N 
BRANCH  11  13
ATOM     12  C   LIG    1       22.445 -23.241   6.839  0.00  0.00    +0.024 C 
ATOM     13  C   LIG    1       23.463 -24.365   6.686  0.00  0.00    +0.103 C 
ENDBRANCH  11  13
BRANCH  11  14
ATOM     14  C   LIG    1       25.126 -25.134   5.028  0.00  0.00    +0.103 C 
ATOM     15  C   LIG    1       24.478 -26.443   5.462  0.00  0.00    +0.024 C 
ENDBRANCH  11  14
ENDBRANCH   1  11
TORSDOF 3
ENDMDL
MODEL 7
REMARK VINA RESULT:      -6.0      1.472      2.827
REMARK  Name = *****
REMARK                            x       y       z     vdW  Elec       q    Type
REMARK                         _______ _______ _______ _____ _____    ______ ____
ROOT
ATOM      1  C   LIG    1       25.226 -20.927   5.822  0.00  0.00    +0.128 A 
ATOM      2  N   LIG    1       25.157 -22.316   6.185  0.00  0.00    -0.182 N 
ATOM      3  C   LIG    1       26.152 -22.917   6.986  0.00  0.00    +0.255 A 
ATOM      4  N   LIG    1       25.866 -24.190   7.169  0.00  0.00    -0.197 NA
ATOM      5  C   LIG    1       24.709 -24.355   6.482  0.00  0.00    +0.247 A 
ATOM      6  N   LIG    1       27.220 -22.230   7.469  0.00  0.00    -0.216 NA
ATOM      7  C   LIG    1       27.292 -20.977   7.137  0.00  0.00    +0.045 A 
ATOM      8  C   LIG    1       28.458 -20.178   7.667  0.00  0.00    +0.066 C 
ATOM      9  N   LIG    1       24.231 -23.272   5.878  0.00  0.00    -0.151 NA
ATOM     10  C   LIG    1       26.304 -20.257   6.281  0.00  0.00    +0.067 A 
ENDROOT
BRANCH   1  11
ATOM     11  N   LIG    1       24.217 -20.301   5.021  0.00  0.00    -0.316 N 
BRANCH  11  13
ATOM     12  C   LIG    1       25.302 -18.738   3.426  0.00  0.00    +0.024 C 
ATOM     13  C   LIG    1       24.400 -19.954   3.594  0.00  0.00    +0.103 C 
ENDBRANCH  11  13
BRANCH  11  14
ATOM     14  C   LIG    1       22.874 -19.957   5.538  0.00  0.00    +0.103 C 
ATOM     15  C   LIG    1       22.175 -18.951   4.633  0.00  0.00    +0.024 C 
ENDBRANCH  11  14
ENDBRANCH   1  11
TORSDOF 3
ENDMDL
MODEL 8
REMARK VINA RESULT:      -5.7      1.934      4.278
REMARK  Name = *****
REMARK                            x       y       z     vdW  Elec       q    Type
REMARK                         _______ _______ _______ _____ _____    ______ ____
ROOT
ATOM      1  C   LIG    1       26.438 -21.063   6.190  0.00  0.00    +0.128 A 
ATOM      2  N   LIG    1       25.887 -22.387   6.269  0.00  0.00    -0.182 N 
ATOM      3  C   LIG    1       24.803 -22.783   5.456  0.00  0.00    +0.255 A 
ATOM      4  N   LIG    1       24.481 -24.032   5.723  0.00  0.00    -0.197 NA
ATOM      5  C   LIG    1       25.362 -24.386   6.690  0.00  0.00    +0.247 A 
ATOM      6  N   LIG    1       24.223 -21.953   4.550  0.00  0.00    -0.216 NA
ATOM      7  C   LIG    1       24.711 -20.752   4.480  0.00  0.00    +0.045 A 
ATOM      8  C   LIG    1       24.101 -19.806   3.474  0.00  0.00    +0.066 C 
ATOM      9  N   LIG    1       26.232 -23.450   7.056  0.00  0.00    -0.151 NA
ATOM     10  C   LIG    1       25.840 -20.234   5.307  0.00  0.00    +0.067 A 
ENDROOT
BRANCH   1  11
ATOM     11  N   LIG    1       27.546 -20.651   6.999  0.00  0.00    -0.316 N 
BRANCH  11  13
ATOM     12  C   LIG    1       29.326 -19.092   6.245  0.00  0.00    +0.024 C 
ATOM     13  C   LIG    1       28.933 -20.543   6.496  0.00  0.00    +0.103 C 
ENDBRANCH  11  13
BRANCH  11  14
ATOM     14  C   LIG    1       27.409 -20.269   8.421  0.00  0.00    +0.103 C 
ATOM     15  C   LIG    1       25.984 -20.481   8.914  0.00  0.00    +0.024 C 
ENDBRANCH  11  14
ENDBRANCH   1  11
TORSDOF 3
ENDMDL
MODEL 9
REMARK VINA RESULT:      -5.6      1.752      4.306
REMARK  Name = *****
REMARK                            x       y       z     vdW  Elec       q    Type
REMARK                         _______ _______ _______ _____ _____    ______ ____
ROOT
ATOM      1  C   LIG    1       25.639 -21.083   6.296  0.00  0.00    +0.128 A 
ATOM      2  N   LIG    1       25.384 -22.488   6.461  0.00  0.00    -0.182 N 
ATOM      3  C   LIG    1       24.133 -23.052   6.126  0.00  0.00    +0.255 A 
ATOM      4  N   LIG    1       24.150 -24.345   6.375  0.00  0.00    -0.197 NA
ATOM      5  C   LIG    1       25.398 -24.559   6.857  0.00  0.00    +0.247 A 
ATOM      6  N   LIG    1       23.107 -22.317   5.624  0.00  0.00    -0.216 NA
ATOM      7  C   LIG    1       23.329 -21.046   5.481  0.00  0.00    +0.045 A 
ATOM      8  C   LIG    1       22.216 -20.200   4.912  0.00  0.00    +0.066 C 
ATOM      9  N   LIG    1       26.186 -23.490   6.927  0.00  0.00    -0.151 NA
ATOM     10  C   LIG    1       24.606 -20.354   5.823  0.00  0.00    +0.067 A 
ENDROOT
BRANCH   1  11
ATOM     11  N   LIG    1       26.907 -20.499   6.618  0.00  0.00    -0.316 N 
BRANCH  11  13
ATOM     12  C   LIG    1       26.286 -20.372   9.019  0.00  0.00    +0.024 C 
ATOM     13  C   LIG    1       27.418 -20.358   7.999  0.00  0.00    +0.103 C 
ENDBRANCH  11  13
BRANCH  11  14
ATOM     14  C   LIG    1       27.848 -19.996   5.593  0.00  0.00    +0.103 C 
ATOM     15  C   LIG    1       29.059 -19.332   6.235  0.00  0.00    +0.024 C 
ENDBRANCH  11  14
ENDBRANCH   1  11
TORSDOF 3
ENDMDL
