MODEL 1
REMARK VINA RESULT:      -3.6      0.000      0.000
REMARK  Name = *****
REMARK                            x       y       z     vdW  Elec       q    Type
REMARK                         _______ _______ _______ _____ _____    ______ ____
ROOT
ATOM      1  C   LIG    1       28.553 -17.968   4.448  0.00  0.00    +0.039 C 
ENDROOT
BRANCH   1   5
ATOM      2  C   LIG    1       25.984 -14.525   3.692  0.00  0.00    -0.042 A 
ATOM      3  C   LIG    1       27.105 -14.446   4.535  0.00  0.00    +0.004 A 
ATOM      4  C   LIG    1       27.916 -15.559   4.777  0.00  0.00    +0.004 A 
ATOM      5  C   LIG    1       27.655 -16.789   4.166  0.00  0.00    -0.047 A 
ATOM      6  C   LIG    1       26.546 -16.884   3.324  0.00  0.00    +0.004 A 
ATOM      7  C   LIG    1       25.732 -15.769   3.090  0.00  0.00    +0.004 A 
BRANCH   2   8
ATOM      8  C   LIG    1       25.098 -13.293   3.411  0.00  0.00    -0.010 C 
ATOM      9  C   LIG    1       25.705 -12.370   2.325  0.00  0.00    +0.016 C 
ATOM     10  C   LIG    1       23.711 -13.722   2.855  0.00  0.00    +0.016 C 
BRANCH   8  12
ATOM     11  C   LIG    1       23.658 -11.541   4.719  0.00  0.00    +0.004 C 
ATOM     12  C   LIG    1       24.856 -12.488   4.724  0.00  0.00    +0.007 C 
ENDBRANCH   8  12
ENDBRANCH   2   8
ENDBRANCH   1   5
BRANCH   1  13
ATOM     13  C   LIG    1       27.819 -19.282   4.801  0.00  0.00    +0.004 C 
ATOM     14  C   LIG    1       28.320 -19.879   6.120  0.00  0.00    +0.009 C 
BRANCH  13  15
ATOM     15  C   LIG    1       26.297 -18.998   4.858  0.00  0.00    +0.088 C 
BRANCH  15  16
ATOM     16  N   LIG    1       25.431 -19.983   4.184  0.00  0.00    -0.297 NA
ATOM     17  C   LIG    1       24.948 -21.010   5.143  0.00  0.00    +0.115 C 
ATOM     18  C   LIG    1       23.908 -20.464   6.150  0.00  0.00    +0.130 C 
ATOM     19  C   LIG    1       23.392 -21.567   7.062  0.00  0.00    +0.039 C 
ATOM     20  O   LIG    1       22.782 -19.894   5.462  0.00  0.00    -0.371 OA
ATOM     21  C   LIG    1       23.194 -18.859   4.553  0.00  0.00    +0.130 C 
ATOM     22  C   LIG    1       21.954 -18.357   3.825  0.00  0.00    +0.039 C 
ATOM     23  C   LIG    1       24.235 -19.393   3.544  0.00  0.00    +0.115 C 
ENDBRANCH  15  16
ENDBRANCH  13  15
ENDBRANCH   1  13
TORSDOF 6
ENDMDL
MODEL 2
REMARK VINA RESULT:      -3.2      2.712      7.087
REMARK  Name = *****
REMARK                            x       y       z     vdW  Elec       q    Type
REMARK                         _______ _______ _______ _____ _____    ______ ____
ROOT
ATOM      1  C   LIG    1       23.297 -14.616   4.064  0.00  0.00    +0.039 C 
ENDROOT
BRANCH   1   5
ATOM      2  C   LIG    1       23.361 -18.967   4.362  0.00  0.00    -0.042 A 
ATOM      3  C   LIG    1       24.418 -18.246   3.784  0.00  0.00    +0.004 A 
ATOM      4  C   LIG    1       24.383 -16.851   3.686  0.00  0.00    +0.004 A 
ATOM      5  C   LIG    1       23.301 -16.120   4.185  0.00  0.00    -0.047 A 
ATOM      6  C   LIG    1       22.242 -16.822   4.764  0.00  0.00    +0.004 A 
ATOM      7  C   LIG    1       22.278 -18.219   4.853  0.00  0.00    +0.004 A 
BRANCH   2   8
ATOM      8  C   LIG    1       23.406 -20.505   4.485  0.00  0.00    -0.010 C 
ATOM      9  C   LIG    1       22.018 -21.107   4.818  0.00  0.00    +0.016 C 
ATOM     10  C   LIG    1       23.823 -21.158   3.138  0.00  0.00    +0.016 C 
BRANCH   8  12
ATOM     11  C   LIG    1       23.992 -20.825   7.017  0.00  0.00    +0.004 C 
ATOM     12  C   LIG    1       24.448 -20.933   5.564  0.00  0.00    +0.007 C 
ENDBRANCH   8  12
ENDBRANCH   2   8
ENDBRANCH   1   5
BRANCH   1  13
ATOM     13  C   LIG    1       24.608 -13.997   3.528  0.00  0.00    +0.004 C 
ATOM     14  C   LIG    1       24.419 -13.378   2.139  0.00  0.00    +0.009 C 
BRANCH  13  15
ATOM     15  C   LIG    1       25.110 -12.944   4.546  0.00  0.00    +0.088 C 
BRANCH  15  16
ATOM     16  N   LIG    1       26.225 -13.366   5.414  0.00  0.00    -0.297 NA
ATOM     17  C   LIG    1       26.548 -14.801   5.203  0.00  0.00    +0.115 C 
ATOM     18  C   LIG    1       27.221 -15.081   3.838  0.00  0.00    +0.130 C 
ATOM     19  C   LIG    1       27.598 -16.549   3.700  0.00  0.00    +0.039 C 
ATOM     20  O   LIG    1       28.419 -14.300   3.690  0.00  0.00    -0.371 OA
ATOM     21  C   LIG    1       28.150 -12.896   3.839  0.00  0.00    +0.130 C 
ATOM     22  C   LIG    1       29.475 -12.153   3.731  0.00  0.00    +0.039 C 
ATOM     23  C   LIG    1       27.475 -12.605   5.198  0.00  0.00    +0.115 C 
ENDBRANCH  15  16
ENDBRANCH  13  15
ENDBRANCH   1  13
TORSDOF 6
ENDMDL
MODEL 3
REMARK VINA RESULT:      -2.3      1.369      2.511
REMARK  Name = *****
REMARK                            x       y       z     vdW  Elec       q    Type
REMARK                         _______ _______ _______ _____ _____    ______ ____
ROOT
ATOM      1  C   LIG    1       27.276 -19.963   4.506  0.00  0.00    +0.039 C 
ENDROOT
BRANCH   1   5
ATOM      2  C   LIG    1       26.965 -15.669   3.806  0.00  0.00    -0.042 A 
ATOM      3  C   LIG    1       26.005 -16.573   3.321  0.00  0.00    +0.004 A 
ATOM      4  C   LIG    1       26.120 -17.949   3.545  0.00  0.00    +0.004 A 
ATOM      5  C   LIG    1       27.185 -18.474   4.282  0.00  0.00    -0.047 A 
ATOM      6  C   LIG    1       28.147 -17.589   4.773  0.00  0.00    +0.004 A 
ATOM      7  C   LIG    1       28.031 -16.213   4.540  0.00  0.00    +0.004 A 
BRANCH   2   8
ATOM      8  C   LIG    1       26.830 -14.149   3.574  0.00  0.00    -0.010 C 
ATOM      9  C   LIG    1       28.203 -13.430   3.594  0.00  0.00    +0.016 C 
ATOM     10  C   LIG    1       26.233 -13.852   2.170  0.00  0.00    +0.016 C 
BRANCH   8  12
ATOM     11  C   LIG    1       24.435 -13.297   4.200  0.00  0.00    +0.004 C 
ATOM     12  C   LIG    1       25.880 -13.520   4.638  0.00  0.00    +0.007 C 
ENDBRANCH   8  12
ENDBRANCH   2   8
ENDBRANCH   1   5
BRANCH   1  13
ATOM     13  C   LIG    1       26.757 -20.454   5.876  0.00  0.00    +0.004 C 
ATOM     14  C   LIG    1       27.780 -20.218   6.992  0.00  0.00    +0.009 C 
BRANCH  13  15
ATOM     15  C   LIG    1       25.418 -19.738   6.183  0.00  0.00    +0.088 C 
BRANCH  15  16
ATOM     16  N   LIG    1       24.200 -20.554   6.031  0.00  0.00    -0.297 NA
ATOM     17  C   LIG    1       22.991 -19.693   5.953  0.00  0.00    +0.115 C 
ATOM     18  C   LIG    1       22.887 -18.903   4.627  0.00  0.00    +0.130 C 
ATOM     19  C   LIG    1       21.599 -18.095   4.566  0.00  0.00    +0.039 C 
ATOM     20  O   LIG    1       22.904 -19.795   3.500  0.00  0.00    -0.371 OA
ATOM     21  C   LIG    1       24.082 -20.620   3.504  0.00  0.00    +0.130 C 
ATOM     22  C   LIG    1       23.988 -21.571   2.318  0.00  0.00    +0.039 C 
ATOM     23  C   LIG    1       24.197 -21.411   4.826  0.00  0.00    +0.115 C 
ENDBRANCH  15  16
ENDBRANCH  13  15
ENDBRANCH   1  13
TORSDOF 6
ENDMDL
MODEL 4
REMARK VINA RESULT:      -1.8      2.636      7.169
REMARK  Name = *****
REMARK                            x       y       z     vdW  Elec       q    Type
REMARK                         _______ _______ _______ _____ _____    ______ ____
ROOT
ATOM      1  C   LIG    1       23.330 -15.073   3.368  0.00  0.00    +0.039 C 
ENDROOT
BRANCH   1   5
ATOM      2  C   LIG    1       23.081 -19.233   4.658  0.00  0.00    -0.042 A 
ATOM      3  C   LIG    1       24.245 -18.702   4.077  0.00  0.00    +0.004 A 
ATOM      4  C   LIG    1       24.310 -17.370   3.659  0.00  0.00    +0.004 A 
ATOM      5  C   LIG    1       23.224 -16.506   3.829  0.00  0.00    -0.047 A 
ATOM      6  C   LIG    1       22.060 -17.017   4.406  0.00  0.00    +0.004 A 
ATOM      7  C   LIG    1       21.997 -18.354   4.816  0.00  0.00    +0.004 A 
BRANCH   2   8
ATOM      8  C   LIG    1       23.014 -20.699   5.134  0.00  0.00    -0.010 C 
ATOM      9  C   LIG    1       21.650 -21.358   4.808  0.00  0.00    +0.016 C 
ATOM     10  C   LIG    1       24.073 -21.570   4.402  0.00  0.00    +0.016 C 
BRANCH   8  12
ATOM     11  C   LIG    1       24.751 -21.052   7.061  0.00  0.00    +0.004 C 
ATOM     12  C   LIG    1       23.300 -20.787   6.664  0.00  0.00    +0.007 C 
ENDBRANCH   8  12
ENDBRANCH   2   8
ENDBRANCH   1   5
BRANCH   1  13
ATOM     13  C   LIG    1       23.488 -14.031   4.499  0.00  0.00    +0.004 C 
ATOM     14  C   LIG    1       23.192 -14.634   5.876  0.00  0.00    +0.009 C 
BRANCH  13  15
ATOM     15  C   LIG    1       24.923 -13.450   4.439  0.00  0.00    +0.088 C 
BRANCH  15  16
ATOM     16  N   LIG    1       25.706 -13.789   3.236  0.00  0.00    -0.297 NA
ATOM     17  C   LIG    1       26.873 -12.882   3.090  0.00  0.00    +0.115 C 
ATOM     18  C   LIG    1       27.979 -13.133   4.143  0.00  0.00    +0.130 C 
ATOM     19  C   LIG    1       29.181 -12.230   3.907  0.00  0.00    +0.039 C 
ATOM     20  O   LIG    1       28.431 -14.496   4.093  0.00  0.00    -0.371 OA
ATOM     21  C   LIG    1       27.342 -15.416   4.277  0.00  0.00    +0.130 C 
ATOM     22  C   LIG    1       27.898 -16.828   4.146  0.00  0.00    +0.039 C 
ATOM     23  C   LIG    1       26.231 -15.172   3.231  0.00  0.00    +0.115 C 
ENDBRANCH  15  16
ENDBRANCH  13  15
ENDBRANCH   1  13
TORSDOF 6
ENDMDL
MODEL 5
REMARK VINA RESULT:      -1.3      1.564      2.981
REMARK  Name = *****
REMARK                            x       y       z     vdW  Elec       q    Type
REMARK                         _______ _______ _______ _____ _____    ______ ____
ROOT
ATOM      1  C   LIG    1       26.279 -19.476   3.756  0.00  0.00    +0.039 C 
ENDROOT
BRANCH   1   5
ATOM      2  C   LIG    1       26.574 -15.125   3.664  0.00  0.00    -0.042 A 
ATOM      3  C   LIG    1       25.401 -15.800   3.285  0.00  0.00    +0.004 A 
ATOM      4  C   LIG    1       25.322 -17.195   3.310  0.00  0.00    +0.004 A 
ATOM      5  C   LIG    1       26.401 -17.972   3.739  0.00  0.00    -0.047 A 
ATOM      6  C   LIG    1       27.574 -17.318   4.120  0.00  0.00    +0.004 A 
ATOM      7  C   LIG    1       27.652 -15.920   4.086  0.00  0.00    +0.004 A 
BRANCH   2   8
ATOM      8  C   LIG    1       26.658 -13.584   3.652  0.00  0.00    -0.010 C 
ATOM      9  C   LIG    1       26.127 -12.959   4.966  0.00  0.00    +0.016 C 
ATOM     10  C   LIG    1       28.134 -13.109   3.541  0.00  0.00    +0.016 C 
BRANCH   8  12
ATOM     11  C   LIG    1       24.503 -12.418   2.731  0.00  0.00    +0.004 C 
ATOM     12  C   LIG    1       25.879 -13.007   2.431  0.00  0.00    +0.007 C 
ENDBRANCH   8  12
ENDBRANCH   2   8
ENDBRANCH   1   5
BRANCH   1  13
ATOM     13  C   LIG    1       24.833 -20.016   3.838  0.00  0.00    +0.004 C 
ATOM     14  C   LIG    1       24.426 -20.752   2.558  0.00  0.00    +0.009 C 
BRANCH  13  15
ATOM     15  C   LIG    1       24.722 -20.942   5.075  0.00  0.00    +0.088 C 
BRANCH  15  16
ATOM     16  N   LIG    1       23.622 -20.639   6.010  0.00  0.00    -0.297 NA
ATOM     17  C   LIG    1       23.310 -19.186   6.011  0.00  0.00    +0.115 C 
ATOM     18  C   LIG    1       22.623 -18.708   4.710  0.00  0.00    +0.130 C 
ATOM     19  C   LIG    1       22.259 -17.232   4.789  0.00  0.00    +0.039 C 
ATOM     20  O   LIG    1       21.415 -19.450   4.469  0.00  0.00    -0.371 OA
ATOM     21  C   LIG    1       21.673 -20.863   4.412  0.00  0.00    +0.130 C 
ATOM     22  C   LIG    1       20.338 -21.572   4.218  0.00  0.00    +0.039 C 
ATOM     23  C   LIG    1       22.362 -21.351   5.706  0.00  0.00    +0.115 C 
ENDBRANCH  15  16
ENDBRANCH  13  15
ENDBRANCH   1  13
TORSDOF 6
ENDMDL
MODEL 6
REMARK VINA RESULT:      -1.3      1.399      2.087
REMARK  Name = *****
REMARK                            x       y       z     vdW  Elec       q    Type
REMARK                         _______ _______ _______ _____ _____    ______ ____
ROOT
ATOM      1  C   LIG    1       27.267 -19.794   4.075  0.00  0.00    +0.039 C 
ENDROOT
BRANCH   1   5
ATOM      2  C   LIG    1       27.119 -15.437   3.929  0.00  0.00    -0.042 A 
ATOM      3  C   LIG    1       28.093 -16.124   4.672  0.00  0.00    +0.004 A 
ATOM      4  C   LIG    1       28.125 -17.520   4.719  0.00  0.00    +0.004 A 
ATOM      5  C   LIG    1       27.201 -18.288   4.004  0.00  0.00    -0.047 A 
ATOM      6  C   LIG    1       26.227 -17.621   3.258  0.00  0.00    +0.004 A 
ATOM      7  C   LIG    1       26.194 -16.222   3.221  0.00  0.00    +0.004 A 
BRANCH   2   8
ATOM      8  C   LIG    1       27.093 -13.895   3.863  0.00  0.00    -0.010 C 
ATOM      9  C   LIG    1       26.783 -13.256   5.241  0.00  0.00    +0.016 C 
ATOM     10  C   LIG    1       28.483 -13.333   3.455  0.00  0.00    +0.016 C 
BRANCH   8  12
ATOM     11  C   LIG    1       24.733 -12.882   3.354  0.00  0.00    +0.004 C 
ATOM     12  C   LIG    1       26.055 -13.414   2.805  0.00  0.00    +0.007 C 
ENDBRANCH   8  12
ENDBRANCH   2   8
ENDBRANCH   1   5
BRANCH   1  13
ATOM     13  C   LIG    1       26.635 -20.419   5.340  0.00  0.00    +0.004 C 
ATOM     14  C   LIG    1       27.378 -20.002   6.614  0.00  0.00    +0.009 C 
BRANCH  13  15
ATOM     15  C   LIG    1       25.143 -20.007   5.402  0.00  0.00    +0.088 C 
BRANCH  15  16
ATOM     16  N   LIG    1       24.432 -19.964   4.112  0.00  0.00    -0.297 NA
ATOM     17  C   LIG    1       23.322 -20.952   4.084  0.00  0.00    +0.115 C 
ATOM     18  C   LIG    1       22.135 -20.564   4.996  0.00  0.00    +0.130 C 
ATOM     19  C   LIG    1       20.997 -21.569   4.878  0.00  0.00    +0.039 C 
ATOM     20  O   LIG    1       21.622 -19.269   4.643  0.00  0.00    -0.371 OA
ATOM     21  C   LIG    1       22.650 -18.265   4.701  0.00  0.00    +0.130 C 
ATOM     22  C   LIG    1       22.037 -16.945   4.253  0.00  0.00    +0.039 C 
ATOM     23  C   LIG    1       23.842 -18.645   3.794  0.00  0.00    +0.115 C 
ENDBRANCH  15  16
ENDBRANCH  13  15
ENDBRANCH   1  13
TORSDOF 6
ENDMDL
