MODEL 1
REMARK VINA RESULT:      -8.2      0.000      0.000
REMARK  Name = *****
REMARK                            x       y       z     vdW  Elec       q    Type
REMARK                         _______ _______ _______ _____ _____    ______ ____
ROOT
ATOM      1  C   LIG    1       30.008 -18.705   5.721  0.00  0.00    +0.150 C 
ATOM      2  N   LIG    1       29.346 -19.598   6.644  0.00  0.00    -0.331 N 
ATOM      3  C   LIG    1       28.079 -20.107   6.444  0.00  0.00    +0.069 A 
ATOM      4  C   LIG    1       27.859 -20.931   7.536  0.00  0.00    +0.091 A 
ATOM      5  C   LIG    1       26.643 -21.637   7.637  0.00  0.00    +0.053 A 
ATOM      6  C   LIG    1       25.639 -21.521   6.654  0.00  0.00    +0.032 A 
ATOM      7  C   LIG    1       25.923 -20.662   5.572  0.00  0.00    +0.025 A 
ATOM      8  N   LIG    1       28.948 -20.931   8.373  0.00  0.00    -0.232 NA
ATOM      9  C   LIG    1       27.128 -19.944   5.437  0.00  0.00    +0.030 A 
ATOM     10  C   LIG    1       29.840 -20.131   7.817  0.00  0.00    +0.111 A 
ENDROOT
BRANCH   6  11
ATOM     11  N   LIG    1       24.433 -22.216   6.744  0.00  0.00    -0.328 N 
BRANCH  11  12
ATOM     12  C   LIG    1       24.400 -23.695   6.751  0.00  0.00    +0.121 C 
BRANCH  12  13
ATOM     13  C   LIG    1       25.093 -24.286   5.519  0.00  0.00    +0.127 C 
ATOM     14 CL   LIG    1       26.076 -25.704   5.960  0.00  0.00    -0.124 Cl
ENDBRANCH  12  13
ENDBRANCH  11  12
BRANCH  11  15
ATOM     15  C   LIG    1       23.144 -21.501   6.888  0.00  0.00    +0.121 C 
BRANCH  15  16
ATOM     16  C   LIG    1       22.529 -21.165   5.525  0.00  0.00    +0.127 C 
ATOM     17 CL   LIG    1       22.486 -19.403   5.266  0.00  0.00    -0.124 Cl
ENDBRANCH  15  16
ENDBRANCH  11  15
ENDBRANCH   6  11
BRANCH  10  18
ATOM     18  C   LIG    1       31.202 -19.872   8.375  0.00  0.00    +0.075 C 
BRANCH  18  19
ATOM     19  C   LIG    1       31.486 -18.378   8.585  0.00  0.00    +0.019 C 
BRANCH  19  20
ATOM     20  C   LIG    1       30.378 -17.580   9.281  0.00  0.00    +0.121 C 
BRANCH  20  21
ATOM     21  C   LIG    1       30.507 -17.538  10.791  0.00  0.00    +0.305 C 
ATOM     22  O   LIG    1       30.744 -18.487  11.511  0.00  0.00    -0.251 OA
BRANCH  21  23
ATOM     23  O   LIG    1       30.273 -16.307  11.303  0.00  0.00    -0.481 OA
ATOM     24  H   LIG    1       30.168 -16.287  12.271  0.00  0.00    +0.295 HD
ENDBRANCH  21  23
ENDBRANCH  20  21
ENDBRANCH  19  20
ENDBRANCH  18  19
ENDBRANCH  10  18
TORSDOF 10
ENDMDL
MODEL 2
REMARK VINA RESULT:      -8.1      1.237      2.064
REMARK  Name = *****
REMARK                            x       y       z     vdW  Elec       q    Type
REMARK                         _______ _______ _______ _____ _____    ______ ____
ROOT
ATOM      1  C   LIG    1       30.421 -21.603   8.849  0.00  0.00    +0.150 C 
ATOM      2  N   LIG    1       29.564 -20.935   7.897  0.00  0.00    -0.331 N 
ATOM      3  C   LIG    1       28.235 -21.254   7.704  0.00  0.00    +0.069 A 
ATOM      4  C   LIG    1       27.797 -20.355   6.745  0.00  0.00    +0.091 A 
ATOM      5  C   LIG    1       26.452 -20.393   6.324  0.00  0.00    +0.053 A 
ATOM      6  C   LIG    1       25.540 -21.328   6.853  0.00  0.00    +0.032 A 
ATOM      7  C   LIG    1       26.050 -22.218   7.820  0.00  0.00    +0.025 A 
ATOM      8  N   LIG    1       28.815 -19.516   6.364  0.00  0.00    -0.232 NA
ATOM      9  C   LIG    1       27.387 -22.207   8.268  0.00  0.00    +0.030 A 
ATOM     10  C   LIG    1       29.871 -19.870   7.075  0.00  0.00    +0.111 A 
ENDROOT
BRANCH   6  11
ATOM     11  N   LIG    1       24.207 -21.372   6.443  0.00  0.00    -0.328 N 
BRANCH  11  12
ATOM     12  C   LIG    1       23.175 -22.039   7.266  0.00  0.00    +0.121 C 
BRANCH  12  13
ATOM     13  C   LIG    1       22.608 -23.282   6.572  0.00  0.00    +0.127 C 
ATOM     14 CL   LIG    1       23.788 -24.615   6.588  0.00  0.00    -0.124 Cl
ENDBRANCH  12  13
ENDBRANCH  11  12
BRANCH  11  15
ATOM     15  C   LIG    1       23.766 -20.709   5.194  0.00  0.00    +0.121 C 
BRANCH  15  16
ATOM     16  C   LIG    1       22.594 -19.754   5.445  0.00  0.00    +0.127 C 
ATOM     17 CL   LIG    1       22.595 -18.424   4.260  0.00  0.00    -0.124 Cl
ENDBRANCH  15  16
ENDBRANCH  11  15
ENDBRANCH   6  11
BRANCH  10  18
ATOM     18  C   LIG    1       31.199 -19.187   7.009  0.00  0.00    +0.075 C 
BRANCH  18  19
ATOM     19  C   LIG    1       31.567 -18.471   8.315  0.00  0.00    +0.019 C 
BRANCH  19  20
ATOM     20  C   LIG    1       30.515 -17.499   8.863  0.00  0.00    +0.121 C 
BRANCH  20  21
ATOM     21  C   LIG    1       30.427 -17.478  10.376  0.00  0.00    +0.305 C 
ATOM     22  O   LIG    1       30.149 -16.514  11.059  0.00  0.00    -0.251 OA
BRANCH  21  23
ATOM     23  O   LIG    1       30.749 -18.669  10.935  0.00  0.00    -0.481 OA
ATOM     24  H   LIG    1       31.596 -19.040  10.630  0.00  0.00    +0.295 HD
ENDBRANCH  21  23
ENDBRANCH  20  21
ENDBRANCH  19  20
ENDBRANCH  18  19
ENDBRANCH  10  18
TORSDOF 10
ENDMDL
MODEL 3
REMARK VINA RESULT:      -8.1      1.233      3.042
REMARK  Name = *****
REMARK                            x       y       z     vdW  Elec       q    Type
REMARK                         _______ _______ _______ _____ _____    ______ ____
ROOT
ATOM      1  C   LIG    1       30.416 -21.615   8.847  0.00  0.00    +0.150 C 
ATOM      2  N   LIG    1       29.559 -20.941   7.900  0.00  0.00    -0.331 N 
ATOM      3  C   LIG    1       28.228 -21.255   7.710  0.00  0.00    +0.069 A 
ATOM      4  C   LIG    1       27.791 -20.352   6.755  0.00  0.00    +0.091 A 
ATOM      5  C   LIG    1       26.445 -20.383   6.336  0.00  0.00    +0.053 A 
ATOM      6  C   LIG    1       25.531 -21.317   6.865  0.00  0.00    +0.032 A 
ATOM      7  C   LIG    1       26.040 -22.212   7.828  0.00  0.00    +0.025 A 
ATOM      8  N   LIG    1       28.811 -19.514   6.374  0.00  0.00    -0.232 NA
ATOM      9  C   LIG    1       27.378 -22.206   8.272  0.00  0.00    +0.030 A 
ATOM     10  C   LIG    1       29.867 -19.874   7.080  0.00  0.00    +0.111 A 
ENDROOT
BRANCH   6  11
ATOM     11  N   LIG    1       24.197 -21.356   6.458  0.00  0.00    -0.328 N 
BRANCH  11  12
ATOM     12  C   LIG    1       23.766 -20.741   5.183  0.00  0.00    +0.121 C 
BRANCH  12  13
ATOM     13  C   LIG    1       22.623 -19.742   5.390  0.00  0.00    +0.127 C 
ATOM     14 CL   LIG    1       22.655 -18.470   4.145  0.00  0.00    -0.124 Cl
ENDBRANCH  12  13
ENDBRANCH  11  12
BRANCH  11  15
ATOM     15  C   LIG    1       23.170 -22.058   7.262  0.00  0.00    +0.121 C 
BRANCH  15  16
ATOM     16  C   LIG    1       22.630 -23.294   6.534  0.00  0.00    +0.127 C 
ATOM     17 CL   LIG    1       23.823 -24.617   6.561  0.00  0.00    -0.124 Cl
ENDBRANCH  15  16
ENDBRANCH  11  15
ENDBRANCH   6  11
BRANCH  10  18
ATOM     18  C   LIG    1       31.197 -19.195   7.013  0.00  0.00    +0.075 C 
BRANCH  18  19
ATOM     19  C   LIG    1       31.567 -18.477   8.317  0.00  0.00    +0.019 C 
BRANCH  19  20
ATOM     20  C   LIG    1       30.497 -17.537   8.888  0.00  0.00    +0.121 C 
BRANCH  20  21
ATOM     21  C   LIG    1       30.418 -17.546  10.401  0.00  0.00    +0.305 C 
ATOM     22  O   LIG    1       30.146 -16.594  11.104  0.00  0.00    -0.251 OA
BRANCH  21  23
ATOM     23  O   LIG    1       30.740 -18.747  10.936  0.00  0.00    -0.481 OA
ATOM     24  H   LIG    1       30.956 -19.434  10.280  0.00  0.00    +0.295 HD
ENDBRANCH  21  23
ENDBRANCH  20  21
ENDBRANCH  19  20
ENDBRANCH  18  19
ENDBRANCH  10  18
TORSDOF 10
ENDMDL
MODEL 4
REMARK VINA RESULT:      -8.1      0.317      2.629
REMARK  Name = *****
REMARK                            x       y       z     vdW  Elec       q    Type
REMARK                         _______ _______ _______ _____ _____    ______ ____
ROOT
ATOM      1  C   LIG    1       30.256 -18.876   5.615  0.00  0.00    +0.150 C 
ATOM      2  N   LIG    1       29.496 -19.627   6.586  0.00  0.00    -0.331 N 
ATOM      3  C   LIG    1       28.193 -20.039   6.391  0.00  0.00    +0.069 A 
ATOM      4  C   LIG    1       27.876 -20.748   7.537  0.00  0.00    +0.091 A 
ATOM      5  C   LIG    1       26.599 -21.334   7.659  0.00  0.00    +0.053 A 
ATOM      6  C   LIG    1       25.633 -21.212   6.640  0.00  0.00    +0.032 A 
ATOM      7  C   LIG    1       26.016 -20.474   5.502  0.00  0.00    +0.025 A 
ATOM      8  N   LIG    1       28.941 -20.774   8.404  0.00  0.00    -0.232 NA
ATOM      9  C   LIG    1       27.284 -19.878   5.345  0.00  0.00    +0.030 A 
ATOM     10  C   LIG    1       29.914 -20.104   7.812  0.00  0.00    +0.111 A 
ENDROOT
BRANCH   6  11
ATOM     11  N   LIG    1       24.368 -21.790   6.750  0.00  0.00    -0.328 N 
BRANCH  11  12
ATOM     12  C   LIG    1       23.147 -20.956   6.806  0.00  0.00    +0.121 C 
BRANCH  12  13
ATOM     13  C   LIG    1       22.441 -20.888   5.447  0.00  0.00    +0.127 C 
ATOM     14 CL   LIG    1       22.584 -19.261   4.736  0.00  0.00    -0.124 Cl
ENDBRANCH  12  13
ENDBRANCH  11  12
BRANCH  11  15
ATOM     15  C   LIG    1       24.194 -23.261   6.763  0.00  0.00    +0.121 C 
BRANCH  15  16
ATOM     16  C   LIG    1       24.992 -23.934   5.641  0.00  0.00    +0.127 C 
ATOM     17 CL   LIG    1       26.106 -25.157   6.300  0.00  0.00    -0.124 Cl
ENDBRANCH  15  16
ENDBRANCH  11  15
ENDBRANCH   6  11
BRANCH  10  18
ATOM     18  C   LIG    1       31.281 -19.918   8.388  0.00  0.00    +0.075 C 
BRANCH  18  19
ATOM     19  C   LIG    1       31.612 -18.448   8.679  0.00  0.00    +0.019 C 
BRANCH  19  20
ATOM     20  C   LIG    1       30.444 -17.587   9.175  0.00  0.00    +0.121 C 
BRANCH  20  21
ATOM     21  C   LIG    1       30.409 -17.409  10.680  0.00  0.00    +0.305 C 
ATOM     22  O   LIG    1       30.234 -16.362  11.268  0.00  0.00    -0.251 OA
BRANCH  21  23
ATOM     23  O   LIG    1       30.650 -18.561  11.349  0.00  0.00    -0.481 OA
ATOM     24  H   LIG    1       30.770 -18.450  12.309  0.00  0.00    +0.295 HD
ENDBRANCH  21  23
ENDBRANCH  20  21
ENDBRANCH  19  20
ENDBRANCH  18  19
ENDBRANCH  10  18
TORSDOF 10
ENDMDL
MODEL 5
REMARK VINA RESULT:      -7.6      4.482      7.455
REMARK  Name = *****
REMARK                            x       y       z     vdW  Elec       q    Type
REMARK                         _______ _______ _______ _____ _____    ______ ____
ROOT
ATOM      1  C   LIG    1       24.781 -20.924   4.527  0.00  0.00    +0.150 C 
ATOM      2  N   LIG    1       25.254 -20.876   5.890  0.00  0.00    -0.331 N 
ATOM      3  C   LIG    1       26.517 -20.450   6.250  0.00  0.00    +0.069 A 
ATOM      4  C   LIG    1       26.530 -20.530   7.633  0.00  0.00    +0.091 A 
ATOM      5  C   LIG    1       27.688 -20.142   8.338  0.00  0.00    +0.053 A 
ATOM      6  C   LIG    1       28.837 -19.677   7.668  0.00  0.00    +0.032 A 
ATOM      7  C   LIG    1       28.761 -19.625   6.261  0.00  0.00    +0.025 A 
ATOM      8  N   LIG    1       25.324 -20.985   8.106  0.00  0.00    -0.232 NA
ATOM      9  C   LIG    1       27.620 -20.001   5.524  0.00  0.00    +0.030 A 
ATOM     10  C   LIG    1       24.561 -21.179   7.044  0.00  0.00    +0.111 A 
ENDROOT
BRANCH   6  11
ATOM     11  N   LIG    1       29.987 -19.289   8.357  0.00  0.00    -0.328 N 
BRANCH  11  12
ATOM     12  C   LIG    1       31.178 -20.165   8.415  0.00  0.00    +0.121 C 
BRANCH  12  13
ATOM     13  C   LIG    1       30.885 -21.477   9.150  0.00  0.00    +0.127 C 
ATOM     14 CL   LIG    1       31.947 -22.783   8.570  0.00  0.00    -0.124 Cl
ENDBRANCH  12  13
ENDBRANCH  11  12
BRANCH  11  15
ATOM     15  C   LIG    1       30.078 -17.964   9.013  0.00  0.00    +0.121 C 
BRANCH  15  16
ATOM     16  C   LIG    1       30.930 -18.021  10.285  0.00  0.00    +0.127 C 
ATOM     17 CL   LIG    1       30.987 -16.429  11.083  0.00  0.00    -0.124 Cl
ENDBRANCH  15  16
ENDBRANCH  11  15
ENDBRANCH   6  11
BRANCH  10  18
ATOM     18  C   LIG    1       23.139 -21.635   7.101  0.00  0.00    +0.075 C 
BRANCH  18  19
ATOM     19  C   LIG    1       22.970 -23.112   6.720  0.00  0.00    +0.019 C 
BRANCH  19  20
ATOM     20  C   LIG    1       24.236 -23.973   6.809  0.00  0.00    +0.121 C 
BRANCH  20  21
ATOM     21  C   LIG    1       24.240 -25.157   5.864  0.00  0.00    +0.305 C 
ATOM     22  O   LIG    1       23.898 -26.289   6.140  0.00  0.00    -0.251 OA
BRANCH  21  23
ATOM     23  O   LIG    1       24.730 -24.849   4.639  0.00  0.00    -0.481 OA
ATOM     24  H   LIG    1       24.101 -24.380   4.062  0.00  0.00    +0.295 HD
ENDBRANCH  21  23
ENDBRANCH  20  21
ENDBRANCH  19  20
ENDBRANCH  18  19
ENDBRANCH  10  18
TORSDOF 10
ENDMDL
MODEL 6
REMARK VINA RESULT:      -7.6      4.455      7.789
REMARK  Name = *****
REMARK                            x       y       z     vdW  Elec       q    Type
REMARK                         _______ _______ _______ _____ _____    ______ ____
ROOT
ATOM      1  C   LIG    1       24.724 -20.731   4.570  0.00  0.00    +0.150 C 
ATOM      2  N   LIG    1       25.273 -20.738   5.906  0.00  0.00    -0.331 N 
ATOM      3  C   LIG    1       26.559 -20.340   6.209  0.00  0.00    +0.069 A 
ATOM      4  C   LIG    1       26.649 -20.471   7.586  0.00  0.00    +0.091 A 
ATOM      5  C   LIG    1       27.849 -20.122   8.238  0.00  0.00    +0.053 A 
ATOM      6  C   LIG    1       28.965 -19.646   7.522  0.00  0.00    +0.032 A 
ATOM      7  C   LIG    1       28.812 -19.541   6.125  0.00  0.00    +0.025 A 
ATOM      8  N   LIG    1       25.464 -20.929   8.109  0.00  0.00    -0.232 NA
ATOM      9  C   LIG    1       27.626 -19.878   5.439  0.00  0.00    +0.030 A 
ATOM     10  C   LIG    1       24.641 -21.075   7.086  0.00  0.00    +0.111 A 
ENDROOT
BRANCH   6  11
ATOM     11  N   LIG    1       30.157 -19.296   8.159  0.00  0.00    -0.328 N 
BRANCH  11  12
ATOM     12  C   LIG    1       30.318 -17.979   8.813  0.00  0.00    +0.121 C 
BRANCH  12  13
ATOM     13  C   LIG    1       31.743 -17.773   9.336  0.00  0.00    +0.127 C 
ATOM     14 CL   LIG    1       32.126 -16.040   9.480  0.00  0.00    -0.124 Cl
ENDBRANCH  12  13
ENDBRANCH  11  12
BRANCH  11  15
ATOM     15  C   LIG    1       31.286 -20.249   8.249  0.00  0.00    +0.121 C 
BRANCH  15  16
ATOM     16  C   LIG    1       30.918 -21.485   9.077  0.00  0.00    +0.127 C 
ATOM     17 CL   LIG    1       31.875 -22.899   8.567  0.00  0.00    -0.124 Cl
ENDBRANCH  15  16
ENDBRANCH  11  15
ENDBRANCH   6  11
BRANCH  10  18
ATOM     18  C   LIG    1       23.218 -21.517   7.206  0.00  0.00    +0.075 C 
BRANCH  18  19
ATOM     19  C   LIG    1       23.016 -22.989   6.822  0.00  0.00    +0.019 C 
BRANCH  19  20
ATOM     20  C   LIG    1       24.275 -23.864   6.846  0.00  0.00    +0.121 C 
BRANCH  20  21
ATOM     21  C   LIG    1       24.243 -25.014   5.859  0.00  0.00    +0.305 C 
ATOM     22  O   LIG    1       23.867 -26.143   6.096  0.00  0.00    -0.251 OA
BRANCH  21  23
ATOM     23  O   LIG    1       24.740 -24.676   4.646  0.00  0.00    -0.481 OA
ATOM     24  H   LIG    1       24.442 -25.249   3.916  0.00  0.00    +0.295 HD
ENDBRANCH  21  23
ENDBRANCH  20  21
ENDBRANCH  19  20
ENDBRANCH  18  19
ENDBRANCH  10  18
TORSDOF 10
ENDMDL
MODEL 7
REMARK VINA RESULT:      -6.9      3.638      5.668
REMARK  Name = *****
REMARK                            x       y       z     vdW  Elec       q    Type
REMARK                         _______ _______ _______ _____ _____    ______ ____
ROOT
ATOM      1  C   LIG    1       23.715 -20.958   6.733  0.00  0.00    +0.150 C 
ATOM      2  N   LIG    1       24.778 -21.924   6.877  0.00  0.00    -0.331 N 
ATOM      3  C   LIG    1       24.601 -23.287   6.744  0.00  0.00    +0.069 A 
ATOM      4  C   LIG    1       25.866 -23.822   6.920  0.00  0.00    +0.091 A 
ATOM      5  C   LIG    1       26.048 -25.217   6.825  0.00  0.00    +0.053 A 
ATOM      6  C   LIG    1       24.970 -26.084   6.559  0.00  0.00    +0.032 A 
ATOM      7  C   LIG    1       23.707 -25.477   6.395  0.00  0.00    +0.025 A 
ATOM      8  N   LIG    1       26.786 -22.828   7.151  0.00  0.00    -0.232 NA
ATOM      9  C   LIG    1       23.489 -24.087   6.479  0.00  0.00    +0.030 A 
ATOM     10  C   LIG    1       26.118 -21.690   7.112  0.00  0.00    +0.111 A 
ENDROOT
BRANCH   6  11
ATOM     11  N   LIG    1       25.140 -27.465   6.462  0.00  0.00    -0.328 N 
BRANCH  11  12
ATOM     12  C   LIG    1       25.005 -28.339   7.648  0.00  0.00    +0.121 C 
BRANCH  12  13
ATOM     13  C   LIG    1       26.272 -28.329   8.510  0.00  0.00    +0.127 C 
ATOM     14 CL   LIG    1       26.597 -29.945   9.183  0.00  0.00    -0.124 Cl
ENDBRANCH  12  13
ENDBRANCH  11  12
BRANCH  11  15
ATOM     15  C   LIG    1       25.411 -28.115   5.159  0.00  0.00    +0.121 C 
BRANCH  15  16
ATOM     16  C   LIG    1       24.713 -29.475   5.050  0.00  0.00    +0.127 C 
ATOM     17 CL   LIG    1       25.894 -30.805   5.161  0.00  0.00    -0.124 Cl
ENDBRANCH  15  16
ENDBRANCH  11  15
ENDBRANCH   6  11
BRANCH  10  18
ATOM     18  C   LIG    1       26.741 -20.341   7.271  0.00  0.00    +0.075 C 
BRANCH  18  19
ATOM     19  C   LIG    1       27.994 -20.156   6.405  0.00  0.00    +0.019 C 
BRANCH  19  20
ATOM     20  C   LIG    1       29.335 -20.369   7.117  0.00  0.00    +0.121 C 
BRANCH  20  21
ATOM     21  C   LIG    1       30.405 -19.371   6.723  0.00  0.00    +0.305 C 
ATOM     22  O   LIG    1       30.218 -18.317   6.149  0.00  0.00    -0.251 OA
BRANCH  21  23
ATOM     23  O   LIG    1       31.655 -19.793   7.030  0.00  0.00    -0.481 OA
ATOM     24  H   LIG    1       32.029 -20.433   6.399  0.00  0.00    +0.295 HD
ENDBRANCH  21  23
ENDBRANCH  20  21
ENDBRANCH  19  20
ENDBRANCH  18  19
ENDBRANCH  10  18
TORSDOF 10
ENDMDL
MODEL 8
REMARK VINA RESULT:      -6.9      3.484      5.583
REMARK  Name = *****
REMARK                            x       y       z     vdW  Elec       q    Type
REMARK                         _______ _______ _______ _____ _____    ______ ____
ROOT
ATOM      1  C   LIG    1       23.681 -20.923   6.862  0.00  0.00    +0.150 C 
ATOM      2  N   LIG    1       24.755 -21.882   6.983  0.00  0.00    -0.331 N 
ATOM      3  C   LIG    1       24.594 -23.241   6.803  0.00  0.00    +0.069 A 
ATOM      4  C   LIG    1       25.865 -23.767   6.972  0.00  0.00    +0.091 A 
ATOM      5  C   LIG    1       26.064 -25.156   6.833  0.00  0.00    +0.053 A 
ATOM      6  C   LIG    1       24.997 -26.026   6.530  0.00  0.00    +0.032 A 
ATOM      7  C   LIG    1       23.729 -25.429   6.376  0.00  0.00    +0.025 A 
ATOM      8  N   LIG    1       26.771 -22.771   7.242  0.00  0.00    -0.232 NA
ATOM      9  C   LIG    1       23.494 -24.045   6.504  0.00  0.00    +0.030 A 
ATOM     10  C   LIG    1       26.090 -21.640   7.235  0.00  0.00    +0.111 A 
ENDROOT
BRANCH   6  11
ATOM     11  N   LIG    1       25.184 -27.402   6.389  0.00  0.00    -0.328 N 
BRANCH  11  12
ATOM     12  C   LIG    1       24.424 -28.179   5.386  0.00  0.00    +0.121 C 
BRANCH  12  13
ATOM     13  C   LIG    1       25.007 -29.583   5.191  0.00  0.00    +0.127 C 
ATOM     14 CL   LIG    1       24.025 -30.804   6.036  0.00  0.00    -0.124 Cl
ENDBRANCH  12  13
ENDBRANCH  11  12
BRANCH  11  15
ATOM     15  C   LIG    1       26.187 -28.127   7.202  0.00  0.00    +0.121 C 
BRANCH  15  16
ATOM     16  C   LIG    1       25.584 -28.647   8.511  0.00  0.00    +0.127 C 
ATOM     17 CL   LIG    1       26.670 -28.319   9.885  0.00  0.00    -0.124 Cl
ENDBRANCH  15  16
ENDBRANCH  11  15
ENDBRANCH   6  11
BRANCH  10  18
ATOM     18  C   LIG    1       26.696 -20.290   7.444  0.00  0.00    +0.075 C 
BRANCH  18  19
ATOM     19  C   LIG    1       27.927 -20.046   6.561  0.00  0.00    +0.019 C 
BRANCH  19  20
ATOM     20  C   LIG    1       29.285 -20.314   7.220  0.00  0.00    +0.121 C 
BRANCH  20  21
ATOM     21  C   LIG    1       30.400 -19.418   6.716  0.00  0.00    +0.305 C 
ATOM     22  O   LIG    1       30.262 -18.442   6.009  0.00  0.00    -0.251 OA
BRANCH  21  23
ATOM     23  O   LIG    1       31.627 -19.847   7.095  0.00  0.00    -0.481 OA
ATOM     24  H   LIG    1       31.892 -20.700   6.707  0.00  0.00    +0.295 HD
ENDBRANCH  21  23
ENDBRANCH  20  21
ENDBRANCH  19  20
ENDBRANCH  18  19
ENDBRANCH  10  18
TORSDOF 10
ENDMDL
MODEL 9
REMARK VINA RESULT:      -6.6      5.480      7.793
REMARK  Name = *****
REMARK                            x       y       z     vdW  Elec       q    Type
REMARK                         _______ _______ _______ _____ _____    ______ ____
ROOT
ATOM      1  C   LIG    1       26.246 -22.460   6.824  0.00  0.00    +0.150 C 
ATOM      2  N   LIG    1       25.179 -23.424   6.691  0.00  0.00    -0.331 N 
ATOM      3  C   LIG    1       25.386 -24.778   6.521  0.00  0.00    +0.069 A 
ATOM      4  C   LIG    1       24.113 -25.322   6.479  0.00  0.00    +0.091 A 
ATOM      5  C   LIG    1       23.959 -26.716   6.331  0.00  0.00    +0.053 A 
ATOM      6  C   LIG    1       25.073 -27.572   6.219  0.00  0.00    +0.032 A 
ATOM      7  C   LIG    1       26.340 -26.956   6.263  0.00  0.00    +0.025 A 
ATOM      8  N   LIG    1       23.160 -24.343   6.621  0.00  0.00    -0.232 NA
ATOM      9  C   LIG    1       26.531 -25.567   6.414  0.00  0.00    +0.030 A 
ATOM     10  C   LIG    1       23.819 -23.206   6.758  0.00  0.00    +0.111 A 
ENDROOT
BRANCH   6  11
ATOM     11  N   LIG    1       24.931 -28.952   6.073  0.00  0.00    -0.328 N 
BRANCH  11  12
ATOM     12  C   LIG    1       25.582 -29.676   4.959  0.00  0.00    +0.121 C 
BRANCH  12  13
ATOM     13  C   LIG    1       25.673 -31.181   5.233  0.00  0.00    +0.127 C 
ATOM     14 CL   LIG    1       26.010 -32.082   3.735  0.00  0.00    -0.124 Cl
ENDBRANCH  12  13
ENDBRANCH  11  12
BRANCH  11  15
ATOM     15  C   LIG    1       24.166 -29.753   7.057  0.00  0.00    +0.121 C 
BRANCH  15  16
ATOM     16  C   LIG    1       24.812 -29.709   8.446  0.00  0.00    +0.127 C 
ATOM     17 CL   LIG    1       23.641 -30.172   9.705  0.00  0.00    -0.124 Cl
ENDBRANCH  15  16
ENDBRANCH  11  15
ENDBRANCH   6  11
BRANCH  10  18
ATOM     18  C   LIG    1       23.169 -21.878   6.984  0.00  0.00    +0.075 C 
BRANCH  18  19
ATOM     19  C   LIG    1       22.540 -21.298   5.710  0.00  0.00    +0.019 C 
BRANCH  19  20
ATOM     20  C   LIG    1       23.316 -20.157   5.042  0.00  0.00    +0.121 C 
BRANCH  20  21
ATOM     21  C   LIG    1       24.342 -20.624   4.028  0.00  0.00    +0.305 C 
ATOM     22  O   LIG    1       25.343 -20.021   3.700  0.00  0.00    -0.251 OA
BRANCH  21  23
ATOM     23  O   LIG    1       24.009 -21.803   3.451  0.00  0.00    -0.481 OA
ATOM     24  H   LIG    1       24.437 -22.581   3.851  0.00  0.00    +0.295 HD
ENDBRANCH  21  23
ENDBRANCH  20  21
ENDBRANCH  19  20
ENDBRANCH  18  19
ENDBRANCH  10  18
TORSDOF 10
ENDMDL
