MODEL 1
REMARK VINA RESULT:      -7.7      0.000      0.000
REMARK  Name = *****
REMARK                            x       y       z     vdW  Elec       q    Type
REMARK                         _______ _______ _______ _____ _____    ______ ____
ROOT
ATOM      1  C   LIG    1       30.055 -20.136   7.619  0.00  0.00    +0.152 C 
ENDROOT
BRANCH   1   2
ATOM      2  C   LIG    1       29.339 -20.410   6.250  0.00  0.00    +0.034 C 
BRANCH   2   3
ATOM      3  C   LIG    1       27.967 -19.738   6.074  0.00  0.00    +0.006 C 
BRANCH   3   4
ATOM      4  C   LIG    1       26.709 -20.616   6.399  0.00  0.00    -0.011 C 
BRANCH   4   5
ATOM      5  C   LIG    1       26.217 -20.479   7.859  0.00  0.00    -0.000 C 
ATOM      6  C   LIG    1       25.863 -21.758   8.608  0.00  0.00    +0.004 C 
ENDBRANCH   4   5
BRANCH   4   7
ATOM      7  C   LIG    1       25.627 -20.352   5.312  0.00  0.00    +0.003 C 
BRANCH   7   8
ATOM      8  C   LIG    1       24.401 -21.281   5.252  0.00  0.00    -0.000 C 
BRANCH   8  10
ATOM      9  C   LIG    1       22.578 -19.461   5.145  0.00  0.00    +0.004 C 
ATOM     10  C   LIG    1       23.087 -20.730   5.814  0.00  0.00    -0.003 C 
ENDBRANCH   8  10
ENDBRANCH   7   8
ENDBRANCH   4   7
ENDBRANCH   3   4
ENDBRANCH   2   3
ENDBRANCH   1   2
BRANCH   1  11
ATOM     11  O   LIG    1       29.904 -21.275   8.479  0.00  0.00    -0.212 OA
BRANCH  11  12
ATOM     12  S   LIG    1       31.154 -21.816   9.372  0.00  0.00    +0.208 S 
ATOM     13  O   LIG    1       30.675 -22.348  10.611  0.00  0.00    -0.118 OA
ATOM     14  O   LIG    1       32.245 -20.844   9.340  0.00  0.00    -0.118 OA
BRANCH  12  15
ATOM     15  O   LIG    1       31.728 -23.053   8.516  0.00  0.00    -0.231 OA
ATOM     16  H   LIG    1       32.579 -22.767   8.133  0.00  0.00    +0.247 HD
ENDBRANCH  12  15
ENDBRANCH  11  12
ENDBRANCH   1  11
BRANCH   1  17
ATOM     17  C   LIG    1       29.437 -18.894   8.329  0.00  0.00    +0.037 C 
BRANCH  17  18
ATOM     18  C   LIG    1       30.341 -17.795   8.951  0.00  0.00    -0.015 C 
ATOM     19  C   LIG    1       31.762 -17.793   8.391  0.00  0.00    +0.007 C 
ATOM     20  C   LIG    1       30.390 -17.779  10.476  0.00  0.00    +0.007 C 
ENDBRANCH  17  18
ENDBRANCH   1  17
TORSDOF 12
ENDMDL
MODEL 2
REMARK VINA RESULT:      -7.5      1.242      2.237
REMARK  Name = *****
REMARK                            x       y       z     vdW  Elec       q    Type
REMARK                         _______ _______ _______ _____ _____    ______ ____
ROOT
ATOM      1  C   LIG    1       30.133 -19.617   7.742  0.00  0.00    +0.152 C 
ENDROOT
BRANCH   1   2
ATOM      2  C   LIG    1       29.210 -19.453   6.484  0.00  0.00    +0.034 C 
BRANCH   2   3
ATOM      3  C   LIG    1       28.224 -20.606   6.232  0.00  0.00    +0.006 C 
BRANCH   3   4
ATOM      4  C   LIG    1       26.892 -20.585   7.058  0.00  0.00    -0.011 C 
BRANCH   4   5
ATOM      5  C   LIG    1       25.630 -20.348   6.196  0.00  0.00    -0.000 C 
ATOM      6  C   LIG    1       25.822 -20.185   4.694  0.00  0.00    +0.004 C 
ENDBRANCH   4   5
BRANCH   4   7
ATOM      7  C   LIG    1       26.847 -21.855   7.957  0.00  0.00    +0.003 C 
BRANCH   7   8
ATOM      8  C   LIG    1       25.656 -22.820   7.809  0.00  0.00    -0.000 C 
BRANCH   8  10
ATOM      9  C   LIG    1       25.055 -24.089   5.646  0.00  0.00    +0.004 C 
ATOM     10  C   LIG    1       25.873 -24.055   6.930  0.00  0.00    -0.003 C 
ENDBRANCH   8  10
ENDBRANCH   7   8
ENDBRANCH   4   7
ENDBRANCH   3   4
ENDBRANCH   2   3
ENDBRANCH   1   2
BRANCH   1  11
ATOM     11  O   LIG    1       30.202 -21.001   8.113  0.00  0.00    -0.212 OA
BRANCH  11  12
ATOM     12  S   LIG    1       31.306 -21.520   9.193  0.00  0.00    +0.208 S 
ATOM     13  O   LIG    1       30.649 -22.106  10.321  0.00  0.00    -0.118 OA
ATOM     14  O   LIG    1       32.346 -20.508   9.366  0.00  0.00    -0.118 OA
BRANCH  12  15
ATOM     15  O   LIG    1       32.066 -22.711   8.418  0.00  0.00    -0.231 OA
ATOM     16  H   LIG    1       31.597 -23.539   8.634  0.00  0.00    +0.247 HD
ENDBRANCH  12  15
ENDBRANCH  11  12
ENDBRANCH   1  11
BRANCH   1  17
ATOM     17  C   LIG    1       29.574 -18.807   8.951  0.00  0.00    +0.037 C 
BRANCH  17  18
ATOM     18  C   LIG    1       30.321 -17.558   9.493  0.00  0.00    -0.015 C 
ATOM     19  C   LIG    1       31.696 -17.354   8.858  0.00  0.00    +0.007 C 
ATOM     20  C   LIG    1       30.442 -17.481  11.012  0.00  0.00    +0.007 C 
ENDBRANCH  17  18
ENDBRANCH   1  17
TORSDOF 12
ENDMDL
MODEL 3
REMARK VINA RESULT:      -7.1      2.083      3.603
REMARK  Name = *****
REMARK                            x       y       z     vdW  Elec       q    Type
REMARK                         _______ _______ _______ _____ _____    ______ ____
ROOT
ATOM      1  C   LIG    1       28.690 -21.406   7.641  0.00  0.00    +0.152 C 
ENDROOT
BRANCH   1   2
ATOM      2  C   LIG    1       27.322 -22.106   7.960  0.00  0.00    +0.034 C 
BRANCH   2   3
ATOM      3  C   LIG    1       26.131 -21.159   8.186  0.00  0.00    +0.006 C 
BRANCH   3   4
ATOM      4  C   LIG    1       24.717 -21.700   7.777  0.00  0.00    -0.011 C 
BRANCH   4   5
ATOM      5  C   LIG    1       23.729 -20.591   7.348  0.00  0.00    -0.000 C 
ATOM      6  C   LIG    1       23.391 -20.481   5.867  0.00  0.00    +0.004 C 
ENDBRANCH   4   5
BRANCH   4   7
ATOM      7  C   LIG    1       24.906 -22.850   6.747  0.00  0.00    +0.003 C 
BRANCH   7   8
ATOM      8  C   LIG    1       23.872 -23.990   6.717  0.00  0.00    -0.000 C 
BRANCH   8  10
ATOM      9  C   LIG    1       25.670 -25.837   6.666  0.00  0.00    +0.004 C 
ATOM     10  C   LIG    1       24.336 -25.330   6.138  0.00  0.00    -0.003 C 
ENDBRANCH   8  10
ENDBRANCH   7   8
ENDBRANCH   4   7
ENDBRANCH   3   4
ENDBRANCH   2   3
ENDBRANCH   1   2
BRANCH   1  11
ATOM     11  O   LIG    1       29.509 -21.388   8.819  0.00  0.00    -0.212 OA
BRANCH  11  12
ATOM     12  S   LIG    1       30.932 -20.595   8.832  0.00  0.00    +0.208 S 
ATOM     13  O   LIG    1       30.888 -19.525   9.781  0.00  0.00    -0.118 OA
ATOM     14  O   LIG    1       31.388 -20.369   7.461  0.00  0.00    -0.118 OA
BRANCH  12  15
ATOM     15  O   LIG    1       31.972 -21.687   9.398  0.00  0.00    -0.231 OA
ATOM     16  H   LIG    1       31.962 -22.440   8.778  0.00  0.00    +0.247 HD
ENDBRANCH  12  15
ENDBRANCH  11  12
ENDBRANCH   1  11
BRANCH   1  17
ATOM     17  C   LIG    1       28.465 -19.937   7.171  0.00  0.00    +0.037 C 
BRANCH  17  18
ATOM     18  C   LIG    1       28.388 -19.582   5.661  0.00  0.00    -0.015 C 
ATOM     19  C   LIG    1       29.041 -18.243   5.321  0.00  0.00    +0.007 C 
ATOM     20  C   LIG    1       26.991 -19.642   5.049  0.00  0.00    +0.007 C 
ENDBRANCH  17  18
ENDBRANCH   1  17
TORSDOF 12
ENDMDL
MODEL 4
REMARK VINA RESULT:      -7.1      1.993      2.923
REMARK  Name = *****
REMARK                            x       y       z     vdW  Elec       q    Type
REMARK                         _______ _______ _______ _____ _____    ______ ____
ROOT
ATOM      1  C   LIG    1       28.842 -21.262   7.699  0.00  0.00    +0.152 C 
ENDROOT
BRANCH   1   2
ATOM      2  C   LIG    1       27.523 -22.020   8.084  0.00  0.00    +0.034 C 
BRANCH   2   3
ATOM      3  C   LIG    1       26.234 -21.185   8.007  0.00  0.00    +0.006 C 
BRANCH   3   4
ATOM      4  C   LIG    1       25.139 -21.676   6.998  0.00  0.00    -0.011 C 
BRANCH   4   5
ATOM      5  C   LIG    1       24.810 -23.182   7.123  0.00  0.00    -0.000 C 
ATOM      6  C   LIG    1       25.245 -24.097   5.986  0.00  0.00    +0.004 C 
ENDBRANCH   4   5
BRANCH   4   7
ATOM      7  C   LIG    1       23.913 -20.723   7.096  0.00  0.00    +0.003 C 
BRANCH   7   8
ATOM      8  C   LIG    1       22.822 -20.812   6.013  0.00  0.00    -0.000 C 
BRANCH   8  10
ATOM      9  C   LIG    1       23.614 -19.384   4.017  0.00  0.00    +0.004 C 
ATOM     10  C   LIG    1       22.607 -19.569   5.144  0.00  0.00    -0.003 C 
ENDBRANCH   8  10
ENDBRANCH   7   8
ENDBRANCH   4   7
ENDBRANCH   3   4
ENDBRANCH   2   3
ENDBRANCH   1   2
BRANCH   1  11
ATOM     11  O   LIG    1       29.697 -21.166   8.847  0.00  0.00    -0.212 OA
BRANCH  11  12
ATOM     12  S   LIG    1       31.078 -20.304   8.788  0.00  0.00    +0.208 S 
ATOM     13  O   LIG    1       31.010 -19.208   9.707  0.00  0.00    -0.118 OA
ATOM     14  O   LIG    1       31.476 -20.098   7.397  0.00  0.00    -0.118 OA
BRANCH  12  15
ATOM     15  O   LIG    1       32.190 -21.324   9.350  0.00  0.00    -0.231 OA
ATOM     16  H   LIG    1       31.726 -22.149   9.589  0.00  0.00    +0.247 HD
ENDBRANCH  12  15
ENDBRANCH  11  12
ENDBRANCH   1  11
BRANCH   1  17
ATOM     17  C   LIG    1       28.527 -19.822   7.194  0.00  0.00    +0.037 C 
BRANCH  17  18
ATOM     18  C   LIG    1       28.547 -19.482   5.678  0.00  0.00    -0.015 C 
ATOM     19  C   LIG    1       29.261 -18.168   5.364  0.00  0.00    +0.007 C 
ATOM     20  C   LIG    1       27.187 -19.504   4.988  0.00  0.00    +0.007 C 
ENDBRANCH  17  18
ENDBRANCH   1  17
TORSDOF 12
ENDMDL
MODEL 5
REMARK VINA RESULT:      -7.0      2.083      3.671
REMARK  Name = *****
REMARK                            x       y       z     vdW  Elec       q    Type
REMARK                         _______ _______ _______ _____ _____    ______ ____
ROOT
ATOM      1  C   LIG    1       28.548 -20.016   7.161  0.00  0.00    +0.152 C 
ENDROOT
BRANCH   1   2
ATOM      2  C   LIG    1       28.118 -19.507   5.741  0.00  0.00    +0.034 C 
BRANCH   2   3
ATOM      3  C   LIG    1       27.065 -20.367   5.020  0.00  0.00    +0.006 C 
BRANCH   3   4
ATOM      4  C   LIG    1       25.652 -19.721   4.815  0.00  0.00    -0.011 C 
BRANCH   4   5
ATOM      5  C   LIG    1       25.471 -19.049   3.433  0.00  0.00    -0.000 C 
ATOM      6  C   LIG    1       25.840 -17.576   3.311  0.00  0.00    +0.004 C 
ENDBRANCH   4   5
BRANCH   4   7
ATOM      7  C   LIG    1       24.568 -20.775   5.182  0.00  0.00    +0.003 C 
BRANCH   7   8
ATOM      8  C   LIG    1       23.251 -20.288   5.814  0.00  0.00    -0.000 C 
BRANCH   8  10
ATOM      9  C   LIG    1       22.130 -18.329   4.567  0.00  0.00    +0.004 C 
ATOM     10  C   LIG    1       22.153 -19.824   4.853  0.00  0.00    -0.003 C 
ENDBRANCH   8  10
ENDBRANCH   7   8
ENDBRANCH   4   7
ENDBRANCH   3   4
ENDBRANCH   2   3
ENDBRANCH   1   2
BRANCH   1  11
ATOM     11  O   LIG    1       29.977 -19.978   7.276  0.00  0.00    -0.212 OA
BRANCH  11  12
ATOM     12  S   LIG    1       30.690 -19.387   8.616  0.00  0.00    +0.208 S 
ATOM     13  O   LIG    1       29.752 -18.610   9.367  0.00  0.00    -0.118 OA
ATOM     14  O   LIG    1       32.012 -18.860   8.284  0.00  0.00    -0.118 OA
BRANCH  12  15
ATOM     15  O   LIG    1       31.017 -20.703   9.486  0.00  0.00    -0.231 OA
ATOM     16  H   LIG    1       31.368 -20.398  10.344  0.00  0.00    +0.247 HD
ENDBRANCH  12  15
ENDBRANCH  11  12
ENDBRANCH   1  11
BRANCH   1  17
ATOM     17  C   LIG    1       28.071 -21.482   7.393  0.00  0.00    +0.037 C 
BRANCH  17  18
ATOM     18  C   LIG    1       26.823 -21.790   8.266  0.00  0.00    -0.015 C 
ATOM     19  C   LIG    1       25.963 -22.924   7.711  0.00  0.00    +0.007 C 
ATOM     20  C   LIG    1       25.941 -20.588   8.588  0.00  0.00    +0.007 C 
ENDBRANCH  17  18
ENDBRANCH   1  17
TORSDOF 12
ENDMDL
MODEL 6
REMARK VINA RESULT:      -7.0      3.691      6.869
REMARK  Name = *****
REMARK                            x       y       z     vdW  Elec       q    Type
REMARK                         _______ _______ _______ _____ _____    ______ ____
ROOT
ATOM      1  C   LIG    1       24.945 -22.116   7.448  0.00  0.00    +0.152 C 
ENDROOT
BRANCH   1   2
ATOM      2  C   LIG    1       26.305 -21.810   8.168  0.00  0.00    +0.034 C 
BRANCH   2   3
ATOM      3  C   LIG    1       26.876 -20.401   7.932  0.00  0.00    +0.006 C 
BRANCH   3   4
ATOM      4  C   LIG    1       28.297 -20.319   7.274  0.00  0.00    -0.011 C 
BRANCH   4   5
ATOM      5  C   LIG    1       28.269 -19.882   5.790  0.00  0.00    -0.000 C 
ATOM      6  C   LIG    1       28.978 -18.586   5.423  0.00  0.00    +0.004 C 
ENDBRANCH   4   5
BRANCH   4   7
ATOM      7  C   LIG    1       29.221 -19.471   8.194  0.00  0.00    +0.003 C 
BRANCH   7   8
ATOM      8  C   LIG    1       30.714 -19.837   8.276  0.00  0.00    -0.000 C 
BRANCH   8  10
ATOM      9  C   LIG    1       31.009 -17.420   9.125  0.00  0.00    +0.004 C 
ATOM     10  C   LIG    1       31.663 -18.757   8.805  0.00  0.00    -0.003 C 
ENDBRANCH   8  10
ENDBRANCH   7   8
ENDBRANCH   4   7
ENDBRANCH   3   4
ENDBRANCH   2   3
ENDBRANCH   1   2
BRANCH   1  11
ATOM     11  O   LIG    1       25.183 -22.934   6.294  0.00  0.00    -0.212 OA
BRANCH  11  12
ATOM     12  S   LIG    1       24.661 -24.477   6.244  0.00  0.00    +0.208 S 
ATOM     13  O   LIG    1       23.296 -24.545   6.668  0.00  0.00    -0.118 OA
ATOM     14  O   LIG    1       25.674 -25.362   6.814  0.00  0.00    -0.118 OA
BRANCH  12  15
ATOM     15  O   LIG    1       24.687 -24.837   4.674  0.00  0.00    -0.231 OA
ATOM     16  H   LIG    1       25.600 -24.691   4.362  0.00  0.00    +0.247 HD
ENDBRANCH  12  15
ENDBRANCH  11  12
ENDBRANCH   1  11
BRANCH   1  17
ATOM     17  C   LIG    1       24.253 -20.798   6.986  0.00  0.00    +0.037 C 
BRANCH  17  18
ATOM     18  C   LIG    1       23.803 -20.602   5.512  0.00  0.00    -0.015 C 
ATOM     19  C   LIG    1       24.931 -20.131   4.594  0.00  0.00    +0.007 C 
ATOM     20  C   LIG    1       22.579 -19.714   5.318  0.00  0.00    +0.007 C 
ENDBRANCH  17  18
ENDBRANCH   1  17
TORSDOF 12
ENDMDL
MODEL 7
REMARK VINA RESULT:      -6.7      3.730      5.916
REMARK  Name = *****
REMARK                            x       y       z     vdW  Elec       q    Type
REMARK                         _______ _______ _______ _____ _____    ______ ____
ROOT
ATOM      1  C   LIG    1       26.415 -21.284   6.976  0.00  0.00    +0.152 C 
ENDROOT
BRANCH   1   2
ATOM      2  C   LIG    1       26.187 -22.722   7.559  0.00  0.00    +0.034 C 
BRANCH   2   3
ATOM      3  C   LIG    1       26.046 -23.845   6.517  0.00  0.00    +0.006 C 
BRANCH   3   4
ATOM      4  C   LIG    1       25.071 -25.019   6.876  0.00  0.00    -0.011 C 
BRANCH   4   5
ATOM      5  C   LIG    1       23.653 -24.852   6.282  0.00  0.00    -0.000 C 
ATOM      6  C   LIG    1       22.814 -23.680   6.775  0.00  0.00    +0.004 C 
ENDBRANCH   4   5
BRANCH   4   7
ATOM      7  C   LIG    1       25.773 -26.366   6.538  0.00  0.00    +0.003 C 
BRANCH   7   8
ATOM      8  C   LIG    1       25.085 -27.328   5.553  0.00  0.00    -0.000 C 
BRANCH   8  10
ATOM      9  C   LIG    1       24.960 -29.090   7.432  0.00  0.00    +0.004 C 
ATOM     10  C   LIG    1       24.347 -28.526   6.158  0.00  0.00    -0.003 C 
ENDBRANCH   8  10
ENDBRANCH   7   8
ENDBRANCH   4   7
ENDBRANCH   3   4
ENDBRANCH   2   3
ENDBRANCH   1   2
BRANCH   1  11
ATOM     11  O   LIG    1       27.246 -20.528   7.868  0.00  0.00    -0.212 OA
BRANCH  11  12
ATOM     12  S   LIG    1       28.733 -20.043   7.412  0.00  0.00    +0.208 S 
ATOM     13  O   LIG    1       29.406 -19.425   8.515  0.00  0.00    -0.118 OA
ATOM     14  O   LIG    1       28.664 -19.387   6.108  0.00  0.00    -0.118 OA
BRANCH  12  15
ATOM     15  O   LIG    1       29.505 -21.422   7.100  0.00  0.00    -0.231 OA
ATOM     16  H   LIG    1       29.913 -21.327   6.218  0.00  0.00    +0.247 HD
ENDBRANCH  12  15
ENDBRANCH  11  12
ENDBRANCH   1  11
BRANCH   1  17
ATOM     17  C   LIG    1       25.060 -20.533   6.804  0.00  0.00    +0.037 C 
BRANCH  17  18
ATOM     18  C   LIG    1       24.276 -20.592   5.465  0.00  0.00    -0.015 C 
ATOM     19  C   LIG    1       25.030 -19.961   4.295  0.00  0.00    +0.007 C 
ATOM     20  C   LIG    1       22.855 -20.038   5.518  0.00  0.00    +0.007 C 
ENDBRANCH  17  18
ENDBRANCH   1  17
TORSDOF 12
ENDMDL
MODEL 8
REMARK VINA RESULT:      -6.7      3.769      6.807
REMARK  Name = *****
REMARK                            x       y       z     vdW  Elec       q    Type
REMARK                         _______ _______ _______ _____ _____    ______ ____
ROOT
ATOM      1  C   LIG    1       25.336 -22.075   6.989  0.00  0.00    +0.152 C 
ENDROOT
BRANCH   1   2
ATOM      2  C   LIG    1       26.873 -21.897   7.251  0.00  0.00    +0.034 C 
BRANCH   2   3
ATOM      3  C   LIG    1       27.362 -20.443   7.357  0.00  0.00    +0.006 C 
BRANCH   3   4
ATOM      4  C   LIG    1       28.802 -20.227   7.939  0.00  0.00    -0.011 C 
BRANCH   4   5
ATOM      5  C   LIG    1       29.661 -21.513   7.962  0.00  0.00    -0.000 C 
ATOM      6  C   LIG    1       30.780 -21.595   8.992  0.00  0.00    +0.004 C 
ENDBRANCH   4   5
BRANCH   4   7
ATOM      7  C   LIG    1       29.451 -19.013   7.214  0.00  0.00    +0.003 C 
BRANCH   7   8
ATOM      8  C   LIG    1       30.525 -18.199   7.959  0.00  0.00    -0.000 C 
BRANCH   8  10
ATOM      9  C   LIG    1       30.768 -17.942  10.513  0.00  0.00    +0.004 C 
ATOM     10  C   LIG    1       30.084 -17.476   9.235  0.00  0.00    -0.003 C 
ENDBRANCH   8  10
ENDBRANCH   7   8
ENDBRANCH   4   7
ENDBRANCH   3   4
ENDBRANCH   2   3
ENDBRANCH   1   2
BRANCH   1  11
ATOM     11  O   LIG    1       25.135 -22.983   5.896  0.00  0.00    -0.212 OA
BRANCH  11  12
ATOM     12  S   LIG    1       24.670 -24.521   6.166  0.00  0.00    +0.208 S 
ATOM     13  O   LIG    1       23.323 -24.546   6.650  0.00  0.00    -0.118 OA
ATOM     14  O   LIG    1       25.733 -25.249   6.855  0.00  0.00    -0.118 OA
BRANCH  12  15
ATOM     15  O   LIG    1       24.655 -25.178   4.695  0.00  0.00    -0.231 OA
ATOM     16  H   LIG    1       23.757 -25.054   4.335  0.00  0.00    +0.247 HD
ENDBRANCH  12  15
ENDBRANCH  11  12
ENDBRANCH   1  11
BRANCH   1  17
ATOM     17  C   LIG    1       24.674 -20.711   6.628  0.00  0.00    +0.037 C 
BRANCH  17  18
ATOM     18  C   LIG    1       23.959 -20.504   5.264  0.00  0.00    -0.015 C 
ATOM     19  C   LIG    1       24.863 -19.888   4.196  0.00  0.00    +0.007 C 
ATOM     20  C   LIG    1       22.644 -19.733   5.329  0.00  0.00    +0.007 C 
ENDBRANCH  17  18
ENDBRANCH   1  17
TORSDOF 12
ENDMDL
MODEL 9
REMARK VINA RESULT:      -6.6      4.033      7.019
REMARK  Name = *****
REMARK                            x       y       z     vdW  Elec       q    Type
REMARK                         _______ _______ _______ _____ _____    ______ ____
ROOT
ATOM      1  C   LIG    1       25.295 -20.674   6.002  0.00  0.00    +0.152 C 
ENDROOT
BRANCH   1   2
ATOM      2  C   LIG    1       26.453 -20.667   7.060  0.00  0.00    +0.034 C 
BRANCH   2   3
ATOM      3  C   LIG    1       27.770 -20.022   6.594  0.00  0.00    +0.006 C 
BRANCH   3   4
ATOM      4  C   LIG    1       28.947 -20.002   7.631  0.00  0.00    -0.011 C 
BRANCH   4   5
ATOM      5  C   LIG    1       29.460 -21.410   8.014  0.00  0.00    -0.000 C 
ATOM      6  C   LIG    1       30.755 -21.496   8.812  0.00  0.00    +0.004 C 
ENDBRANCH   4   5
BRANCH   4   7
ATOM      7  C   LIG    1       30.038 -19.018   7.121  0.00  0.00    +0.003 C 
BRANCH   7   8
ATOM      8  C   LIG    1       30.741 -18.104   8.141  0.00  0.00    -0.000 C 
BRANCH   8  10
ATOM      9  C   LIG    1       30.701 -16.886  10.414  0.00  0.00    +0.004 C 
ATOM     10  C   LIG    1       30.010 -17.855   9.465  0.00  0.00    -0.003 C 
ENDBRANCH   8  10
ENDBRANCH   7   8
ENDBRANCH   4   7
ENDBRANCH   3   4
ENDBRANCH   2   3
ENDBRANCH   1   2
BRANCH   1  11
ATOM     11  O   LIG    1       24.738 -21.992   5.904  0.00  0.00    -0.212 OA
BRANCH  11  12
ATOM     12  S   LIG    1       23.345 -22.367   6.660  0.00  0.00    +0.208 S 
ATOM     13  O   LIG    1       23.133 -21.480   7.763  0.00  0.00    -0.118 OA
ATOM     14  O   LIG    1       23.244 -23.815   6.826  0.00  0.00    -0.118 OA
BRANCH  12  15
ATOM     15  O   LIG    1       22.213 -22.035   5.563  0.00  0.00    -0.231 OA
ATOM     16  H   LIG    1       22.636 -21.489   4.873  0.00  0.00    +0.247 HD
ENDBRANCH  12  15
ENDBRANCH  11  12
ENDBRANCH   1  11
BRANCH   1  17
ATOM     17  C   LIG    1       25.823 -20.253   4.597  0.00  0.00    +0.037 C 
BRANCH  17  18
ATOM     18  C   LIG    1       24.973 -19.356   3.656  0.00  0.00    -0.015 C 
ATOM     19  C   LIG    1       25.626 -18.008   3.354  0.00  0.00    +0.007 C 
ATOM     20  C   LIG    1       23.528 -19.139   4.095  0.00  0.00    +0.007 C 
ENDBRANCH  17  18
ENDBRANCH   1  17
TORSDOF 12
ENDMDL
