MODEL 1
REMARK VINA RESULT:       4.7      0.000      0.000
REMARK  Name = *****
REMARK                            x       y       z     vdW  Elec       q    Type
REMARK                         _______ _______ _______ _____ _____    ______ ____
ROOT
ATOM      1  C   LIG    1       25.014 -28.287  12.082  0.00  0.00    +0.186 C 
ATOM      2  O   LIG    1       25.330 -27.791  10.771  0.00  0.00    -0.459 OA
ATOM      3  C   LIG    1       26.434 -28.320  10.168  0.00  0.00    +0.328 C 
ATOM      4  O   LIG    1       27.165 -29.145  10.671  0.00  0.00    -0.249 OA
ATOM      5  C   LIG    1       26.624 -27.757   8.748  0.00  0.00    +0.185 C 
ATOM      6  N   LIG    1       25.991 -28.498   7.622  0.00  0.00    -0.281 N 
ATOM      7  C   LIG    1       25.925 -27.770   6.346  0.00  0.00    +0.109 C 
ATOM      8  C   LIG    1       25.452 -26.328   6.449  0.00  0.00    +0.019 C 
ATOM      9  C   LIG    1       26.292 -25.567   7.457  0.00  0.00    +0.004 C 
ATOM     10  C   LIG    1       26.175 -29.893   7.414  0.00  0.00    +0.288 C 
ATOM     11  O   LIG    1       26.148 -30.405   6.294  0.00  0.00    -0.267 OA
ATOM     12  C   LIG    1       26.423 -30.855   8.560  0.00  0.00    +0.276 C 
ATOM     13  O   LIG    1       27.587 -31.145   8.829  0.00  0.00    -0.281 OA
ATOM     14  C   LIG    1       25.163 -31.537   9.175  0.00  0.00    +0.240 C 
ATOM     15  O   LIG    1       25.194 -31.426  10.629  0.00  0.00    -0.339 OA
ATOM     16  C   LIG    1       25.621 -32.621  11.289  0.00  0.00    +0.125 C 
ATOM     17  C   LIG    1       24.564 -33.700  11.091  0.00  0.00    +0.032 C 
ATOM     18  C   LIG    1       24.167 -33.824   9.615  0.00  0.00    +0.011 C 
ATOM     19  C   LIG    1       26.139 -32.439  12.734  0.00  0.00    +0.067 C 
ATOM     20  C   LIG    1       25.432 -31.694  13.909  0.00  0.00    +0.146 C 
ATOM     21  C   LIG    1       24.209 -32.314  14.573  0.00  0.00    -0.044 C 
ATOM     22  C   LIG    1       24.221 -33.821  14.687  0.00  0.00    +0.041 C 
ATOM     23  C   LIG    1       23.207 -31.650  15.201  0.00  0.00    +0.001 C 
ATOM     24  C   LIG    1       22.965 -30.225  15.418  0.00  0.00    +0.000 C 
ATOM     25  C   LIG    1       21.802 -29.706  14.992  0.00  0.00    -0.000 C 
ATOM     26  C   LIG    1       21.178 -28.395  15.109  0.00  0.00    -0.004 C 
ATOM     27  C   LIG    1       20.124 -28.108  14.313  0.00  0.00    -0.024 C 
ATOM     28  C   LIG    1       19.160 -26.947  14.320  0.00  0.00    +0.009 C 
ATOM     29  C   LIG    1       19.486 -25.996  13.162  0.00  0.00    +0.012 C 
ATOM     30  C   LIG    1       17.655 -27.362  14.173  0.00  0.00    +0.018 C 
ATOM     31  C   LIG    1       17.248 -28.671  14.872  0.00  0.00    +0.056 C 
ATOM     32  C   LIG    1       15.852 -28.579  15.500  0.00  0.00    +0.015 C 
ATOM     33  C   LIG    1       17.213 -29.861  13.893  0.00  0.00    +0.167 C 
ATOM     34  O   LIG    1       16.411 -29.863  12.947  0.00  0.00    -0.294 OA
ATOM     35  C   LIG    1       18.177 -31.064  14.070  0.00  0.00    +0.216 C 
ATOM     36  C   LIG    1       18.909 -31.186  12.657  0.00  0.00    +0.176 C 
ATOM     37  C   LIG    1       20.337 -31.725  12.525  0.00  0.00    -0.045 C 
ATOM     38  C   LIG    1       20.552 -33.102  13.111  0.00  0.00    +0.041 C 
ATOM     39  C   LIG    1       21.365 -31.102  11.878  0.00  0.00    -0.015 C 
ATOM     40  C   LIG    1       21.363 -29.771  11.142  0.00  0.00    +0.075 C 
ATOM     41  C   LIG    1       20.706 -29.971   9.769  0.00  0.00    +0.019 C 
ATOM     42  C   LIG    1       22.763 -29.090  10.957  0.00  0.00    +0.143 C 
ATOM     43  O   LIG    1       23.202 -28.857   9.825  0.00  0.00    -0.297 OA
ATOM     44  C   LIG    1       25.114 -33.029   8.697  0.00  0.00    +0.054 C 
ATOM     45  C   LIG    1       24.688 -33.208   7.234  0.00  0.00    +0.013 C 
ATOM     46  C   LIG    1       26.175 -26.272   8.792  0.00  0.00    +0.034 C 
ATOM     47  C   LIG    1       23.488 -28.551  12.189  0.00  0.00    +0.119 C 
ENDROOT
BRANCH   1  48
ATOM     48  C   LIG    1       25.539 -27.231  13.118  0.00  0.00    +0.027 C 
ATOM     49  C   LIG    1       25.414 -27.719  14.558  0.00  0.00    +0.011 C 
BRANCH  48  50
ATOM     50  C   LIG    1       27.004 -26.795  12.818  0.00  0.00    +0.010 C 
BRANCH  50  55
ATOM     51  C   LIG    1       25.023 -24.347  13.686  0.00  0.00    +0.147 C 
ATOM     52  C   LIG    1       25.597 -24.060  15.092  0.00  0.00    +0.143 C 
ATOM     53  C   LIG    1       26.785 -24.959  15.438  0.00  0.00    +0.034 C 
ATOM     54  C   LIG    1       27.875 -24.925  14.368  0.00  0.00    +0.006 C 
ATOM     55  C   LIG    1       27.348 -25.292  12.972  0.00  0.00    -0.008 C 
ATOM     56  C   LIG    1       26.140 -24.384  12.620  0.00  0.00    +0.037 C 
BRANCH  51  58
ATOM     57  C   LIG    1       23.039 -25.572  14.257  0.00  0.00    +0.194 C 
ATOM     58  O   LIG    1       24.302 -25.583  13.608  0.00  0.00    -0.377 OA
ENDBRANCH  51  58
BRANCH  52  59
ATOM     59  O   LIG    1       25.976 -22.685  15.213  0.00  0.00    -0.389 OA
ATOM     60  H   LIG    1       26.287 -22.367  14.350  0.00  0.00    +0.210 HD
ENDBRANCH  52  59
ENDBRANCH  50  55
ENDBRANCH  48  50
ENDBRANCH   1  48
BRANCH  14  61
ATOM     61  O   LIG    1       23.928 -30.990   8.758  0.00  0.00    -0.358 OA
ATOM     62  H   LIG    1       23.276 -31.719   8.712  0.00  0.00    +0.213 HD
ENDBRANCH  14  61
BRANCH  20  63
ATOM     63  O   LIG    1       26.345 -31.601  15.037  0.00  0.00    -0.375 OA
ATOM     64  C   LIG    1       27.429 -30.695  14.899  0.00  0.00    +0.194 C 
ENDBRANCH  20  63
BRANCH  35  65
ATOM     65  O   LIG    1       19.063 -30.945  15.169  0.00  0.00    -0.369 OA
ATOM     66  C   LIG    1       19.838 -32.102  15.477  0.00  0.00    +0.195 C 
ENDBRANCH  35  65
BRANCH  36  67
ATOM     67  O   LIG    1       18.100 -32.023  11.808  0.00  0.00    -0.385 OA
ATOM     68  H   LIG    1       17.216 -31.607  11.776  0.00  0.00    +0.210 HD
ENDBRANCH  36  67
TORSDOF 9
ENDMDL
MODEL 2
REMARK VINA RESULT:       7.0      1.128      1.629
REMARK  Name = *****
REMARK                            x       y       z     vdW  Elec       q    Type
REMARK                         _______ _______ _______ _____ _____    ______ ____
ROOT
ATOM      1  C   LIG    1       25.178 -28.280  11.163  0.00  0.00    +0.186 C 
ATOM      2  O   LIG    1       25.359 -27.790   9.825  0.00  0.00    -0.459 OA
ATOM      3  C   LIG    1       26.395 -28.324   9.115  0.00  0.00    +0.328 C 
ATOM      4  O   LIG    1       27.171 -29.149   9.544  0.00  0.00    -0.249 OA
ATOM      5  C   LIG    1       26.441 -27.767   7.681  0.00  0.00    +0.185 C 
ATOM      6  N   LIG    1       25.694 -28.511   6.628  0.00  0.00    -0.281 N 
ATOM      7  C   LIG    1       25.500 -27.788   5.363  0.00  0.00    +0.109 C 
ATOM      8  C   LIG    1       25.044 -26.344   5.508  0.00  0.00    +0.019 C 
ATOM      9  C   LIG    1       25.984 -25.582   6.421  0.00  0.00    +0.004 C 
ATOM     10  C   LIG    1       25.853 -29.907   6.408  0.00  0.00    +0.288 C 
ATOM     11  O   LIG    1       25.710 -30.423   5.298  0.00  0.00    -0.267 OA
ATOM     12  C   LIG    1       26.214 -30.865   7.526  0.00  0.00    +0.276 C 
ATOM     13  O   LIG    1       27.398 -31.157   7.677  0.00  0.00    -0.281 OA
ATOM     14  C   LIG    1       25.022 -31.542   8.270  0.00  0.00    +0.240 C 
ATOM     15  O   LIG    1       25.201 -31.425   9.712  0.00  0.00    -0.339 OA
ATOM     16  C   LIG    1       25.691 -32.619  10.330  0.00  0.00    +0.125 C 
ATOM     17  C   LIG    1       24.617 -33.695  10.246  0.00  0.00    +0.032 C 
ATOM     18  C   LIG    1       24.071 -33.824   8.818  0.00  0.00    +0.011 C 
ATOM     19  C   LIG    1       26.354 -32.433  11.715  0.00  0.00    +0.067 C 
ATOM     20  C   LIG    1       25.772 -31.681  12.952  0.00  0.00    +0.146 C 
ATOM     21  C   LIG    1       24.621 -32.295  13.740  0.00  0.00    -0.044 C 
ATOM     22  C   LIG    1       24.641 -33.802  13.858  0.00  0.00    +0.041 C 
ATOM     23  C   LIG    1       23.690 -31.626  14.464  0.00  0.00    +0.001 C 
ATOM     24  C   LIG    1       23.475 -30.200  14.698  0.00  0.00    +0.000 C 
ATOM     25  C   LIG    1       22.276 -29.680  14.391  0.00  0.00    -0.000 C 
ATOM     26  C   LIG    1       21.670 -28.366  14.566  0.00  0.00    -0.004 C 
ATOM     27  C   LIG    1       20.541 -28.079  13.881  0.00  0.00    -0.024 C 
ATOM     28  C   LIG    1       19.585 -26.915  13.981  0.00  0.00    +0.009 C 
ATOM     29  C   LIG    1       19.794 -25.970  12.793  0.00  0.00    +0.012 C 
ATOM     30  C   LIG    1       18.072 -27.327  13.990  0.00  0.00    +0.018 C 
ATOM     31  C   LIG    1       17.736 -28.632  14.732  0.00  0.00    +0.056 C 
ATOM     32  C   LIG    1       16.411 -28.534  15.499  0.00  0.00    +0.015 C 
ATOM     33  C   LIG    1       17.598 -29.826  13.766  0.00  0.00    +0.167 C 
ATOM     34  O   LIG    1       16.704 -29.830  12.907  0.00  0.00    -0.294 OA
ATOM     35  C   LIG    1       18.572 -31.031  13.849  0.00  0.00    +0.216 C 
ATOM     36  C   LIG    1       19.156 -31.160  12.369  0.00  0.00    +0.176 C 
ATOM     37  C   LIG    1       20.562 -31.704  12.095  0.00  0.00    -0.045 C 
ATOM     38  C   LIG    1       20.833 -33.079  12.662  0.00  0.00    +0.041 C 
ATOM     39  C   LIG    1       21.520 -31.086  11.344  0.00  0.00    -0.015 C 
ATOM     40  C   LIG    1       21.446 -29.758  10.606  0.00  0.00    +0.075 C 
ATOM     41  C   LIG    1       20.652 -29.961   9.309  0.00  0.00    +0.019 C 
ATOM     42  C   LIG    1       22.821 -29.082  10.277  0.00  0.00    +0.143 C 
ATOM     43  O   LIG    1       23.144 -28.853   9.105  0.00  0.00    -0.297 OA
ATOM     44  C   LIG    1       24.921 -33.035   7.805  0.00  0.00    +0.054 C 
ATOM     45  C   LIG    1       24.347 -33.218   6.394  0.00  0.00    +0.013 C 
ATOM     46  C   LIG    1       26.001 -26.281   7.764  0.00  0.00    +0.034 C 
ATOM     47  C   LIG    1       23.670 -28.540  11.427  0.00  0.00    +0.119 C 
ENDROOT
BRANCH   1  48
ATOM     48  C   LIG    1       25.808 -27.222  12.137  0.00  0.00    +0.027 C 
ATOM     49  C   LIG    1       26.382 -26.020  11.394  0.00  0.00    +0.011 C 
BRANCH  48  50
ATOM     50  C   LIG    1       24.798 -26.755  13.227  0.00  0.00    +0.010 C 
BRANCH  50  55
ATOM     51  C   LIG    1       27.245 -26.722  15.389  0.00  0.00    +0.147 C 
ATOM     52  C   LIG    1       28.205 -25.760  14.653  0.00  0.00    +0.143 C 
ATOM     53  C   LIG    1       27.625 -25.245  13.335  0.00  0.00    +0.034 C 
ATOM     54  C   LIG    1       26.237 -24.632  13.507  0.00  0.00    +0.006 C 
ATOM     55  C   LIG    1       25.237 -25.599  14.160  0.00  0.00    -0.008 C 
ATOM     56  C   LIG    1       25.825 -26.126  15.496  0.00  0.00    +0.037 C 
BRANCH  51  58
ATOM     57  C   LIG    1       28.377 -28.603  14.418  0.00  0.00    +0.194 C 
ATOM     58  O   LIG    1       27.136 -28.007  14.764  0.00  0.00    -0.377 OA
ENDBRANCH  51  58
BRANCH  52  59
ATOM     59  O   LIG    1       28.559 -24.657  15.492  0.00  0.00    -0.389 OA
ATOM     60  H   LIG    1       27.884 -23.964  15.404  0.00  0.00    +0.210 HD
ENDBRANCH  52  59
ENDBRANCH  50  55
ENDBRANCH  48  50
ENDBRANCH   1  48
BRANCH  14  61
ATOM     61  O   LIG    1       23.752 -30.993   7.978  0.00  0.00    -0.358 OA
ATOM     62  H   LIG    1       23.095 -31.717   8.016  0.00  0.00    +0.213 HD
ENDBRANCH  14  61
BRANCH  20  63
ATOM     63  O   LIG    1       26.795 -31.586  13.981  0.00  0.00    -0.375 OA
ATOM     64  C   LIG    1       26.863 -32.662  14.905  0.00  0.00    +0.194 C 
ENDBRANCH  20  63
BRANCH  35  65
ATOM     65  O   LIG    1       19.566 -30.911  14.852  0.00  0.00    -0.369 OA
ATOM     66  C   LIG    1       20.025 -32.131  15.429  0.00  0.00    +0.195 C 
ENDBRANCH  35  65
BRANCH  36  67
ATOM     67  O   LIG    1       18.263 -31.998  11.611  0.00  0.00    -0.385 OA
ATOM     68  H   LIG    1       18.148 -31.560  10.744  0.00  0.00    +0.210 HD
ENDBRANCH  36  67
TORSDOF 9
ENDMDL
