MODEL 1
REMARK VINA RESULT:      -6.7      0.000      0.000
REMARK  Name = *****
REMARK                            x       y       z     vdW  Elec       q    Type
REMARK                         _______ _______ _______ _____ _____    ______ ____
ROOT
ATOM      1  N   LIG    1       24.808 -17.892   3.634  0.00  0.00    -0.309 NA
ATOM      2  H   LIG    1       24.617 -17.444   2.740  0.00  0.00    +0.122 HD
ENDROOT
BRANCH   1   4
ATOM      3  C   LIG    1       23.932 -20.080   2.866  0.00  0.00    +0.029 C 
ATOM      4  C   LIG    1       25.150 -19.314   3.411  0.00  0.00    +0.081 C 
BRANCH   4   5
ATOM      5  C   LIG    1       25.693 -19.998   4.668  0.00  0.00    -0.023 A 
ATOM      6  C   LIG    1       26.960 -19.659   5.239  0.00  0.00    -0.013 A 
ATOM      7  C   LIG    1       27.343 -20.289   6.456  0.00  0.00    -0.018 A 
ATOM      8  C   LIG    1       28.570 -19.975   7.062  0.00  0.00    +0.008 A 
ATOM      9  C   LIG    1       29.445 -19.055   6.491  0.00  0.00    +0.001 A 
ATOM     10  C   LIG    1       29.099 -18.432   5.301  0.00  0.00    +0.001 A 
ATOM     11  C   LIG    1       26.498 -21.226   7.061  0.00  0.00    +0.008 A 
ATOM     12  C   LIG    1       25.274 -21.560   6.495  0.00  0.00    +0.001 A 
ATOM     13  C   LIG    1       27.879 -18.731   4.688  0.00  0.00    +0.009 A 
ATOM     14  C   LIG    1       24.873 -20.946   5.316  0.00  0.00    +0.006 A 
ENDBRANCH   4   5
ENDBRANCH   1   4
BRANCH   1  15
ATOM     15  C   LIG    1       23.651 -17.729   4.526  0.00  0.00    +0.082 C 
BRANCH  15  16
ATOM     16  C   LIG    1       22.740 -16.593   4.050  0.00  0.00    +0.020 C 
BRANCH  16  17
ATOM     17  C   LIG    1       23.053 -15.295   4.806  0.00  0.00    +0.036 C 
BRANCH  17  18
ATOM     18  C   LIG    1       24.018 -14.403   4.060  0.00  0.00    -0.047 A 
ATOM     19  C   LIG    1       25.369 -14.350   4.432  0.00  0.00    +0.016 A 
ATOM     20  C   LIG    1       26.279 -13.526   3.747  0.00  0.00    +0.055 A 
ATOM     21  C   LIG    1       25.819 -12.756   2.671  0.00  0.00    +0.012 A 
ATOM     22  C   LIG    1       24.477 -12.804   2.291  0.00  0.00    +0.001 A 
ATOM     23  C   LIG    1       23.581 -13.623   2.982  0.00  0.00    +0.003 A 
BRANCH  20  24
ATOM     24  C   LIG    1       27.723 -13.478   4.180  0.00  0.00    +0.417 C 
ATOM     25  F   LIG    1       28.324 -14.700   4.130  0.00  0.00    -0.166 F 
ATOM     26  F   LIG    1       27.870 -13.043   5.463  0.00  0.00    -0.166 F 
ATOM     27  F   LIG    1       28.496 -12.653   3.419  0.00  0.00    -0.166 F 
ENDBRANCH  20  24
ENDBRANCH  17  18
ENDBRANCH  16  17
ENDBRANCH  15  16
ENDBRANCH   1  15
TORSDOF 7
ENDMDL
MODEL 2
REMARK VINA RESULT:      -5.7      1.345      2.042
REMARK  Name = *****
REMARK                            x       y       z     vdW  Elec       q    Type
REMARK                         _______ _______ _______ _____ _____    ______ ____
ROOT
ATOM      1  N   LIG    1       21.520 -18.503   4.455  0.00  0.00    -0.309 NA
ATOM      2  H   LIG    1       20.873 -18.585   5.236  0.00  0.00    +0.122 HD
ENDROOT
BRANCH   1   4
ATOM      3  C   LIG    1       20.866 -20.858   4.039  0.00  0.00    +0.029 C 
ATOM      4  C   LIG    1       22.024 -19.845   4.089  0.00  0.00    +0.081 C 
BRANCH   4   5
ATOM      5  C   LIG    1       23.128 -20.341   5.025  0.00  0.00    -0.023 A 
ATOM      6  C   LIG    1       24.500 -19.976   4.855  0.00  0.00    -0.013 A 
ATOM      7  C   LIG    1       25.443 -20.417   5.825  0.00  0.00    -0.018 A 
ATOM      8  C   LIG    1       26.798 -20.070   5.707  0.00  0.00    +0.008 A 
ATOM      9  C   LIG    1       27.258 -19.299   4.643  0.00  0.00    +0.001 A 
ATOM     10  C   LIG    1       26.361 -18.862   3.680  0.00  0.00    +0.001 A 
ATOM     11  C   LIG    1       25.026 -21.201   6.908  0.00  0.00    +0.008 A 
ATOM     12  C   LIG    1       23.693 -21.562   7.062  0.00  0.00    +0.001 A 
ATOM     13  C   LIG    1       25.008 -19.197   3.786  0.00  0.00    +0.009 A 
ATOM     14  C   LIG    1       22.754 -21.130   6.135  0.00  0.00    +0.006 A 
ENDBRANCH   4   5
ENDBRANCH   1   4
BRANCH   1  15
ATOM     15  C   LIG    1       22.605 -17.576   4.807  0.00  0.00    +0.082 C 
BRANCH  15  16
ATOM     16  C   LIG    1       22.452 -16.240   4.073  0.00  0.00    +0.020 C 
BRANCH  16  17
ATOM     17  C   LIG    1       23.076 -15.101   4.888  0.00  0.00    +0.036 C 
BRANCH  17  18
ATOM     18  C   LIG    1       24.063 -14.284   4.087  0.00  0.00    -0.047 A 
ATOM     19  C   LIG    1       25.419 -14.261   4.444  0.00  0.00    +0.016 A 
ATOM     20  C   LIG    1       26.351 -13.507   3.708  0.00  0.00    +0.055 A 
ATOM     21  C   LIG    1       25.906 -12.776   2.598  0.00  0.00    +0.012 A 
ATOM     22  C   LIG    1       24.560 -12.795   2.234  0.00  0.00    +0.001 A 
ATOM     23  C   LIG    1       23.643 -13.544   2.975  0.00  0.00    +0.003 A 
BRANCH  20  24
ATOM     24  C   LIG    1       27.801 -13.490   4.124  0.00  0.00    +0.417 C 
ATOM     25  F   LIG    1       28.591 -12.821   3.238  0.00  0.00    -0.166 F 
ATOM     26  F   LIG    1       28.330 -14.742   4.224  0.00  0.00    -0.166 F 
ATOM     27  F   LIG    1       28.017 -12.899   5.333  0.00  0.00    -0.166 F 
ENDBRANCH  20  24
ENDBRANCH  17  18
ENDBRANCH  16  17
ENDBRANCH  15  16
ENDBRANCH   1  15
TORSDOF 7
ENDMDL
MODEL 3
REMARK VINA RESULT:      -4.4      2.338      4.057
REMARK  Name = *****
REMARK                            x       y       z     vdW  Elec       q    Type
REMARK                         _______ _______ _______ _____ _____    ______ ____
ROOT
ATOM      1  N   LIG    1       27.734 -17.612   4.445  0.00  0.00    -0.309 NA
ATOM      2  H   LIG    1       28.716 -17.870   4.392  0.00  0.00    +0.122 HD
ENDROOT
BRANCH   1   4
ATOM      3  C   LIG    1       25.667 -18.194   3.206  0.00  0.00    +0.029 C 
ATOM      4  C   LIG    1       26.901 -18.731   3.952  0.00  0.00    +0.081 C 
BRANCH   4   5
ATOM      5  C   LIG    1       26.476 -19.690   5.067  0.00  0.00    -0.023 A 
ATOM      6  C   LIG    1       25.125 -20.134   5.224  0.00  0.00    -0.013 A 
ATOM      7  C   LIG    1       24.842 -21.093   6.237  0.00  0.00    -0.018 A 
ATOM      8  C   LIG    1       23.533 -21.569   6.417  0.00  0.00    +0.008 A 
ATOM      9  C   LIG    1       22.483 -21.115   5.624  0.00  0.00    +0.001 A 
ATOM     10  C   LIG    1       22.731 -20.176   4.635  0.00  0.00    +0.001 A 
ATOM     11  C   LIG    1       25.867 -21.570   7.062  0.00  0.00    +0.008 A 
ATOM     12  C   LIG    1       27.175 -21.127   6.912  0.00  0.00    +0.001 A 
ATOM     13  C   LIG    1       24.029 -19.695   4.441  0.00  0.00    +0.009 A 
ATOM     14  C   LIG    1       27.477 -20.203   5.920  0.00  0.00    +0.006 A 
ENDBRANCH   4   5
ENDBRANCH   1   4
BRANCH   1  15
ATOM     15  C   LIG    1       27.507 -16.372   3.689  0.00  0.00    +0.082 C 
BRANCH  15  16
ATOM     16  C   LIG    1       28.101 -15.163   4.418  0.00  0.00    +0.020 C 
BRANCH  16  17
ATOM     17  C   LIG    1       27.783 -13.866   3.661  0.00  0.00    +0.036 C 
BRANCH  17  18
ATOM     18  C   LIG    1       26.304 -13.682   3.417  0.00  0.00    -0.047 A 
ATOM     19  C   LIG    1       25.373 -14.539   4.021  0.00  0.00    +0.016 A 
ATOM     20  C   LIG    1       23.992 -14.381   3.804  0.00  0.00    +0.055 A 
ATOM     21  C   LIG    1       23.552 -13.340   2.975  0.00  0.00    +0.012 A 
ATOM     22  C   LIG    1       24.470 -12.481   2.372  0.00  0.00    +0.001 A 
ATOM     23  C   LIG    1       25.839 -12.651   2.591  0.00  0.00    +0.003 A 
BRANCH  20  24
ATOM     24  C   LIG    1       23.015 -15.327   4.455  0.00  0.00    +0.417 C 
ATOM     25  F   LIG    1       22.632 -14.911   5.695  0.00  0.00    -0.166 F 
ATOM     26  F   LIG    1       23.532 -16.577   4.624  0.00  0.00    -0.166 F 
ATOM     27  F   LIG    1       21.862 -15.496   3.748  0.00  0.00    -0.166 F 
ENDBRANCH  20  24
ENDBRANCH  17  18
ENDBRANCH  16  17
ENDBRANCH  15  16
ENDBRANCH   1  15
TORSDOF 7
ENDMDL
