MODEL 1
REMARK VINA RESULT:      -1.5      0.000      0.000
REMARK  Name = *****
REMARK                            x       y       z     vdW  Elec       q    Type
REMARK                         _______ _______ _______ _____ _____    ______ ____
ROOT
ATOM      1  C   LIG    1       25.518 -14.974   3.940  0.00  0.00    +0.260 C 
ATOM      2  N   LIG    1       25.742 -16.325   3.499  0.00  0.00    -0.235 N 
ATOM      3  C   LIG    1       24.598 -17.084   3.637  0.00  0.00    +0.317 C 
ATOM      4  O   LIG    1       24.527 -18.296   3.437  0.00  0.00    -0.252 OA
ATOM      5  N   LIG    1       23.579 -16.294   4.066  0.00  0.00    -0.199 N 
ATOM      6  C   LIG    1       24.049 -15.054   4.397  0.00  0.00    +0.264 C 
ATOM      7  O   LIG    1       23.436 -14.169   4.978  0.00  0.00    -0.271 OA
ENDROOT
BRANCH   1  10
ATOM      8  O   LIG    1       26.806 -11.995   2.375  0.00  0.00    -0.253 OA
ATOM      9  C   LIG    1       26.775 -13.042   3.016  0.00  0.00    +0.307 C 
ATOM     10  N   LIG    1       25.726 -13.934   2.942  0.00  0.00    -0.235 N 
ATOM     11  N   LIG    1       27.780 -13.397   3.878  0.00  0.00    -0.277 N 
ATOM     12  H   LIG    1       28.072 -14.358   3.818  0.00  0.00    +0.152 HD
BRANCH  10  13
ATOM     13  C   LIG    1       24.649 -13.626   2.026  0.00  0.00    +0.270 C 
BRANCH  13  14
ATOM     14  O   LIG    1       23.993 -12.456   2.467  0.00  0.00    -0.377 OA
ATOM     15  H   LIG    1       23.605 -12.688   3.331  0.00  0.00    +0.211 HD
ENDBRANCH  13  14
ENDBRANCH  10  13
BRANCH  11  16
ATOM     16  C   LIG    1       28.884 -12.518   4.067  0.00  0.00    +0.265 C 
BRANCH  16  17
ATOM     17  O   LIG    1       28.781 -12.083   5.403  0.00  0.00    -0.377 OA
ATOM     18  H   LIG    1       27.924 -12.418   5.716  0.00  0.00    +0.211 HD
ENDBRANCH  16  17
ENDBRANCH  11  16
ENDBRANCH   1  10
BRANCH   2  19
ATOM     19  C   LIG    1       27.061 -16.885   3.416  0.00  0.00    +0.270 C 
BRANCH  19  20
ATOM     20  O   LIG    1       27.909 -16.163   4.283  0.00  0.00    -0.377 OA
ATOM     21  H   LIG    1       28.173 -15.356   3.812  0.00  0.00    +0.211 HD
ENDBRANCH  19  20
ENDBRANCH   2  19
BRANCH   5  22
ATOM     22  C   LIG    1       22.241 -16.732   4.322  0.00  0.00    +0.276 C 
BRANCH  22  23
ATOM     23  O   LIG    1       22.292 -18.022   4.905  0.00  0.00    -0.376 OA
ATOM     24  H   LIG    1       21.447 -18.134   5.377  0.00  0.00    +0.211 HD
ENDBRANCH  22  23
ENDBRANCH   5  22
TORSDOF 9
ENDMDL
MODEL 2
REMARK VINA RESULT:      -0.9      3.738      5.782
REMARK  Name = *****
REMARK                            x       y       z     vdW  Elec       q    Type
REMARK                         _______ _______ _______ _____ _____    ______ ____
ROOT
ATOM      1  C   LIG    1       25.676 -19.935   4.270  0.00  0.00    +0.260 C 
ATOM      2  N   LIG    1       25.521 -18.512   4.130  0.00  0.00    -0.235 N 
ATOM      3  C   LIG    1       24.194 -18.177   3.948  0.00  0.00    +0.317 C 
ATOM      4  O   LIG    1       23.780 -17.047   3.697  0.00  0.00    -0.252 OA
ATOM      5  N   LIG    1       23.427 -19.295   4.048  0.00  0.00    -0.199 N 
ATOM      6  C   LIG    1       24.218 -20.407   4.113  0.00  0.00    +0.264 C 
ATOM      7  O   LIG    1       23.853 -21.572   4.031  0.00  0.00    -0.271 OA
ENDROOT
BRANCH   1  10
ATOM      8  O   LIG    1       28.172 -20.674   6.761  0.00  0.00    -0.253 OA
ATOM      9  C   LIG    1       27.560 -20.073   5.883  0.00  0.00    +0.307 C 
ATOM     10  N   LIG    1       26.268 -20.392   5.520  0.00  0.00    -0.235 N 
ATOM     11  N   LIG    1       28.125 -19.045   5.175  0.00  0.00    -0.277 N 
ATOM     12  H   LIG    1       27.533 -18.241   5.046  0.00  0.00    +0.152 HD
BRANCH  10  13
ATOM     13  C   LIG    1       25.609 -21.451   6.254  0.00  0.00    +0.270 C 
BRANCH  13  14
ATOM     14  O   LIG    1       24.597 -20.887   7.062  0.00  0.00    -0.377 OA
ATOM     15  H   LIG    1       24.126 -20.259   6.485  0.00  0.00    +0.211 HD
ENDBRANCH  13  14
ENDBRANCH  10  13
BRANCH  11  16
ATOM     16  C   LIG    1       29.474 -18.673   5.436  0.00  0.00    +0.265 C 
BRANCH  16  17
ATOM     17  O   LIG    1       29.475 -18.201   6.763  0.00  0.00    -0.377 OA
ATOM     18  H   LIG    1       28.570 -17.882   6.922  0.00  0.00    +0.211 HD
ENDBRANCH  16  17
ENDBRANCH  11  16
ENDBRANCH   1  10
BRANCH   2  19
ATOM     19  C   LIG    1       26.613 -17.666   3.741  0.00  0.00    +0.270 C 
BRANCH  19  20
ATOM     20  O   LIG    1       26.087 -16.441   3.279  0.00  0.00    -0.377 OA
ATOM     21  H   LIG    1       25.300 -16.251   3.816  0.00  0.00    +0.211 HD
ENDBRANCH  19  20
ENDBRANCH   2  19
BRANCH   5  22
ATOM     22  C   LIG    1       22.003 -19.338   3.915  0.00  0.00    +0.276 C 
BRANCH  22  23
ATOM     23  O   LIG    1       21.502 -20.367   4.751  0.00  0.00    -0.376 OA
ATOM     24  H   LIG    1       21.279 -21.106   4.157  0.00  0.00    +0.211 HD
ENDBRANCH  22  23
ENDBRANCH   5  22
TORSDOF 9
ENDMDL
MODEL 3
REMARK VINA RESULT:      -0.7      1.035      5.743
REMARK  Name = *****
REMARK                            x       y       z     vdW  Elec       q    Type
REMARK                         _______ _______ _______ _____ _____    ______ ____
ROOT
ATOM      1  C   LIG    1       25.512 -14.867   3.962  0.00  0.00    +0.260 C 
ATOM      2  N   LIG    1       25.169 -13.851   3.003  0.00  0.00    -0.235 N 
ATOM      3  C   LIG    1       26.246 -13.023   2.757  0.00  0.00    +0.317 C 
ATOM      4  O   LIG    1       26.212 -12.008   2.063  0.00  0.00    -0.252 OA
ATOM      5  N   LIG    1       27.333 -13.479   3.435  0.00  0.00    -0.199 N 
ATOM      6  C   LIG    1       26.972 -14.493   4.277  0.00  0.00    +0.264 C 
ATOM      7  O   LIG    1       27.664 -15.001   5.149  0.00  0.00    -0.271 OA
ENDROOT
BRANCH   1  10
ATOM      8  O   LIG    1       24.328 -18.263   3.740  0.00  0.00    -0.253 OA
ATOM      9  C   LIG    1       24.315 -17.041   3.857  0.00  0.00    +0.307 C 
ATOM     10  N   LIG    1       25.384 -16.244   3.505  0.00  0.00    -0.235 N 
ATOM     11  N   LIG    1       23.236 -16.371   4.370  0.00  0.00    -0.277 N 
ATOM     12  H   LIG    1       22.971 -15.541   3.867  0.00  0.00    +0.152 HD
BRANCH  10  13
ATOM     13  C   LIG    1       26.542 -16.894   2.929  0.00  0.00    +0.270 C 
BRANCH  13  14
ATOM     14  O   LIG    1       27.027 -17.857   3.841  0.00  0.00    -0.377 OA
ATOM     15  H   LIG    1       27.962 -17.994   3.600  0.00  0.00    +0.211 HD
ENDBRANCH  13  14
ENDBRANCH  10  13
BRANCH  11  16
ATOM     16  C   LIG    1       22.100 -17.106   4.814  0.00  0.00    +0.265 C 
BRANCH  16  17
ATOM     17  O   LIG    1       21.808 -17.998   3.764  0.00  0.00    -0.377 OA
ATOM     18  H   LIG    1       22.660 -18.401   3.525  0.00  0.00    +0.211 HD
ENDBRANCH  16  17
ENDBRANCH  11  16
ENDBRANCH   1  10
BRANCH   2  19
ATOM     19  C   LIG    1       23.807 -13.477   2.749  0.00  0.00    +0.270 C 
BRANCH  19  20
ATOM     20  O   LIG    1       23.670 -12.094   2.993  0.00  0.00    -0.377 OA
ATOM     21  H   LIG    1       24.241 -11.637   2.353  0.00  0.00    +0.211 HD
ENDBRANCH  19  20
ENDBRANCH   2  19
BRANCH   5  22
ATOM     22  C   LIG    1       28.630 -12.877   3.423  0.00  0.00    +0.276 C 
BRANCH  22  23
ATOM     23  O   LIG    1       28.904 -12.369   4.717  0.00  0.00    -0.376 OA
ATOM     24  H   LIG    1       29.115 -11.426   4.593  0.00  0.00    +0.211 HD
ENDBRANCH  22  23
ENDBRANCH   5  22
TORSDOF 9
ENDMDL
MODEL 4
REMARK VINA RESULT:      -0.5      4.402      5.807
REMARK  Name = *****
REMARK                            x       y       z     vdW  Elec       q    Type
REMARK                         _______ _______ _______ _____ _____    ______ ____
ROOT
ATOM      1  C   LIG    1       24.138 -19.314   5.098  0.00  0.00    +0.260 C 
ATOM      2  N   LIG    1       23.354 -20.519   5.139  0.00  0.00    -0.235 N 
ATOM      3  C   LIG    1       22.118 -20.323   4.558  0.00  0.00    +0.317 C 
ATOM      4  O   LIG    1       21.205 -21.147   4.546  0.00  0.00    -0.252 OA
ATOM      5  N   LIG    1       22.054 -19.067   4.041  0.00  0.00    -0.199 N 
ATOM      6  C   LIG    1       23.152 -18.345   4.418  0.00  0.00    +0.264 C 
ATOM      7  O   LIG    1       23.321 -17.142   4.275  0.00  0.00    -0.271 OA
ENDROOT
BRANCH   1  10
ATOM      8  O   LIG    1       27.681 -19.605   4.511  0.00  0.00    -0.253 OA
ATOM      9  C   LIG    1       26.570 -19.805   4.995  0.00  0.00    +0.307 C 
ATOM     10  N   LIG    1       25.404 -19.399   4.382  0.00  0.00    -0.235 N 
ATOM     11  N   LIG    1       26.405 -20.432   6.202  0.00  0.00    -0.277 N 
ATOM     12  H   LIG    1       25.676 -21.125   6.225  0.00  0.00    +0.152 HD
BRANCH  10  13
ATOM     13  C   LIG    1       25.514 -18.758   3.089  0.00  0.00    +0.270 C 
BRANCH  13  14
ATOM     14  O   LIG    1       26.298 -17.590   3.224  0.00  0.00    -0.377 OA
ATOM     15  H   LIG    1       27.076 -17.860   3.746  0.00  0.00    +0.211 HD
ENDBRANCH  13  14
ENDBRANCH  10  13
BRANCH  11  16
ATOM     16  C   LIG    1       27.550 -20.842   6.942  0.00  0.00    +0.265 C 
BRANCH  16  17
ATOM     17  O   LIG    1       28.359 -19.692   7.033  0.00  0.00    -0.377 OA
ATOM     18  H   LIG    1       28.650 -19.656   7.960  0.00  0.00    +0.211 HD
ENDBRANCH  16  17
ENDBRANCH  11  16
ENDBRANCH   1  10
BRANCH   2  19
ATOM     19  C   LIG    1       23.633 -21.572   6.073  0.00  0.00    +0.270 C 
BRANCH  19  20
ATOM     20  O   LIG    1       22.626 -21.571   7.062  0.00  0.00    -0.377 OA
ATOM     21  H   LIG    1       21.777 -21.477   6.599  0.00  0.00    +0.211 HD
ENDBRANCH  19  20
ENDBRANCH   2  19
BRANCH   5  22
ATOM     22  C   LIG    1       20.927 -18.505   3.363  0.00  0.00    +0.276 C 
BRANCH  22  23
ATOM     23  O   LIG    1       19.840 -19.408   3.468  0.00  0.00    -0.376 OA
ATOM     24  H   LIG    1       19.899 -19.986   2.686  0.00  0.00    +0.211 HD
ENDBRANCH  22  23
ENDBRANCH   5  22
TORSDOF 9
ENDMDL
MODEL 5
REMARK VINA RESULT:      -0.3      2.793      4.660
REMARK  Name = *****
REMARK                            x       y       z     vdW  Elec       q    Type
REMARK                         _______ _______ _______ _____ _____    ______ ____
ROOT
ATOM      1  C   LIG    1       25.513 -18.516   3.535  0.00  0.00    +0.260 C 
ATOM      2  N   LIG    1       24.888 -19.768   3.865  0.00  0.00    -0.235 N 
ATOM      3  C   LIG    1       25.602 -20.434   4.840  0.00  0.00    +0.317 C 
ATOM      4  O   LIG    1       25.360 -21.572   5.240  0.00  0.00    -0.252 OA
ATOM      5  N   LIG    1       26.636 -19.655   5.256  0.00  0.00    -0.199 N 
ATOM      6  C   LIG    1       26.746 -18.552   4.458  0.00  0.00    +0.264 C 
ATOM      7  O   LIG    1       27.667 -17.746   4.445  0.00  0.00    -0.271 OA
ENDROOT
BRANCH   1  10
ATOM      8  O   LIG    1       24.662 -15.063   4.111  0.00  0.00    -0.253 OA
ATOM      9  C   LIG    1       25.230 -16.052   3.656  0.00  0.00    +0.307 C 
ATOM     10  N   LIG    1       24.704 -17.323   3.747  0.00  0.00    -0.235 N 
ATOM     11  N   LIG    1       26.449 -15.969   3.037  0.00  0.00    -0.277 N 
ATOM     12  H   LIG    1       26.532 -16.501   2.186  0.00  0.00    +0.152 HD
BRANCH  10  13
ATOM     13  C   LIG    1       23.404 -17.468   4.365  0.00  0.00    +0.270 C 
BRANCH  13  14
ATOM     14  O   LIG    1       22.724 -16.231   4.296  0.00  0.00    -0.377 OA
ATOM     15  H   LIG    1       22.899 -15.889   3.400  0.00  0.00    +0.211 HD
ENDBRANCH  13  14
ENDBRANCH  10  13
BRANCH  11  16
ATOM     16  C   LIG    1       27.103 -14.708   2.940  0.00  0.00    +0.265 C 
BRANCH  16  17
ATOM     17  O   LIG    1       26.500 -14.067   1.841  0.00  0.00    -0.377 OA
ATOM     18  H   LIG    1       26.939 -13.201   1.777  0.00  0.00    +0.211 HD
ENDBRANCH  16  17
ENDBRANCH  11  16
ENDBRANCH   1  10
BRANCH   2  19
ATOM     19  C   LIG    1       23.974 -20.417   2.968  0.00  0.00    +0.270 C 
BRANCH  19  20
ATOM     20  O   LIG    1       23.178 -21.314   3.712  0.00  0.00    -0.377 OA
ATOM     21  H   LIG    1       22.576 -20.775   4.252  0.00  0.00    +0.211 HD
ENDBRANCH  19  20
ENDBRANCH   2  19
BRANCH   5  22
ATOM     22  C   LIG    1       27.593 -20.013   6.257  0.00  0.00    +0.276 C 
BRANCH  22  23
ATOM     23  O   LIG    1       28.768 -20.475   5.613  0.00  0.00    -0.376 OA
ATOM     24  H   LIG    1       28.631 -20.313   4.663  0.00  0.00    +0.211 HD
ENDBRANCH  22  23
ENDBRANCH   5  22
TORSDOF 9
ENDMDL
MODEL 6
REMARK VINA RESULT:      -0.2      3.502      6.362
REMARK  Name = *****
REMARK                            x       y       z     vdW  Elec       q    Type
REMARK                         _______ _______ _______ _____ _____    ______ ____
ROOT
ATOM      1  C   LIG    1       25.626 -19.218   3.806  0.00  0.00    +0.260 C 
ATOM      2  N   LIG    1       24.985 -17.944   3.989  0.00  0.00    -0.235 N 
ATOM      3  C   LIG    1       23.612 -18.086   4.036  0.00  0.00    +0.317 C 
ATOM      4  O   LIG    1       22.808 -17.157   4.080  0.00  0.00    -0.252 OA
ATOM      5  N   LIG    1       23.292 -19.406   3.984  0.00  0.00    -0.199 N 
ATOM      6  C   LIG    1       24.405 -20.153   3.720  0.00  0.00    +0.264 C 
ATOM      7  O   LIG    1       24.439 -21.342   3.434  0.00  0.00    -0.271 OA
ENDROOT
BRANCH   1  10
ATOM      8  O   LIG    1       26.829 -20.372   7.000  0.00  0.00    -0.253 OA
ATOM      9  C   LIG    1       26.139 -20.286   5.988  0.00  0.00    +0.307 C 
ATOM     10  N   LIG    1       26.554 -19.622   4.854  0.00  0.00    -0.235 N 
ATOM     11  N   LIG    1       24.883 -20.831   5.917  0.00  0.00    -0.277 N 
ATOM     12  H   LIG    1       24.682 -21.326   5.064  0.00  0.00    +0.152 HD
BRANCH  10  13
ATOM     13  C   LIG    1       27.884 -19.052   4.861  0.00  0.00    +0.270 C 
BRANCH  13  14
ATOM     14  O   LIG    1       28.805 -20.043   5.266  0.00  0.00    -0.377 OA
ATOM     15  H   LIG    1       28.262 -20.777   5.608  0.00  0.00    +0.211 HD
ENDBRANCH  13  14
ENDBRANCH  10  13
BRANCH  11  16
ATOM     16  C   LIG    1       24.339 -21.492   7.054  0.00  0.00    +0.265 C 
BRANCH  16  17
ATOM     17  O   LIG    1       22.974 -21.146   7.061  0.00  0.00    -0.377 OA
ATOM     18  H   LIG    1       22.955 -20.180   7.176  0.00  0.00    +0.211 HD
ENDBRANCH  16  17
ENDBRANCH  11  16
ENDBRANCH   1  10
BRANCH   2  19
ATOM     19  C   LIG    1       25.644 -16.711   3.667  0.00  0.00    +0.270 C 
BRANCH  19  20
ATOM     20  O   LIG    1       26.809 -17.006   2.928  0.00  0.00    -0.377 OA
ATOM     21  H   LIG    1       26.836 -16.383   2.182  0.00  0.00    +0.211 HD
ENDBRANCH  19  20
ENDBRANCH   2  19
BRANCH   5  22
ATOM     22  C   LIG    1       21.964 -19.939   4.009  0.00  0.00    +0.276 C 
BRANCH  22  23
ATOM     23  O   LIG    1       21.996 -21.201   4.651  0.00  0.00    -0.376 OA
ATOM     24  H   LIG    1       21.077 -21.524   4.648  0.00  0.00    +0.211 HD
ENDBRANCH  22  23
ENDBRANCH   5  22
TORSDOF 9
ENDMDL
MODEL 7
REMARK VINA RESULT:      -0.2      1.724      4.450
REMARK  Name = *****
REMARK                            x       y       z     vdW  Elec       q    Type
REMARK                         _______ _______ _______ _____ _____    ______ ____
ROOT
ATOM      1  C   LIG    1       25.381 -14.815   3.072  0.00  0.00    +0.260 C 
ATOM      2  N   LIG    1       25.199 -13.395   3.204  0.00  0.00    -0.235 N 
ATOM      3  C   LIG    1       24.190 -13.109   4.102  0.00  0.00    +0.317 C 
ATOM      4  O   LIG    1       23.748 -11.985   4.333  0.00  0.00    -0.252 OA
ATOM      5  N   LIG    1       23.737 -14.264   4.657  0.00  0.00    -0.199 N 
ATOM      6  C   LIG    1       24.289 -15.341   4.023  0.00  0.00    +0.264 C 
ATOM      7  O   LIG    1       23.964 -16.514   4.153  0.00  0.00    -0.271 OA
ENDROOT
BRANCH   1  10
ATOM      8  O   LIG    1       27.947 -17.082   4.197  0.00  0.00    -0.253 OA
ATOM      9  C   LIG    1       26.942 -16.666   3.625  0.00  0.00    +0.307 C 
ATOM     10  N   LIG    1       26.701 -15.324   3.418  0.00  0.00    -0.235 N 
ATOM     11  N   LIG    1       25.966 -17.510   3.165  0.00  0.00    -0.277 N 
ATOM     12  H   LIG    1       25.622 -17.300   2.243  0.00  0.00    +0.152 HD
BRANCH  10  13
ATOM     13  C   LIG    1       27.713 -14.387   3.857  0.00  0.00    +0.270 C 
BRANCH  13  14
ATOM     14  O   LIG    1       27.464 -14.042   5.204  0.00  0.00    -0.377 OA
ATOM     15  H   LIG    1       26.500 -14.131   5.320  0.00  0.00    +0.211 HD
ENDBRANCH  13  14
ENDBRANCH  10  13
BRANCH  11  16
ATOM     16  C   LIG    1       26.093 -18.912   3.377  0.00  0.00    +0.265 C 
BRANCH  16  17
ATOM     17  O   LIG    1       24.800 -19.348   3.727  0.00  0.00    -0.377 OA
ATOM     18  H   LIG    1       24.381 -18.587   4.163  0.00  0.00    +0.211 HD
ENDBRANCH  16  17
ENDBRANCH  11  16
ENDBRANCH   1  10
BRANCH   2  19
ATOM     19  C   LIG    1       25.647 -12.477   2.196  0.00  0.00    +0.270 C 
BRANCH  19  20
ATOM     20  O   LIG    1       24.556 -11.668   1.812  0.00  0.00    -0.377 OA
ATOM     21  H   LIG    1       24.395 -11.840   0.869  0.00  0.00    +0.211 HD
ENDBRANCH  19  20
ENDBRANCH   2  19
BRANCH   5  22
ATOM     22  C   LIG    1       22.694 -14.363   5.631  0.00  0.00    +0.276 C 
BRANCH  22  23
ATOM     23  O   LIG    1       22.117 -15.655   5.546  0.00  0.00    -0.376 OA
ATOM     24  H   LIG    1       22.532 -16.178   6.255  0.00  0.00    +0.211 HD
ENDBRANCH  22  23
ENDBRANCH   5  22
TORSDOF 9
ENDMDL
MODEL 8
REMARK VINA RESULT:      -0.2      2.972      5.555
REMARK  Name = *****
REMARK                            x       y       z     vdW  Elec       q    Type
REMARK                         _______ _______ _______ _____ _____    ______ ____
ROOT
ATOM      1  C   LIG    1       24.235 -19.831   4.045  0.00  0.00    +0.260 C 
ATOM      2  N   LIG    1       24.433 -20.538   5.281  0.00  0.00    -0.235 N 
ATOM      3  C   LIG    1       25.745 -20.443   5.698  0.00  0.00    +0.317 C 
ATOM      4  O   LIG    1       26.224 -21.036   6.664  0.00  0.00    -0.252 OA
ATOM      5  N   LIG    1       26.432 -19.629   4.853  0.00  0.00    -0.199 N 
ATOM      6  C   LIG    1       25.660 -19.315   3.770  0.00  0.00    +0.264 C 
ATOM      7  O   LIG    1       26.029 -18.754   2.746  0.00  0.00    -0.271 OA
ENDROOT
BRANCH   1  10
ATOM      8  O   LIG    1       22.869 -16.510   4.348  0.00  0.00    -0.253 OA
ATOM      9  C   LIG    1       23.626 -17.423   4.028  0.00  0.00    +0.307 C 
ATOM     10  N   LIG    1       23.258 -18.751   4.077  0.00  0.00    -0.235 N 
ATOM     11  N   LIG    1       24.912 -17.191   3.616  0.00  0.00    -0.277 N 
ATOM     12  H   LIG    1       25.203 -17.719   2.810  0.00  0.00    +0.152 HD
BRANCH  10  13
ATOM     13  C   LIG    1       21.901 -19.055   4.477  0.00  0.00    +0.270 C 
BRANCH  13  14
ATOM     14  O   LIG    1       21.008 -18.364   3.629  0.00  0.00    -0.377 OA
ATOM     15  H   LIG    1       20.905 -18.932   2.843  0.00  0.00    +0.211 HD
ENDBRANCH  13  14
ENDBRANCH  10  13
BRANCH  11  16
ATOM     16  C   LIG    1       25.408 -15.857   3.582  0.00  0.00    +0.265 C 
BRANCH  16  17
ATOM     17  O   LIG    1       26.724 -15.967   3.092  0.00  0.00    -0.377 OA
ATOM     18  H   LIG    1       26.787 -16.866   2.727  0.00  0.00    +0.211 HD
ENDBRANCH  16  17
ENDBRANCH  11  16
ENDBRANCH   1  10
BRANCH   2  19
ATOM     19  C   LIG    1       23.536 -21.572   5.714  0.00  0.00    +0.270 C 
BRANCH  19  20
ATOM     20  O   LIG    1       23.195 -21.332   7.062  0.00  0.00    -0.377 OA
ATOM     21  H   LIG    1       23.496 -22.103   7.571  0.00  0.00    +0.211 HD
ENDBRANCH  19  20
ENDBRANCH   2  19
BRANCH   5  22
ATOM     22  C   LIG    1       27.818 -19.295   4.966  0.00  0.00    +0.276 C 
BRANCH  22  23
ATOM     23  O   LIG    1       28.018 -18.005   4.414  0.00  0.00    -0.376 OA
ATOM     24  H   LIG    1       27.183 -17.774   3.969  0.00  0.00    +0.211 HD
ENDBRANCH  22  23
ENDBRANCH   5  22
TORSDOF 9
ENDMDL
MODEL 9
REMARK VINA RESULT:       0.1      2.155      4.388
REMARK  Name = *****
REMARK                            x       y       z     vdW  Elec       q    Type
REMARK                         _______ _______ _______ _____ _____    ______ ____
ROOT
ATOM      1  C   LIG    1       24.962 -17.935   3.309  0.00  0.00    +0.260 C 
ATOM      2  N   LIG    1       23.759 -17.743   4.073  0.00  0.00    -0.235 N 
ATOM      3  C   LIG    1       23.177 -18.955   4.387  0.00  0.00    +0.317 C 
ATOM      4  O   LIG    1       22.088 -19.092   4.942  0.00  0.00    -0.252 OA
ATOM      5  N   LIG    1       23.974 -19.967   3.952  0.00  0.00    -0.199 N 
ATOM      6  C   LIG    1       24.993 -19.470   3.189  0.00  0.00    +0.264 C 
ATOM      7  O   LIG    1       25.776 -20.115   2.505  0.00  0.00    -0.271 OA
ENDROOT
BRANCH   1  10
ATOM      8  O   LIG    1       27.772 -15.756   3.890  0.00  0.00    -0.253 OA
ATOM      9  C   LIG    1       26.624 -16.122   3.657  0.00  0.00    +0.307 C 
ATOM     10  N   LIG    1       26.184 -17.407   3.899  0.00  0.00    -0.235 N 
ATOM     11  N   LIG    1       25.689 -15.281   3.113  0.00  0.00    -0.277 N 
ATOM     12  H   LIG    1       24.779 -15.321   3.541  0.00  0.00    +0.152 HD
BRANCH  10  13
ATOM     13  C   LIG    1       27.121 -18.332   4.501  0.00  0.00    +0.270 C 
BRANCH  13  14
ATOM     14  O   LIG    1       28.425 -17.804   4.385  0.00  0.00    -0.377 OA
ATOM     15  H   LIG    1       28.603 -17.761   3.427  0.00  0.00    +0.211 HD
ENDBRANCH  13  14
ENDBRANCH  10  13
BRANCH  11  16
ATOM     16  C   LIG    1       26.057 -13.948   2.775  0.00  0.00    +0.265 C 
BRANCH  16  17
ATOM     17  O   LIG    1       27.076 -14.082   1.812  0.00  0.00    -0.377 OA
ATOM     18  H   LIG    1       27.695 -13.354   1.991  0.00  0.00    +0.211 HD
ENDBRANCH  16  17
ENDBRANCH  11  16
ENDBRANCH   1  10
BRANCH   2  19
ATOM     19  C   LIG    1       23.044 -16.500   4.059  0.00  0.00    +0.270 C 
BRANCH  19  20
ATOM     20  O   LIG    1       22.329 -16.381   5.271  0.00  0.00    -0.377 OA
ATOM     21  H   LIG    1       22.917 -15.934   5.903  0.00  0.00    +0.211 HD
ENDBRANCH  19  20
ENDBRANCH   2  19
BRANCH   5  22
ATOM     22  C   LIG    1       23.696 -21.363   4.099  0.00  0.00    +0.276 C 
BRANCH  22  23
ATOM     23  O   LIG    1       23.088 -21.572   5.361  0.00  0.00    -0.376 OA
ATOM     24  H   LIG    1       22.602 -22.412   5.286  0.00  0.00    +0.211 HD
ENDBRANCH  22  23
ENDBRANCH   5  22
TORSDOF 9
ENDMDL
