MODEL 1
REMARK VINA RESULT:      -5.8      0.000      0.000
REMARK  Name = *****
REMARK                            x       y       z     vdW  Elec       q    Type
REMARK                         _______ _______ _______ _____ _____    ______ ____
ROOT
ATOM      1  N   LIG    1       25.967 -18.568   3.544  0.00  0.00    -0.311 N 
ATOM      2  H   LIG    1       26.343 -18.936   2.677  0.00  0.00    +0.152 HD
ENDROOT
BRANCH   1   3
ATOM      3  C   LIG    1       25.751 -19.553   4.566  0.00  0.00    +0.050 A 
ATOM      4  C   LIG    1       24.470 -20.154   4.800  0.00  0.00    +0.022 A 
ATOM      5  C   LIG    1       24.366 -21.049   5.885  0.00  0.00    +0.073 A 
ATOM      6  C   LIG    1       23.129 -21.570   6.241  0.00  0.00    +0.028 A 
ATOM      7  C   LIG    1       21.971 -21.284   5.522  0.00  0.00    +0.002 A 
ATOM      8  C   LIG    1       22.062 -20.503   4.384  0.00  0.00    +0.001 A 
ATOM      9  N   LIG    1       25.413 -21.458   6.604  0.00  0.00    -0.247 NA
ATOM     10  C   LIG    1       26.624 -20.961   6.345  0.00  0.00    +0.073 A 
ATOM     11  C   LIG    1       27.686 -21.498   7.062  0.00  0.00    +0.028 A 
ATOM     12  C   LIG    1       28.988 -21.022   6.920  0.00  0.00    +0.002 A 
ATOM     13  C   LIG    1       29.222 -19.943   6.083  0.00  0.00    +0.001 A 
ATOM     14  C   LIG    1       28.168 -19.400   5.340  0.00  0.00    +0.012 A 
ATOM     15  C   LIG    1       23.299 -19.970   4.016  0.00  0.00    +0.012 A 
ATOM     16  C   LIG    1       26.856 -19.943   5.398  0.00  0.00    +0.022 A 
ENDBRANCH   1   3
BRANCH   1  18
ATOM     17  C   LIG    1       24.681 -16.459   3.759  0.00  0.00    +0.143 A 
ATOM     18  C   LIG    1       25.902 -17.152   3.532  0.00  0.00    +0.074 A 
ATOM     19  C   LIG    1       27.069 -16.390   3.348  0.00  0.00    +0.029 A 
ATOM     20  C   LIG    1       27.041 -14.996   3.365  0.00  0.00    +0.026 A 
ATOM     21  C   LIG    1       25.836 -14.336   3.547  0.00  0.00    +0.051 A 
ATOM     22  C   LIG    1       24.670 -15.056   3.780  0.00  0.00    +0.072 A 
BRANCH  17  24
ATOM     23  C   LIG    1       22.513 -16.528   4.733  0.00  0.00    +0.277 C 
ATOM     24  O   LIG    1       23.532 -17.194   3.971  0.00  0.00    -0.493 OA
ENDBRANCH  17  24
BRANCH  21  25
ATOM     25  N   LIG    1       25.794 -12.912   3.518  0.00  0.00    -0.221 N 
ATOM     26  H   LIG    1       26.551 -12.469   2.995  0.00  0.00    +0.173 HD
BRANCH  25  27
ATOM     27  S   LIG    1       24.329 -12.191   3.082  0.00  0.00    +0.040 S 
ATOM     28  O   LIG    1       24.481 -11.454   1.863  0.00  0.00    -0.155 OA
ATOM     29  O   LIG    1       23.853 -11.545   4.302  0.00  0.00    -0.155 OA
ATOM     30  C   LIG    1       23.309 -13.621   2.803  0.00  0.00    +0.218 C 
ENDBRANCH  25  27
ENDBRANCH  21  25
ENDBRANCH   1  18
TORSDOF 5
ENDMDL
MODEL 2
REMARK VINA RESULT:      -3.8      1.799      2.042
REMARK  Name = *****
REMARK                            x       y       z     vdW  Elec       q    Type
REMARK                         _______ _______ _______ _____ _____    ______ ____
ROOT
ATOM      1  N   LIG    1       25.753 -18.574   3.551  0.00  0.00    -0.311 N 
ATOM      2  H   LIG    1       25.822 -18.955   2.612  0.00  0.00    +0.152 HD
ENDROOT
BRANCH   1   3
ATOM      3  C   LIG    1       25.550 -19.556   4.578  0.00  0.00    +0.050 A 
ATOM      4  C   LIG    1       24.273 -20.159   4.828  0.00  0.00    +0.022 A 
ATOM      5  C   LIG    1       24.182 -21.050   5.917  0.00  0.00    +0.073 A 
ATOM      6  C   LIG    1       22.949 -21.572   6.288  0.00  0.00    +0.028 A 
ATOM      7  C   LIG    1       21.783 -21.290   5.580  0.00  0.00    +0.002 A 
ATOM      8  C   LIG    1       21.861 -20.513   4.438  0.00  0.00    +0.001 A 
ATOM      9  N   LIG    1       25.237 -21.454   6.626  0.00  0.00    -0.247 NA
ATOM     10  C   LIG    1       26.444 -20.956   6.353  0.00  0.00    +0.073 A 
ATOM     11  C   LIG    1       27.515 -21.489   7.060  0.00  0.00    +0.028 A 
ATOM     12  C   LIG    1       28.814 -21.011   6.902  0.00  0.00    +0.002 A 
ATOM     13  C   LIG    1       29.038 -19.935   6.059  0.00  0.00    +0.001 A 
ATOM     14  C   LIG    1       27.975 -19.396   5.326  0.00  0.00    +0.012 A 
ATOM     15  C   LIG    1       23.093 -19.979   4.056  0.00  0.00    +0.012 A 
ATOM     16  C   LIG    1       26.664 -19.941   5.399  0.00  0.00    +0.022 A 
ENDBRANCH   1   3
BRANCH   1  18
ATOM     17  C   LIG    1       24.982 -16.220   3.649  0.00  0.00    +0.143 A 
ATOM     18  C   LIG    1       26.026 -17.184   3.577  0.00  0.00    +0.074 A 
ATOM     19  C   LIG    1       27.353 -16.721   3.590  0.00  0.00    +0.029 A 
ATOM     20  C   LIG    1       27.652 -15.360   3.650  0.00  0.00    +0.026 A 
ATOM     21  C   LIG    1       26.622 -14.432   3.678  0.00  0.00    +0.051 A 
ATOM     22  C   LIG    1       25.299 -14.854   3.715  0.00  0.00    +0.072 A 
BRANCH  17  24
ATOM     23  C   LIG    1       22.841 -16.058   4.669  0.00  0.00    +0.277 C 
ATOM     24  O   LIG    1       23.674 -16.660   3.667  0.00  0.00    -0.493 OA
ENDBRANCH  17  24
BRANCH  21  25
ATOM     25  N   LIG    1       26.921 -13.039   3.691  0.00  0.00    -0.221 N 
ATOM     26  H   LIG    1       26.372 -12.487   4.353  0.00  0.00    +0.173 HD
BRANCH  25  27
ATOM     27  S   LIG    1       28.547 -12.599   3.822  0.00  0.00    +0.040 S 
ATOM     28  O   LIG    1       28.817 -11.448   3.012  0.00  0.00    -0.155 OA
ATOM     29  O   LIG    1       29.288 -13.844   3.639  0.00  0.00    -0.155 OA
ATOM     30  C   LIG    1       28.651 -12.165   5.544  0.00  0.00    +0.218 C 
ENDBRANCH  25  27
ENDBRANCH  21  25
ENDBRANCH   1  18
TORSDOF 5
ENDMDL
