MODEL 1
REMARK VINA RESULT:     -11.7      0.000      0.000
REMARK  Name = *****
REMARK                            x       y       z     vdW  Elec       q    Type
REMARK                         _______ _______ _______ _____ _____    ______ ____
ROOT
ATOM      1  C   LIG    1       24.927 -27.650   6.470  0.00  0.00    +0.037 A 
ATOM      2  C   LIG    1       26.282 -27.372   6.625  0.00  0.00    +0.015 A 
ATOM      3  C   LIG    1       26.757 -26.059   6.534  0.00  0.00    +0.024 A 
ATOM      4  C   LIG    1       25.881 -24.970   6.442  0.00  0.00    +0.034 A 
ATOM      5  C   LIG    1       24.515 -25.223   6.451  0.00  0.00    +0.024 A 
ATOM      6  C   LIG    1       24.042 -26.554   6.455  0.00  0.00    +0.015 A 
ENDROOT
BRANCH   1  17
ATOM      7  C   LIG    1       19.783 -31.814  11.307  0.00  0.00    +0.086 C 
ATOM      8  C   LIG    1       21.031 -31.605  10.537  0.00  0.00    +0.105 A 
ATOM      9  N   LIG    1       21.871 -30.536  10.759  0.00  0.00    -0.342 N 
ATOM     10  H   LIG    1       21.719 -29.803  11.435  0.00  0.00    +0.167 HD
ATOM     11  C   LIG    1       22.948 -30.663   9.918  0.00  0.00    +0.071 A 
ATOM     12  C   LIG    1       24.179 -29.880   9.867  0.00  0.00    +0.021 A 
ATOM     13  C   LIG    1       24.953 -29.810   8.675  0.00  0.00    +0.046 A 
ATOM     14  N   LIG    1       24.362 -30.008   7.383  0.00  0.00    -0.267 N 
ATOM     15  C   LIG    1       23.765 -31.318   7.040  0.00  0.00    +0.120 C 
ATOM     16  C   LIG    1       23.561 -32.358   8.146  0.00  0.00    +0.077 C 
ATOM     17  C   LIG    1       24.367 -29.044   6.330  0.00  0.00    +0.251 C 
ATOM     18  O   LIG    1       23.898 -29.323   5.220  0.00  0.00    -0.270 OA
ATOM     19  C   LIG    1       26.285 -29.380   8.751  0.00  0.00    +0.024 A 
ATOM     20  C   LIG    1       26.785 -28.839   9.936  0.00  0.00    +0.002 A 
ATOM     21  C   LIG    1       25.967 -28.745  11.059  0.00  0.00    +0.001 A 
ATOM     22  C   LIG    1       24.685 -29.299  11.039  0.00  0.00    +0.012 A 
ATOM     23  C   LIG    1       22.677 -31.806   9.197  0.00  0.00    +0.069 A 
ATOM     24  N   LIG    1       21.499 -32.382   9.582  0.00  0.00    -0.237 NA
ENDBRANCH   1  17
BRANCH   4  25
ATOM     25  N   LIG    1       26.495 -23.704   6.369  0.00  0.00    -0.281 N 
ATOM     26  H   LIG    1       27.026 -23.553   5.528  0.00  0.00    +0.155 HD
ATOM     27  C   LIG    1       26.471 -22.654   7.290  0.00  0.00    +0.249 C 
ATOM     28  O   LIG    1       25.911 -22.673   8.359  0.00  0.00    -0.270 OA
BRANCH  27  29
ATOM     29  C   LIG    1       27.212 -21.414   6.811  0.00  0.00    +0.045 A 
ATOM     30  C   LIG    1       26.650 -20.397   5.987  0.00  0.00    -0.006 A 
ATOM     31  C   LIG    1       27.544 -19.359   5.590  0.00  0.00    +0.009 A 
ATOM     32  C   LIG    1       28.894 -19.316   5.948  0.00  0.00    +0.001 A 
ATOM     33  C   LIG    1       29.413 -20.302   6.760  0.00  0.00    +0.001 A 
ATOM     34  C   LIG    1       28.585 -21.339   7.177  0.00  0.00    +0.013 A 
BRANCH  30  35
ATOM     35  C   LIG    1       25.227 -20.286   5.514  0.00  0.00    -0.017 A 
ATOM     36  C   LIG    1       24.932 -19.781   4.222  0.00  0.00    +0.008 A 
ATOM     37  C   LIG    1       23.624 -19.591   3.761  0.00  0.00    +0.001 A 
ATOM     38  C   LIG    1       22.553 -19.955   4.561  0.00  0.00    +0.000 A 
ATOM     39  C   LIG    1       22.798 -20.472   5.828  0.00  0.00    +0.001 A 
ATOM     40  C   LIG    1       24.112 -20.601   6.308  0.00  0.00    +0.008 A 
ENDBRANCH  30  35
ENDBRANCH  27  29
ENDBRANCH   4  25
TORSDOF 4
ENDMDL
MODEL 2
REMARK VINA RESULT:     -10.4      1.284      2.978
REMARK  Name = *****
REMARK                            x       y       z     vdW  Elec       q    Type
REMARK                         _______ _______ _______ _____ _____    ______ ____
ROOT
ATOM      1  C   LIG    1       25.304 -28.470   5.891  0.00  0.00    +0.037 A 
ATOM      2  C   LIG    1       26.367 -27.733   5.378  0.00  0.00    +0.015 A 
ATOM      3  C   LIG    1       26.227 -26.368   5.109  0.00  0.00    +0.024 A 
ATOM      4  C   LIG    1       25.078 -25.663   5.489  0.00  0.00    +0.034 A 
ATOM      5  C   LIG    1       24.072 -26.355   6.153  0.00  0.00    +0.024 A 
ATOM      6  C   LIG    1       24.181 -27.750   6.343  0.00  0.00    +0.015 A 
ENDROOT
BRANCH   1  17
ATOM      7  C   LIG    1       21.039 -33.432  10.830  0.00  0.00    +0.086 C 
ATOM      8  C   LIG    1       22.268 -32.894  10.202  0.00  0.00    +0.105 A 
ATOM      9  N   LIG    1       22.625 -31.566  10.285  0.00  0.00    -0.342 N 
ATOM     10  H   LIG    1       22.096 -30.846  10.754  0.00  0.00    +0.167 HD
ATOM     11  C   LIG    1       23.826 -31.409   9.641  0.00  0.00    +0.071 A 
ATOM     12  C   LIG    1       24.696 -30.239   9.575  0.00  0.00    +0.021 A 
ATOM     13  C   LIG    1       25.623 -30.075   8.509  0.00  0.00    +0.046 A 
ATOM     14  N   LIG    1       25.412 -30.686   7.229  0.00  0.00    -0.267 N 
ATOM     15  C   LIG    1       25.385 -32.162   7.114  0.00  0.00    +0.120 C 
ATOM     16  C   LIG    1       25.332 -33.009   8.390  0.00  0.00    +0.077 C 
ATOM     17  C   LIG    1       25.299 -29.976   5.996  0.00  0.00    +0.251 C 
ATOM     18  O   LIG    1       25.191 -30.586   4.926  0.00  0.00    -0.270 OA
ATOM     19  C   LIG    1       26.681 -29.167   8.659  0.00  0.00    +0.024 A 
ATOM     20  C   LIG    1       26.712 -28.294   9.746  0.00  0.00    +0.002 A 
ATOM     21  C   LIG    1       25.702 -28.336  10.704  0.00  0.00    +0.001 A 
ATOM     22  C   LIG    1       24.722 -29.329  10.643  0.00  0.00    +0.012 A 
ATOM     23  C   LIG    1       24.118 -32.671   9.166  0.00  0.00    +0.069 A 
ATOM     24  N   LIG    1       23.158 -33.579   9.514  0.00  0.00    -0.237 NA
ENDBRANCH   1  17
BRANCH   4  25
ATOM     25  N   LIG    1       25.074 -24.291   5.169  0.00  0.00    -0.281 N 
ATOM     26  H   LIG    1       25.125 -24.101   4.182  0.00  0.00    +0.155 HD
ATOM     27  C   LIG    1       25.016 -23.184   6.017  0.00  0.00    +0.249 C 
ATOM     28  O   LIG    1       24.981 -23.227   7.222  0.00  0.00    -0.270 OA
BRANCH  27  29
ATOM     29  C   LIG    1       24.969 -21.856   5.274  0.00  0.00    +0.045 A 
ATOM     30  C   LIG    1       25.898 -20.792   5.449  0.00  0.00    -0.006 A 
ATOM     31  C   LIG    1       25.624 -19.603   4.708  0.00  0.00    +0.009 A 
ATOM     32  C   LIG    1       24.516 -19.447   3.870  0.00  0.00    +0.001 A 
ATOM     33  C   LIG    1       23.639 -20.497   3.702  0.00  0.00    +0.001 A 
ATOM     34  C   LIG    1       23.858 -21.680   4.401  0.00  0.00    +0.013 A 
BRANCH  30  35
ATOM     35  C   LIG    1       27.136 -20.789   6.302  0.00  0.00    -0.017 A 
ATOM     36  C   LIG    1       28.282 -20.049   5.912  0.00  0.00    +0.008 A 
ATOM     37  C   LIG    1       29.481 -20.072   6.633  0.00  0.00    +0.001 A 
ATOM     38  C   LIG    1       29.563 -20.796   7.812  0.00  0.00    +0.000 A 
ATOM     39  C   LIG    1       28.457 -21.521   8.240  0.00  0.00    +0.001 A 
ATOM     40  C   LIG    1       27.276 -21.544   7.478  0.00  0.00    +0.008 A 
ENDBRANCH  30  35
ENDBRANCH  27  29
ENDBRANCH   4  25
TORSDOF 4
ENDMDL
