MODEL 1
REMARK VINA RESULT:      -4.3      0.000      0.000
REMARK  Name = *****
REMARK                            x       y       z     vdW  Elec       q    Type
REMARK                         _______ _______ _______ _____ _____    ______ ____
ROOT
ATOM      1  C   LIG    1       24.968 -20.071   4.706  0.00  0.00    +0.138 A 
ATOM      2  C   LIG    1       26.299 -20.113   5.222  0.00  0.00    -0.002 A 
ATOM      3  C   LIG    1       26.778 -21.289   6.041  0.00  0.00    +0.048 C 
ATOM      4  C   LIG    1       27.189 -19.038   4.942  0.00  0.00    -0.002 A 
ATOM      5  C   LIG    1       28.568 -18.965   5.548  0.00  0.00    +0.048 C 
ATOM      6  C   LIG    1       26.763 -18.031   4.063  0.00  0.00    +0.124 A 
ATOM      7  C   LIG    1       25.435 -17.953   3.658  0.00  0.00    +0.052 A 
ATOM      8  C   LIG    1       24.528 -18.986   3.927  0.00  0.00    -0.004 A 
ATOM      9  C   LIG    1       23.165 -18.825   3.322  0.00  0.00    +0.048 C 
ENDROOT
BRANCH   1  10
ATOM     10  O   LIG    1       24.175 -21.261   4.886  0.00  0.00    -0.425 OA
BRANCH  10  12
ATOM     11  C   LIG    1       23.251 -21.556   7.062  0.00  0.00    +0.136 C 
ATOM     12  C   LIG    1       22.974 -21.445   5.593  0.00  0.00    +0.309 C 
ATOM     13  O   LIG    1       21.834 -21.474   5.116  0.00  0.00    -0.251 OA
ENDBRANCH  10  12
ENDBRANCH   1  10
BRANCH   6  14
ATOM     14  O   LIG    1       27.614 -17.102   3.515  0.00  0.00    -0.489 OA
BRANCH  14  15
ATOM     15  C   LIG    1       26.953 -15.822   3.367  0.00  0.00    +0.261 C 
BRANCH  15  16
ATOM     16  C   LIG    1       27.581 -14.747   4.274  0.00  0.00    +0.166 C 
BRANCH  16  17
ATOM     17  O   LIG    1       28.594 -14.016   3.573  0.00  0.00    -0.387 OA
ATOM     18  H   LIG    1       28.730 -14.477   2.729  0.00  0.00    +0.210 HD
ENDBRANCH  16  17
BRANCH  16  19
ATOM     19  C   LIG    1       26.508 -13.787   4.813  0.00  0.00    +0.115 C 
BRANCH  19  20
ATOM     20  N   LIG    1       25.941 -12.928   3.758  0.00  0.00    -0.311 NA
ATOM     21  H   LIG    1       26.271 -13.266   2.851  0.00  0.00    +0.122 HD
BRANCH  20  22
ATOM     22  C   LIG    1       24.472 -12.888   3.801  0.00  0.00    +0.048 C 
ATOM     23  C   LIG    1       23.897 -14.268   4.140  0.00  0.00    +0.024 C 
ATOM     24  C   LIG    1       23.905 -12.428   2.455  0.00  0.00    +0.024 C 
ENDBRANCH  20  22
ENDBRANCH  19  20
ENDBRANCH  16  19
ENDBRANCH  15  16
ENDBRANCH  14  15
ENDBRANCH   6  14
TORSDOF 9
ENDMDL
MODEL 2
REMARK VINA RESULT:      -3.6      1.996      3.744
REMARK  Name = *****
REMARK                            x       y       z     vdW  Elec       q    Type
REMARK                         _______ _______ _______ _____ _____    ______ ____
ROOT
ATOM      1  C   LIG    1       24.521 -19.764   4.347  0.00  0.00    +0.138 A 
ATOM      2  C   LIG    1       23.100 -19.647   4.434  0.00  0.00    -0.002 A 
ATOM      3  C   LIG    1       22.247 -20.825   4.843  0.00  0.00    +0.048 C 
ATOM      4  C   LIG    1       22.485 -18.396   4.149  0.00  0.00    -0.002 A 
ATOM      5  C   LIG    1       20.986 -18.233   4.113  0.00  0.00    +0.048 C 
ATOM      6  C   LIG    1       23.309 -17.286   3.912  0.00  0.00    +0.124 A 
ATOM      7  C   LIG    1       24.678 -17.441   3.728  0.00  0.00    +0.052 A 
ATOM      8  C   LIG    1       25.316 -18.661   3.986  0.00  0.00    -0.004 A 
ATOM      9  C   LIG    1       26.811 -18.649   3.867  0.00  0.00    +0.048 C 
ENDROOT
BRANCH   1  10
ATOM     10  O   LIG    1       25.089 -21.005   4.807  0.00  0.00    -0.425 OA
BRANCH  10  12
ATOM     11  C   LIG    1       24.509 -21.516   7.061  0.00  0.00    +0.136 C 
ATOM     12  C   LIG    1       25.616 -21.342   6.066  0.00  0.00    +0.309 C 
ATOM     13  O   LIG    1       26.808 -21.520   6.343  0.00  0.00    -0.251 OA
ENDBRANCH  10  12
ENDBRANCH   1  10
BRANCH   6  14
ATOM     14  O   LIG    1       22.843 -15.993   3.894  0.00  0.00    -0.489 OA
BRANCH  14  15
ATOM     15  C   LIG    1       23.815 -15.088   4.470  0.00  0.00    +0.261 C 
BRANCH  15  16
ATOM     16  C   LIG    1       24.044 -13.853   3.577  0.00  0.00    +0.166 C 
BRANCH  16  17
ATOM     17  O   LIG    1       24.175 -12.667   4.370  0.00  0.00    -0.387 OA
ATOM     18  H   LIG    1       23.525 -12.033   4.025  0.00  0.00    +0.210 HD
ENDBRANCH  16  17
BRANCH  16  19
ATOM     19  C   LIG    1       25.286 -14.040   2.690  0.00  0.00    +0.115 C 
BRANCH  19  20
ATOM     20  N   LIG    1       26.343 -13.055   2.985  0.00  0.00    -0.311 NA
ATOM     21  H   LIG    1       26.074 -12.532   3.822  0.00  0.00    +0.122 HD
BRANCH  20  22
ATOM     22  C   LIG    1       27.660 -13.685   3.158  0.00  0.00    +0.048 C 
ATOM     23  C   LIG    1       27.538 -15.001   3.935  0.00  0.00    +0.024 C 
ATOM     24  C   LIG    1       28.611 -12.748   3.907  0.00  0.00    +0.024 C 
ENDBRANCH  20  22
ENDBRANCH  19  20
ENDBRANCH  16  19
ENDBRANCH  15  16
ENDBRANCH  14  15
ENDBRANCH   6  14
TORSDOF 9
ENDMDL
MODEL 3
REMARK VINA RESULT:      -3.0      1.790      2.707
REMARK  Name = *****
REMARK                            x       y       z     vdW  Elec       q    Type
REMARK                         _______ _______ _______ _____ _____    ______ ____
ROOT
ATOM      1  C   LIG    1       23.810 -19.252   4.182  0.00  0.00    +0.138 A 
ATOM      2  C   LIG    1       25.230 -19.141   4.079  0.00  0.00    -0.002 A 
ATOM      3  C   LIG    1       26.116 -20.359   4.205  0.00  0.00    +0.048 C 
ATOM      4  C   LIG    1       25.813 -17.867   3.834  0.00  0.00    -0.002 A 
ATOM      5  C   LIG    1       27.308 -17.661   3.826  0.00  0.00    +0.048 C 
ATOM      6  C   LIG    1       24.963 -16.781   3.580  0.00  0.00    +0.124 A 
ATOM      7  C   LIG    1       23.592 -16.886   3.788  0.00  0.00    +0.052 A 
ATOM      8  C   LIG    1       22.984 -18.122   4.043  0.00  0.00    -0.004 A 
ATOM      9  C   LIG    1       21.487 -18.104   4.122  0.00  0.00    +0.048 C 
ENDROOT
BRANCH   1  10
ATOM     10  O   LIG    1       23.278 -20.589   4.264  0.00  0.00    -0.425 OA
BRANCH  10  12
ATOM     11  C   LIG    1       23.119 -21.182   6.566  0.00  0.00    +0.136 C 
ATOM     12  C   LIG    1       22.436 -21.165   5.232  0.00  0.00    +0.309 C 
ATOM     13  O   LIG    1       21.282 -21.571   5.057  0.00  0.00    -0.251 OA
ENDBRANCH  10  12
ENDBRANCH   1  10
BRANCH   6  14
ATOM     14  O   LIG    1       25.404 -15.582   3.073  0.00  0.00    -0.489 OA
BRANCH  14  15
ATOM     15  C   LIG    1       24.455 -14.525   3.355  0.00  0.00    +0.261 C 
BRANCH  15  16
ATOM     16  C   LIG    1       24.732 -13.269   2.506  0.00  0.00    +0.166 C 
BRANCH  16  17
ATOM     17  O   LIG    1       23.677 -12.311   2.653  0.00  0.00    -0.387 OA
ATOM     18  H   LIG    1       24.030 -11.463   2.336  0.00  0.00    +0.210 HD
ENDBRANCH  16  17
BRANCH  16  19
ATOM     19  C   LIG    1       26.082 -12.637   2.884  0.00  0.00    +0.115 C 
BRANCH  19  20
ATOM     20  N   LIG    1       27.213 -13.560   2.677  0.00  0.00    -0.311 NA
ATOM     21  H   LIG    1       27.753 -13.234   1.872  0.00  0.00    +0.122 HD
BRANCH  20  22
ATOM     22  C   LIG    1       28.064 -13.674   3.870  0.00  0.00    +0.048 C 
ATOM     23  C   LIG    1       27.227 -13.568   5.150  0.00  0.00    +0.024 C 
ATOM     24  C   LIG    1       29.131 -12.576   3.878  0.00  0.00    +0.024 C 
ENDBRANCH  20  22
ENDBRANCH  19  20
ENDBRANCH  16  19
ENDBRANCH  15  16
ENDBRANCH  14  15
ENDBRANCH   6  14
TORSDOF 9
ENDMDL
MODEL 4
REMARK VINA RESULT:      -2.9      2.056      4.405
REMARK  Name = *****
REMARK                            x       y       z     vdW  Elec       q    Type
REMARK                         _______ _______ _______ _____ _____    ______ ____
ROOT
ATOM      1  C   LIG    1       26.272 -20.058   5.009  0.00  0.00    +0.138 A 
ATOM      2  C   LIG    1       25.459 -20.680   6.005  0.00  0.00    -0.002 A 
ATOM      3  C   LIG    1       26.069 -21.571   7.061  0.00  0.00    +0.048 C 
ATOM      4  C   LIG    1       24.057 -20.436   6.012  0.00  0.00    -0.002 A 
ATOM      5  C   LIG    1       23.127 -21.147   6.964  0.00  0.00    +0.048 C 
ATOM      6  C   LIG    1       23.539 -19.494   5.111  0.00  0.00    +0.124 A 
ATOM      7  C   LIG    1       24.325 -18.982   4.084  0.00  0.00    +0.052 A 
ATOM      8  C   LIG    1       25.706 -19.212   4.039  0.00  0.00    -0.004 A 
ATOM      9  C   LIG    1       26.446 -18.496   2.949  0.00  0.00    +0.048 C 
ENDROOT
BRANCH   1  10
ATOM     10  O   LIG    1       27.696 -20.213   5.159  0.00  0.00    -0.425 OA
BRANCH  10  12
ATOM     11  C   LIG    1       29.125 -19.909   7.041  0.00  0.00    +0.136 C 
ATOM     12  C   LIG    1       28.639 -19.347   5.740  0.00  0.00    +0.309 C 
ATOM     13  O   LIG    1       29.063 -18.289   5.260  0.00  0.00    -0.251 OA
ENDBRANCH  10  12
ENDBRANCH   1  10
BRANCH   6  14
ATOM     14  O   LIG    1       22.266 -18.985   5.204  0.00  0.00    -0.489 OA
BRANCH  14  15
ATOM     15  C   LIG    1       21.980 -18.107   4.088  0.00  0.00    +0.261 C 
BRANCH  15  16
ATOM     16  C   LIG    1       22.047 -16.623   4.498  0.00  0.00    +0.166 C 
BRANCH  16  17
ATOM     17  O   LIG    1       21.906 -16.478   5.916  0.00  0.00    -0.387 OA
ATOM     18  H   LIG    1       21.188 -15.839   6.056  0.00  0.00    +0.210 HD
ENDBRANCH  16  17
BRANCH  16  19
ATOM     19  C   LIG    1       23.362 -15.982   4.025  0.00  0.00    +0.115 C 
BRANCH  19  20
ATOM     20  N   LIG    1       23.749 -14.821   4.847  0.00  0.00    -0.311 NA
ATOM     21  H   LIG    1       24.193 -15.163   5.703  0.00  0.00    +0.122 HD
BRANCH  20  22
ATOM     22  C   LIG    1       24.639 -13.899   4.125  0.00  0.00    +0.048 C 
ATOM     23  C   LIG    1       23.881 -13.169   3.010  0.00  0.00    +0.024 C 
ATOM     24  C   LIG    1       25.819 -14.659   3.512  0.00  0.00    +0.024 C 
ENDBRANCH  20  22
ENDBRANCH  19  20
ENDBRANCH  16  19
ENDBRANCH  15  16
ENDBRANCH  14  15
ENDBRANCH   6  14
TORSDOF 9
ENDMDL
MODEL 5
REMARK VINA RESULT:      -2.5      1.534      2.806
REMARK  Name = *****
REMARK                            x       y       z     vdW  Elec       q    Type
REMARK                         _______ _______ _______ _____ _____    ______ ____
ROOT
ATOM      1  C   LIG    1       24.215 -19.221   4.149  0.00  0.00    +0.138 A 
ATOM      2  C   LIG    1       23.334 -18.114   4.341  0.00  0.00    -0.002 A 
ATOM      3  C   LIG    1       21.967 -18.306   4.957  0.00  0.00    +0.048 C 
ATOM      4  C   LIG    1       23.761 -16.810   3.965  0.00  0.00    -0.002 A 
ATOM      5  C   LIG    1       22.841 -15.616   4.037  0.00  0.00    +0.048 C 
ATOM      6  C   LIG    1       25.084 -16.641   3.530  0.00  0.00    +0.124 A 
ATOM      7  C   LIG    1       25.888 -17.739   3.251  0.00  0.00    +0.052 A 
ATOM      8  C   LIG    1       25.495 -19.039   3.595  0.00  0.00    -0.004 A 
ATOM      9  C   LIG    1       26.514 -20.111   3.349  0.00  0.00    +0.048 C 
ENDROOT
BRANCH   1  10
ATOM     10  O   LIG    1       23.788 -20.481   4.702  0.00  0.00    -0.425 OA
BRANCH  10  12
ATOM     11  C   LIG    1       23.075 -21.347   6.804  0.00  0.00    +0.136 C 
ATOM     12  C   LIG    1       24.222 -21.150   5.860  0.00  0.00    +0.309 C 
ATOM     13  O   LIG    1       25.364 -21.567   6.086  0.00  0.00    -0.251 OA
ENDBRANCH  10  12
ENDBRANCH   1  10
BRANCH   6  14
ATOM     14  O   LIG    1       25.681 -15.409   3.400  0.00  0.00    -0.489 OA
BRANCH  14  15
ATOM     15  C   LIG    1       27.060 -15.458   3.838  0.00  0.00    +0.261 C 
BRANCH  15  16
ATOM     16  C   LIG    1       27.638 -14.047   4.063  0.00  0.00    +0.166 C 
BRANCH  16  17
ATOM     17  O   LIG    1       28.769 -13.817   3.214  0.00  0.00    -0.387 OA
ATOM     18  H   LIG    1       29.092 -14.693   2.945  0.00  0.00    +0.210 HD
ENDBRANCH  16  17
BRANCH  16  19
ATOM     19  C   LIG    1       26.566 -12.971   3.824  0.00  0.00    +0.115 C 
BRANCH  19  20
ATOM     20  N   LIG    1       25.523 -12.974   4.866  0.00  0.00    -0.311 NA
ATOM     21  H   LIG    1       25.807 -12.334   5.611  0.00  0.00    +0.122 HD
BRANCH  20  22
ATOM     22  C   LIG    1       24.202 -12.610   4.334  0.00  0.00    +0.048 C 
ATOM     23  C   LIG    1       24.300 -12.209   2.858  0.00  0.00    +0.024 C 
ATOM     24  C   LIG    1       23.603 -11.447   5.129  0.00  0.00    +0.024 C 
ENDBRANCH  20  22
ENDBRANCH  19  20
ENDBRANCH  16  19
ENDBRANCH  15  16
ENDBRANCH  14  15
ENDBRANCH   6  14
TORSDOF 9
ENDMDL
MODEL 6
REMARK VINA RESULT:      -2.5      2.718      7.056
REMARK  Name = *****
REMARK                            x       y       z     vdW  Elec       q    Type
REMARK                         _______ _______ _______ _____ _____    ______ ____
ROOT
ATOM      1  C   LIG    1       24.696 -15.311   4.031  0.00  0.00    +0.138 A 
ATOM      2  C   LIG    1       23.439 -15.871   4.414  0.00  0.00    -0.002 A 
ATOM      3  C   LIG    1       22.316 -14.991   4.912  0.00  0.00    +0.048 C 
ATOM      4  C   LIG    1       23.240 -17.276   4.305  0.00  0.00    -0.002 A 
ATOM      5  C   LIG    1       21.980 -17.944   4.797  0.00  0.00    +0.048 C 
ATOM      6  C   LIG    1       24.246 -18.048   3.708  0.00  0.00    +0.124 A 
ATOM      7  C   LIG    1       25.497 -17.504   3.440  0.00  0.00    +0.052 A 
ATOM      8  C   LIG    1       25.734 -16.128   3.549  0.00  0.00    -0.004 A 
ATOM      9  C   LIG    1       27.091 -15.667   3.108  0.00  0.00    +0.048 C 
ENDROOT
BRANCH   1  10
ATOM     10  O   LIG    1       24.774 -13.873   4.009  0.00  0.00    -0.425 OA
BRANCH  10  12
ATOM     11  C   LIG    1       23.810 -11.806   3.317  0.00  0.00    +0.136 C 
ATOM     12  C   LIG    1       24.654 -12.981   2.928  0.00  0.00    +0.309 C 
ATOM     13  O   LIG    1       25.186 -13.094   1.817  0.00  0.00    -0.251 OA
ENDBRANCH  10  12
ENDBRANCH   1  10
BRANCH   6  14
ATOM     14  O   LIG    1       24.059 -19.350   3.310  0.00  0.00    -0.489 OA
BRANCH  14  15
ATOM     15  C   LIG    1       23.548 -20.153   4.401  0.00  0.00    +0.261 C 
BRANCH  15  16
ATOM     16  C   LIG    1       24.579 -21.198   4.871  0.00  0.00    +0.166 C 
BRANCH  16  17
ATOM     17  O   LIG    1       25.653 -21.315   3.931  0.00  0.00    -0.387 OA
ATOM     18  H   LIG    1       26.120 -22.138   4.149  0.00  0.00    +0.210 HD
ENDBRANCH  16  17
BRANCH  16  19
ATOM     19  C   LIG    1       25.126 -20.841   6.263  0.00  0.00    +0.115 C 
BRANCH  19  20
ATOM     20  N   LIG    1       26.426 -21.479   6.538  0.00  0.00    -0.311 NA
ATOM     21  H   LIG    1       26.657 -22.095   5.755  0.00  0.00    +0.122 HD
BRANCH  20  22
ATOM     22  C   LIG    1       27.493 -20.493   6.764  0.00  0.00    +0.048 C 
ATOM     23  C   LIG    1       27.669 -19.588   5.540  0.00  0.00    +0.024 C 
ATOM     24  C   LIG    1       28.821 -21.195   7.061  0.00  0.00    +0.024 C 
ENDBRANCH  20  22
ENDBRANCH  19  20
ENDBRANCH  16  19
ENDBRANCH  15  16
ENDBRANCH  14  15
ENDBRANCH   6  14
TORSDOF 9
ENDMDL
MODEL 7
REMARK VINA RESULT:      -2.4      0.817      2.237
REMARK  Name = *****
REMARK                            x       y       z     vdW  Elec       q    Type
REMARK                         _______ _______ _______ _____ _____    ______ ____
ROOT
ATOM      1  C   LIG    1       25.792 -20.209   4.823  0.00  0.00    +0.138 A 
ATOM      2  C   LIG    1       25.357 -19.157   3.961  0.00  0.00    -0.002 A 
ATOM      3  C   LIG    1       23.998 -19.202   3.304  0.00  0.00    +0.048 C 
ATOM      4  C   LIG    1       26.212 -18.041   3.737  0.00  0.00    -0.002 A 
ATOM      5  C   LIG    1       25.863 -16.952   2.754  0.00  0.00    +0.048 C 
ATOM      6  C   LIG    1       27.405 -17.957   4.470  0.00  0.00    +0.124 A 
ATOM      7  C   LIG    1       27.859 -19.037   5.219  0.00  0.00    +0.052 A 
ATOM      8  C   LIG    1       27.050 -20.157   5.451  0.00  0.00    -0.004 A 
ATOM      9  C   LIG    1       27.619 -21.187   6.379  0.00  0.00    +0.048 C 
ENDROOT
BRANCH   1  10
ATOM     10  O   LIG    1       24.817 -21.222   5.137  0.00  0.00    -0.425 OA
BRANCH  10  12
ATOM     11  C   LIG    1       23.663 -20.423   7.062  0.00  0.00    +0.136 C 
ATOM     12  C   LIG    1       23.548 -21.097   5.728  0.00  0.00    +0.309 C 
ATOM     13  O   LIG    1       22.467 -21.442   5.235  0.00  0.00    -0.251 OA
ENDBRANCH  10  12
ENDBRANCH   1  10
BRANCH   6  14
ATOM     14  O   LIG    1       28.168 -16.816   4.538  0.00  0.00    -0.489 OA
BRANCH  14  15
ATOM     15  C   LIG    1       27.469 -15.694   3.945  0.00  0.00    +0.261 C 
BRANCH  15  16
ATOM     16  C   LIG    1       28.059 -14.347   4.404  0.00  0.00    +0.166 C 
BRANCH  16  17
ATOM     17  O   LIG    1       28.839 -13.750   3.361  0.00  0.00    -0.387 OA
ATOM     18  H   LIG    1       28.299 -13.797   2.554  0.00  0.00    +0.210 HD
ENDBRANCH  16  17
BRANCH  16  19
ATOM     19  C   LIG    1       26.947 -13.386   4.854  0.00  0.00    +0.115 C 
BRANCH  19  20
ATOM     20  N   LIG    1       25.879 -13.249   3.847  0.00  0.00    -0.311 NA
ATOM     21  H   LIG    1       25.954 -14.027   3.187  0.00  0.00    +0.122 HD
BRANCH  20  22
ATOM     22  C   LIG    1       24.541 -13.203   4.456  0.00  0.00    +0.048 C 
ATOM     23  C   LIG    1       23.747 -14.472   4.127  0.00  0.00    +0.024 C 
ATOM     24  C   LIG    1       23.763 -11.983   3.955  0.00  0.00    +0.024 C 
ENDBRANCH  20  22
ENDBRANCH  19  20
ENDBRANCH  16  19
ENDBRANCH  15  16
ENDBRANCH  14  15
ENDBRANCH   6  14
TORSDOF 9
ENDMDL
MODEL 8
REMARK VINA RESULT:      -2.3      2.461      7.076
REMARK  Name = *****
REMARK                            x       y       z     vdW  Elec       q    Type
REMARK                         _______ _______ _______ _____ _____    ______ ____
ROOT
ATOM      1  C   LIG    1       25.398 -15.295   3.895  0.00  0.00    +0.138 A 
ATOM      2  C   LIG    1       24.036 -15.041   4.242  0.00  0.00    -0.002 A 
ATOM      3  C   LIG    1       23.537 -13.630   4.450  0.00  0.00    +0.048 C 
ATOM      4  C   LIG    1       23.135 -16.134   4.373  0.00  0.00    -0.002 A 
ATOM      5  C   LIG    1       21.715 -15.947   4.845  0.00  0.00    +0.048 C 
ATOM      6  C   LIG    1       23.590 -17.417   4.035  0.00  0.00    +0.124 A 
ATOM      7  C   LIG    1       24.939 -17.658   3.804  0.00  0.00    +0.052 A 
ATOM      8  C   LIG    1       25.858 -16.606   3.682  0.00  0.00    -0.004 A 
ATOM      9  C   LIG    1       27.254 -17.006   3.308  0.00  0.00    +0.048 C 
ENDROOT
BRANCH   1  10
ATOM     10  O   LIG    1       26.213 -14.139   3.618  0.00  0.00    -0.425 OA
BRANCH  10  12
ATOM     11  C   LIG    1       28.431 -13.280   3.485  0.00  0.00    +0.136 C 
ATOM     12  C   LIG    1       27.257 -13.572   4.369  0.00  0.00    +0.309 C 
ATOM     13  O   LIG    1       27.234 -13.300   5.575  0.00  0.00    -0.251 OA
ENDBRANCH  10  12
ENDBRANCH   1  10
BRANCH   6  14
ATOM     14  O   LIG    1       22.750 -18.493   3.865  0.00  0.00    -0.489 OA
BRANCH  14  15
ATOM     15  C   LIG    1       23.080 -19.554   4.794  0.00  0.00    +0.261 C 
BRANCH  15  16
ATOM     16  C   LIG    1       23.505 -20.841   4.061  0.00  0.00    +0.166 C 
BRANCH  16  17
ATOM     17  O   LIG    1       23.934 -20.551   2.725  0.00  0.00    -0.387 OA
ATOM     18  H   LIG    1       23.237 -20.004   2.327  0.00  0.00    +0.210 HD
ENDBRANCH  16  17
BRANCH  16  19
ATOM     19  C   LIG    1       24.620 -21.568   4.832  0.00  0.00    +0.115 C 
BRANCH  19  20
ATOM     20  N   LIG    1       25.938 -20.932   4.649  0.00  0.00    -0.311 NA
ATOM     21  H   LIG    1       25.795 -19.992   4.273  0.00  0.00    +0.122 HD
BRANCH  20  22
ATOM     22  C   LIG    1       26.713 -20.888   5.897  0.00  0.00    +0.048 C 
ATOM     23  C   LIG    1       25.847 -20.397   7.062  0.00  0.00    +0.024 C 
ATOM     24  C   LIG    1       27.922 -19.960   5.748  0.00  0.00    +0.024 C 
ENDBRANCH  20  22
ENDBRANCH  19  20
ENDBRANCH  16  19
ENDBRANCH  15  16
ENDBRANCH  14  15
ENDBRANCH   6  14
TORSDOF 9
ENDMDL
MODEL 9
REMARK VINA RESULT:      -2.1      2.038      3.787
REMARK  Name = *****
REMARK                            x       y       z     vdW  Elec       q    Type
REMARK                         _______ _______ _______ _____ _____    ______ ____
ROOT
ATOM      1  C   LIG    1       24.509 -18.827   4.067  0.00  0.00    +0.138 A 
ATOM      2  C   LIG    1       23.160 -18.490   4.395  0.00  0.00    -0.002 A 
ATOM      3  C   LIG    1       22.177 -19.552   4.827  0.00  0.00    +0.048 C 
ATOM      4  C   LIG    1       22.748 -17.129   4.331  0.00  0.00    -0.002 A 
ATOM      5  C   LIG    1       21.313 -16.719   4.555  0.00  0.00    +0.048 C 
ATOM      6  C   LIG    1       23.715 -16.150   4.066  0.00  0.00    +0.124 A 
ATOM      7  C   LIG    1       24.993 -16.505   3.647  0.00  0.00    +0.052 A 
ATOM      8  C   LIG    1       25.430 -17.835   3.684  0.00  0.00    -0.004 A 
ATOM      9  C   LIG    1       26.869 -18.055   3.324  0.00  0.00    +0.048 C 
ENDROOT
BRANCH   1  10
ATOM     10  O   LIG    1       24.904 -20.191   4.311  0.00  0.00    -0.425 OA
BRANCH  10  12
ATOM     11  C   LIG    1       26.601 -20.464   5.961  0.00  0.00    +0.136 C 
ATOM     12  C   LIG    1       25.217 -20.835   5.521  0.00  0.00    +0.309 C 
ATOM     13  O   LIG    1       24.473 -21.572   6.178  0.00  0.00    -0.251 OA
ENDBRANCH  10  12
ENDBRANCH   1  10
BRANCH   6  14
ATOM     14  O   LIG    1       23.493 -14.805   4.243  0.00  0.00    -0.489 OA
BRANCH  14  15
ATOM     15  C   LIG    1       23.828 -14.066   3.044  0.00  0.00    +0.261 C 
BRANCH  15  16
ATOM     16  C   LIG    1       24.226 -12.612   3.362  0.00  0.00    +0.166 C 
BRANCH  16  17
ATOM     17  O   LIG    1       23.888 -12.274   4.713  0.00  0.00    -0.387 OA
ATOM     18  H   LIG    1       23.025 -12.682   4.890  0.00  0.00    +0.210 HD
ENDBRANCH  16  17
BRANCH  16  19
ATOM     19  C   LIG    1       25.727 -12.387   3.116  0.00  0.00    +0.115 C 
BRANCH  19  20
ATOM     20  N   LIG    1       26.452 -13.646   2.866  0.00  0.00    -0.311 NA
ATOM     21  H   LIG    1       26.875 -13.597   1.937  0.00  0.00    +0.122 HD
BRANCH  20  22
ATOM     22  C   LIG    1       27.467 -13.917   3.894  0.00  0.00    +0.048 C 
ATOM     23  C   LIG    1       26.897 -13.693   5.299  0.00  0.00    +0.024 C 
ATOM     24  C   LIG    1       28.686 -13.010   3.700  0.00  0.00    +0.024 C 
ENDBRANCH  20  22
ENDBRANCH  19  20
ENDBRANCH  16  19
ENDBRANCH  15  16
ENDBRANCH  14  15
ENDBRANCH   6  14
TORSDOF 9
ENDMDL
