MODEL 1
REMARK VINA RESULT:      17.8      0.000      0.000
REMARK  Name = *****
REMARK                            x       y       z     vdW  Elec       q    Type
REMARK                         _______ _______ _______ _____ _____    ______ ____
ROOT
ATOM      1  C   LIG    1       25.309 -20.895   5.275  0.00  0.00    +0.000 C 
ATOM      2  C   LIG    1       25.617 -20.779   6.571  0.00  0.00    +0.000 C 
ENDROOT
BRANCH   1   4
ATOM      3  C   LIG    1       22.874 -21.332   5.558  0.00  0.00    -0.050 C 
ATOM      4  C   LIG    1       23.977 -21.197   4.801  0.00  0.00    +0.003 C 
ATOM      5  C   LIG    1       22.806 -21.269   7.061  0.00  0.00    +0.044 C 
BRANCH   3   7
ATOM      6  C   LIG    1       20.770 -20.658   4.382  0.00  0.00    +0.001 C 
ATOM      7  C   LIG    1       21.571 -21.571   4.949  0.00  0.00    +0.003 C 
BRANCH   6   9
ATOM      8  C   LIG    1       20.494 -18.415   3.340  0.00  0.00    -0.050 C 
ATOM      9  C   LIG    1       21.060 -19.253   4.221  0.00  0.00    +0.003 C 
ATOM     10  C   LIG    1       19.384 -18.736   2.379  0.00  0.00    +0.044 C 
BRANCH   8  12
ATOM     11  C   LIG    1       21.783 -16.511   4.194  0.00  0.00    +0.000 C 
ATOM     12  C   LIG    1       20.954 -17.040   3.286  0.00  0.00    +0.003 C 
BRANCH  11  14
ATOM     13  C   LIG    1       22.866 -14.476   5.123  0.00  0.00    -0.072 C 
ATOM     14  C   LIG    1       22.262 -15.154   4.130  0.00  0.00    -0.001 C 
ATOM     15  C   LIG    1       23.136 -15.023   6.505  0.00  0.00    +0.039 C 
BRANCH  13  16
ATOM     16  C   LIG    1       23.298 -13.039   4.904  0.00  0.00    +0.034 C 
BRANCH  16  17
ATOM     17  C   LIG    1       23.083 -12.583   3.457  0.00  0.00    +0.031 C 
BRANCH  17  20
ATOM     18  C   LIG    1       26.537 -11.751   1.826  0.00  0.00    +0.038 C 
ATOM     19  C   LIG    1       25.374 -12.552   2.344  0.00  0.00    -0.080 C 
ATOM     20  C   LIG    1       24.312 -11.932   2.896  0.00  0.00    -0.028 C 
ATOM     21  C   LIG    1       25.532 -14.042   2.208  0.00  0.00    +0.038 C 
ENDBRANCH  17  20
ENDBRANCH  16  17
ENDBRANCH  13  16
ENDBRANCH  11  14
ENDBRANCH   8  12
ENDBRANCH   6   9
ENDBRANCH   3   7
ENDBRANCH   1   4
BRANCH   2  22
ATOM     22  C   LIG    1       26.966 -20.508   7.012  0.00  0.00    +0.003 C 
ATOM     23  C   LIG    1       28.072 -20.529   6.251  0.00  0.00    -0.050 C 
ATOM     24  C   LIG    1       29.419 -20.174   6.837  0.00  0.00    +0.044 C 
BRANCH  23  25
ATOM     25  C   LIG    1       28.049 -20.818   4.817  0.00  0.00    +0.003 C 
ATOM     26  C   LIG    1       28.050 -19.930   3.816  0.00  0.00    +0.001 C 
BRANCH  26  27
ATOM     27  C   LIG    1       28.210 -18.503   3.993  0.00  0.00    +0.003 C 
ATOM     28  C   LIG    1       27.286 -17.541   3.817  0.00  0.00    -0.050 C 
ATOM     29  C   LIG    1       25.839 -17.779   3.482  0.00  0.00    +0.044 C 
BRANCH  28  30
ATOM     30  C   LIG    1       27.639 -16.138   4.017  0.00  0.00    +0.003 C 
ATOM     31  C   LIG    1       28.645 -15.727   4.798  0.00  0.00    +0.000 C 
BRANCH  31  32
ATOM     32  C   LIG    1       29.032 -14.348   4.942  0.00  0.00    -0.001 C 
ATOM     33  C   LIG    1       28.990 -13.427   3.963  0.00  0.00    -0.072 C 
ATOM     34  C   LIG    1       28.486 -13.656   2.562  0.00  0.00    +0.039 C 
BRANCH  33  35
ATOM     35  C   LIG    1       29.403 -11.998   4.270  0.00  0.00    +0.034 C 
BRANCH  35  36
ATOM     36  C   LIG    1       28.836 -11.454   5.587  0.00  0.00    +0.031 C 
BRANCH  36  37
ATOM     37  C   LIG    1       28.197 -12.533   6.419  0.00  0.00    -0.028 C 
ATOM     38  C   LIG    1       27.054 -13.193   6.150  0.00  0.00    -0.080 C 
ATOM     39  C   LIG    1       26.566 -14.291   7.056  0.00  0.00    +0.038 C 
ATOM     40  C   LIG    1       26.185 -12.944   4.949  0.00  0.00    +0.038 C 
ENDBRANCH  36  37
ENDBRANCH  35  36
ENDBRANCH  33  35
ENDBRANCH  31  32
ENDBRANCH  28  30
ENDBRANCH  26  27
ENDBRANCH  23  25
ENDBRANCH   2  22
TORSDOF 16
ENDMDL
