MODEL 1
REMARK VINA RESULT:      -5.3      0.000      0.000
REMARK  Name = *****
REMARK                            x       y       z     vdW  Elec       q    Type
REMARK                         _______ _______ _______ _____ _____    ______ ____
ROOT
ATOM      1  N   LIG    1       24.643 -18.042   3.686  0.00  0.00    -0.297 N 
ATOM      2  C   LIG    1       25.570 -17.008   3.462  0.00  0.00    +0.226 C 
ATOM      3  O   LIG    1       26.788 -17.289   3.274  0.00  0.00    -0.275 OA
ENDROOT
BRANCH   1   5
ATOM      4  C   LIG    1       22.467 -19.008   4.510  0.00  0.00    +0.024 C 
ATOM      5  C   LIG    1       23.203 -17.823   3.875  0.00  0.00    +0.105 C 
ENDBRANCH   1   5
BRANCH   2   6
ATOM      6  C   LIG    1       25.165 -15.516   3.415  0.00  0.00    +0.130 C 
BRANCH   6   7
ATOM      7  C   LIG    1       26.295 -14.515   3.698  0.00  0.00    -0.033 A 
ATOM      8  C   LIG    1       27.221 -14.093   2.730  0.00  0.00    +0.004 A 
ATOM      9  C   LIG    1       28.275 -13.230   3.072  0.00  0.00    +0.000 A 
ATOM     10  C   LIG    1       28.424 -12.781   4.381  0.00  0.00    +0.000 A 
ATOM     11  C   LIG    1       27.527 -13.199   5.355  0.00  0.00    +0.000 A 
ATOM     12  C   LIG    1       26.481 -14.063   5.019  0.00  0.00    +0.004 A 
ENDBRANCH   6   7
BRANCH   6  13
ATOM     13  C   LIG    1       23.941 -15.185   4.333  0.00  0.00    +0.173 C 
BRANCH  13  14
ATOM     14  O   LIG    1       23.334 -13.907   4.146  0.00  0.00    -0.394 OA
ATOM     15  H   LIG    1       24.035 -13.272   3.894  0.00  0.00    +0.209 HD
ENDBRANCH  13  14
ENDBRANCH   6  13
ENDBRANCH   2   6
BRANCH   1  16
ATOM     16  C   LIG    1       25.132 -19.440   3.681  0.00  0.00    +0.143 C 
BRANCH  16  17
ATOM     17  C   LIG    1       25.755 -20.016   4.939  0.00  0.00    -0.027 A 
ATOM     18  C   LIG    1       25.130 -20.967   5.756  0.00  0.00    +0.025 A 
ATOM     19  C   LIG    1       25.849 -21.556   6.792  0.00  0.00    +0.111 A 
ATOM     20  N   LIG    1       27.142 -21.287   7.062  0.00  0.00    -0.263 NA
ATOM     21  C   LIG    1       27.743 -20.387   6.260  0.00  0.00    +0.111 A 
ATOM     22  C   LIG    1       27.104 -19.739   5.211  0.00  0.00    +0.025 A 
ENDBRANCH  16  17
ENDBRANCH   1  16
TORSDOF 7
ENDMDL
MODEL 2
REMARK VINA RESULT:      -5.1      2.325      3.649
REMARK  Name = *****
REMARK                            x       y       z     vdW  Elec       q    Type
REMARK                         _______ _______ _______ _____ _____    ______ ____
ROOT
ATOM      1  N   LIG    1       26.964 -17.128   3.781  0.00  0.00    -0.297 N 
ATOM      2  C   LIG    1       26.216 -15.967   3.516  0.00  0.00    +0.226 C 
ATOM      3  O   LIG    1       25.132 -16.054   2.872  0.00  0.00    -0.275 OA
ENDROOT
BRANCH   1   5
ATOM      4  C   LIG    1       28.580 -18.508   5.134  0.00  0.00    +0.024 C 
ATOM      5  C   LIG    1       28.214 -17.138   4.553  0.00  0.00    +0.105 C 
ENDBRANCH   1   5
BRANCH   2   6
ATOM      6  C   LIG    1       26.650 -14.563   3.998  0.00  0.00    +0.130 C 
BRANCH   6   7
ATOM      7  C   LIG    1       25.649 -13.431   3.724  0.00  0.00    -0.033 A 
ATOM      8  C   LIG    1       24.775 -12.914   4.695  0.00  0.00    +0.004 A 
ATOM      9  C   LIG    1       23.833 -11.927   4.362  0.00  0.00    +0.000 A 
ATOM     10  C   LIG    1       23.745 -11.447   3.058  0.00  0.00    +0.000 A 
ATOM     11  C   LIG    1       24.590 -11.957   2.081  0.00  0.00    +0.000 A 
ATOM     12  C   LIG    1       25.524 -12.943   2.409  0.00  0.00    +0.004 A 
ENDBRANCH   6   7
BRANCH   6  13
ATOM     13  C   LIG    1       28.061 -14.142   3.465  0.00  0.00    +0.173 C 
BRANCH  13  14
ATOM     14  O   LIG    1       28.648 -12.988   4.064  0.00  0.00    -0.394 OA
ATOM     15  H   LIG    1       29.063 -12.457   3.354  0.00  0.00    +0.209 HD
ENDBRANCH  13  14
ENDBRANCH   6  13
ENDBRANCH   2   6
BRANCH   1  16
ATOM     16  C   LIG    1       26.441 -18.428   3.300  0.00  0.00    +0.143 C 
BRANCH  16  17
ATOM     17  C   LIG    1       25.332 -19.117   4.073  0.00  0.00    -0.027 A 
ATOM     18  C   LIG    1       23.967 -18.914   3.832  0.00  0.00    +0.025 A 
ATOM     19  C   LIG    1       23.032 -19.716   4.480  0.00  0.00    +0.111 A 
ATOM     20  N   LIG    1       23.351 -20.712   5.329  0.00  0.00    -0.263 NA
ATOM     21  C   LIG    1       24.666 -20.916   5.541  0.00  0.00    +0.111 A 
ATOM     22  C   LIG    1       25.669 -20.159   4.951  0.00  0.00    +0.025 A 
ENDBRANCH  16  17
ENDBRANCH   1  16
TORSDOF 7
ENDMDL
MODEL 3
REMARK VINA RESULT:      -5.0      2.120      3.147
REMARK  Name = *****
REMARK                            x       y       z     vdW  Elec       q    Type
REMARK                         _______ _______ _______ _____ _____    ______ ____
ROOT
ATOM      1  N   LIG    1       24.330 -16.666   3.939  0.00  0.00    -0.297 N 
ATOM      2  C   LIG    1       25.634 -16.237   3.634  0.00  0.00    +0.226 C 
ATOM      3  O   LIG    1       26.388 -16.973   2.936  0.00  0.00    -0.275 OA
ENDROOT
BRANCH   1   5
ATOM      4  C   LIG    1       21.972 -16.501   4.810  0.00  0.00    +0.024 C 
ATOM      5  C   LIG    1       23.364 -15.869   4.708  0.00  0.00    +0.105 C 
ENDBRANCH   1   5
BRANCH   2   6
ATOM      6  C   LIG    1       26.197 -14.875   4.101  0.00  0.00    +0.130 C 
BRANCH   6   7
ATOM      7  C   LIG    1       25.397 -13.640   3.658  0.00  0.00    -0.033 A 
ATOM      8  C   LIG    1       24.616 -12.866   4.531  0.00  0.00    +0.004 A 
ATOM      9  C   LIG    1       23.851 -11.791   4.050  0.00  0.00    +0.000 A 
ATOM     10  C   LIG    1       23.848 -11.478   2.693  0.00  0.00    +0.000 A 
ATOM     11  C   LIG    1       24.602 -12.242   1.812  0.00  0.00    +0.000 A 
ATOM     12  C   LIG    1       25.360 -13.316   2.289  0.00  0.00    +0.004 A 
ENDBRANCH   6   7
BRANCH   6  13
ATOM     13  C   LIG    1       27.704 -14.674   3.724  0.00  0.00    +0.173 C 
BRANCH  13  14
ATOM     14  O   LIG    1       28.222 -13.351   3.860  0.00  0.00    -0.394 OA
ATOM     15  H   LIG    1       29.137 -13.418   4.200  0.00  0.00    +0.209 HD
ENDBRANCH  13  14
ENDBRANCH   6  13
ENDBRANCH   2   6
BRANCH   1  16
ATOM     16  C   LIG    1       23.879 -17.976   3.415  0.00  0.00    +0.143 C 
BRANCH  16  17
ATOM     17  C   LIG    1       24.056 -19.220   4.265  0.00  0.00    -0.027 A 
ATOM     18  C   LIG    1       25.289 -19.849   4.485  0.00  0.00    +0.025 A 
ATOM     19  C   LIG    1       25.372 -20.883   5.412  0.00  0.00    +0.111 A 
ATOM     20  N   LIG    1       24.333 -21.323   6.149  0.00  0.00    -0.263 NA
ATOM     21  C   LIG    1       23.155 -20.701   5.948  0.00  0.00    +0.111 A 
ATOM     22  C   LIG    1       22.973 -19.670   5.036  0.00  0.00    +0.025 A 
ENDBRANCH  16  17
ENDBRANCH   1  16
TORSDOF 7
ENDMDL
MODEL 4
REMARK VINA RESULT:      -4.3      1.966      6.065
REMARK  Name = *****
REMARK                            x       y       z     vdW  Elec       q    Type
REMARK                         _______ _______ _______ _____ _____    ______ ____
ROOT
ATOM      1  N   LIG    1       24.513 -16.902   3.680  0.00  0.00    -0.297 N 
ATOM      2  C   LIG    1       25.354 -18.019   3.531  0.00  0.00    +0.226 C 
ATOM      3  O   LIG    1       26.433 -17.908   2.883  0.00  0.00    -0.275 OA
ENDROOT
BRANCH   1   5
ATOM      4  C   LIG    1       22.713 -15.526   4.782  0.00  0.00    +0.024 C 
ATOM      5  C   LIG    1       23.259 -16.918   4.445  0.00  0.00    +0.105 C 
ENDBRANCH   1   5
BRANCH   2   6
ATOM      6  C   LIG    1       25.028 -19.400   4.146  0.00  0.00    +0.130 C 
BRANCH   6   7
ATOM      7  C   LIG    1       26.042 -19.920   5.177  0.00  0.00    -0.033 A 
ATOM      8  C   LIG    1       27.403 -19.573   5.173  0.00  0.00    +0.004 A 
ATOM      9  C   LIG    1       28.292 -20.140   6.100  0.00  0.00    +0.000 A 
ATOM     10  C   LIG    1       27.839 -21.063   7.039  0.00  0.00    +0.000 A 
ATOM     11  C   LIG    1       26.500 -21.431   7.048  0.00  0.00    +0.000 A 
ATOM     12  C   LIG    1       25.615 -20.872   6.122  0.00  0.00    +0.004 A 
ENDBRANCH   6   7
BRANCH   6  13
ATOM     13  C   LIG    1       24.777 -20.507   3.068  0.00  0.00    +0.173 C 
BRANCH  13  14
ATOM     14  O   LIG    1       23.788 -21.487   3.381  0.00  0.00    -0.394 OA
ATOM     15  H   LIG    1       23.935 -22.261   2.801  0.00  0.00    +0.209 HD
ENDBRANCH  13  14
ENDBRANCH   6  13
ENDBRANCH   2   6
BRANCH   1  16
ATOM     16  C   LIG    1       24.934 -15.617   3.075  0.00  0.00    +0.143 C 
BRANCH  16  17
ATOM     17  C   LIG    1       26.066 -14.830   3.711  0.00  0.00    -0.027 A 
ATOM     18  C   LIG    1       27.270 -14.530   3.062  0.00  0.00    +0.025 A 
ATOM     19  C   LIG    1       28.175 -13.663   3.668  0.00  0.00    +0.111 A 
ATOM     20  N   LIG    1       27.964 -13.060   4.854  0.00  0.00    -0.263 NA
ATOM     21  C   LIG    1       26.795 -13.337   5.464  0.00  0.00    +0.111 A 
ATOM     22  C   LIG    1       25.838 -14.198   4.943  0.00  0.00    +0.025 A 
ENDBRANCH  16  17
ENDBRANCH   1  16
TORSDOF 7
ENDMDL
MODEL 5
REMARK VINA RESULT:      -4.2      2.126      3.137
REMARK  Name = *****
REMARK                            x       y       z     vdW  Elec       q    Type
REMARK                         _______ _______ _______ _____ _____    ______ ____
ROOT
ATOM      1  N   LIG    1       24.474 -16.485   3.635  0.00  0.00    -0.297 N 
ATOM      2  C   LIG    1       24.357 -15.087   3.541  0.00  0.00    +0.226 C 
ATOM      3  O   LIG    1       23.362 -14.505   4.060  0.00  0.00    -0.275 OA
ENDROOT
BRANCH   1   5
ATOM      4  C   LIG    1       26.943 -16.959   3.797  0.00  0.00    +0.024 C 
ATOM      5  C   LIG    1       25.609 -17.250   3.101  0.00  0.00    +0.105 C 
ENDBRANCH   1   5
BRANCH   2   6
ATOM      6  C   LIG    1       25.414 -14.204   2.836  0.00  0.00    +0.130 C 
BRANCH   6   7
ATOM      7  C   LIG    1       26.544 -13.680   3.735  0.00  0.00    -0.033 A 
ATOM      8  C   LIG    1       26.410 -13.486   5.119  0.00  0.00    +0.004 A 
ATOM      9  C   LIG    1       27.459 -12.935   5.873  0.00  0.00    +0.000 A 
ATOM     10  C   LIG    1       28.652 -12.565   5.258  0.00  0.00    +0.000 A 
ATOM     11  C   LIG    1       28.798 -12.736   3.888  0.00  0.00    +0.000 A 
ATOM     12  C   LIG    1       27.752 -13.278   3.135  0.00  0.00    +0.004 A 
ENDBRANCH   6   7
BRANCH   6  13
ATOM     13  C   LIG    1       24.784 -13.006   2.049  0.00  0.00    +0.173 C 
BRANCH  13  14
ATOM     14  O   LIG    1       23.872 -12.180   2.772  0.00  0.00    -0.394 OA
ATOM     15  H   LIG    1       24.132 -11.247   2.633  0.00  0.00    +0.209 HD
ENDBRANCH  13  14
ENDBRANCH   6  13
ENDBRANCH   2   6
BRANCH   1  16
ATOM     16  C   LIG    1       23.420 -17.232   4.360  0.00  0.00    +0.143 C 
BRANCH  16  17
ATOM     17  C   LIG    1       23.417 -18.749   4.315  0.00  0.00    -0.027 A 
ATOM     18  C   LIG    1       24.410 -19.515   3.689  0.00  0.00    +0.025 A 
ATOM     19  C   LIG    1       24.405 -20.898   3.846  0.00  0.00    +0.111 A 
ATOM     20  N   LIG    1       23.506 -21.571   4.591  0.00  0.00    -0.263 NA
ATOM     21  C   LIG    1       22.566 -20.827   5.206  0.00  0.00    +0.111 A 
ATOM     22  C   LIG    1       22.483 -19.445   5.097  0.00  0.00    +0.025 A 
ENDBRANCH  16  17
ENDBRANCH   1  16
TORSDOF 7
ENDMDL
MODEL 6
REMARK VINA RESULT:      -3.9      2.147      6.590
REMARK  Name = *****
REMARK                            x       y       z     vdW  Elec       q    Type
REMARK                         _______ _______ _______ _____ _____    ______ ____
ROOT
ATOM      1  N   LIG    1       26.198 -18.241   3.565  0.00  0.00    -0.297 N 
ATOM      2  C   LIG    1       27.127 -18.780   4.473  0.00  0.00    +0.226 C 
ATOM      3  O   LIG    1       28.188 -18.146   4.733  0.00  0.00    -0.275 OA
ENDROOT
BRANCH   1   5
ATOM      4  C   LIG    1       23.686 -18.114   3.719  0.00  0.00    +0.024 C 
ATOM      5  C   LIG    1       24.919 -18.880   3.226  0.00  0.00    +0.105 C 
ENDBRANCH   1   5
BRANCH   2   6
ATOM      6  C   LIG    1       26.904 -20.128   5.197  0.00  0.00    +0.130 C 
BRANCH   6   7
ATOM      7  C   LIG    1       25.444 -20.460   5.543  0.00  0.00    -0.033 A 
ATOM      8  C   LIG    1       24.853 -20.167   6.783  0.00  0.00    +0.004 A 
ATOM      9  C   LIG    1       23.534 -20.561   7.062  0.00  0.00    +0.000 A 
ATOM     10  C   LIG    1       22.790 -21.257   6.113  0.00  0.00    +0.000 A 
ATOM     11  C   LIG    1       23.362 -21.569   4.887  0.00  0.00    +0.000 A 
ATOM     12  C   LIG    1       24.677 -21.183   4.610  0.00  0.00    +0.004 A 
ENDBRANCH   6   7
BRANCH   6  13
ATOM     13  C   LIG    1       27.785 -20.286   6.481  0.00  0.00    +0.173 C 
BRANCH  13  14
ATOM     14  O   LIG    1       29.188 -20.454   6.273  0.00  0.00    -0.394 OA
ATOM     15  H   LIG    1       29.630 -20.412   7.145  0.00  0.00    +0.209 HD
ENDBRANCH  13  14
ENDBRANCH   6  13
ENDBRANCH   2   6
BRANCH   1  16
ATOM     16  C   LIG    1       26.496 -16.927   2.950  0.00  0.00    +0.143 C 
BRANCH  16  17
ATOM     17  C   LIG    1       26.238 -15.658   3.742  0.00  0.00    -0.027 A 
ATOM     18  C   LIG    1       27.246 -14.893   4.341  0.00  0.00    +0.025 A 
ATOM     19  C   LIG    1       26.925 -13.660   4.902  0.00  0.00    +0.111 A 
ATOM     20  N   LIG    1       25.689 -13.124   4.892  0.00  0.00    -0.263 NA
ATOM     21  C   LIG    1       24.728 -13.856   4.296  0.00  0.00    +0.111 A 
ATOM     22  C   LIG    1       24.950 -15.101   3.722  0.00  0.00    +0.025 A 
ENDBRANCH  16  17
ENDBRANCH   1  16
TORSDOF 7
ENDMDL
MODEL 7
REMARK VINA RESULT:      -3.8      1.037      1.251
REMARK  Name = *****
REMARK                            x       y       z     vdW  Elec       q    Type
REMARK                         _______ _______ _______ _____ _____    ______ ____
ROOT
ATOM      1  N   LIG    1       24.109 -17.529   3.602  0.00  0.00    -0.297 N 
ATOM      2  C   LIG    1       25.177 -16.626   3.464  0.00  0.00    +0.226 C 
ATOM      3  O   LIG    1       26.353 -17.065   3.317  0.00  0.00    -0.275 OA
ENDROOT
BRANCH   1   5
ATOM      4  C   LIG    1       22.226 -16.995   5.189  0.00  0.00    +0.024 C 
ATOM      5  C   LIG    1       22.704 -17.121   3.739  0.00  0.00    +0.105 C 
ENDBRANCH   1   5
BRANCH   2   6
ATOM      6  C   LIG    1       24.982 -15.092   3.464  0.00  0.00    +0.130 C 
BRANCH   6   7
ATOM      7  C   LIG    1       26.244 -14.264   3.755  0.00  0.00    -0.033 A 
ATOM      8  C   LIG    1       27.142 -13.841   2.762  0.00  0.00    +0.004 A 
ATOM      9  C   LIG    1       28.315 -13.149   3.102  0.00  0.00    +0.000 A 
ATOM     10  C   LIG    1       28.612 -12.874   4.434  0.00  0.00    +0.000 A 
ATOM     11  C   LIG    1       27.743 -13.297   5.431  0.00  0.00    +0.000 A 
ATOM     12  C   LIG    1       26.578 -13.992   5.096  0.00  0.00    +0.004 A 
ENDBRANCH   6   7
BRANCH   6  13
ATOM     13  C   LIG    1       23.829 -14.622   4.413  0.00  0.00    +0.173 C 
BRANCH  13  14
ATOM     14  O   LIG    1       23.474 -13.241   4.347  0.00  0.00    -0.394 OA
ATOM     15  H   LIG    1       24.249 -12.745   4.013  0.00  0.00    +0.209 HD
ENDBRANCH  13  14
ENDBRANCH   6  13
ENDBRANCH   2   6
BRANCH   1  16
ATOM     16  C   LIG    1       24.403 -18.980   3.557  0.00  0.00    +0.143 C 
BRANCH  16  17
ATOM     17  C   LIG    1       24.451 -19.772   4.850  0.00  0.00    -0.027 A 
ATOM     18  C   LIG    1       23.317 -20.264   5.508  0.00  0.00    +0.025 A 
ATOM     19  C   LIG    1       23.475 -21.119   6.596  0.00  0.00    +0.111 A 
ATOM     20  N   LIG    1       24.668 -21.534   7.062  0.00  0.00    -0.263 NA
ATOM     21  C   LIG    1       25.755 -21.073   6.412  0.00  0.00    +0.111 A 
ATOM     22  C   LIG    1       25.696 -20.208   5.328  0.00  0.00    +0.025 A 
ENDBRANCH  16  17
ENDBRANCH   1  16
TORSDOF 7
ENDMDL
MODEL 8
REMARK VINA RESULT:      -3.5      2.083      6.572
REMARK  Name = *****
REMARK                            x       y       z     vdW  Elec       q    Type
REMARK                         _______ _______ _______ _____ _____    ______ ____
ROOT
ATOM      1  N   LIG    1       24.421 -16.781   3.749  0.00  0.00    -0.297 N 
ATOM      2  C   LIG    1       23.359 -17.621   4.125  0.00  0.00    +0.226 C 
ATOM      3  O   LIG    1       22.351 -17.132   4.711  0.00  0.00    -0.275 OA
ENDROOT
BRANCH   1   5
ATOM      4  C   LIG    1       26.847 -17.440   3.924  0.00  0.00    +0.024 C 
ATOM      5  C   LIG    1       25.617 -17.244   3.031  0.00  0.00    +0.105 C 
ENDBRANCH   1   5
BRANCH   2   6
ATOM      6  C   LIG    1       23.351 -19.141   3.839  0.00  0.00    +0.130 C 
BRANCH   6   7
ATOM      7  C   LIG    1       23.908 -20.029   4.963  0.00  0.00    -0.033 A 
ATOM      8  C   LIG    1       23.117 -20.577   5.985  0.00  0.00    +0.004 A 
ATOM      9  C   LIG    1       23.699 -21.322   7.024  0.00  0.00    +0.000 A 
ATOM     10  C   LIG    1       25.075 -21.524   7.062  0.00  0.00    +0.000 A 
ATOM     11  C   LIG    1       25.876 -20.976   6.068  0.00  0.00    +0.000 A 
ATOM     12  C   LIG    1       25.300 -20.230   5.037  0.00  0.00    +0.004 A 
ENDBRANCH   6   7
BRANCH   6  13
ATOM     13  C   LIG    1       24.056 -19.514   2.492  0.00  0.00    +0.173 C 
BRANCH  13  14
ATOM     14  O   LIG    1       24.238 -20.906   2.234  0.00  0.00    -0.394 OA
ATOM     15  H   LIG    1       23.731 -21.407   2.905  0.00  0.00    +0.209 HD
ENDBRANCH  13  14
ENDBRANCH   6  13
ENDBRANCH   2   6
BRANCH   1  16
ATOM     16  C   LIG    1       24.313 -15.333   4.044  0.00  0.00    +0.143 C 
BRANCH  16  17
ATOM     17  C   LIG    1       25.552 -14.460   3.956  0.00  0.00    -0.027 A 
ATOM     18  C   LIG    1       26.291 -14.038   5.069  0.00  0.00    +0.025 A 
ATOM     19  C   LIG    1       27.502 -13.381   4.874  0.00  0.00    +0.111 A 
ATOM     20  N   LIG    1       28.041 -13.132   3.665  0.00  0.00    -0.263 NA
ATOM     21  C   LIG    1       27.335 -13.559   2.599  0.00  0.00    +0.111 A 
ATOM     22  C   LIG    1       26.112 -14.210   2.694  0.00  0.00    +0.025 A 
ENDBRANCH  16  17
ENDBRANCH   1  16
TORSDOF 7
ENDMDL
MODEL 9
REMARK VINA RESULT:      -3.0      2.491      6.958
REMARK  Name = *****
REMARK                            x       y       z     vdW  Elec       q    Type
REMARK                         _______ _______ _______ _____ _____    ______ ____
ROOT
ATOM      1  N   LIG    1       23.853 -16.547   4.327  0.00  0.00    -0.297 N 
ATOM      2  C   LIG    1       24.536 -17.658   3.802  0.00  0.00    +0.226 C 
ATOM      3  O   LIG    1       25.778 -17.580   3.578  0.00  0.00    -0.275 OA
ENDROOT
BRANCH   1   5
ATOM      4  C   LIG    1       22.039 -15.589   5.791  0.00  0.00    +0.024 C 
ATOM      5  C   LIG    1       22.421 -16.549   4.659  0.00  0.00    +0.105 C 
ENDBRANCH   1   5
BRANCH   2   6
ATOM      6  C   LIG    1       23.838 -19.003   3.496  0.00  0.00    +0.130 C 
BRANCH   6   7
ATOM      7  C   LIG    1       23.688 -19.958   4.690  0.00  0.00    -0.033 A 
ATOM      8  C   LIG    1       22.506 -20.656   4.983  0.00  0.00    +0.004 A 
ATOM      9  C   LIG    1       22.411 -21.459   6.132  0.00  0.00    +0.000 A 
ATOM     10  C   LIG    1       23.489 -21.572   7.005  0.00  0.00    +0.000 A 
ATOM     11  C   LIG    1       24.661 -20.876   6.740  0.00  0.00    +0.000 A 
ATOM     12  C   LIG    1       24.756 -20.072   5.601  0.00  0.00    +0.004 A 
ENDBRANCH   6   7
BRANCH   6  13
ATOM     13  C   LIG    1       24.492 -19.773   2.300  0.00  0.00    +0.173 C 
BRANCH  13  14
ATOM     14  O   LIG    1       25.723 -20.442   2.571  0.00  0.00    -0.394 OA
ATOM     15  H   LIG    1       26.199 -19.932   3.258  0.00  0.00    +0.209 HD
ENDBRANCH  13  14
ENDBRANCH   6  13
ENDBRANCH   2   6
BRANCH   1  16
ATOM     16  C   LIG    1       24.624 -15.316   4.614  0.00  0.00    +0.143 C 
BRANCH  16  17
ATOM     17  C   LIG    1       24.666 -14.205   3.581  0.00  0.00    -0.027 A 
ATOM     18  C   LIG    1       23.689 -13.209   3.463  0.00  0.00    +0.025 A 
ATOM     19  C   LIG    1       23.902 -12.142   2.595  0.00  0.00    +0.111 A 
ATOM     20  N   LIG    1       25.017 -11.981   1.856  0.00  0.00    -0.263 NA
ATOM     21  C   LIG    1       25.963 -12.932   1.989  0.00  0.00    +0.111 A 
ATOM     22  C   LIG    1       25.833 -14.038   2.819  0.00  0.00    +0.025 A 
ENDBRANCH  16  17
ENDBRANCH   1  16
TORSDOF 7
ENDMDL
