MODEL 1
REMARK VINA RESULT:      -5.8      0.000      0.000
REMARK  Name = *****
REMARK                            x       y       z     vdW  Elec       q    Type
REMARK                         _______ _______ _______ _____ _____    ______ ____
ROOT
ATOM      1  CA  LIG    1       23.856 -31.906  13.132  0.00  0.00    +0.191 C 
ATOM      2  C   LIG    1       24.469 -32.712  11.947  0.00  0.00    +0.169 C 
ATOM      3  N   LIG    1       25.273 -31.538  11.652  0.00  0.00    -0.248 N 
ATOM      4  CA  LIG    1       25.955 -31.309  10.484  0.00  0.00    +0.133 C 
ATOM      5  C   LIG    1       25.824 -32.156   9.417  0.00  0.00    +0.030 C 
ATOM      6  C   LIG    1       24.822 -33.308   9.411  0.00  0.00    +0.115 C 
ATOM      7  S   LIG    1       23.408 -33.059  10.529  0.00  0.00    -0.130 S 
ATOM      8  C   LIG    1       24.998 -30.871  12.802  0.00  0.00    +0.244 C 
ATOM      9  O   LIG    1       25.377 -29.846  13.271  0.00  0.00    -0.273 OA
ENDROOT
BRANCH   1  11
ATOM     10  C   LIG    1       21.364 -31.950  13.534  0.00  0.00    +0.270 C 
ATOM     11  N   LIG    1       22.479 -31.351  12.971  0.00  0.00    -0.296 N 
ATOM     12  H   LIG    1       22.323 -30.441  12.539  0.00  0.00    +0.150 HD
ATOM     13  O   LIG    1       21.435 -32.965  14.210  0.00  0.00    -0.268 OA
BRANCH  10  15
ATOM     14  N   LIG    1       19.064 -32.000  12.781  0.00  0.00    -0.076 NA
ATOM     15  C   LIG    1       20.025 -31.231  13.237  0.00  0.00    +0.208 C 
BRANCH  15  16
ATOM     16  C   LIG    1       19.907 -29.792  13.537  0.00  0.00    +0.197 A 
ATOM     17  N   LIG    1       20.901 -28.908  13.110  0.00  0.00    -0.202 NA
ATOM     18  C   LIG    1       20.641 -27.689  13.508  0.00  0.00    +0.187 A 
ATOM     19  S   LIG    1       19.177 -27.644  14.413  0.00  0.00    +0.050 S 
ATOM     20  N   LIG    1       18.883 -29.270  14.231  0.00  0.00    -0.185 NA
BRANCH  18  21
ATOM     21  N   LIG    1       21.389 -26.600  13.275  0.00  0.00    -0.230 N 
ATOM     22  H   LIG    1       20.939 -25.704  13.359  0.00  0.00    +0.160 HD
BRANCH  21  23
ATOM     23  P   LIG    1       22.956 -26.702  13.636  0.00  0.00    +0.423 P 
ATOM     24  O   LIG    1       23.899 -25.542  13.625  0.00  0.00    -0.237 OA
BRANCH  23  25
ATOM     25  O   LIG    1       23.543 -27.804  12.628  0.00  0.00    -0.310 OA
ATOM     26  H   LIG    1       24.507 -27.895  12.738  0.00  0.00    +0.221 HD
ENDBRANCH  23  25
BRANCH  23  27
ATOM     27  O   LIG    1       23.120 -27.539  14.990  0.00  0.00    -0.310 OA
ATOM     28  H   LIG    1       23.830 -27.180  15.549  0.00  0.00    +0.221 HD
ENDBRANCH  23  27
ENDBRANCH  21  23
ENDBRANCH  18  21
ENDBRANCH  15  16
BRANCH  14  29
ATOM     29  O   LIG    1       17.859 -31.301  12.589  0.00  0.00    -0.393 OA
BRANCH  29  31
ATOM     30  C   LIG    1       18.024 -31.199  10.181  0.00  0.00    +0.051 C 
ATOM     31  C   LIG    1       17.239 -31.708  11.373  0.00  0.00    +0.259 C 
ENDBRANCH  29  31
ENDBRANCH  14  29
ENDBRANCH  10  15
ENDBRANCH   1  11
BRANCH   4  32
ATOM     32  C   LIG    1       26.837 -30.100  10.476  0.00  0.00    +0.352 C 
ATOM     33  O   LIG    1       28.038 -30.095  10.677  0.00  0.00    -0.244 OA
BRANCH  32  34
ATOM     34  OXT LIG    1       26.204 -28.951  10.193  0.00  0.00    -0.476 OA
ATOM     35  HXT LIG    1       26.058 -29.004   9.226  0.00  0.00    +0.295 HD
ENDBRANCH  32  34
ENDBRANCH   4  32
BRANCH   5  36
ATOM     36  S   LIG    1       26.648 -31.950   7.858  0.00  0.00    -0.064 S 
BRANCH  36  37
ATOM     37  C   LIG    1       25.633 -30.783   7.021  0.00  0.00    +0.140 A 
ATOM     38  S   LIG    1       24.234 -31.172   6.108  0.00  0.00    -0.069 S 
ATOM     39  C   LIG    1       23.976 -29.509   5.793  0.00  0.00    +0.076 A 
ATOM     40  C   LIG    1       24.961 -28.751   6.393  0.00  0.00    +0.080 A 
ATOM     41  N   LIG    1       25.887 -29.488   7.120  0.00  0.00    -0.232 NA
BRANCH  40  42
ATOM     42  C   LIG    1       25.113 -27.309   6.191  0.00  0.00    +0.012 A 
ATOM     43  C   LIG    1       25.896 -26.514   7.033  0.00  0.00    +0.080 A 
ATOM     44  C   LIG    1       25.901 -25.130   6.875  0.00  0.00    +0.309 A 
ATOM     45  N   LIG    1       25.151 -24.542   5.916  0.00  0.00    -0.206 N 
ATOM     46  C   LIG    1       25.121 -23.070   5.825  0.00  0.00    +0.438 C 
ATOM     47  C   LIG    1       24.430 -25.291   5.052  0.00  0.00    +0.309 A 
ATOM     48  C   LIG    1       24.400 -26.678   5.171  0.00  0.00    +0.080 A 
ENDBRANCH  40  42
ENDBRANCH  36  37
ENDBRANCH   5  36
TORSDOF 14
ENDMDL
MODEL 2
REMARK VINA RESULT:      -5.5      1.858      2.091
REMARK  Name = *****
REMARK                            x       y       z     vdW  Elec       q    Type
REMARK                         _______ _______ _______ _____ _____    ______ ____
ROOT
ATOM      1  CA  LIG    1       22.651 -32.149  13.440  0.00  0.00    +0.191 C 
ATOM      2  C   LIG    1       23.580 -32.972  12.495  0.00  0.00    +0.169 C 
ATOM      3  N   LIG    1       24.377 -31.767  12.339  0.00  0.00    -0.248 N 
ATOM      4  CA  LIG    1       25.320 -31.552  11.367  0.00  0.00    +0.133 C 
ATOM      5  C   LIG    1       25.501 -32.454  10.353  0.00  0.00    +0.030 C 
ATOM      6  C   LIG    1       24.587 -33.663  10.167  0.00  0.00    +0.115 C 
ATOM      7  S   LIG    1       22.927 -33.447  10.881  0.00  0.00    -0.130 S 
ATOM      8  C   LIG    1       23.791 -31.065  13.342  0.00  0.00    +0.244 C 
ATOM      9  O   LIG    1       23.992 -29.998  13.829  0.00  0.00    -0.273 OA
ENDROOT
BRANCH   1  11
ATOM     10  C   LIG    1       20.146 -32.337  13.191  0.00  0.00    +0.270 C 
ATOM     11  N   LIG    1       21.336 -31.685  12.907  0.00  0.00    -0.296 N 
ATOM     12  H   LIG    1       21.249 -30.799  12.412  0.00  0.00    +0.150 HD
ATOM     13  O   LIG    1       20.094 -33.327  13.904  0.00  0.00    -0.268 OA
BRANCH  10  15
ATOM     14  N   LIG    1       18.568 -32.208  11.360  0.00  0.00    -0.076 NA
ATOM     15  C   LIG    1       18.893 -31.711  12.531  0.00  0.00    +0.208 C 
BRANCH  15  16
ATOM     16  C   LIG    1       18.140 -30.679  13.267  0.00  0.00    +0.197 A 
ATOM     17  N   LIG    1       18.827 -29.691  13.978  0.00  0.00    -0.202 NA
ATOM     18  C   LIG    1       17.990 -28.898  14.597  0.00  0.00    +0.187 A 
ATOM     19  S   LIG    1       16.364 -29.382  14.305  0.00  0.00    +0.050 S 
ATOM     20  N   LIG    1       16.799 -30.642  13.311  0.00  0.00    -0.185 NA
BRANCH  18  21
ATOM     21  N   LIG    1       18.312 -27.850  15.370  0.00  0.00    -0.230 N 
ATOM     22  H   LIG    1       18.474 -28.030  16.348  0.00  0.00    +0.160 HD
BRANCH  21  23
ATOM     23  P   LIG    1       19.133 -26.653  14.670  0.00  0.00    +0.423 P 
ATOM     24  O   LIG    1       20.260 -25.914  15.317  0.00  0.00    -0.237 OA
BRANCH  23  25
ATOM     25  O   LIG    1       18.020 -25.569  14.268  0.00  0.00    -0.310 OA
ATOM     26  H   LIG    1       17.136 -25.855  14.560  0.00  0.00    +0.221 HD
ENDBRANCH  23  25
BRANCH  23  27
ATOM     27  O   LIG    1       19.539 -27.103  13.190  0.00  0.00    -0.310 OA
ATOM     28  H   LIG    1       18.765 -27.401  12.681  0.00  0.00    +0.221 HD
ENDBRANCH  23  27
ENDBRANCH  21  23
ENDBRANCH  18  21
ENDBRANCH  15  16
BRANCH  14  29
ATOM     29  O   LIG    1       17.390 -31.641  10.843  0.00  0.00    -0.393 OA
BRANCH  29  31
ATOM     30  C   LIG    1       17.872 -32.731   8.741  0.00  0.00    +0.051 C 
ATOM     31  C   LIG    1       17.516 -31.434   9.439  0.00  0.00    +0.259 C 
ENDBRANCH  29  31
ENDBRANCH  14  29
ENDBRANCH  10  15
ENDBRANCH   1  11
BRANCH   4  32
ATOM     32  C   LIG    1       26.119 -30.294  11.506  0.00  0.00    +0.352 C 
ATOM     33  O   LIG    1       27.159 -30.179  12.128  0.00  0.00    -0.244 OA
BRANCH  32  34
ATOM     34  OXT LIG    1       25.615 -29.238  10.848  0.00  0.00    -0.476 OA
ATOM     35  HXT LIG    1       25.480 -28.573  11.554  0.00  0.00    +0.295 HD
ENDBRANCH  32  34
ENDBRANCH   4  32
BRANCH   5  36
ATOM     36  S   LIG    1       26.681 -32.272   9.039  0.00  0.00    -0.064 S 
BRANCH  36  37
ATOM     37  C   LIG    1       25.806 -31.319   7.846  0.00  0.00    +0.140 A 
ATOM     38  S   LIG    1       24.739 -31.961   6.667  0.00  0.00    -0.069 S 
ATOM     39  C   LIG    1       24.406 -30.377   6.107  0.00  0.00    +0.076 A 
ATOM     40  C   LIG    1       25.120 -29.451   6.840  0.00  0.00    +0.080 A 
ATOM     41  N   LIG    1       25.894 -30.000   7.854  0.00  0.00    -0.232 NA
BRANCH  40  42
ATOM     42  C   LIG    1       25.174 -28.025   6.517  0.00  0.00    +0.012 A 
ATOM     43  C   LIG    1       26.011 -27.134   7.195  0.00  0.00    +0.080 A 
ATOM     44  C   LIG    1       25.927 -25.768   6.936  0.00  0.00    +0.309 A 
ATOM     45  N   LIG    1       25.038 -25.289   6.038  0.00  0.00    -0.206 N 
ATOM     46  C   LIG    1       24.923 -23.831   5.844  0.00  0.00    +0.438 C 
ATOM     47  C   LIG    1       24.257 -26.132   5.327  0.00  0.00    +0.309 A 
ATOM     48  C   LIG    1       24.312 -27.505   5.549  0.00  0.00    +0.080 A 
ENDBRANCH  40  42
ENDBRANCH  36  37
ENDBRANCH   5  36
TORSDOF 14
ENDMDL
MODEL 3
REMARK VINA RESULT:      -5.2      7.130     11.489
REMARK  Name = *****
REMARK                            x       y       z     vdW  Elec       q    Type
REMARK                         _______ _______ _______ _____ _____    ______ ____
ROOT
ATOM      1  CA  LIG    1       24.642 -22.866   6.605  0.00  0.00    +0.191 C 
ATOM      2  C   LIG    1       25.588 -21.752   7.147  0.00  0.00    +0.169 C 
ATOM      3  N   LIG    1       25.474 -21.116   5.846  0.00  0.00    -0.248 N 
ATOM      4  CA  LIG    1       26.293 -20.125   5.366  0.00  0.00    +0.133 C 
ATOM      5  C   LIG    1       27.401 -19.731   6.065  0.00  0.00    +0.030 C 
ATOM      6  C   LIG    1       27.865 -20.451   7.330  0.00  0.00    +0.115 C 
ATOM      7  S   LIG    1       27.316 -22.183   7.433  0.00  0.00    -0.130 S 
ATOM      8  C   LIG    1       24.451 -21.881   5.390  0.00  0.00    +0.244 C 
ATOM      9  O   LIG    1       23.793 -21.873   4.398  0.00  0.00    -0.273 OA
ENDROOT
BRANCH   1  11
ATOM     10  C   LIG    1       24.493 -25.339   6.117  0.00  0.00    +0.270 C 
ATOM     11  N   LIG    1       25.244 -24.179   6.224  0.00  0.00    -0.296 N 
ATOM     12  H   LIG    1       26.211 -24.246   5.911  0.00  0.00    +0.150 HD
ATOM     13  O   LIG    1       23.289 -25.362   6.316  0.00  0.00    -0.268 OA
BRANCH  10  15
ATOM     14  N   LIG    1       26.383 -26.374   5.014  0.00  0.00    -0.076 NA
ATOM     15  C   LIG    1       25.304 -26.599   5.728  0.00  0.00    +0.208 C 
BRANCH  15  16
ATOM     16  C   LIG    1       24.859 -27.914   6.223  0.00  0.00    +0.197 A 
ATOM     17  N   LIG    1       25.184 -28.316   7.521  0.00  0.00    -0.202 NA
ATOM     18  C   LIG    1       24.741 -29.524   7.758  0.00  0.00    +0.187 A 
ATOM     19  S   LIG    1       23.933 -30.158   6.377  0.00  0.00    +0.050 S 
ATOM     20  N   LIG    1       24.156 -28.780   5.474  0.00  0.00    -0.185 NA
BRANCH  18  21
ATOM     21  N   LIG    1       24.883 -30.213   8.901  0.00  0.00    -0.230 N 
ATOM     22  H   LIG    1       24.108 -30.784   9.196  0.00  0.00    +0.160 HD
BRANCH  21  23
ATOM     23  P   LIG    1       26.372 -30.698   9.279  0.00  0.00    +0.423 P 
ATOM     24  O   LIG    1       26.733 -31.397  10.550  0.00  0.00    -0.237 OA
BRANCH  23  25
ATOM     25  O   LIG    1       27.274 -29.373   9.190  0.00  0.00    -0.310 OA
ATOM     26  H   LIG    1       27.618 -29.249   8.287  0.00  0.00    +0.221 HD
ENDBRANCH  23  25
BRANCH  23  27
ATOM     27  O   LIG    1       26.998 -31.468   8.023  0.00  0.00    -0.310 OA
ATOM     28  H   LIG    1       27.428 -30.853   7.404  0.00  0.00    +0.221 HD
ENDBRANCH  23  27
ENDBRANCH  21  23
ENDBRANCH  18  21
ENDBRANCH  15  16
BRANCH  14  29
ATOM     29  O   LIG    1       27.106 -27.549   4.746  0.00  0.00    -0.393 OA
BRANCH  29  31
ATOM     30  C   LIG    1       29.343 -26.806   5.273  0.00  0.00    +0.051 C 
ATOM     31  C   LIG    1       28.377 -27.232   4.187  0.00  0.00    +0.259 C 
ENDBRANCH  29  31
ENDBRANCH  14  29
ENDBRANCH  10  15
ENDBRANCH   1  11
BRANCH   4  32
ATOM     32  C   LIG    1       25.882 -19.522   4.059  0.00  0.00    +0.352 C 
ATOM     33  O   LIG    1       25.569 -18.359   3.882  0.00  0.00    -0.244 OA
BRANCH  32  34
ATOM     34  OXT LIG    1       25.901 -20.373   3.022  0.00  0.00    -0.476 OA
ATOM     35  HXT LIG    1       25.580 -21.213   3.410  0.00  0.00    +0.295 HD
ENDBRANCH  32  34
ENDBRANCH   4  32
BRANCH   5  36
ATOM     36  S   LIG    1       28.535 -18.471   5.534  0.00  0.00    -0.064 S 
BRANCH  36  37
ATOM     37  C   LIG    1       29.872 -18.636   6.666  0.00  0.00    +0.140 A 
ATOM     38  S   LIG    1       31.053 -19.877   6.617  0.00  0.00    -0.069 S 
ATOM     39  C   LIG    1       31.846 -19.177   7.964  0.00  0.00    +0.076 A 
ATOM     40  C   LIG    1       31.173 -18.045   8.377  0.00  0.00    +0.080 A 
ATOM     41  N   LIG    1       30.062 -17.726   7.607  0.00  0.00    -0.232 NA
BRANCH  40  42
ATOM     42  C   LIG    1       31.506 -17.301   9.593  0.00  0.00    +0.012 A 
ATOM     43  C   LIG    1       32.536 -16.357   9.635  0.00  0.00    +0.080 A 
ATOM     44  C   LIG    1       32.896 -15.773  10.848  0.00  0.00    +0.309 A 
ATOM     45  N   LIG    1       32.262 -16.114  11.992  0.00  0.00    -0.206 N 
ATOM     46  C   LIG    1       32.719 -15.534  13.269  0.00  0.00    +0.438 C 
ATOM     47  C   LIG    1       31.224 -16.980  11.972  0.00  0.00    +0.309 A 
ATOM     48  C   LIG    1       30.829 -17.583  10.781  0.00  0.00    +0.080 A 
ENDBRANCH  40  42
ENDBRANCH  36  37
ENDBRANCH   5  36
TORSDOF 14
ENDMDL
MODEL 4
REMARK VINA RESULT:      -5.2      2.346      3.263
REMARK  Name = *****
REMARK                            x       y       z     vdW  Elec       q    Type
REMARK                         _______ _______ _______ _____ _____    ______ ____
ROOT
ATOM      1  CA  LIG    1       23.271 -31.937  12.067  0.00  0.00    +0.191 C 
ATOM      2  C   LIG    1       23.266 -31.899  10.508  0.00  0.00    +0.169 C 
ATOM      3  N   LIG    1       24.717 -31.904  10.569  0.00  0.00    -0.248 N 
ATOM      4  CA  LIG    1       25.561 -31.589   9.535  0.00  0.00    +0.133 C 
ATOM      5  C   LIG    1       25.073 -31.108   8.351  0.00  0.00    +0.030 C 
ATOM      6  C   LIG    1       23.596 -30.769   8.158  0.00  0.00    +0.115 C 
ATOM      7  S   LIG    1       22.724 -30.377   9.706  0.00  0.00    -0.130 S 
ATOM      8  C   LIG    1       24.814 -32.205  11.889  0.00  0.00    +0.244 C 
ATOM      9  O   LIG    1       25.727 -32.431  12.618  0.00  0.00    -0.273 OA
ENDROOT
BRANCH   1  11
ATOM     10  C   LIG    1       21.703 -30.394  13.306  0.00  0.00    +0.270 C 
ATOM     11  N   LIG    1       22.964 -30.675  12.804  0.00  0.00    -0.296 N 
ATOM     12  H   LIG    1       23.702 -30.025  13.071  0.00  0.00    +0.150 HD
ATOM     13  O   LIG    1       20.763 -31.166  13.188  0.00  0.00    -0.268 OA
BRANCH  10  15
ATOM     14  N   LIG    1       20.476 -28.848  14.707  0.00  0.00    -0.076 NA
ATOM     15  C   LIG    1       21.583 -29.028  14.024  0.00  0.00    +0.208 C 
BRANCH  15  16
ATOM     16  C   LIG    1       22.709 -28.080  13.945  0.00  0.00    +0.197 A 
ATOM     17  N   LIG    1       23.975 -28.465  14.396  0.00  0.00    -0.202 NA
ATOM     18  C   LIG    1       24.827 -27.477  14.284  0.00  0.00    +0.187 A 
ATOM     19  S   LIG    1       24.059 -26.081  13.633  0.00  0.00    +0.050 S 
ATOM     20  N   LIG    1       22.584 -26.830  13.470  0.00  0.00    -0.185 NA
BRANCH  18  21
ATOM     21  N   LIG    1       26.124 -27.505  14.629  0.00  0.00    -0.230 N 
ATOM     22  H   LIG    1       26.340 -27.500  15.612  0.00  0.00    +0.160 HD
BRANCH  21  23
ATOM     23  P   LIG    1       27.126 -28.278  13.632  0.00  0.00    +0.423 P 
ATOM     24  O   LIG    1       28.415 -28.906  14.055  0.00  0.00    -0.237 OA
BRANCH  23  25
ATOM     25  O   LIG    1       27.469 -27.212  12.482  0.00  0.00    -0.310 OA
ATOM     26  H   LIG    1       28.262 -27.483  11.985  0.00  0.00    +0.221 HD
ENDBRANCH  23  25
BRANCH  23  27
ATOM     27  O   LIG    1       26.279 -29.296  12.735  0.00  0.00    -0.310 OA
ATOM     28  H   LIG    1       25.391 -29.445  13.105  0.00  0.00    +0.221 HD
ENDBRANCH  23  27
ENDBRANCH  21  23
ENDBRANCH  18  21
ENDBRANCH  15  16
BRANCH  14  29
ATOM     29  O   LIG    1       20.455 -27.615  15.382  0.00  0.00    -0.393 OA
BRANCH  29  31
ATOM     30  C   LIG    1       18.883 -26.349  14.056  0.00  0.00    +0.051 C 
ATOM     31  C   LIG    1       19.141 -27.064  15.366  0.00  0.00    +0.259 C 
ENDBRANCH  29  31
ENDBRANCH  14  29
ENDBRANCH  10  15
ENDBRANCH   1  11
BRANCH   4  32
ATOM     32  C   LIG    1       27.018 -31.815   9.797  0.00  0.00    +0.352 C 
ATOM     33  O   LIG    1       27.666 -32.773   9.418  0.00  0.00    -0.244 OA
BRANCH  32  34
ATOM     34  OXT LIG    1       27.619 -30.836  10.491  0.00  0.00    -0.476 OA
ATOM     35  HXT LIG    1       28.557 -30.906  10.218  0.00  0.00    +0.295 HD
ENDBRANCH  32  34
ENDBRANCH   4  32
BRANCH   5  36
ATOM     36  S   LIG    1       26.072 -30.658   6.954  0.00  0.00    -0.064 S 
BRANCH  36  37
ATOM     37  C   LIG    1       25.234 -29.256   6.300  0.00  0.00    +0.140 A 
ATOM     38  S   LIG    1       24.163 -29.287   4.962  0.00  0.00    -0.069 S 
ATOM     39  C   LIG    1       23.876 -27.609   5.151  0.00  0.00    +0.076 A 
ATOM     40  C   LIG    1       24.608 -27.118   6.214  0.00  0.00    +0.080 A 
ATOM     41  N   LIG    1       25.357 -28.075   6.884  0.00  0.00    -0.232 NA
BRANCH  40  42
ATOM     42  C   LIG    1       24.701 -25.695   6.546  0.00  0.00    +0.012 A 
ATOM     43  C   LIG    1       23.589 -24.848   6.534  0.00  0.00    +0.080 A 
ATOM     44  C   LIG    1       23.755 -23.479   6.731  0.00  0.00    +0.309 A 
ATOM     45  N   LIG    1       24.985 -22.955   6.929  0.00  0.00    -0.206 N 
ATOM     46  C   LIG    1       25.134 -21.493   7.057  0.00  0.00    +0.438 C 
ATOM     47  C   LIG    1       26.071 -23.757   7.002  0.00  0.00    +0.309 A 
ATOM     48  C   LIG    1       25.949 -25.132   6.817  0.00  0.00    +0.080 A 
ENDBRANCH  40  42
ENDBRANCH  36  37
ENDBRANCH   5  36
TORSDOF 14
ENDMDL
MODEL 5
REMARK VINA RESULT:      -4.9      1.721      2.352
REMARK  Name = *****
REMARK                            x       y       z     vdW  Elec       q    Type
REMARK                         _______ _______ _______ _____ _____    ______ ____
ROOT
ATOM      1  CA  LIG    1       23.618 -31.963  11.555  0.00  0.00    +0.191 C 
ATOM      2  C   LIG    1       24.206 -31.526  10.179  0.00  0.00    +0.169 C 
ATOM      3  N   LIG    1       25.220 -30.794  10.919  0.00  0.00    -0.248 N 
ATOM      4  CA  LIG    1       26.046 -29.829  10.403  0.00  0.00    +0.133 C 
ATOM      5  C   LIG    1       25.885 -29.380   9.120  0.00  0.00    +0.030 C 
ATOM      6  C   LIG    1       24.711 -29.816   8.247  0.00  0.00    +0.115 C 
ATOM      7  S   LIG    1       23.252 -30.356   9.191  0.00  0.00    -0.130 S 
ATOM      8  C   LIG    1       24.944 -31.336  12.133  0.00  0.00    +0.244 C 
ATOM      9  O   LIG    1       25.439 -31.240  13.210  0.00  0.00    -0.273 OA
ENDROOT
BRANCH   1  11
ATOM     10  C   LIG    1       21.115 -31.831  11.856  0.00  0.00    +0.270 C 
ATOM     11  N   LIG    1       22.376 -31.288  12.038  0.00  0.00    -0.296 N 
ATOM     12  H   LIG    1       22.421 -30.459  12.628  0.00  0.00    +0.150 HD
ATOM     13  O   LIG    1       20.936 -32.903  11.297  0.00  0.00    -0.268 OA
BRANCH  10  15
ATOM     14  N   LIG    1       18.748 -31.422  12.157  0.00  0.00    -0.076 NA
ATOM     15  C   LIG    1       19.954 -30.971  12.413  0.00  0.00    +0.208 C 
BRANCH  15  16
ATOM     16  C   LIG    1       20.275 -29.780  13.220  0.00  0.00    +0.197 A 
ATOM     17  N   LIG    1       21.040 -28.749  12.666  0.00  0.00    -0.202 NA
ATOM     18  C   LIG    1       21.253 -27.805  13.547  0.00  0.00    +0.187 A 
ATOM     19  S   LIG    1       20.516 -28.198  15.052  0.00  0.00    +0.050 S 
ATOM     20  N   LIG    1       19.880 -29.630  14.494  0.00  0.00    -0.185 NA
BRANCH  18  21
ATOM     21  N   LIG    1       21.953 -26.677  13.349  0.00  0.00    -0.230 N 
ATOM     22  H   LIG    1       21.464 -25.805  13.464  0.00  0.00    +0.160 HD
BRANCH  21  23
ATOM     23  P   LIG    1       23.524 -26.722  13.702  0.00  0.00    +0.423 P 
ATOM     24  O   LIG    1       24.447 -25.553  13.581  0.00  0.00    -0.237 OA
BRANCH  23  25
ATOM     25  O   LIG    1       24.121 -27.899  12.788  0.00  0.00    -0.310 OA
ATOM     26  H   LIG    1       23.610 -27.988  11.963  0.00  0.00    +0.221 HD
ENDBRANCH  23  25
BRANCH  23  27
ATOM     27  O   LIG    1       23.713 -27.436  15.122  0.00  0.00    -0.310 OA
ATOM     28  H   LIG    1       24.491 -28.020  15.127  0.00  0.00    +0.221 HD
ENDBRANCH  23  27
ENDBRANCH  21  23
ENDBRANCH  18  21
ENDBRANCH  15  16
BRANCH  14  29
ATOM     29  O   LIG    1       17.743 -30.631  12.740  0.00  0.00    -0.393 OA
BRANCH  29  31
ATOM     30  C   LIG    1       16.527 -32.706  12.509  0.00  0.00    +0.051 C 
ATOM     31  C   LIG    1       16.459 -31.193  12.482  0.00  0.00    +0.259 C 
ENDBRANCH  29  31
ENDBRANCH  14  29
ENDBRANCH  10  15
ENDBRANCH   1  11
BRANCH   4  32
ATOM     32  C   LIG    1       27.113 -29.328  11.326  0.00  0.00    +0.352 C 
ATOM     33  O   LIG    1       26.975 -28.453  12.161  0.00  0.00    -0.244 OA
BRANCH  32  34
ATOM     34  OXT LIG    1       28.296 -29.949  11.199  0.00  0.00    -0.476 OA
ATOM     35  HXT LIG    1       28.601 -29.677  10.309  0.00  0.00    +0.295 HD
ENDBRANCH  32  34
ENDBRANCH   4  32
BRANCH   5  36
ATOM     36  S   LIG    1       26.886 -28.129   8.355  0.00  0.00    -0.064 S 
BRANCH  36  37
ATOM     37  C   LIG    1       25.793 -27.407   7.180  0.00  0.00    +0.140 A 
ATOM     38  S   LIG    1       25.047 -28.249   5.886  0.00  0.00    -0.069 S 
ATOM     39  C   LIG    1       24.230 -26.816   5.424  0.00  0.00    +0.076 A 
ATOM     40  C   LIG    1       24.568 -25.780   6.272  0.00  0.00    +0.080 A 
ATOM     41  N   LIG    1       25.439 -26.138   7.293  0.00  0.00    -0.232 NA
BRANCH  40  42
ATOM     42  C   LIG    1       24.159 -24.391   6.060  0.00  0.00    +0.012 A 
ATOM     43  C   LIG    1       24.871 -23.518   5.233  0.00  0.00    +0.080 A 
ATOM     44  C   LIG    1       24.514 -22.173   5.169  0.00  0.00    +0.309 A 
ATOM     45  N   LIG    1       23.485 -21.697   5.906  0.00  0.00    -0.206 N 
ATOM     46  C   LIG    1       23.182 -20.254   5.873  0.00  0.00    +0.438 C 
ATOM     47  C   LIG    1       22.743 -22.530   6.670  0.00  0.00    +0.309 A 
ATOM     48  C   LIG    1       23.062 -23.882   6.759  0.00  0.00    +0.080 A 
ENDBRANCH  40  42
ENDBRANCH  36  37
ENDBRANCH   5  36
TORSDOF 14
ENDMDL
MODEL 6
REMARK VINA RESULT:      -4.7      2.332      3.191
REMARK  Name = *****
REMARK                            x       y       z     vdW  Elec       q    Type
REMARK                         _______ _______ _______ _____ _____    ______ ____
ROOT
ATOM      1  CA  LIG    1       24.105 -32.340  10.527  0.00  0.00    +0.191 C 
ATOM      2  C   LIG    1       24.681 -31.641   9.258  0.00  0.00    +0.169 C 
ATOM      3  N   LIG    1       25.555 -30.894  10.148  0.00  0.00    -0.248 N 
ATOM      4  CA  LIG    1       26.260 -29.766   9.814  0.00  0.00    +0.133 C 
ATOM      5  C   LIG    1       26.089 -29.166   8.597  0.00  0.00    +0.030 C 
ATOM      6  C   LIG    1       25.022 -29.625   7.606  0.00  0.00    +0.115 C 
ATOM      7  S   LIG    1       23.615 -30.478   8.383  0.00  0.00    -0.130 S 
ATOM      8  C   LIG    1       25.309 -31.633  11.259  0.00  0.00    +0.244 C 
ATOM      9  O   LIG    1       25.743 -31.625  12.367  0.00  0.00    -0.273 OA
ENDROOT
BRANCH   1  11
ATOM     10  C   LIG    1       21.586 -32.490  10.585  0.00  0.00    +0.270 C 
ATOM     11  N   LIG    1       22.765 -31.908  11.024  0.00  0.00    -0.296 N 
ATOM     12  H   LIG    1       22.674 -31.250  11.795  0.00  0.00    +0.150 HD
ATOM     13  O   LIG    1       21.566 -33.400   9.772  0.00  0.00    -0.268 OA
BRANCH  10  15
ATOM     14  N   LIG    1       19.217 -32.003  10.472  0.00  0.00    -0.076 NA
ATOM     15  C   LIG    1       20.300 -31.890  11.206  0.00  0.00    +0.208 C 
BRANCH  15  16
ATOM     16  C   LIG    1       20.366 -31.311  12.560  0.00  0.00    +0.197 A 
ATOM     17  N   LIG    1       20.651 -29.952  12.722  0.00  0.00    -0.202 NA
ATOM     18  C   LIG    1       20.709 -29.639  13.992  0.00  0.00    +0.187 A 
ATOM     19  S   LIG    1       20.420 -31.023  14.974  0.00  0.00    +0.050 S 
ATOM     20  N   LIG    1       20.182 -32.034  13.676  0.00  0.00    -0.185 NA
BRANCH  18  21
ATOM     21  N   LIG    1       20.966 -28.424  14.499  0.00  0.00    -0.230 N 
ATOM     22  H   LIG    1       21.932 -28.171  14.624  0.00  0.00    +0.160 HD
BRANCH  21  23
ATOM     23  P   LIG    1       19.910 -27.255  14.160  0.00  0.00    +0.423 P 
ATOM     24  O   LIG    1       19.616 -26.099  15.062  0.00  0.00    -0.237 OA
BRANCH  23  25
ATOM     25  O   LIG    1       18.522 -28.016  13.892  0.00  0.00    -0.310 OA
ATOM     26  H   LIG    1       18.288 -28.585  14.647  0.00  0.00    +0.221 HD
ENDBRANCH  23  25
BRANCH  23  27
ATOM     27  O   LIG    1       20.167 -26.744  12.666  0.00  0.00    -0.310 OA
ATOM     28  H   LIG    1       21.117 -26.651  12.478  0.00  0.00    +0.221 HD
ENDBRANCH  23  27
ENDBRANCH  21  23
ENDBRANCH  18  21
ENDBRANCH  15  16
BRANCH  14  29
ATOM     29  O   LIG    1       18.075 -31.495  11.116  0.00  0.00    -0.393 OA
BRANCH  29  31
ATOM     30  C   LIG    1       16.307 -32.093  12.649  0.00  0.00    +0.051 C 
ATOM     31  C   LIG    1       17.236 -32.562  11.548  0.00  0.00    +0.259 C 
ENDBRANCH  29  31
ENDBRANCH  14  29
ENDBRANCH  10  15
ENDBRANCH   1  11
BRANCH   4  32
ATOM     32  C   LIG    1       27.211 -29.265  10.857  0.00  0.00    +0.352 C 
ATOM     33  O   LIG    1       27.064 -28.259  11.525  0.00  0.00    -0.244 OA
BRANCH  32  34
ATOM     34  OXT LIG    1       28.287 -30.043  11.050  0.00  0.00    -0.476 OA
ATOM     35  HXT LIG    1       28.220 -30.294  11.994  0.00  0.00    +0.295 HD
ENDBRANCH  32  34
ENDBRANCH   4  32
BRANCH   5  36
ATOM     36  S   LIG    1       26.938 -27.699   8.065  0.00  0.00    -0.064 S 
BRANCH  36  37
ATOM     37  C   LIG    1       25.765 -26.919   7.012  0.00  0.00    +0.140 A 
ATOM     38  S   LIG    1       24.896 -27.703   5.758  0.00  0.00    -0.069 S 
ATOM     39  C   LIG    1       24.072 -26.242   5.415  0.00  0.00    +0.076 A 
ATOM     40  C   LIG    1       24.500 -25.242   6.265  0.00  0.00    +0.080 A 
ATOM     41  N   LIG    1       25.446 -25.649   7.196  0.00  0.00    -0.232 NA
BRANCH  40  42
ATOM     42  C   LIG    1       24.102 -23.839   6.135  0.00  0.00    +0.012 A 
ATOM     43  C   LIG    1       22.962 -23.323   6.759  0.00  0.00    +0.080 A 
ATOM     44  C   LIG    1       22.557 -22.016   6.497  0.00  0.00    +0.309 A 
ATOM     45  N   LIG    1       23.253 -21.238   5.638  0.00  0.00    -0.206 N 
ATOM     46  C   LIG    1       22.754 -19.886   5.325  0.00  0.00    +0.438 C 
ATOM     47  C   LIG    1       24.390 -21.691   5.065  0.00  0.00    +0.309 A 
ATOM     48  C   LIG    1       24.834 -22.989   5.303  0.00  0.00    +0.080 A 
ENDBRANCH  40  42
ENDBRANCH  36  37
ENDBRANCH   5  36
TORSDOF 14
ENDMDL
MODEL 7
REMARK VINA RESULT:      -4.7      4.395      8.183
REMARK  Name = *****
REMARK                            x       y       z     vdW  Elec       q    Type
REMARK                         _______ _______ _______ _____ _____    ______ ____
ROOT
ATOM      1  CA  LIG    1       22.540 -31.624  12.061  0.00  0.00    +0.191 C 
ATOM      2  C   LIG    1       23.020 -31.031  13.421  0.00  0.00    +0.169 C 
ATOM      3  N   LIG    1       22.245 -29.845  13.101  0.00  0.00    -0.248 N 
ATOM      4  CA  LIG    1       22.358 -28.626  13.720  0.00  0.00    +0.133 C 
ATOM      5  C   LIG    1       23.338 -28.397  14.647  0.00  0.00    +0.030 C 
ATOM      6  C   LIG    1       24.434 -29.419  14.941  0.00  0.00    +0.115 C 
ATOM      7  S   LIG    1       24.758 -30.567  13.567  0.00  0.00    -0.130 S 
ATOM      8  C   LIG    1       21.573 -30.379  12.050  0.00  0.00    +0.244 C 
ATOM      9  O   LIG    1       20.708 -29.982  11.337  0.00  0.00    -0.273 OA
ENDROOT
BRANCH   1  11
ATOM     10  C   LIG    1       23.122 -31.979   9.631  0.00  0.00    +0.270 C 
ATOM     11  N   LIG    1       23.503 -31.646  10.921  0.00  0.00    -0.296 N 
ATOM     12  H   LIG    1       24.455 -31.298  11.026  0.00  0.00    +0.150 HD
ATOM     13  O   LIG    1       21.971 -32.266   9.340  0.00  0.00    -0.268 OA
BRANCH  10  15
ATOM     14  N   LIG    1       24.982 -33.061   8.523  0.00  0.00    -0.076 NA
ATOM     15  C   LIG    1       24.270 -31.960   8.593  0.00  0.00    +0.208 C 
BRANCH  15  16
ATOM     16  C   LIG    1       24.440 -30.770   7.739  0.00  0.00    +0.197 A 
ATOM     17  N   LIG    1       25.283 -29.733   8.150  0.00  0.00    -0.202 NA
ATOM     18  C   LIG    1       25.266 -28.751   7.284  0.00  0.00    +0.187 A 
ATOM     19  S   LIG    1       24.206 -29.110   5.976  0.00  0.00    +0.050 S 
ATOM     20  N   LIG    1       23.801 -30.610   6.569  0.00  0.00    -0.185 NA
BRANCH  18  21
ATOM     21  N   LIG    1       25.956 -27.604   7.372  0.00  0.00    -0.230 N 
ATOM     22  H   LIG    1       26.934 -27.670   7.602  0.00  0.00    +0.160 HD
BRANCH  21  23
ATOM     23  P   LIG    1       25.477 -26.391   6.425  0.00  0.00    +0.423 P 
ATOM     24  O   LIG    1       24.130 -26.306   5.784  0.00  0.00    -0.237 OA
BRANCH  23  25
ATOM     25  O   LIG    1       26.570 -26.325   5.251  0.00  0.00    -0.310 OA
ATOM     26  H   LIG    1       27.472 -26.340   5.618  0.00  0.00    +0.221 HD
ENDBRANCH  23  25
BRANCH  23  27
ATOM     27  O   LIG    1       25.843 -25.006   7.137  0.00  0.00    -0.310 OA
ATOM     28  H   LIG    1       25.275 -24.839   7.909  0.00  0.00    +0.221 HD
ENDBRANCH  23  27
ENDBRANCH  21  23
ENDBRANCH  18  21
ENDBRANCH  15  16
BRANCH  14  29
ATOM     29  O   LIG    1       25.968 -33.002   7.522  0.00  0.00    -0.393 OA
BRANCH  29  31
ATOM     30  C   LIG    1       28.237 -33.598   6.946  0.00  0.00    +0.051 C 
ATOM     31  C   LIG    1       27.240 -33.350   8.059  0.00  0.00    +0.259 C 
ENDBRANCH  29  31
ENDBRANCH  14  29
ENDBRANCH  10  15
ENDBRANCH   1  11
BRANCH   4  32
ATOM     32  C   LIG    1       21.343 -27.601  13.319  0.00  0.00    +0.352 C 
ATOM     33  O   LIG    1       21.587 -26.456  12.983  0.00  0.00    -0.244 OA
BRANCH  32  34
ATOM     34  OXT LIG    1       20.075 -28.039  13.324  0.00  0.00    -0.476 OA
ATOM     35  HXT LIG    1       19.761 -27.834  12.419  0.00  0.00    +0.295 HD
ENDBRANCH  32  34
ENDBRANCH   4  32
BRANCH   5  36
ATOM     36  S   LIG    1       23.583 -26.858  15.499  0.00  0.00    -0.064 S 
BRANCH  36  37
ATOM     37  C   LIG    1       25.183 -26.358  14.965  0.00  0.00    +0.140 A 
ATOM     38  S   LIG    1       25.502 -25.037  13.919  0.00  0.00    -0.069 S 
ATOM     39  C   LIG    1       27.183 -25.333  14.056  0.00  0.00    +0.076 A 
ATOM     40  C   LIG    1       27.411 -26.414  14.883  0.00  0.00    +0.080 A 
ATOM     41  N   LIG    1       26.261 -26.973  15.424  0.00  0.00    -0.232 NA
BRANCH  40  42
ATOM     42  C   LIG    1       28.729 -27.016  15.089  0.00  0.00    +0.012 A 
ATOM     43  C   LIG    1       29.851 -26.260  15.442  0.00  0.00    +0.080 A 
ATOM     44  C   LIG    1       31.106 -26.862  15.497  0.00  0.00    +0.309 A 
ATOM     45  N   LIG    1       31.255 -28.174  15.205  0.00  0.00    -0.206 N 
ATOM     46  C   LIG    1       32.608 -28.761  15.199  0.00  0.00    +0.438 C 
ATOM     47  C   LIG    1       30.180 -28.941  14.917  0.00  0.00    +0.309 A 
ATOM     48  C   LIG    1       28.907 -28.381  14.856  0.00  0.00    +0.080 A 
ENDBRANCH  40  42
ENDBRANCH  36  37
ENDBRANCH   5  36
TORSDOF 14
ENDMDL
MODEL 8
REMARK VINA RESULT:      -4.5      3.184      8.172
REMARK  Name = *****
REMARK                            x       y       z     vdW  Elec       q    Type
REMARK                         _______ _______ _______ _____ _____    ______ ____
ROOT
ATOM      1  CA  LIG    1       26.053 -30.613  11.359  0.00  0.00    +0.191 C 
ATOM      2  C   LIG    1       25.418 -29.802  12.530  0.00  0.00    +0.169 C 
ATOM      3  N   LIG    1       24.803 -31.043  12.968  0.00  0.00    -0.248 N 
ATOM      4  CA  LIG    1       23.772 -31.150  13.866  0.00  0.00    +0.133 C 
ATOM      5  C   LIG    1       23.139 -30.036  14.345  0.00  0.00    +0.030 C 
ATOM      6  C   LIG    1       23.443 -28.637  13.815  0.00  0.00    +0.115 C 
ATOM      7  S   LIG    1       24.116 -28.621  12.124  0.00  0.00    -0.130 S 
ATOM      8  C   LIG    1       25.517 -31.863  12.156  0.00  0.00    +0.244 C 
ATOM      9  O   LIG    1       25.580 -33.044  12.026  0.00  0.00    -0.273 OA
ENDROOT
BRANCH   1  11
ATOM     10  C   LIG    1       25.971 -29.603   9.047  0.00  0.00    +0.270 C 
ATOM     11  N   LIG    1       25.457 -30.471   9.997  0.00  0.00    -0.296 N 
ATOM     12  H   LIG    1       24.721 -31.096   9.675  0.00  0.00    +0.150 HD
ATOM     13  O   LIG    1       26.952 -28.906   9.257  0.00  0.00    -0.268 OA
BRANCH  10  15
ATOM     14  N   LIG    1       24.333 -30.559   7.543  0.00  0.00    -0.076 NA
ATOM     15  C   LIG    1       25.202 -29.588   7.703  0.00  0.00    +0.208 C 
BRANCH  15  16
ATOM     16  C   LIG    1       25.445 -28.485   6.756  0.00  0.00    +0.197 A 
ATOM     17  N   LIG    1       25.625 -27.183   7.234  0.00  0.00    -0.202 NA
ATOM     18  C   LIG    1       25.782 -26.343   6.243  0.00  0.00    +0.187 A 
ATOM     19  S   LIG    1       25.699 -27.161   4.731  0.00  0.00    +0.050 S 
ATOM     20  N   LIG    1       25.486 -28.657   5.425  0.00  0.00    -0.185 NA
BRANCH  18  21
ATOM     21  N   LIG    1       25.973 -25.019   6.348  0.00  0.00    -0.230 N 
ATOM     22  H   LIG    1       26.818 -24.642   5.950  0.00  0.00    +0.160 HD
BRANCH  21  23
ATOM     23  P   LIG    1       24.657 -24.091   6.358  0.00  0.00    +0.423 P 
ATOM     24  O   LIG    1       23.265 -24.606   6.541  0.00  0.00    -0.237 OA
BRANCH  23  25
ATOM     25  O   LIG    1       24.694 -23.303   4.960  0.00  0.00    -0.310 OA
ATOM     26  H   LIG    1       23.798 -23.030   4.693  0.00  0.00    +0.221 HD
ENDBRANCH  23  25
BRANCH  23  27
ATOM     27  O   LIG    1       24.917 -22.837   7.318  0.00  0.00    -0.310 OA
ATOM     28  H   LIG    1       25.285 -22.081   6.828  0.00  0.00    +0.221 HD
ENDBRANCH  23  27
ENDBRANCH  21  23
ENDBRANCH  18  21
ENDBRANCH  15  16
BRANCH  14  29
ATOM     29  O   LIG    1       23.626 -30.454   6.332  0.00  0.00    -0.393 OA
BRANCH  29  31
ATOM     30  C   LIG    1       23.277 -32.839   6.488  0.00  0.00    +0.051 C 
ATOM     31  C   LIG    1       23.698 -31.679   5.610  0.00  0.00    +0.259 C 
ENDBRANCH  29  31
ENDBRANCH  14  29
ENDBRANCH  10  15
ENDBRANCH   1  11
BRANCH   4  32
ATOM     32  C   LIG    1       23.412 -32.545  14.274  0.00  0.00    +0.352 C 
ATOM     33  O   LIG    1       22.515 -33.215  13.797  0.00  0.00    -0.244 OA
BRANCH  32  34
ATOM     34  OXT LIG    1       24.193 -33.064  15.235  0.00  0.00    -0.476 OA
ATOM     35  HXT LIG    1       24.433 -32.285  15.778  0.00  0.00    +0.295 HD
ENDBRANCH  32  34
ENDBRANCH   4  32
BRANCH   5  36
ATOM     36  S   LIG    1       21.789 -30.058  15.498  0.00  0.00    -0.064 S 
BRANCH  36  37
ATOM     37  C   LIG    1       20.377 -30.194  14.457  0.00  0.00    +0.140 A 
ATOM     38  S   LIG    1       18.891 -29.377  14.705  0.00  0.00    -0.069 S 
ATOM     39  C   LIG    1       18.269 -30.070  13.267  0.00  0.00    +0.076 A 
ATOM     40  C   LIG    1       19.219 -30.882  12.680  0.00  0.00    +0.080 A 
ATOM     41  N   LIG    1       20.433 -30.921  13.353  0.00  0.00    -0.232 NA
BRANCH  40  42
ATOM     42  C   LIG    1       18.952 -31.737  11.522  0.00  0.00    +0.012 A 
ATOM     43  C   LIG    1       19.918 -32.593  10.985  0.00  0.00    +0.080 A 
ATOM     44  C   LIG    1       19.655 -33.286   9.806  0.00  0.00    +0.309 A 
ATOM     45  N   LIG    1       18.474 -33.135   9.166  0.00  0.00    -0.206 N 
ATOM     46  C   LIG    1       18.258 -33.824   7.880  0.00  0.00    +0.438 C 
ATOM     47  C   LIG    1       17.501 -32.358   9.693  0.00  0.00    +0.309 A 
ATOM     48  C   LIG    1       17.720 -31.652  10.872  0.00  0.00    +0.080 A 
ENDBRANCH  40  42
ENDBRANCH  36  37
ENDBRANCH   5  36
TORSDOF 14
ENDMDL
MODEL 9
REMARK VINA RESULT:      -4.3      4.048      7.706
REMARK  Name = *****
REMARK                            x       y       z     vdW  Elec       q    Type
REMARK                         _______ _______ _______ _____ _____    ______ ____
ROOT
ATOM      1  CA  LIG    1       22.001 -31.868  12.609  0.00  0.00    +0.191 C 
ATOM      2  C   LIG    1       22.667 -31.157  13.826  0.00  0.00    +0.169 C 
ATOM      3  N   LIG    1       21.827 -30.009  13.530  0.00  0.00    -0.248 N 
ATOM      4  CA  LIG    1       22.004 -28.741  14.021  0.00  0.00    +0.133 C 
ATOM      5  C   LIG    1       23.107 -28.424  14.766  0.00  0.00    +0.030 C 
ATOM      6  C   LIG    1       24.257 -29.407  14.976  0.00  0.00    +0.115 C 
ATOM      7  S   LIG    1       24.396 -30.666  13.669  0.00  0.00    -0.130 S 
ATOM      8  C   LIG    1       21.017 -30.637  12.640  0.00  0.00    +0.244 C 
ATOM      9  O   LIG    1       20.046 -30.310  12.036  0.00  0.00    -0.273 OA
ENDROOT
BRANCH   1  11
ATOM     10  C   LIG    1       22.241 -32.493  10.174  0.00  0.00    +0.270 C 
ATOM     11  N   LIG    1       22.783 -31.978  11.341  0.00  0.00    -0.296 N 
ATOM     12  H   LIG    1       23.711 -31.566  11.255  0.00  0.00    +0.150 HD
ATOM     13  O   LIG    1       21.085 -32.880  10.103  0.00  0.00    -0.268 OA
BRANCH  10  15
ATOM     14  N   LIG    1       23.210 -33.657   8.287  0.00  0.00    -0.076 NA
ATOM     15  C   LIG    1       23.217 -32.539   8.974  0.00  0.00    +0.208 C 
BRANCH  15  16
ATOM     16  C   LIG    1       24.015 -31.340   8.658  0.00  0.00    +0.197 A 
ATOM     17  N   LIG    1       25.298 -31.196   9.195  0.00  0.00    -0.202 NA
ATOM     18  C   LIG    1       25.825 -30.053   8.837  0.00  0.00    +0.187 A 
ATOM     19  S   LIG    1       24.734 -29.162   7.849  0.00  0.00    +0.050 S 
ATOM     20  N   LIG    1       23.564 -30.343   7.880  0.00  0.00    -0.185 NA
BRANCH  18  21
ATOM     21  N   LIG    1       27.040 -29.597   9.180  0.00  0.00    -0.230 N 
ATOM     22  H   LIG    1       27.436 -28.867   8.610  0.00  0.00    +0.160 HD
BRANCH  21  23
ATOM     23  P   LIG    1       27.415 -29.629  10.746  0.00  0.00    +0.423 P 
ATOM     24  O   LIG    1       28.812 -29.603  11.277  0.00  0.00    -0.237 OA
BRANCH  23  25
ATOM     25  O   LIG    1       26.713 -30.957  11.313  0.00  0.00    -0.310 OA
ATOM     26  H   LIG    1       25.851 -31.101  10.885  0.00  0.00    +0.221 HD
ENDBRANCH  23  25
BRANCH  23  27
ATOM     27  O   LIG    1       26.507 -28.561  11.517  0.00  0.00    -0.310 OA
ATOM     28  H   LIG    1       25.581 -28.599  11.222  0.00  0.00    +0.221 HD
ENDBRANCH  23  27
ENDBRANCH  21  23
ENDBRANCH  18  21
ENDBRANCH  15  16
BRANCH  14  29
ATOM     29  O   LIG    1       24.072 -33.613   7.177  0.00  0.00    -0.393 OA
BRANCH  29  31
ATOM     30  C   LIG    1       24.240 -33.422   4.774  0.00  0.00    +0.051 C 
ATOM     31  C   LIG    1       23.331 -33.367   5.985  0.00  0.00    +0.259 C 
ENDBRANCH  29  31
ENDBRANCH  14  29
ENDBRANCH  10  15
ENDBRANCH   1  11
BRANCH   4  32
ATOM     32  C   LIG    1       20.919 -27.762  13.694  0.00  0.00    +0.352 C 
ATOM     33  O   LIG    1       21.016 -26.829  12.919  0.00  0.00    -0.244 OA
BRANCH  32  34
ATOM     34  OXT LIG    1       19.753 -27.994  14.316  0.00  0.00    -0.476 OA
ATOM     35  HXT LIG    1       19.117 -28.089  13.578  0.00  0.00    +0.295 HD
ENDBRANCH  32  34
ENDBRANCH   4  32
BRANCH   5  36
ATOM     36  S   LIG    1       23.444 -26.816  15.441  0.00  0.00    -0.064 S 
BRANCH  36  37
ATOM     37  C   LIG    1       25.086 -26.492  14.899  0.00  0.00    +0.140 A 
ATOM     38  S   LIG    1       25.537 -25.225  13.836  0.00  0.00    -0.069 S 
ATOM     39  C   LIG    1       27.179 -25.692  13.973  0.00  0.00    +0.076 A 
ATOM     40  C   LIG    1       27.295 -26.782  14.813  0.00  0.00    +0.080 A 
ATOM     41  N   LIG    1       26.094 -27.212  15.362  0.00  0.00    -0.232 NA
BRANCH  40  42
ATOM     42  C   LIG    1       28.544 -27.516  15.023  0.00  0.00    +0.012 A 
ATOM     43  C   LIG    1       29.723 -26.887  15.433  0.00  0.00    +0.080 A 
ATOM     44  C   LIG    1       30.913 -27.609  15.492  0.00  0.00    +0.309 A 
ATOM     45  N   LIG    1       30.943 -28.917  15.149  0.00  0.00    -0.206 N 
ATOM     46  C   LIG    1       32.233 -29.631  15.149  0.00  0.00    +0.438 C 
ATOM     47  C   LIG    1       29.808 -29.564  14.805  0.00  0.00    +0.309 A 
ATOM     48  C   LIG    1       28.596 -28.882  14.738  0.00  0.00    +0.080 A 
ENDBRANCH  40  42
ENDBRANCH  36  37
ENDBRANCH   5  36
TORSDOF 14
ENDMDL
