MODEL 1
REMARK VINA RESULT:      -5.0      0.000      0.000
REMARK  Name = *****
REMARK                            x       y       z     vdW  Elec       q    Type
REMARK                         _______ _______ _______ _____ _____    ______ ____
ROOT
ATOM      1  CA  LIG    1       30.757 -17.226   9.053  0.00  0.00    +0.161 C 
ENDROOT
BRANCH   1   2
ATOM      2  N   LIG    1       32.192 -17.341   8.704  0.00  0.00    -0.318 NA
ATOM      3  H1  LIG    1       32.539 -18.224   9.092  0.00  0.00    +0.119 HD
ATOM      4  H2  LIG    1       32.257 -17.491   7.693  0.00  0.00    +0.119 HD
ENDBRANCH   1   2
BRANCH   1   5
ATOM      5  C   LIG    1       30.592 -17.298  10.587  0.00  0.00    +0.322 C 
ATOM      6  O   LIG    1       30.354 -16.322  11.293  0.00  0.00    -0.249 OA
BRANCH   5   7
ATOM      7  OXT LIG    1       30.672 -18.543  11.107  0.00  0.00    -0.479 OA
ATOM      8  HXT LIG    1       29.898 -18.820  11.634  0.00  0.00    +0.295 HD
ENDBRANCH   5   7
ENDBRANCH   1   5
BRANCH   1   9
ATOM      9  C   LIG    1       29.959 -18.329   8.346  0.00  0.00    +0.031 C 
BRANCH   9  10
ATOM     10  C   LIG    1       30.847 -19.345   7.610  0.00  0.00    +0.017 C 
BRANCH  10  11
ATOM     11  C   LIG    1       30.955 -20.677   8.352  0.00  0.00    +0.078 C 
BRANCH  11  12
ATOM     12  N   LIG    1       32.081 -20.685   9.281  0.00  0.00    -0.330 NA
ATOM     13  H   LIG    1       32.449 -21.633   9.360  0.00  0.00    +0.118 HD
ATOM     14  H   LIG    1       32.837 -20.124   8.889  0.00  0.00    +0.118 HD
ENDBRANCH  11  12
ENDBRANCH  10  11
ENDBRANCH   9  10
ENDBRANCH   1   9
TORSDOF 7
ENDMDL
MODEL 2
REMARK VINA RESULT:      -5.0      1.811      2.206
REMARK  Name = *****
REMARK                            x       y       z     vdW  Elec       q    Type
REMARK                         _______ _______ _______ _____ _____    ______ ____
ROOT
ATOM      1  CA  LIG    1       31.016 -18.449   7.854  0.00  0.00    +0.161 C 
ENDROOT
BRANCH   1   2
ATOM      2  N   LIG    1       31.842 -19.199   6.880  0.00  0.00    -0.318 NA
ATOM      3  H1  LIG    1       31.541 -18.929   5.939  0.00  0.00    +0.119 HD
ATOM      4  H2  LIG    1       32.797 -18.832   6.932  0.00  0.00    +0.119 HD
ENDBRANCH   1   2
BRANCH   1   5
ATOM      5  C   LIG    1       31.932 -17.800   8.915  0.00  0.00    +0.322 C 
ATOM      6  O   LIG    1       32.199 -18.322   9.994  0.00  0.00    -0.249 OA
BRANCH   5   7
ATOM      7  OXT LIG    1       32.480 -16.621   8.546  0.00  0.00    -0.479 OA
ATOM      8  HXT LIG    1       31.896 -15.846   8.648  0.00  0.00    +0.295 HD
ENDBRANCH   5   7
ENDBRANCH   1   5
BRANCH   1   9
ATOM      9  C   LIG    1       29.985 -19.387   8.496  0.00  0.00    +0.031 C 
BRANCH   9  10
ATOM     10  C   LIG    1       30.149 -20.853   8.065  0.00  0.00    +0.017 C 
BRANCH  10  11
ATOM     11  C   LIG    1       30.771 -21.721   9.159  0.00  0.00    +0.078 C 
BRANCH  11  12
ATOM     12  N   LIG    1       32.188 -21.420   9.342  0.00  0.00    -0.330 NA
ATOM     13  H   LIG    1       32.686 -21.584   8.467  0.00  0.00    +0.118 HD
ATOM     14  H   LIG    1       32.292 -20.425   9.540  0.00  0.00    +0.118 HD
ENDBRANCH  11  12
ENDBRANCH  10  11
ENDBRANCH   9  10
ENDBRANCH   1   9
TORSDOF 7
ENDMDL
MODEL 3
REMARK VINA RESULT:      -5.0      3.494      4.412
REMARK  Name = *****
REMARK                            x       y       z     vdW  Elec       q    Type
REMARK                         _______ _______ _______ _____ _____    ______ ____
ROOT
ATOM      1  CA  LIG    1       30.488 -20.625   8.334  0.00  0.00    +0.161 C 
ENDROOT
BRANCH   1   2
ATOM      2  N   LIG    1       31.487 -20.067   7.393  0.00  0.00    -0.318 NA
ATOM      3  H1  LIG    1       31.471 -20.639   6.543  0.00  0.00    +0.119 HD
ATOM      4  H2  LIG    1       31.138 -19.160   7.069  0.00  0.00    +0.119 HD
ENDBRANCH   1   2
BRANCH   1   5
ATOM      5  C   LIG    1       31.135 -21.762   9.156  0.00  0.00    +0.322 C 
ATOM      6  O   LIG    1       30.719 -22.132  10.251  0.00  0.00    -0.249 OA
BRANCH   5   7
ATOM      7  OXT LIG    1       32.176 -22.377   8.552  0.00  0.00    -0.479 OA
ATOM      8  HXT LIG    1       32.922 -22.597   9.141  0.00  0.00    +0.295 HD
ENDBRANCH   5   7
ENDBRANCH   1   5
BRANCH   1   9
ATOM      9  C   LIG    1       29.259 -21.118   7.558  0.00  0.00    +0.031 C 
BRANCH   9  10
ATOM     10  C   LIG    1       28.003 -20.270   7.810  0.00  0.00    +0.017 C 
BRANCH  10  11
ATOM     11  C   LIG    1       26.768 -21.122   8.099  0.00  0.00    +0.078 C 
BRANCH  11  12
ATOM     12  N   LIG    1       25.996 -20.589   9.219  0.00  0.00    -0.330 NA
ATOM     13  H   LIG    1       25.648 -19.661   8.979  0.00  0.00    +0.118 HD
ATOM     14  H   LIG    1       25.169 -21.170   9.357  0.00  0.00    +0.118 HD
ENDBRANCH  11  12
ENDBRANCH  10  11
ENDBRANCH   9  10
ENDBRANCH   1   9
TORSDOF 7
ENDMDL
MODEL 4
REMARK VINA RESULT:      -5.0      2.551      3.671
REMARK  Name = *****
REMARK                            x       y       z     vdW  Elec       q    Type
REMARK                         _______ _______ _______ _____ _____    ______ ____
ROOT
ATOM      1  CA  LIG    1       31.305 -19.547   8.361  0.00  0.00    +0.161 C 
ENDROOT
BRANCH   1   2
ATOM      2  N   LIG    1       31.516 -19.651   6.898  0.00  0.00    -0.318 NA
ATOM      3  H1  LIG    1       31.891 -18.756   6.571  0.00  0.00    +0.119 HD
ATOM      4  H2  LIG    1       32.293 -20.299   6.740  0.00  0.00    +0.119 HD
ENDBRANCH   1   2
BRANCH   1   5
ATOM      5  C   LIG    1       31.083 -20.958   8.951  0.00  0.00    +0.322 C 
ATOM      6  O   LIG    1       30.015 -21.560   8.890  0.00  0.00    -0.249 OA
BRANCH   5   7
ATOM      7  OXT LIG    1       32.182 -21.522   9.500  0.00  0.00    -0.479 OA
ATOM      8  HXT LIG    1       32.232 -21.464  10.473  0.00  0.00    +0.295 HD
ENDBRANCH   5   7
ENDBRANCH   1   5
BRANCH   1   9
ATOM      9  C   LIG    1       30.117 -18.621   8.652  0.00  0.00    +0.031 C 
BRANCH   9  10
ATOM     10  C   LIG    1       30.500 -17.383   9.478  0.00  0.00    +0.017 C 
BRANCH  10  11
ATOM     11  C   LIG    1       32.009 -17.260   9.686  0.00  0.00    +0.078 C 
BRANCH  11  12
ATOM     12  N   LIG    1       32.582 -16.205   8.855  0.00  0.00    -0.330 NA
ATOM     13  H   LIG    1       32.713 -16.554   7.906  0.00  0.00    +0.118 HD
ATOM     14  H   LIG    1       31.910 -15.441   8.782  0.00  0.00    +0.118 HD
ENDBRANCH  11  12
ENDBRANCH  10  11
ENDBRANCH   9  10
ENDBRANCH   1   9
TORSDOF 7
ENDMDL
MODEL 5
REMARK VINA RESULT:      -4.9      2.249      2.850
REMARK  Name = *****
REMARK                            x       y       z     vdW  Elec       q    Type
REMARK                         _______ _______ _______ _____ _____    ______ ____
ROOT
ATOM      1  CA  LIG    1       31.648 -18.461   8.629  0.00  0.00    +0.161 C 
ENDROOT
BRANCH   1   2
ATOM      2  N   LIG    1       32.000 -19.780   9.204  0.00  0.00    -0.318 NA
ATOM      3  H1  LIG    1       32.782 -19.641   9.852  0.00  0.00    +0.119 HD
ATOM      4  H2  LIG    1       31.235 -20.065   9.823  0.00  0.00    +0.119 HD
ENDBRANCH   1   2
BRANCH   1   5
ATOM      5  C   LIG    1       32.304 -17.342   9.468  0.00  0.00    +0.322 C 
ATOM      6  O   LIG    1       32.618 -17.471  10.648  0.00  0.00    -0.249 OA
BRANCH   5   7
ATOM      7  OXT LIG    1       32.569 -16.205   8.788  0.00  0.00    -0.479 OA
ATOM      8  HXT LIG    1       32.844 -16.334   7.860  0.00  0.00    +0.295 HD
ENDBRANCH   5   7
ENDBRANCH   1   5
BRANCH   1   9
ATOM      9  C   LIG    1       30.122 -18.306   8.576  0.00  0.00    +0.031 C 
BRANCH   9  10
ATOM     10  C   LIG    1       29.458 -19.198   7.515  0.00  0.00    +0.017 C 
BRANCH  10  11
ATOM     11  C   LIG    1       30.149 -19.106   6.155  0.00  0.00    +0.078 C 
BRANCH  11  12
ATOM     12  N   LIG    1       29.562 -18.058   5.324  0.00  0.00    -0.330 NA
ATOM     13  H   LIG    1       30.300 -17.444   4.981  0.00  0.00    +0.118 HD
ATOM     14  H   LIG    1       29.148 -18.486   4.496  0.00  0.00    +0.118 HD
ENDBRANCH  11  12
ENDBRANCH  10  11
ENDBRANCH   9  10
ENDBRANCH   1   9
TORSDOF 7
ENDMDL
MODEL 6
REMARK VINA RESULT:      -4.7      2.418      3.860
REMARK  Name = *****
REMARK                            x       y       z     vdW  Elec       q    Type
REMARK                         _______ _______ _______ _____ _____    ______ ____
ROOT
ATOM      1  CA  LIG    1       30.250 -21.088   8.001  0.00  0.00    +0.161 C 
ENDROOT
BRANCH   1   2
ATOM      2  N   LIG    1       28.830 -20.996   8.415  0.00  0.00    -0.318 NA
ATOM      3  H1  LIG    1       28.347 -20.387   7.747  0.00  0.00    +0.119 HD
ATOM      4  H2  LIG    1       28.397 -21.910   8.250  0.00  0.00    +0.119 HD
ENDBRANCH   1   2
BRANCH   1   5
ATOM      5  C   LIG    1       31.118 -21.461   9.223  0.00  0.00    +0.322 C 
ATOM      6  O   LIG    1       30.843 -22.371  10.001  0.00  0.00    -0.249 OA
BRANCH   5   7
ATOM      7  OXT LIG    1       32.257 -20.744   9.349  0.00  0.00    -0.479 OA
ATOM      8  HXT LIG    1       32.639 -20.427   8.510  0.00  0.00    +0.295 HD
ENDBRANCH   5   7
ENDBRANCH   1   5
BRANCH   1   9
ATOM      9  C   LIG    1       30.697 -19.760   7.375  0.00  0.00    +0.031 C 
BRANCH   9  10
ATOM     10  C   LIG    1       29.934 -18.543   7.923  0.00  0.00    +0.017 C 
BRANCH  10  11
ATOM     11  C   LIG    1       30.800 -17.665   8.826  0.00  0.00    +0.078 C 
BRANCH  11  12
ATOM     12  N   LIG    1       32.184 -17.618   8.363  0.00  0.00    -0.330 NA
ATOM     13  H   LIG    1       32.491 -18.559   8.116  0.00  0.00    +0.118 HD
ATOM     14  H   LIG    1       32.226 -17.076   7.500  0.00  0.00    +0.118 HD
ENDBRANCH  11  12
ENDBRANCH  10  11
ENDBRANCH   9  10
ENDBRANCH   1   9
TORSDOF 7
ENDMDL
MODEL 7
REMARK VINA RESULT:      -4.7      2.645      3.934
REMARK  Name = *****
REMARK                            x       y       z     vdW  Elec       q    Type
REMARK                         _______ _______ _______ _____ _____    ______ ____
ROOT
ATOM      1  CA  LIG    1       30.407 -20.979   7.987  0.00  0.00    +0.161 C 
ENDROOT
BRANCH   1   2
ATOM      2  N   LIG    1       29.007 -20.769   8.425  0.00  0.00    -0.318 NA
ATOM      3  H1  LIG    1       28.417 -21.436   7.918  0.00  0.00    +0.119 HD
ATOM      4  H2  LIG    1       28.933 -21.087   9.396  0.00  0.00    +0.119 HD
ENDBRANCH   1   2
BRANCH   1   5
ATOM      5  C   LIG    1       31.164 -21.795   9.058  0.00  0.00    +0.322 C 
ATOM      6  O   LIG    1       30.828 -21.848  10.238  0.00  0.00    -0.249 OA
BRANCH   5   7
ATOM      7  OXT LIG    1       32.211 -22.511   8.590  0.00  0.00    -0.479 OA
ATOM      8  HXT LIG    1       32.005 -23.099   7.839  0.00  0.00    +0.295 HD
ENDBRANCH   5   7
ENDBRANCH   1   5
BRANCH   1   9
ATOM      9  C   LIG    1       31.080 -19.624   7.730  0.00  0.00    +0.031 C 
BRANCH   9  10
ATOM     10  C   LIG    1       30.258 -18.431   8.239  0.00  0.00    +0.017 C 
BRANCH  10  11
ATOM     11  C   LIG    1       30.840 -17.819   9.513  0.00  0.00    +0.078 C 
BRANCH  11  12
ATOM     12  N   LIG    1       30.578 -18.656  10.681  0.00  0.00    -0.330 NA
ATOM     13  H   LIG    1       29.585 -18.889  10.716  0.00  0.00    +0.118 HD
ATOM     14  H   LIG    1       31.068 -19.544  10.567  0.00  0.00    +0.118 HD
ENDBRANCH  11  12
ENDBRANCH  10  11
ENDBRANCH   9  10
ENDBRANCH   1   9
TORSDOF 7
ENDMDL
MODEL 8
REMARK VINA RESULT:      -4.7      2.503      3.831
REMARK  Name = *****
REMARK                            x       y       z     vdW  Elec       q    Type
REMARK                         _______ _______ _______ _____ _____    ______ ____
ROOT
ATOM      1  CA  LIG    1       30.642 -18.917   8.826  0.00  0.00    +0.161 C 
ENDROOT
BRANCH   1   2
ATOM      2  N   LIG    1       31.918 -19.382   9.418  0.00  0.00    -0.318 NA
ATOM      3  H1  LIG    1       31.890 -20.405   9.461  0.00  0.00    +0.119 HD
ATOM      4  H2  LIG    1       32.663 -19.198   8.740  0.00  0.00    +0.119 HD
ENDBRANCH   1   2
BRANCH   1   5
ATOM      5  C   LIG    1       30.744 -18.962   7.285  0.00  0.00    +0.322 C 
ATOM      6  O   LIG    1       30.067 -18.262   6.537  0.00  0.00    -0.249 OA
BRANCH   5   7
ATOM      7  OXT LIG    1       31.690 -19.800   6.803  0.00  0.00    -0.479 OA
ATOM      8  HXT LIG    1       31.566 -20.070   5.874  0.00  0.00    +0.295 HD
ENDBRANCH   5   7
ENDBRANCH   1   5
BRANCH   1   9
ATOM      9  C   LIG    1       30.318 -17.504   9.329  0.00  0.00    +0.031 C 
BRANCH   9  10
ATOM     10  C   LIG    1       31.118 -17.107  10.579  0.00  0.00    +0.017 C 
BRANCH  10  11
ATOM     11  C   LIG    1       32.201 -16.072  10.278  0.00  0.00    +0.078 C 
BRANCH  11  12
ATOM     12  N   LIG    1       32.658 -16.159   8.893  0.00  0.00    -0.330 NA
ATOM     13  H   LIG    1       32.708 -17.139   8.614  0.00  0.00    +0.118 HD
ATOM     14  H   LIG    1       31.959 -15.732   8.287  0.00  0.00    +0.118 HD
ENDBRANCH  11  12
ENDBRANCH  10  11
ENDBRANCH   9  10
ENDBRANCH   1   9
TORSDOF 7
ENDMDL
MODEL 9
REMARK VINA RESULT:      -4.7      3.757      4.188
REMARK  Name = *****
REMARK                            x       y       z     vdW  Elec       q    Type
REMARK                         _______ _______ _______ _____ _____    ______ ____
ROOT
ATOM      1  CA  LIG    1       29.780 -18.898   6.883  0.00  0.00    +0.161 C 
ENDROOT
BRANCH   1   2
ATOM      2  N   LIG    1       29.841 -18.231   5.561  0.00  0.00    -0.318 NA
ATOM      3  H1  LIG    1       28.882 -18.141   5.211  0.00  0.00    +0.119 HD
ATOM      4  H2  LIG    1       30.124 -17.259   5.714  0.00  0.00    +0.119 HD
ENDBRANCH   1   2
BRANCH   1   5
ATOM      5  C   LIG    1       31.208 -19.031   7.458  0.00  0.00    +0.322 C 
ATOM      6  O   LIG    1       31.866 -18.081   7.873  0.00  0.00    -0.249 OA
BRANCH   5   7
ATOM      7  OXT LIG    1       31.673 -20.298   7.530  0.00  0.00    -0.479 OA
ATOM      8  HXT LIG    1       31.956 -20.682   6.679  0.00  0.00    +0.295 HD
ENDBRANCH   5   7
ENDBRANCH   1   5
BRANCH   1   9
ATOM      9  C   LIG    1       29.096 -20.264   6.747  0.00  0.00    +0.031 C 
BRANCH   9  10
ATOM     10  C   LIG    1       27.664 -20.284   7.303  0.00  0.00    +0.017 C 
BRANCH  10  11
ATOM     11  C   LIG    1       26.614 -20.490   6.211  0.00  0.00    +0.078 C 
BRANCH  11  12
ATOM     12  N   LIG    1       27.085 -20.011   4.915  0.00  0.00    -0.330 NA
ATOM     13  H   LIG    1       26.317 -20.038   4.243  0.00  0.00    +0.118 HD
ATOM     14  H   LIG    1       27.345 -19.028   5.000  0.00  0.00    +0.118 HD
ENDBRANCH  11  12
ENDBRANCH  10  11
ENDBRANCH   9  10
ENDBRANCH   1   9
TORSDOF 7
ENDMDL
