MODEL 1
REMARK VINA RESULT:       3.1      0.000      0.000
REMARK  Name = *****
REMARK                            x       y       z     vdW  Elec       q    Type
REMARK                         _______ _______ _______ _____ _____    ______ ____
ROOT
ATOM      1  N   LIG    1       27.038 -20.763   9.062  0.00  0.00    -0.302 NA
ATOM      2  C   LIG    1       25.691 -20.198   9.128  0.00  0.00    +0.085 C 
ATOM      3  C   LIG    1       24.982 -20.103   7.777  0.00  0.00    +0.022 C 
ATOM      4  C   LIG    1       25.078 -21.357   6.857  0.00  0.00    +0.032 C 
ATOM      5  C   LIG    1       26.347 -22.204   7.127  0.00  0.00    +0.022 C 
ATOM      6  C   LIG    1       26.923 -22.127   8.539  0.00  0.00    +0.085 C 
ENDROOT
BRANCH   1   7
ATOM      7  C   LIG    1       28.025 -19.954   8.330  0.00  0.00    +0.084 C 
BRANCH   7   8
ATOM      8  C   LIG    1       29.226 -19.504   9.183  0.00  0.00    +0.018 C 
BRANCH   8   9
ATOM      9  C   LIG    1       30.480 -19.355   8.311  0.00  0.00    +0.037 C 
BRANCH   9  10
ATOM     10  C   LIG    1       30.535 -20.325   7.115  0.00  0.00    +0.144 C 
BRANCH  10  14
ATOM     11  C   LIG    1       26.995 -19.939   4.549  0.00  0.00    -0.042 A 
ATOM     12  C   LIG    1       27.519 -21.188   4.918  0.00  0.00    +0.004 A 
ATOM     13  C   LIG    1       28.640 -21.308   5.749  0.00  0.00    +0.006 A 
ATOM     14  C   LIG    1       29.304 -20.176   6.232  0.00  0.00    -0.019 A 
ATOM     15  C   LIG    1       28.791 -18.924   5.871  0.00  0.00    +0.006 A 
ATOM     16  C   LIG    1       27.661 -18.806   5.044  0.00  0.00    +0.004 A 
BRANCH  11  18
ATOM     17  C   LIG    1       25.027 -21.163   3.519  0.00  0.00    +0.015 C 
ATOM     18  C   LIG    1       25.743 -19.801   3.662  0.00  0.00    -0.013 C 
ATOM     19  C   LIG    1       24.735 -18.800   4.264  0.00  0.00    +0.015 C 
ATOM     20  C   LIG    1       26.091 -19.304   2.240  0.00  0.00    +0.015 C 
ENDBRANCH  11  18
ENDBRANCH  10  14
BRANCH  10  21
ATOM     21  O   LIG    1       30.630 -21.666   7.594  0.00  0.00    -0.387 OA
ATOM     22  H   LIG    1       30.093 -22.226   7.010  0.00  0.00    +0.210 HD
ENDBRANCH  10  21
ENDBRANCH   9  10
ENDBRANCH   8   9
ENDBRANCH   7   8
ENDBRANCH   1   7
BRANCH   4  23
ATOM     23  C   LIG    1       23.732 -22.178   6.703  0.00  0.00    +0.119 C 
BRANCH  23  24
ATOM     24  C   LIG    1       24.029 -23.628   6.273  0.00  0.00    -0.011 A 
ATOM     25  C   LIG    1       23.209 -24.681   6.711  0.00  0.00    +0.007 A 
ATOM     26  C   LIG    1       23.439 -25.997   6.311  0.00  0.00    +0.000 A 
ATOM     27  C   LIG    1       24.500 -26.283   5.455  0.00  0.00    +0.000 A 
ATOM     28  C   LIG    1       25.335 -25.259   5.020  0.00  0.00    +0.000 A 
ATOM     29  C   LIG    1       25.112 -23.942   5.432  0.00  0.00    +0.007 A 
ENDBRANCH  23  24
BRANCH  23  30
ATOM     30  C   LIG    1       22.625 -21.524   5.826  0.00  0.00    -0.011 A 
ATOM     31  C   LIG    1       22.588 -20.146   5.521  0.00  0.00    +0.007 A 
ATOM     32  C   LIG    1       21.599 -19.611   4.685  0.00  0.00    +0.000 A 
ATOM     33  C   LIG    1       20.628 -20.423   4.136  0.00  0.00    +0.000 A 
ATOM     34  C   LIG    1       20.629 -21.790   4.423  0.00  0.00    +0.000 A 
ATOM     35  C   LIG    1       21.609 -22.324   5.270  0.00  0.00    +0.007 A 
ENDBRANCH  23  30
BRANCH  23  36
ATOM     36  O   LIG    1       23.146 -22.216   8.026  0.00  0.00    -0.379 OA
ATOM     37  H   LIG    1       22.694 -23.071   8.110  0.00  0.00    +0.211 HD
ENDBRANCH  23  36
ENDBRANCH   4  23
TORSDOF 11
ENDMDL
MODEL 2
REMARK VINA RESULT:       4.2      1.881      6.817
REMARK  Name = *****
REMARK                            x       y       z     vdW  Elec       q    Type
REMARK                         _______ _______ _______ _____ _____    ______ ____
ROOT
ATOM      1  N   LIG    1       25.850 -19.904   3.738  0.00  0.00    -0.302 NA
ATOM      2  C   LIG    1       27.159 -19.505   4.252  0.00  0.00    +0.085 C 
ATOM      3  C   LIG    1       27.122 -18.875   5.645  0.00  0.00    +0.022 C 
ATOM      4  C   LIG    1       26.238 -19.596   6.706  0.00  0.00    +0.032 C 
ATOM      5  C   LIG    1       25.075 -20.399   6.072  0.00  0.00    +0.022 C 
ATOM      6  C   LIG    1       25.300 -20.909   4.651  0.00  0.00    +0.085 C 
ENDROOT
BRANCH   1   7
ATOM      7  C   LIG    1       24.913 -18.800   3.477  0.00  0.00    +0.084 C 
BRANCH   7   8
ATOM      8  C   LIG    1       23.437 -19.153   3.742  0.00  0.00    +0.018 C 
BRANCH   8   9
ATOM      9  C   LIG    1       23.214 -20.667   3.620  0.00  0.00    +0.037 C 
BRANCH   9  10
ATOM     10  C   LIG    1       22.696 -21.332   4.909  0.00  0.00    +0.144 C 
BRANCH  10  14
ATOM     11  C   LIG    1       24.347 -25.365   5.430  0.00  0.00    -0.042 A 
ATOM     12  C   LIG    1       23.436 -24.806   6.341  0.00  0.00    +0.004 A 
ATOM     13  C   LIG    1       22.900 -23.524   6.164  0.00  0.00    +0.006 A 
ATOM     14  C   LIG    1       23.272 -22.731   5.073  0.00  0.00    -0.019 A 
ATOM     15  C   LIG    1       24.179 -23.279   4.158  0.00  0.00    +0.006 A 
ATOM     16  C   LIG    1       24.709 -24.568   4.332  0.00  0.00    +0.004 A 
BRANCH  11  18
ATOM     17  C   LIG    1       24.122 -27.796   4.739  0.00  0.00    +0.015 C 
ATOM     18  C   LIG    1       24.914 -26.787   5.602  0.00  0.00    -0.013 C 
ATOM     19  C   LIG    1       26.394 -26.859   5.169  0.00  0.00    +0.015 C 
ATOM     20  C   LIG    1       24.841 -27.268   7.069  0.00  0.00    +0.015 C 
ENDBRANCH  11  18
ENDBRANCH  10  14
BRANCH  10  21
ATOM     21  O   LIG    1       21.271 -21.393   4.875  0.00  0.00    -0.387 OA
ATOM     22  H   LIG    1       20.982 -21.041   4.017  0.00  0.00    +0.210 HD
ENDBRANCH  10  21
ENDBRANCH   9  10
ENDBRANCH   8   9
ENDBRANCH   7   8
ENDBRANCH   1   7
BRANCH   4  23
ATOM     23  C   LIG    1       27.042 -20.347   7.846  0.00  0.00    +0.119 C 
BRANCH  23  24
ATOM     24  C   LIG    1       28.536 -19.975   7.790  0.00  0.00    -0.011 A 
ATOM     25  C   LIG    1       29.095 -19.126   8.760  0.00  0.00    +0.007 A 
ATOM     26  C   LIG    1       30.450 -18.800   8.747  0.00  0.00    +0.000 A 
ATOM     27  C   LIG    1       31.279 -19.326   7.758  0.00  0.00    +0.000 A 
ATOM     28  C   LIG    1       30.745 -20.157   6.778  0.00  0.00    +0.000 A 
ATOM     29  C   LIG    1       29.384 -20.473   6.784  0.00  0.00    +0.007 A 
ENDBRANCH  23  24
BRANCH  23  30
ATOM     30  C   LIG    1       26.826 -21.885   7.938  0.00  0.00    -0.011 A 
ATOM     31  C   LIG    1       26.171 -22.516   9.019  0.00  0.00    +0.007 A 
ATOM     32  C   LIG    1       25.956 -23.899   9.034  0.00  0.00    +0.000 A 
ATOM     33  C   LIG    1       26.383 -24.689   7.985  0.00  0.00    +0.000 A 
ATOM     34  C   LIG    1       27.043 -24.101   6.903  0.00  0.00    +0.000 A 
ATOM     35  C   LIG    1       27.270 -22.718   6.894  0.00  0.00    +0.007 A 
ENDBRANCH  23  30
BRANCH  23  36
ATOM     36  O   LIG    1       26.505 -19.848   9.095  0.00  0.00    -0.379 OA
ATOM     37  H   LIG    1       25.547 -19.750   8.971  0.00  0.00    +0.211 HD
ENDBRANCH  23  36
ENDBRANCH   4  23
TORSDOF 11
ENDMDL
MODEL 3
REMARK VINA RESULT:       4.4      1.902      6.831
REMARK  Name = *****
REMARK                            x       y       z     vdW  Elec       q    Type
REMARK                         _______ _______ _______ _____ _____    ______ ____
ROOT
ATOM      1  N   LIG    1       25.833 -19.948   3.767  0.00  0.00    -0.302 NA
ATOM      2  C   LIG    1       27.185 -19.612   4.209  0.00  0.00    +0.085 C 
ATOM      3  C   LIG    1       27.253 -18.984   5.601  0.00  0.00    +0.022 C 
ATOM      4  C   LIG    1       26.395 -19.665   6.710  0.00  0.00    +0.032 C 
ATOM      5  C   LIG    1       25.162 -20.411   6.140  0.00  0.00    +0.022 C 
ATOM      6  C   LIG    1       25.286 -20.929   4.710  0.00  0.00    +0.085 C 
ENDROOT
BRANCH   1   7
ATOM      7  C   LIG    1       24.936 -18.801   3.556  0.00  0.00    +0.084 C 
BRANCH   7   8
ATOM      8  C   LIG    1       23.452 -19.104   3.839  0.00  0.00    +0.018 C 
BRANCH   8   9
ATOM      9  C   LIG    1       23.171 -20.606   3.697  0.00  0.00    +0.037 C 
BRANCH   9  10
ATOM     10  C   LIG    1       22.633 -21.269   4.979  0.00  0.00    +0.144 C 
BRANCH  10  14
ATOM     11  C   LIG    1       24.285 -25.311   5.429  0.00  0.00    -0.042 A 
ATOM     12  C   LIG    1       24.641 -24.471   4.361  0.00  0.00    +0.004 A 
ATOM     13  C   LIG    1       24.124 -23.176   4.228  0.00  0.00    +0.006 A 
ATOM     14  C   LIG    1       23.203 -22.670   5.152  0.00  0.00    -0.019 A 
ATOM     15  C   LIG    1       22.841 -23.498   6.221  0.00  0.00    +0.006 A 
ATOM     16  C   LIG    1       23.368 -24.793   6.358  0.00  0.00    +0.004 A 
BRANCH  11  18
ATOM     17  C   LIG    1       23.939 -27.782   4.977  0.00  0.00    +0.015 C 
ATOM     18  C   LIG    1       24.877 -26.722   5.599  0.00  0.00    -0.013 C 
ATOM     19  C   LIG    1       26.250 -26.844   4.905  0.00  0.00    +0.015 C 
ATOM     20  C   LIG    1       25.079 -27.092   7.086  0.00  0.00    +0.015 C 
ENDBRANCH  11  18
ENDBRANCH  10  14
BRANCH  10  21
ATOM     21  O   LIG    1       21.209 -21.327   4.924  0.00  0.00    -0.387 OA
ATOM     22  H   LIG    1       20.928 -20.894   4.102  0.00  0.00    +0.210 HD
ENDBRANCH  10  21
ENDBRANCH   9  10
ENDBRANCH   8   9
ENDBRANCH   7   8
ENDBRANCH   1   7
BRANCH   4  23
ATOM     23  C   LIG    1       27.223 -20.455   7.805  0.00  0.00    +0.119 C 
BRANCH  23  24
ATOM     24  C   LIG    1       28.730 -20.167   7.657  0.00  0.00    -0.011 A 
ATOM     25  C   LIG    1       29.203 -19.383   6.592  0.00  0.00    +0.007 A 
ATOM     26  C   LIG    1       30.558 -19.084   6.454  0.00  0.00    +0.000 A 
ATOM     27  C   LIG    1       31.470 -19.566   7.390  0.00  0.00    +0.000 A 
ATOM     28  C   LIG    1       31.027 -20.357   8.446  0.00  0.00    +0.000 A 
ATOM     29  C   LIG    1       29.671 -20.667   8.575  0.00  0.00    +0.007 A 
ENDBRANCH  23  24
BRANCH  23  30
ATOM     30  C   LIG    1       26.929 -21.979   7.920  0.00  0.00    -0.011 A 
ATOM     31  C   LIG    1       26.154 -22.545   8.957  0.00  0.00    +0.007 A 
ATOM     32  C   LIG    1       25.874 -23.917   8.992  0.00  0.00    +0.000 A 
ATOM     33  C   LIG    1       26.353 -24.757   8.007  0.00  0.00    +0.000 A 
ATOM     34  C   LIG    1       27.130 -24.233   6.970  0.00  0.00    +0.000 A 
ATOM     35  C   LIG    1       27.422 -22.863   6.943  0.00  0.00    +0.007 A 
ENDBRANCH  23  30
BRANCH  23  36
ATOM     36  O   LIG    1       26.790 -19.922   9.080  0.00  0.00    -0.379 OA
ATOM     37  H   LIG    1       26.580 -20.682   9.646  0.00  0.00    +0.211 HD
ENDBRANCH  23  36
ENDBRANCH   4  23
TORSDOF 11
ENDMDL
MODEL 4
REMARK VINA RESULT:       5.2      1.891      6.815
REMARK  Name = *****
REMARK                            x       y       z     vdW  Elec       q    Type
REMARK                         _______ _______ _______ _____ _____    ______ ____
ROOT
ATOM      1  N   LIG    1       25.824 -19.864   3.571  0.00  0.00    -0.302 NA
ATOM      2  C   LIG    1       27.104 -19.416   4.118  0.00  0.00    +0.085 C 
ATOM      3  C   LIG    1       27.013 -18.816   5.521  0.00  0.00    +0.022 C 
ATOM      4  C   LIG    1       26.145 -19.599   6.552  0.00  0.00    +0.032 C 
ATOM      5  C   LIG    1       25.031 -20.442   5.881  0.00  0.00    +0.022 C 
ATOM      6  C   LIG    1       25.306 -20.912   4.455  0.00  0.00    +0.085 C 
ENDROOT
BRANCH   1   7
ATOM      7  C   LIG    1       24.842 -18.800   3.314  0.00  0.00    +0.084 C 
BRANCH   7   8
ATOM      8  C   LIG    1       23.426 -19.113   3.834  0.00  0.00    +0.018 C 
BRANCH   8   9
ATOM      9  C   LIG    1       23.102 -20.602   3.652  0.00  0.00    +0.037 C 
BRANCH   9  10
ATOM     10  C   LIG    1       22.530 -21.279   4.912  0.00  0.00    +0.144 C 
BRANCH  10  14
ATOM     11  C   LIG    1       24.291 -25.262   5.456  0.00  0.00    -0.042 A 
ATOM     12  C   LIG    1       24.579 -24.463   4.338  0.00  0.00    +0.004 A 
ATOM     13  C   LIG    1       24.027 -23.186   4.175  0.00  0.00    +0.006 A 
ATOM     14  C   LIG    1       23.138 -22.659   5.117  0.00  0.00    -0.019 A 
ATOM     15  C   LIG    1       22.843 -23.447   6.236  0.00  0.00    +0.006 A 
ATOM     16  C   LIG    1       23.405 -24.724   6.403  0.00  0.00    +0.004 A 
BRANCH  11  18
ATOM     17  C   LIG    1       24.080 -27.739   4.948  0.00  0.00    +0.015 C 
ATOM     18  C   LIG    1       24.921 -26.653   5.657  0.00  0.00    -0.013 C 
ATOM     19  C   LIG    1       26.350 -26.713   5.077  0.00  0.00    +0.015 C 
ATOM     20  C   LIG    1       25.015 -27.037   7.152  0.00  0.00    +0.015 C 
ENDBRANCH  11  18
ENDBRANCH  10  14
BRANCH  10  21
ATOM     21  O   LIG    1       21.112 -21.385   4.794  0.00  0.00    -0.387 OA
ATOM     22  H   LIG    1       20.728 -20.544   5.089  0.00  0.00    +0.210 HD
ENDBRANCH  10  21
ENDBRANCH   9  10
ENDBRANCH   8   9
ENDBRANCH   7   8
ENDBRANCH   1   7
BRANCH   4  23
ATOM     23  C   LIG    1       26.962 -20.335   7.692  0.00  0.00    +0.119 C 
BRANCH  23  24
ATOM     24  C   LIG    1       28.452 -19.945   7.628  0.00  0.00    -0.011 A 
ATOM     25  C   LIG    1       29.092 -19.395   8.752  0.00  0.00    +0.007 A 
ATOM     26  C   LIG    1       30.445 -19.062   8.728  0.00  0.00    +0.000 A 
ATOM     27  C   LIG    1       31.190 -19.281   7.571  0.00  0.00    +0.000 A 
ATOM     28  C   LIG    1       30.575 -19.812   6.441  0.00  0.00    +0.000 A 
ATOM     29  C   LIG    1       29.215 -20.132   6.462  0.00  0.00    +0.007 A 
ENDBRANCH  23  24
BRANCH  23  30
ATOM     30  C   LIG    1       26.766 -21.875   7.791  0.00  0.00    -0.011 A 
ATOM     31  C   LIG    1       27.268 -22.787   6.837  0.00  0.00    +0.007 A 
ATOM     32  C   LIG    1       27.109 -24.169   6.995  0.00  0.00    +0.000 A 
ATOM     33  C   LIG    1       26.452 -24.680   8.096  0.00  0.00    +0.000 A 
ATOM     34  C   LIG    1       25.934 -23.808   9.057  0.00  0.00    +0.000 A 
ATOM     35  C   LIG    1       26.080 -22.424   8.892  0.00  0.00    +0.007 A 
ENDBRANCH  23  30
BRANCH  23  36
ATOM     36  O   LIG    1       26.424 -19.837   8.940  0.00  0.00    -0.379 OA
ATOM     37  H   LIG    1       27.176 -19.519   9.465  0.00  0.00    +0.211 HD
ENDBRANCH  23  36
ENDBRANCH   4  23
TORSDOF 11
ENDMDL
