MODEL 1
REMARK VINA RESULT:      -5.7      0.000      0.000
REMARK  Name = *****
REMARK                            x       y       z     vdW  Elec       q    Type
REMARK                         _______ _______ _______ _____ _____    ______ ____
ROOT
ATOM      1  C   LIG    1       24.690 -20.507   4.741  0.00  0.00    +0.146 A 
ATOM      2  C   LIG    1       25.464 -20.650   5.902  0.00  0.00    +0.101 A 
ATOM      3  C   LIG    1       24.873 -21.179   7.062  0.00  0.00    +0.019 A 
ATOM      4  C   LIG    1       23.534 -21.572   7.058  0.00  0.00    +0.001 A 
ATOM      5  C   LIG    1       22.773 -21.434   5.901  0.00  0.00    +0.004 A 
ATOM      6  C   LIG    1       23.343 -20.891   4.749  0.00  0.00    +0.047 A 
ENDROOT
BRANCH   2   7
ATOM      7  C   LIG    1       26.883 -20.238   6.019  0.00  0.00    +0.340 C 
ATOM      8  O   LIG    1       27.498 -20.128   7.062  0.00  0.00    -0.245 OA
BRANCH   7   9
ATOM      9  O   LIG    1       27.499 -20.090   4.832  0.00  0.00    -0.477 OA
ATOM     10  H   LIG    1       27.505 -21.000   4.467  0.00  0.00    +0.295 HD
ENDBRANCH   7   9
ENDBRANCH   2   7
BRANCH   1  11
ATOM     11  O   LIG    1       25.241 -19.830   3.628  0.00  0.00    -0.425 OA
BRANCH  11  13
ATOM     12  C   LIG    1       23.719 -18.039   3.771  0.00  0.00    +0.136 C 
ATOM     13  C   LIG    1       25.129 -18.448   3.466  0.00  0.00    +0.309 C 
ATOM     14  O   LIG    1       26.006 -17.675   3.106  0.00  0.00    -0.251 OA
ENDBRANCH  11  13
ENDBRANCH   1  11
TORSDOF 4
ENDMDL
MODEL 2
REMARK VINA RESULT:      -5.3      1.606      2.996
REMARK  Name = *****
REMARK                            x       y       z     vdW  Elec       q    Type
REMARK                         _______ _______ _______ _____ _____    ______ ____
ROOT
ATOM      1  C   LIG    1       26.258 -19.986   4.803  0.00  0.00    +0.146 A 
ATOM      2  C   LIG    1       25.542 -20.917   5.571  0.00  0.00    +0.101 A 
ATOM      3  C   LIG    1       26.152 -21.491   6.699  0.00  0.00    +0.019 A 
ATOM      4  C   LIG    1       27.451 -21.133   7.062  0.00  0.00    +0.001 A 
ATOM      5  C   LIG    1       28.153 -20.204   6.300  0.00  0.00    +0.004 A 
ATOM      6  C   LIG    1       27.566 -19.641   5.166  0.00  0.00    +0.047 A 
ENDROOT
BRANCH   2   7
ATOM      7  C   LIG    1       24.172 -21.386   5.256  0.00  0.00    +0.340 C 
ATOM      8  O   LIG    1       23.270 -21.512   6.061  0.00  0.00    -0.245 OA
BRANCH   7   9
ATOM      9  O   LIG    1       23.957 -21.572   3.940  0.00  0.00    -0.477 OA
ATOM     10  H   LIG    1       24.529 -20.894   3.522  0.00  0.00    +0.295 HD
ENDBRANCH   7   9
ENDBRANCH   2   7
BRANCH   1  11
ATOM     11  O   LIG    1       25.703 -19.531   3.584  0.00  0.00    -0.425 OA
BRANCH  11  13
ATOM     12  C   LIG    1       23.788 -18.164   3.679  0.00  0.00    +0.136 C 
ATOM     13  C   LIG    1       25.262 -18.218   3.411  0.00  0.00    +0.309 C 
ATOM     14  O   LIG    1       25.934 -17.255   3.067  0.00  0.00    -0.251 OA
ENDBRANCH  11  13
ENDBRANCH   1  11
TORSDOF 4
ENDMDL
MODEL 3
REMARK VINA RESULT:      -4.8      4.599      6.496
REMARK  Name = *****
REMARK                            x       y       z     vdW  Elec       q    Type
REMARK                         _______ _______ _______ _____ _____    ______ ____
ROOT
ATOM      1  C   LIG    1       26.030 -13.987   3.210  0.00  0.00    +0.146 A 
ATOM      2  C   LIG    1       25.526 -15.253   3.545  0.00  0.00    +0.101 A 
ATOM      3  C   LIG    1       24.214 -15.364   4.032  0.00  0.00    +0.019 A 
ATOM      4  C   LIG    1       23.412 -14.230   4.172  0.00  0.00    +0.001 A 
ATOM      5  C   LIG    1       23.915 -12.978   3.832  0.00  0.00    +0.004 A 
ATOM      6  C   LIG    1       25.225 -12.853   3.365  0.00  0.00    +0.047 A 
ENDROOT
BRANCH   2   7
ATOM      7  C   LIG    1       26.303 -16.513   3.462  0.00  0.00    +0.340 C 
ATOM      8  O   LIG    1       25.893 -17.562   3.007  0.00  0.00    -0.245 OA
BRANCH   7   9
ATOM      9  O   LIG    1       27.586 -16.379   3.846  0.00  0.00    -0.477 OA
ATOM     10  H   LIG    1       27.901 -15.616   3.317  0.00  0.00    +0.295 HD
ENDBRANCH   7   9
ENDBRANCH   2   7
BRANCH   1  11
ATOM     11  O   LIG    1       27.398 -13.861   2.872  0.00  0.00    -0.425 OA
BRANCH  11  13
ATOM     12  C   LIG    1       27.709 -13.182   5.106  0.00  0.00    +0.136 C 
ATOM     13  C   LIG    1       28.335 -13.311   3.749  0.00  0.00    +0.309 C 
ATOM     14  O   LIG    1       29.474 -12.954   3.482  0.00  0.00    -0.251 OA
ENDBRANCH  11  13
ENDBRANCH   1  11
TORSDOF 4
ENDMDL
MODEL 4
REMARK VINA RESULT:      -4.8      5.790      7.050
REMARK  Name = *****
REMARK                            x       y       z     vdW  Elec       q    Type
REMARK                         _______ _______ _______ _____ _____    ______ ____
ROOT
ATOM      1  C   LIG    1       25.538 -13.762   4.321  0.00  0.00    +0.146 A 
ATOM      2  C   LIG    1       26.890 -14.082   4.132  0.00  0.00    +0.101 A 
ATOM      3  C   LIG    1       27.235 -15.357   3.656  0.00  0.00    +0.019 A 
ATOM      4  C   LIG    1       26.245 -16.295   3.362  0.00  0.00    +0.001 A 
ATOM      5  C   LIG    1       24.904 -15.970   3.546  0.00  0.00    +0.004 A 
ATOM      6  C   LIG    1       24.550 -14.712   4.036  0.00  0.00    +0.047 A 
ENDROOT
BRANCH   2   7
ATOM      7  C   LIG    1       28.018 -13.170   4.441  0.00  0.00    +0.340 C 
ATOM      8  O   LIG    1       28.945 -12.922   3.695  0.00  0.00    -0.245 OA
BRANCH   7   9
ATOM      9  O   LIG    1       27.883 -12.527   5.615  0.00  0.00    -0.477 OA
ATOM     10  H   LIG    1       28.042 -11.589   5.377  0.00  0.00    +0.295 HD
ENDBRANCH   7   9
ENDBRANCH   2   7
BRANCH   1  11
ATOM     11  O   LIG    1       25.203 -12.539   4.948  0.00  0.00    -0.425 OA
BRANCH  11  13
ATOM     12  C   LIG    1       23.907 -11.666   3.185  0.00  0.00    +0.136 C 
ATOM     13  C   LIG    1       24.016 -11.859   4.668  0.00  0.00    +0.309 C 
ATOM     14  O   LIG    1       23.195 -11.447   5.476  0.00  0.00    -0.251 OA
ENDBRANCH  11  13
ENDBRANCH   1  11
TORSDOF 4
ENDMDL
MODEL 5
REMARK VINA RESULT:      -4.8      1.955      4.187
REMARK  Name = *****
REMARK                            x       y       z     vdW  Elec       q    Type
REMARK                         _______ _______ _______ _____ _____    ______ ____
ROOT
ATOM      1  C   LIG    1       24.531 -19.828   4.434  0.00  0.00    +0.146 A 
ATOM      2  C   LIG    1       23.186 -19.912   4.824  0.00  0.00    +0.101 A 
ATOM      3  C   LIG    1       22.346 -18.802   4.642  0.00  0.00    +0.019 A 
ATOM      4  C   LIG    1       22.838 -17.629   4.065  0.00  0.00    +0.001 A 
ATOM      5  C   LIG    1       24.171 -17.554   3.673  0.00  0.00    +0.004 A 
ATOM      6  C   LIG    1       25.020 -18.645   3.868  0.00  0.00    +0.047 A 
ENDROOT
BRANCH   2   7
ATOM      7  C   LIG    1       22.574 -21.098   5.471  0.00  0.00    +0.340 C 
ATOM      8  O   LIG    1       22.915 -21.570   6.538  0.00  0.00    -0.245 OA
BRANCH   7   9
ATOM      9  O   LIG    1       21.499 -21.572   4.816  0.00  0.00    -0.477 OA
ATOM     10  H   LIG    1       21.573 -21.155   3.931  0.00  0.00    +0.295 HD
ENDBRANCH   7   9
ENDBRANCH   2   7
BRANCH   1  11
ATOM     11  O   LIG    1       25.409 -20.888   4.764  0.00  0.00    -0.425 OA
BRANCH  11  13
ATOM     12  C   LIG    1       27.447 -20.074   5.618  0.00  0.00    +0.136 C 
ATOM     13  C   LIG    1       26.207 -20.865   5.909  0.00  0.00    +0.309 C 
ATOM     14  O   LIG    1       25.978 -21.414   6.978  0.00  0.00    -0.251 OA
ENDBRANCH  11  13
ENDBRANCH   1  11
TORSDOF 4
ENDMDL
MODEL 6
REMARK VINA RESULT:      -4.7      2.100      3.561
REMARK  Name = *****
REMARK                            x       y       z     vdW  Elec       q    Type
REMARK                         _______ _______ _______ _____ _____    ______ ____
ROOT
ATOM      1  C   LIG    1       24.417 -19.293   4.149  0.00  0.00    +0.146 A 
ATOM      2  C   LIG    1       23.085 -19.339   4.586  0.00  0.00    +0.101 A 
ATOM      3  C   LIG    1       22.651 -20.429   5.358  0.00  0.00    +0.019 A 
ATOM      4  C   LIG    1       23.537 -21.451   5.701  0.00  0.00    +0.001 A 
ATOM      5  C   LIG    1       24.859 -21.397   5.271  0.00  0.00    +0.004 A 
ATOM      6  C   LIG    1       25.297 -20.329   4.486  0.00  0.00    +0.047 A 
ENDROOT
BRANCH   2   7
ATOM      7  C   LIG    1       22.059 -18.322   4.253  0.00  0.00    +0.340 C 
ATOM      8  O   LIG    1       20.994 -18.549   3.713  0.00  0.00    -0.245 OA
BRANCH   7   9
ATOM      9  O   LIG    1       22.357 -17.089   4.704  0.00  0.00    -0.477 OA
ATOM     10  H   LIG    1       21.486 -16.736   4.982  0.00  0.00    +0.295 HD
ENDBRANCH   7   9
ENDBRANCH   2   7
BRANCH   1  11
ATOM     11  O   LIG    1       24.808 -18.280   3.243  0.00  0.00    -0.425 OA
BRANCH  11  13
ATOM     12  C   LIG    1       25.456 -16.019   3.362  0.00  0.00    +0.136 C 
ATOM     13  C   LIG    1       25.901 -17.445   3.485  0.00  0.00    +0.309 C 
ATOM     14  O   LIG    1       27.050 -17.788   3.728  0.00  0.00    -0.251 OA
ENDBRANCH  11  13
ENDBRANCH   1  11
TORSDOF 4
ENDMDL
MODEL 7
REMARK VINA RESULT:      -4.7      1.096      3.461
REMARK  Name = *****
REMARK                            x       y       z     vdW  Elec       q    Type
REMARK                         _______ _______ _______ _____ _____    ______ ____
ROOT
ATOM      1  C   LIG    1       24.487 -20.105   4.667  0.00  0.00    +0.146 A 
ATOM      2  C   LIG    1       24.442 -18.849   4.044  0.00  0.00    +0.101 A 
ATOM      3  C   LIG    1       23.198 -18.239   3.816  0.00  0.00    +0.019 A 
ATOM      4  C   LIG    1       22.017 -18.866   4.216  0.00  0.00    +0.001 A 
ATOM      5  C   LIG    1       22.069 -20.109   4.841  0.00  0.00    +0.004 A 
ATOM      6  C   LIG    1       23.298 -20.734   5.054  0.00  0.00    +0.047 A 
ENDROOT
BRANCH   2   7
ATOM      7  C   LIG    1       25.632 -18.113   3.555  0.00  0.00    +0.340 C 
ATOM      8  O   LIG    1       25.605 -17.101   2.883  0.00  0.00    -0.245 OA
BRANCH   7   9
ATOM      9  O   LIG    1       26.796 -18.607   4.015  0.00  0.00    -0.477 OA
ATOM     10  H   LIG    1       27.211 -17.834   4.453  0.00  0.00    +0.295 HD
ENDBRANCH   7   9
ENDBRANCH   2   7
BRANCH   1  11
ATOM     11  O   LIG    1       25.724 -20.785   4.751  0.00  0.00    -0.425 OA
BRANCH  11  13
ATOM     12  C   LIG    1       25.702 -21.237   7.062  0.00  0.00    +0.136 C 
ATOM     13  C   LIG    1       26.516 -20.753   5.900  0.00  0.00    +0.309 C 
ATOM     14  O   LIG    1       27.675 -20.370   5.986  0.00  0.00    -0.251 OA
ENDBRANCH  11  13
ENDBRANCH   1  11
TORSDOF 4
ENDMDL
MODEL 8
REMARK VINA RESULT:      -4.6      3.810      6.417
REMARK  Name = *****
REMARK                            x       y       z     vdW  Elec       q    Type
REMARK                         _______ _______ _______ _____ _____    ______ ____
ROOT
ATOM      1  C   LIG    1       26.121 -15.368   3.507  0.00  0.00    +0.146 A 
ATOM      2  C   LIG    1       25.228 -14.425   4.035  0.00  0.00    +0.101 A 
ATOM      3  C   LIG    1       25.729 -13.343   4.777  0.00  0.00    +0.019 A 
ATOM      4  C   LIG    1       27.102 -13.197   4.978  0.00  0.00    +0.001 A 
ATOM      5  C   LIG    1       27.985 -14.132   4.445  0.00  0.00    +0.004 A 
ATOM      6  C   LIG    1       27.497 -15.222   3.722  0.00  0.00    +0.047 A 
ENDROOT
BRANCH   2   7
ATOM      7  C   LIG    1       23.753 -14.503   3.905  0.00  0.00    +0.340 C 
ATOM      8  O   LIG    1       23.026 -15.215   4.570  0.00  0.00    -0.245 OA
BRANCH   7   9
ATOM      9  O   LIG    1       23.242 -13.616   3.032  0.00  0.00    -0.477 OA
ATOM     10  H   LIG    1       22.697 -14.174   2.438  0.00  0.00    +0.295 HD
ENDBRANCH   7   9
ENDBRANCH   2   7
BRANCH   1  11
ATOM     11  O   LIG    1       25.606 -16.536   2.898  0.00  0.00    -0.425 OA
BRANCH  11  13
ATOM     12  C   LIG    1       24.407 -18.450   3.567  0.00  0.00    +0.136 C 
ATOM     13  C   LIG    1       25.755 -17.801   3.469  0.00  0.00    +0.309 C 
ATOM     14  O   LIG    1       26.794 -18.314   3.864  0.00  0.00    -0.251 OA
ENDBRANCH  11  13
ENDBRANCH   1  11
TORSDOF 4
ENDMDL
MODEL 9
REMARK VINA RESULT:      -4.6      2.444      3.586
REMARK  Name = *****
REMARK                            x       y       z     vdW  Elec       q    Type
REMARK                         _______ _______ _______ _____ _____    ______ ____
ROOT
ATOM      1  C   LIG    1       24.032 -19.457   4.161  0.00  0.00    +0.146 A 
ATOM      2  C   LIG    1       24.195 -20.378   5.206  0.00  0.00    +0.101 A 
ATOM      3  C   LIG    1       25.490 -20.681   5.660  0.00  0.00    +0.019 A 
ATOM      4  C   LIG    1       26.603 -20.063   5.088  0.00  0.00    +0.001 A 
ATOM      5  C   LIG    1       26.434 -19.144   4.057  0.00  0.00    +0.004 A 
ATOM      6  C   LIG    1       25.154 -18.850   3.584  0.00  0.00    +0.047 A 
ENDROOT
BRANCH   2   7
ATOM      7  C   LIG    1       23.084 -21.110   5.859  0.00  0.00    +0.340 C 
ATOM      8  O   LIG    1       22.928 -21.224   7.059  0.00  0.00    -0.245 OA
BRANCH   7   9
ATOM      9  O   LIG    1       22.162 -21.572   4.994  0.00  0.00    -0.477 OA
ATOM     10  H   LIG    1       22.435 -22.503   4.852  0.00  0.00    +0.295 HD
ENDBRANCH   7   9
ENDBRANCH   2   7
BRANCH   1  11
ATOM     11  O   LIG    1       22.745 -19.274   3.602  0.00  0.00    -0.425 OA
BRANCH  11  13
ATOM     12  C   LIG    1       20.517 -18.527   3.452  0.00  0.00    +0.136 C 
ATOM     13  C   LIG    1       21.868 -18.289   4.058  0.00  0.00    +0.309 C 
ATOM     14  O   LIG    1       22.131 -17.355   4.803  0.00  0.00    -0.251 OA
ENDBRANCH  11  13
ENDBRANCH   1  11
TORSDOF 4
ENDMDL
