MODEL 1
REMARK VINA RESULT:      -8.7      0.000      0.000
REMARK  Name = *****
REMARK                            x       y       z     vdW  Elec       q    Type
REMARK                         _______ _______ _______ _____ _____    ______ ____
ROOT
ATOM      1  N   LIG    1       25.737 -25.380   5.497  0.00  0.00    -0.299 NA
ATOM      2  C   LIG    1       26.634 -26.491   5.122  0.00  0.00    +0.103 C 
ATOM      3  C   LIG    1       26.391 -27.860   5.810  0.00  0.00    +0.122 C 
ATOM      4  N   LIG    1       25.098 -27.907   6.521  0.00  0.00    -0.312 N 
ATOM      5  C   LIG    1       24.000 -27.238   5.822  0.00  0.00    +0.122 C 
ATOM      6  C   LIG    1       24.366 -25.856   5.239  0.00  0.00    +0.103 C 
ENDROOT
BRANCH   4   7
ATOM      7  C   LIG    1       24.878 -28.912   7.443  0.00  0.00    +0.138 A 
ATOM      8  C   LIG    1       25.593 -29.046   8.729  0.00  0.00    +0.031 A 
ATOM      9  C   LIG    1       25.141 -30.182   9.412  0.00  0.00    +0.041 A 
ATOM     10  C   LIG    1       25.644 -30.565  10.674  0.00  0.00    +0.017 A 
ATOM     11  C   LIG    1       26.637 -29.789  11.276  0.00  0.00    +0.001 A 
ATOM     12  C   LIG    1       27.121 -28.668  10.638  0.00  0.00    +0.001 A 
ATOM     13  S   LIG    1       23.952 -30.951   8.452  0.00  0.00    +0.014 S 
ATOM     14  C   LIG    1       26.623 -28.313   9.386  0.00  0.00    +0.012 A 
ATOM     15  N   LIG    1       24.004 -29.893   7.198  0.00  0.00    -0.194 NA
ENDBRANCH   4   7
BRANCH   1  16
ATOM     16  C   LIG    1       25.888 -24.943   6.906  0.00  0.00    +0.089 C 
BRANCH  16  17
ATOM     17  C   LIG    1       25.233 -23.588   7.244  0.00  0.00    +0.052 C 
BRANCH  17  25
ATOM     18  O   LIG    1       30.584 -18.626   6.594  0.00  0.00    -0.275 OA
ATOM     19  C   LIG    1       29.602 -19.368   6.572  0.00  0.00    +0.222 C 
ATOM     20  N   LIG    1       28.461 -19.173   5.807  0.00  0.00    -0.285 N 
ATOM     21  H   LIG    1       28.342 -18.384   5.190  0.00  0.00    +0.155 HD
ATOM     22  C   LIG    1       27.540 -20.188   6.020  0.00  0.00    +0.038 A 
ATOM     23  C   LIG    1       28.045 -21.083   6.953  0.00  0.00    -0.017 A 
ATOM     24  C   LIG    1       27.300 -22.171   7.357  0.00  0.00    +0.011 A 
ATOM     25  C   LIG    1       26.025 -22.378   6.793  0.00  0.00    -0.028 A 
ATOM     26  C   LIG    1       25.546 -21.462   5.825  0.00  0.00    +0.046 A 
ATOM     27 CL   LIG    1       24.002 -21.664   5.070  0.00  0.00    -0.083 Cl
ATOM     28  C   LIG    1       26.303 -20.346   5.440  0.00  0.00    +0.044 A 
ATOM     29  C   LIG    1       29.419 -20.659   7.370  0.00  0.00    +0.133 C 
ENDBRANCH  17  25
ENDBRANCH  16  17
ENDBRANCH   1  16
TORSDOF 4
ENDMDL
MODEL 2
REMARK VINA RESULT:      -8.4      1.426      2.042
REMARK  Name = *****
REMARK                            x       y       z     vdW  Elec       q    Type
REMARK                         _______ _______ _______ _____ _____    ______ ____
ROOT
ATOM      1  N   LIG    1       25.262 -24.962   5.578  0.00  0.00    -0.299 NA
ATOM      2  C   LIG    1       26.051 -25.980   4.857  0.00  0.00    +0.103 C 
ATOM      3  C   LIG    1       26.256 -27.346   5.563  0.00  0.00    +0.122 C 
ATOM      4  N   LIG    1       25.370 -27.511   6.732  0.00  0.00    -0.312 N 
ATOM      5  C   LIG    1       24.018 -26.986   6.543  0.00  0.00    +0.122 C 
ATOM      6  C   LIG    1       23.964 -25.590   5.885  0.00  0.00    +0.103 C 
ENDROOT
BRANCH   4   7
ATOM      7  C   LIG    1       25.651 -28.506   7.648  0.00  0.00    +0.138 A 
ATOM      8  C   LIG    1       25.149 -29.894   7.565  0.00  0.00    +0.031 A 
ATOM      9  C   LIG    1       25.606 -30.635   8.662  0.00  0.00    +0.041 A 
ATOM     10  C   LIG    1       25.287 -31.997   8.850  0.00  0.00    +0.017 A 
ATOM     11  C   LIG    1       24.480 -32.643   7.912  0.00  0.00    +0.001 A 
ATOM     12  C   LIG    1       23.998 -31.953   6.821  0.00  0.00    +0.001 A 
ATOM     13  S   LIG    1       26.547 -29.606   9.653  0.00  0.00    +0.014 S 
ATOM     14  C   LIG    1       24.311 -30.605   6.659  0.00  0.00    +0.012 A 
ATOM     15  N   LIG    1       26.381 -28.253   8.739  0.00  0.00    -0.194 NA
ENDBRANCH   4   7
BRANCH   1  16
ATOM     16  C   LIG    1       25.915 -24.469   6.815  0.00  0.00    +0.089 C 
BRANCH  16  17
ATOM     17  C   LIG    1       25.460 -23.072   7.283  0.00  0.00    +0.052 C 
BRANCH  17  25
ATOM     18  O   LIG    1       31.262 -18.600   7.117  0.00  0.00    -0.275 OA
ATOM     19  C   LIG    1       30.226 -19.256   7.005  0.00  0.00    +0.222 C 
ATOM     20  N   LIG    1       29.192 -18.985   6.120  0.00  0.00    -0.285 N 
ATOM     21  H   LIG    1       29.207 -18.205   5.481  0.00  0.00    +0.155 HD
ATOM     22  C   LIG    1       28.169 -19.912   6.252  0.00  0.00    +0.038 A 
ATOM     23  C   LIG    1       28.495 -20.823   7.248  0.00  0.00    -0.017 A 
ATOM     24  C   LIG    1       27.620 -21.832   7.589  0.00  0.00    +0.011 A 
ATOM     25  C   LIG    1       26.398 -21.945   6.898  0.00  0.00    -0.028 A 
ATOM     26  C   LIG    1       26.103 -21.017   5.869  0.00  0.00    +0.046 A 
ATOM     27 CL   LIG    1       24.634 -21.106   4.960  0.00  0.00    -0.083 Cl
ATOM     28  C   LIG    1       26.990 -19.980   5.547  0.00  0.00    +0.044 A 
ATOM     29  C   LIG    1       29.851 -20.506   7.800  0.00  0.00    +0.133 C 
ENDBRANCH  17  25
ENDBRANCH  16  17
ENDBRANCH   1  16
TORSDOF 4
ENDMDL
MODEL 3
REMARK VINA RESULT:      -8.3      2.001      2.622
REMARK  Name = *****
REMARK                            x       y       z     vdW  Elec       q    Type
REMARK                         _______ _______ _______ _____ _____    ______ ____
ROOT
ATOM      1  N   LIG    1       24.927 -24.871   5.665  0.00  0.00    -0.299 NA
ATOM      2  C   LIG    1       26.165 -25.215   6.391  0.00  0.00    +0.103 C 
ATOM      3  C   LIG    1       26.253 -26.634   7.009  0.00  0.00    +0.122 C 
ATOM      4  N   LIG    1       25.187 -27.528   6.514  0.00  0.00    -0.312 N 
ATOM      5  C   LIG    1       24.880 -27.370   5.091  0.00  0.00    +0.122 C 
ATOM      6  C   LIG    1       24.762 -25.903   4.625  0.00  0.00    +0.103 C 
ENDROOT
BRANCH   4   7
ATOM      7  C   LIG    1       24.925 -28.699   7.197  0.00  0.00    +0.138 A 
ATOM      8  C   LIG    1       25.560 -29.091   8.473  0.00  0.00    +0.031 A 
ATOM      9  C   LIG    1       25.083 -30.343   8.880  0.00  0.00    +0.041 A 
ATOM     10  C   LIG    1       25.511 -30.973  10.068  0.00  0.00    +0.017 A 
ATOM     11  C   LIG    1       26.452 -30.333  10.878  0.00  0.00    +0.001 A 
ATOM     12  C   LIG    1       26.958 -29.104  10.514  0.00  0.00    +0.001 A 
ATOM     13  S   LIG    1       23.969 -30.903   7.709  0.00  0.00    +0.014 S 
ATOM     14  C   LIG    1       26.534 -28.503   9.330  0.00  0.00    +0.012 A 
ATOM     15  N   LIG    1       24.084 -29.613   6.702  0.00  0.00    -0.194 NA
ENDBRANCH   4   7
BRANCH   1  16
ATOM     16  C   LIG    1       23.727 -24.802   6.534  0.00  0.00    +0.089 C 
BRANCH  16  17
ATOM     17  C   LIG    1       23.263 -23.377   6.896  0.00  0.00    +0.052 C 
BRANCH  17  25
ATOM     18  O   LIG    1       25.900 -17.944   2.748  0.00  0.00    -0.275 OA
ATOM     19  C   LIG    1       25.599 -18.825   3.552  0.00  0.00    +0.222 C 
ATOM     20  N   LIG    1       26.359 -19.213   4.646  0.00  0.00    -0.285 N 
ATOM     21  H   LIG    1       27.245 -18.792   4.875  0.00  0.00    +0.155 HD
ATOM     22  C   LIG    1       25.738 -20.238   5.344  0.00  0.00    +0.038 A 
ATOM     23  C   LIG    1       24.546 -20.571   4.717  0.00  0.00    -0.017 A 
ATOM     24  C   LIG    1       23.754 -21.588   5.207  0.00  0.00    +0.011 A 
ATOM     25  C   LIG    1       24.158 -22.273   6.371  0.00  0.00    -0.028 A 
ATOM     26  C   LIG    1       25.367 -21.895   7.004  0.00  0.00    +0.046 A 
ATOM     27 CL   LIG    1       25.916 -22.673   8.449  0.00  0.00    -0.083 Cl
ATOM     28  C   LIG    1       26.176 -20.875   6.482  0.00  0.00    +0.044 A 
ATOM     29  C   LIG    1       24.332 -19.680   3.532  0.00  0.00    +0.133 C 
ENDBRANCH  17  25
ENDBRANCH  16  17
ENDBRANCH   1  16
TORSDOF 4
ENDMDL
MODEL 4
REMARK VINA RESULT:      -8.2      4.228      6.732
REMARK  Name = *****
REMARK                            x       y       z     vdW  Elec       q    Type
REMARK                         _______ _______ _______ _____ _____    ______ ____
ROOT
ATOM      1  N   LIG    1       27.420 -30.166  10.539  0.00  0.00    -0.299 NA
ATOM      2  C   LIG    1       28.141 -29.566  11.680  0.00  0.00    +0.103 C 
ATOM      3  C   LIG    1       27.325 -28.652  12.631  0.00  0.00    +0.122 C 
ATOM      4  N   LIG    1       25.870 -28.766  12.405  0.00  0.00    -0.312 N 
ATOM      5  C   LIG    1       25.407 -30.127  12.127  0.00  0.00    +0.122 C 
ATOM      6  C   LIG    1       26.280 -30.901  11.116  0.00  0.00    +0.103 C 
ENDROOT
BRANCH   4   7
ATOM      7  C   LIG    1       25.035 -27.798  12.927  0.00  0.00    +0.138 A 
ATOM      8  C   LIG    1       23.558 -27.857  12.900  0.00  0.00    +0.031 A 
ATOM      9  C   LIG    1       23.022 -26.708  13.496  0.00  0.00    +0.041 A 
ATOM     10  C   LIG    1       21.634 -26.488  13.617  0.00  0.00    +0.017 A 
ATOM     11  C   LIG    1       20.746 -27.445  13.122  0.00  0.00    +0.001 A 
ATOM     12  C   LIG    1       21.225 -28.587  12.519  0.00  0.00    +0.001 A 
ATOM     13  S   LIG    1       24.316 -25.705  13.992  0.00  0.00    +0.014 S 
ATOM     14  C   LIG    1       22.599 -28.782  12.396  0.00  0.00    +0.012 A 
ATOM     15  N   LIG    1       25.527 -26.678  13.465  0.00  0.00    -0.194 NA
ENDBRANCH   4   7
BRANCH   1  16
ATOM     16  C   LIG    1       26.957 -29.174   9.539  0.00  0.00    +0.089 C 
BRANCH  16  17
ATOM     17  C   LIG    1       25.920 -29.701   8.527  0.00  0.00    +0.052 C 
BRANCH  17  25
ATOM     18  O   LIG    1       24.949 -23.347   5.009  0.00  0.00    -0.275 OA
ATOM     19  C   LIG    1       25.013 -24.488   5.468  0.00  0.00    +0.222 C 
ATOM     20  N   LIG    1       24.352 -25.598   4.964  0.00  0.00    -0.285 N 
ATOM     21  H   LIG    1       23.747 -25.558   4.159  0.00  0.00    +0.155 HD
ATOM     22  C   LIG    1       24.633 -26.729   5.717  0.00  0.00    +0.038 A 
ATOM     23  C   LIG    1       25.485 -26.391   6.760  0.00  0.00    -0.017 A 
ATOM     24  C   LIG    1       25.891 -27.342   7.671  0.00  0.00    +0.011 A 
ATOM     25  C   LIG    1       25.449 -28.672   7.519  0.00  0.00    -0.028 A 
ATOM     26  C   LIG    1       24.601 -28.992   6.432  0.00  0.00    +0.046 A 
ATOM     27 CL   LIG    1       24.038 -30.607   6.165  0.00  0.00    -0.083 Cl
ATOM     28  C   LIG    1       24.175 -28.011   5.524  0.00  0.00    +0.044 A 
ATOM     29  C   LIG    1       25.830 -24.935   6.681  0.00  0.00    +0.133 C 
ENDBRANCH  17  25
ENDBRANCH  16  17
ENDBRANCH   1  16
TORSDOF 4
ENDMDL
MODEL 5
REMARK VINA RESULT:      -8.0      4.055      8.592
REMARK  Name = *****
REMARK                            x       y       z     vdW  Elec       q    Type
REMARK                         _______ _______ _______ _____ _____    ______ ____
ROOT
ATOM      1  N   LIG    1       24.711 -23.570   6.870  0.00  0.00    -0.299 NA
ATOM      2  C   LIG    1       24.676 -22.546   7.933  0.00  0.00    +0.103 C 
ATOM      3  C   LIG    1       25.679 -21.370   7.815  0.00  0.00    +0.122 C 
ATOM      4  N   LIG    1       26.317 -21.309   6.485  0.00  0.00    -0.312 N 
ATOM      5  C   LIG    1       25.420 -21.615   5.371  0.00  0.00    +0.122 C 
ATOM      6  C   LIG    1       24.520 -22.848   5.599  0.00  0.00    +0.103 C 
ENDROOT
BRANCH   4   7
ATOM      7  C   LIG    1       27.455 -20.542   6.323  0.00  0.00    +0.138 A 
ATOM      8  C   LIG    1       28.691 -20.689   7.120  0.00  0.00    +0.031 A 
ATOM      9  C   LIG    1       29.640 -19.745   6.711  0.00  0.00    +0.041 A 
ATOM     10  C   LIG    1       30.922 -19.649   7.294  0.00  0.00    +0.017 A 
ATOM     11  C   LIG    1       31.269 -20.524   8.325  0.00  0.00    +0.001 A 
ATOM     12  C   LIG    1       30.365 -21.464   8.769  0.00  0.00    +0.001 A 
ATOM     13  S   LIG    1       28.955 -18.799   5.461  0.00  0.00    +0.014 S 
ATOM     14  C   LIG    1       29.099 -21.536   8.191  0.00  0.00    +0.012 A 
ATOM     15  N   LIG    1       27.494 -19.545   5.434  0.00  0.00    -0.194 NA
ENDBRANCH   4   7
BRANCH   1  16
ATOM     16  C   LIG    1       25.966 -24.360   6.845  0.00  0.00    +0.089 C 
BRANCH  16  17
ATOM     17  C   LIG    1       25.925 -25.626   5.966  0.00  0.00    +0.052 C 
BRANCH  17  25
ATOM     18  O   LIG    1       26.583 -30.703  11.208  0.00  0.00    -0.275 OA
ATOM     19  C   LIG    1       26.364 -29.968  10.245  0.00  0.00    +0.222 C 
ATOM     20  N   LIG    1       25.630 -30.312   9.118  0.00  0.00    -0.285 N 
ATOM     21  H   LIG    1       25.207 -31.219   8.995  0.00  0.00    +0.155 HD
ATOM     22  C   LIG    1       25.579 -29.258   8.218  0.00  0.00    +0.038 A 
ATOM     23  C   LIG    1       26.297 -28.183   8.722  0.00  0.00    -0.017 A 
ATOM     24  C   LIG    1       26.419 -27.018   7.994  0.00  0.00    +0.011 A 
ATOM     25  C   LIG    1       25.786 -26.922   6.739  0.00  0.00    -0.028 A 
ATOM     26  C   LIG    1       25.040 -28.026   6.261  0.00  0.00    +0.046 A 
ATOM     27 CL   LIG    1       24.214 -27.974   4.741  0.00  0.00    -0.083 Cl
ATOM     28  C   LIG    1       24.942 -29.215   6.999  0.00  0.00    +0.044 A 
ATOM     29  C   LIG    1       26.839 -28.525  10.075  0.00  0.00    +0.133 C 
ENDBRANCH  17  25
ENDBRANCH  16  17
ENDBRANCH   1  16
TORSDOF 4
ENDMDL
MODEL 6
REMARK VINA RESULT:      -8.0      2.567      3.510
REMARK  Name = *****
REMARK                            x       y       z     vdW  Elec       q    Type
REMARK                         _______ _______ _______ _____ _____    ______ ____
ROOT
ATOM      1  N   LIG    1       25.076 -24.992   5.683  0.00  0.00    -0.299 NA
ATOM      2  C   LIG    1       26.252 -25.418   6.466  0.00  0.00    +0.103 C 
ATOM      3  C   LIG    1       26.269 -26.882   6.978  0.00  0.00    +0.122 C 
ATOM      4  N   LIG    1       25.226 -27.710   6.342  0.00  0.00    -0.312 N 
ATOM      5  C   LIG    1       25.026 -27.439   4.917  0.00  0.00    +0.122 C 
ATOM      6  C   LIG    1       24.968 -25.939   4.558  0.00  0.00    +0.103 C 
ENDROOT
BRANCH   4   7
ATOM      7  C   LIG    1       24.894 -28.923   6.912  0.00  0.00    +0.138 A 
ATOM      8  C   LIG    1       25.117 -30.240   6.280  0.00  0.00    +0.031 A 
ATOM      9  C   LIG    1       24.650 -31.260   7.119  0.00  0.00    +0.041 A 
ATOM     10  C   LIG    1       24.732 -32.627   6.778  0.00  0.00    +0.017 A 
ATOM     11  C   LIG    1       25.297 -32.991   5.555  0.00  0.00    +0.001 A 
ATOM     12  C   LIG    1       25.762 -32.024   4.691  0.00  0.00    +0.001 A 
ATOM     13  S   LIG    1       23.996 -30.541   8.527  0.00  0.00    +0.014 S 
ATOM     14  C   LIG    1       25.660 -30.678   5.038  0.00  0.00    +0.012 A 
ATOM     15  N   LIG    1       24.280 -28.983   8.097  0.00  0.00    -0.194 NA
ENDBRANCH   4   7
BRANCH   1  16
ATOM     16  C   LIG    1       23.818 -24.960   6.467  0.00  0.00    +0.089 C 
BRANCH  16  17
ATOM     17  C   LIG    1       23.317 -23.551   6.843  0.00  0.00    +0.052 C 
BRANCH  17  25
ATOM     18  O   LIG    1       25.851 -18.027   2.750  0.00  0.00    -0.275 OA
ATOM     19  C   LIG    1       25.564 -18.921   3.548  0.00  0.00    +0.222 C 
ATOM     20  N   LIG    1       26.319 -19.289   4.651  0.00  0.00    -0.285 N 
ATOM     21  H   LIG    1       27.190 -18.843   4.895  0.00  0.00    +0.155 HD
ATOM     22  C   LIG    1       25.720 -20.335   5.337  0.00  0.00    +0.038 A 
ATOM     23  C   LIG    1       24.547 -20.700   4.691  0.00  0.00    -0.017 A 
ATOM     24  C   LIG    1       23.779 -21.742   5.167  0.00  0.00    +0.011 A 
ATOM     25  C   LIG    1       24.186 -22.419   6.334  0.00  0.00    -0.028 A 
ATOM     26  C   LIG    1       25.374 -22.008   6.986  0.00  0.00    +0.046 A 
ATOM     27 CL   LIG    1       25.925 -22.775   8.436  0.00  0.00    -0.083 Cl
ATOM     28  C   LIG    1       26.160 -20.963   6.479  0.00  0.00    +0.044 A 
ATOM     29  C   LIG    1       24.323 -19.812   3.506  0.00  0.00    +0.133 C 
ENDBRANCH  17  25
ENDBRANCH  16  17
ENDBRANCH   1  16
TORSDOF 4
ENDMDL
MODEL 7
REMARK VINA RESULT:      -8.0      3.356      4.650
REMARK  Name = *****
REMARK                            x       y       z     vdW  Elec       q    Type
REMARK                         _______ _______ _______ _____ _____    ______ ____
ROOT
ATOM      1  N   LIG    1       24.829 -30.424   5.778  0.00  0.00    -0.299 NA
ATOM      2  C   LIG    1       26.053 -31.181   6.104  0.00  0.00    +0.103 C 
ATOM      3  C   LIG    1       26.303 -31.514   7.598  0.00  0.00    +0.122 C 
ATOM      4  N   LIG    1       25.110 -31.271   8.433  0.00  0.00    -0.312 N 
ATOM      5  C   LIG    1       23.844 -31.651   7.804  0.00  0.00    +0.122 C 
ATOM      6  C   LIG    1       23.706 -31.202   6.333  0.00  0.00    +0.103 C 
ENDROOT
BRANCH   4   7
ATOM      7  C   LIG    1       25.256 -31.201   9.805  0.00  0.00    +0.138 A 
ATOM      8  C   LIG    1       25.836 -30.053  10.533  0.00  0.00    +0.031 A 
ATOM      9  C   LIG    1       25.853 -30.317  11.908  0.00  0.00    +0.041 A 
ATOM     10  C   LIG    1       26.350 -29.398  12.856  0.00  0.00    +0.017 A 
ATOM     11  C   LIG    1       26.854 -28.172  12.417  0.00  0.00    +0.001 A 
ATOM     12  C   LIG    1       26.868 -27.871  11.072  0.00  0.00    +0.001 A 
ATOM     13  S   LIG    1       25.203 -31.879  12.165  0.00  0.00    +0.014 S 
ATOM     14  C   LIG    1       26.386 -28.796  10.150  0.00  0.00    +0.012 A 
ATOM     15  N   LIG    1       24.914 -32.229  10.588  0.00  0.00    -0.194 NA
ENDBRANCH   4   7
BRANCH   1  16
ATOM     16  C   LIG    1       24.825 -29.040   6.311  0.00  0.00    +0.089 C 
BRANCH  16  17
ATOM     17  C   LIG    1       24.553 -27.938   5.267  0.00  0.00    +0.052 C 
BRANCH  17  25
ATOM     18  O   LIG    1       23.275 -21.126   7.645  0.00  0.00    -0.275 OA
ATOM     19  C   LIG    1       23.664 -22.235   7.275  0.00  0.00    +0.222 C 
ATOM     20  N   LIG    1       24.990 -22.624   7.152  0.00  0.00    -0.285 N 
ATOM     21  H   LIG    1       25.763 -22.012   7.361  0.00  0.00    +0.155 HD
ATOM     22  C   LIG    1       25.084 -23.934   6.705  0.00  0.00    +0.038 A 
ATOM     23  C   LIG    1       23.810 -24.447   6.503  0.00  0.00    -0.017 A 
ATOM     24  C   LIG    1       23.637 -25.730   6.030  0.00  0.00    +0.011 A 
ATOM     25  C   LIG    1       24.771 -26.527   5.774  0.00  0.00    -0.028 A 
ATOM     26  C   LIG    1       26.057 -25.985   6.013  0.00  0.00    +0.046 A 
ATOM     27 CL   LIG    1       27.495 -26.911   5.746  0.00  0.00    -0.083 Cl
ATOM     28  C   LIG    1       26.222 -24.671   6.472  0.00  0.00    +0.044 A 
ATOM     29  C   LIG    1       22.785 -23.420   6.876  0.00  0.00    +0.133 C 
ENDBRANCH  17  25
ENDBRANCH  16  17
ENDBRANCH   1  16
TORSDOF 4
ENDMDL
MODEL 8
REMARK VINA RESULT:      -7.9      4.438      8.691
REMARK  Name = *****
REMARK                            x       y       z     vdW  Elec       q    Type
REMARK                         _______ _______ _______ _____ _____    ______ ____
ROOT
ATOM      1  N   LIG    1       25.655 -28.243   5.630  0.00  0.00    -0.299 NA
ATOM      2  C   LIG    1       25.899 -27.279   4.539  0.00  0.00    +0.103 C 
ATOM      3  C   LIG    1       25.470 -25.809   4.785  0.00  0.00    +0.122 C 
ATOM      4  N   LIG    1       25.149 -25.548   6.202  0.00  0.00    -0.312 N 
ATOM      5  C   LIG    1       26.037 -26.216   7.155  0.00  0.00    +0.122 C 
ATOM      6  C   LIG    1       26.331 -27.695   6.820  0.00  0.00    +0.103 C 
ENDROOT
BRANCH   4   7
ATOM      7  C   LIG    1       24.447 -24.405   6.530  0.00  0.00    +0.138 A 
ATOM      8  C   LIG    1       25.061 -23.144   6.995  0.00  0.00    +0.031 A 
ATOM      9  C   LIG    1       24.066 -22.194   7.256  0.00  0.00    +0.041 A 
ATOM     10  C   LIG    1       24.355 -20.891   7.713  0.00  0.00    +0.017 A 
ATOM     11  C   LIG    1       25.685 -20.521   7.921  0.00  0.00    +0.001 A 
ATOM     12  C   LIG    1       26.699 -21.424   7.687  0.00  0.00    +0.001 A 
ATOM     13  S   LIG    1       22.544 -22.908   6.940  0.00  0.00    +0.014 S 
ATOM     14  C   LIG    1       26.395 -22.711   7.250  0.00  0.00    +0.012 A 
ATOM     15  N   LIG    1       23.111 -24.382   6.494  0.00  0.00    -0.194 NA
ENDBRANCH   4   7
BRANCH   1  16
ATOM     16  C   LIG    1       24.217 -28.482   5.903  0.00  0.00    +0.089 C 
BRANCH  16  17
ATOM     17  C   LIG    1       23.854 -29.932   6.278  0.00  0.00    +0.052 C 
BRANCH  17  25
ATOM     18  O   LIG    1       24.831 -30.840  13.483  0.00  0.00    -0.275 OA
ATOM     19  C   LIG    1       24.802 -30.806  12.252  0.00  0.00    +0.222 C 
ATOM     20  N   LIG    1       25.692 -31.451  11.406  0.00  0.00    -0.285 N 
ATOM     21  H   LIG    1       26.457 -32.016  11.741  0.00  0.00    +0.155 HD
ATOM     22  C   LIG    1       25.384 -31.202  10.077  0.00  0.00    +0.038 A 
ATOM     23  C   LIG    1       24.280 -30.364  10.007  0.00  0.00    -0.017 A 
ATOM     24  C   LIG    1       23.793 -29.945   8.786  0.00  0.00    +0.011 A 
ATOM     25  C   LIG    1       24.417 -30.397   7.606  0.00  0.00    -0.028 A 
ATOM     26  C   LIG    1       25.526 -31.271   7.708  0.00  0.00    +0.046 A 
ATOM     27 CL   LIG    1       26.327 -31.888   6.304  0.00  0.00    -0.083 Cl
ATOM     28  C   LIG    1       26.027 -31.672   8.955  0.00  0.00    +0.044 A 
ATOM     29  C   LIG    1       23.788 -30.057  11.388  0.00  0.00    +0.133 C 
ENDBRANCH  17  25
ENDBRANCH  16  17
ENDBRANCH   1  16
TORSDOF 4
ENDMDL
MODEL 9
REMARK VINA RESULT:      -7.8      4.271      8.767
REMARK  Name = *****
REMARK                            x       y       z     vdW  Elec       q    Type
REMARK                         _______ _______ _______ _____ _____    ______ ____
ROOT
ATOM      1  N   LIG    1       24.509 -22.975   6.485  0.00  0.00    -0.299 NA
ATOM      2  C   LIG    1       24.682 -22.190   7.723  0.00  0.00    +0.103 C 
ATOM      3  C   LIG    1       25.810 -21.125   7.734  0.00  0.00    +0.122 C 
ATOM      4  N   LIG    1       26.345 -20.863   6.384  0.00  0.00    -0.312 N 
ATOM      5  C   LIG    1       25.333 -20.841   5.327  0.00  0.00    +0.122 C 
ATOM      6  C   LIG    1       24.309 -21.994   5.403  0.00  0.00    +0.103 C 
ENDROOT
BRANCH   4   7
ATOM      7  C   LIG    1       27.552 -20.203   6.259  0.00  0.00    +0.138 A 
ATOM      8  C   LIG    1       28.751 -20.478   7.078  0.00  0.00    +0.031 A 
ATOM      9  C   LIG    1       29.793 -19.619   6.705  0.00  0.00    +0.041 A 
ATOM     10  C   LIG    1       31.065 -19.653   7.315  0.00  0.00    +0.017 A 
ATOM     11  C   LIG    1       31.307 -20.573   8.337  0.00  0.00    +0.001 A 
ATOM     12  C   LIG    1       30.310 -21.433   8.745  0.00  0.00    +0.001 A 
ATOM     13  S   LIG    1       29.226 -18.593   5.460  0.00  0.00    +0.014 S 
ATOM     14  C   LIG    1       29.056 -21.376   8.141  0.00  0.00    +0.012 A 
ATOM     15  N   LIG    1       27.703 -19.199   5.389  0.00  0.00    -0.194 NA
ENDBRANCH   4   7
BRANCH   1  16
ATOM     16  C   LIG    1       25.651 -23.870   6.183  0.00  0.00    +0.089 C 
BRANCH  16  17
ATOM     17  C   LIG    1       25.865 -25.022   7.185  0.00  0.00    +0.052 C 
BRANCH  17  25
ATOM     18  O   LIG    1       24.671 -32.240   6.784  0.00  0.00    -0.275 OA
ATOM     19  C   LIG    1       24.820 -31.022   6.679  0.00  0.00    +0.222 C 
ATOM     20  N   LIG    1       24.671 -30.290   5.510  0.00  0.00    -0.285 N 
ATOM     21  H   LIG    1       24.424 -30.709   4.627  0.00  0.00    +0.155 HD
ATOM     22  C   LIG    1       24.916 -28.943   5.733  0.00  0.00    +0.038 A 
ATOM     23  C   LIG    1       25.250 -28.747   7.065  0.00  0.00    -0.017 A 
ATOM     24  C   LIG    1       25.568 -27.489   7.532  0.00  0.00    +0.011 A 
ATOM     25  C   LIG    1       25.525 -26.396   6.644  0.00  0.00    -0.028 A 
ATOM     26  C   LIG    1       25.156 -26.621   5.295  0.00  0.00    +0.046 A 
ATOM     27 CL   LIG    1       25.057 -25.326   4.152  0.00  0.00    -0.083 Cl
ATOM     28  C   LIG    1       24.859 -27.909   4.826  0.00  0.00    +0.044 A 
ATOM     29  C   LIG    1       25.192 -30.051   7.799  0.00  0.00    +0.133 C 
ENDBRANCH  17  25
ENDBRANCH  16  17
ENDBRANCH   1  16
TORSDOF 4
ENDMDL
