MODEL 1
REMARK VINA RESULT:      -5.8      0.000      0.000
REMARK  Name = *****
REMARK                            x       y       z     vdW  Elec       q    Type
REMARK                         _______ _______ _______ _____ _____    ______ ____
ROOT
ATOM      1  C   LIG    1       29.664 -18.695   5.972  0.00  0.00    +0.070 C 
ATOM      2  C   LIG    1       30.092 -18.903   7.416  0.00  0.00    +0.253 C 
ATOM      3  O   LIG    1       31.188 -18.044   7.675  0.00  0.00    -0.323 OA
ATOM      4  C   LIG    1       31.743 -18.278   8.960  0.00  0.00    +0.253 C 
ATOM      5  C   LIG    1       30.910 -17.659  10.078  0.00  0.00    +0.070 C 
ATOM      6  O   LIG    1       32.033 -19.647   9.188  0.00  0.00    -0.323 OA
ATOM      7  C   LIG    1       30.918 -20.473   8.897  0.00  0.00    +0.253 C 
ATOM      8  C   LIG    1       31.365 -21.921   9.017  0.00  0.00    +0.070 C 
ATOM      9  O   LIG    1       30.453 -20.264   7.575  0.00  0.00    -0.323 OA
ENDROOT
TORSDOF 0
ENDMDL
MODEL 2
REMARK VINA RESULT:      -5.6      0.889      3.199
REMARK  Name = *****
REMARK                            x       y       z     vdW  Elec       q    Type
REMARK                         _______ _______ _______ _____ _____    ______ ____
ROOT
ATOM      1  C   LIG    1       31.327 -21.880   9.151  0.00  0.00    +0.070 C 
ATOM      2  C   LIG    1       30.748 -20.573   8.637  0.00  0.00    +0.253 C 
ATOM      3  O   LIG    1       31.527 -20.156   7.529  0.00  0.00    -0.323 OA
ATOM      4  C   LIG    1       31.143 -18.868   7.075  0.00  0.00    +0.253 C 
ATOM      5  C   LIG    1       29.862 -18.897   6.247  0.00  0.00    +0.070 C 
ATOM      6  O   LIG    1       31.095 -17.913   8.122  0.00  0.00    -0.323 OA
ATOM      7  C   LIG    1       30.325 -18.376   9.218  0.00  0.00    +0.253 C 
ATOM      8  C   LIG    1       30.459 -17.365  10.345  0.00  0.00    +0.070 C 
ATOM      9  O   LIG    1       30.800 -19.625   9.689  0.00  0.00    -0.323 OA
ENDROOT
TORSDOF 0
ENDMDL
MODEL 3
REMARK VINA RESULT:      -5.6      0.842      2.639
REMARK  Name = *****
REMARK                            x       y       z     vdW  Elec       q    Type
REMARK                         _______ _______ _______ _____ _____    ______ ____
ROOT
ATOM      1  C   LIG    1       32.283 -17.268   9.563  0.00  0.00    +0.070 C 
ATOM      2  C   LIG    1       31.622 -18.310   8.675  0.00  0.00    +0.253 C 
ATOM      3  O   LIG    1       30.242 -18.000   8.593  0.00  0.00    -0.323 OA
ATOM      4  C   LIG    1       29.522 -19.006   7.897  0.00  0.00    +0.253 C 
ATOM      5  C   LIG    1       29.700 -18.915   6.385  0.00  0.00    +0.070 C 
ATOM      6  O   LIG    1       29.780 -20.307   8.400  0.00  0.00    -0.323 OA
ATOM      7  C   LIG    1       31.170 -20.568   8.487  0.00  0.00    +0.253 C 
ATOM      8  C   LIG    1       31.351 -21.911   9.176  0.00  0.00    +0.070 C 
ATOM      9  O   LIG    1       31.831 -19.583   9.261  0.00  0.00    -0.323 OA
ENDROOT
TORSDOF 0
ENDMDL
MODEL 4
REMARK VINA RESULT:      -5.2      6.703      7.569
REMARK  Name = *****
REMARK                            x       y       z     vdW  Elec       q    Type
REMARK                         _______ _______ _______ _____ _____    ______ ____
ROOT
ATOM      1  C   LIG    1       22.524 -19.661   5.086  0.00  0.00    +0.070 C 
ATOM      2  C   LIG    1       23.291 -20.485   6.107  0.00  0.00    +0.253 C 
ATOM      3  O   LIG    1       24.673 -20.362   5.817  0.00  0.00    -0.323 OA
ATOM      4  C   LIG    1       25.456 -21.217   6.636  0.00  0.00    +0.253 C 
ATOM      5  C   LIG    1       25.636 -20.671   8.049  0.00  0.00    +0.070 C 
ATOM      6  O   LIG    1       24.993 -22.558   6.623  0.00  0.00    -0.323 OA
ATOM      7  C   LIG    1       23.605 -22.635   6.895  0.00  0.00    +0.253 C 
ATOM      8  C   LIG    1       23.171 -24.080   6.706  0.00  0.00    +0.070 C 
ATOM      9  O   LIG    1       22.859 -21.831   5.998  0.00  0.00    -0.323 OA
ENDROOT
TORSDOF 0
ENDMDL
MODEL 5
REMARK VINA RESULT:      -5.2      6.412      7.629
REMARK  Name = *****
REMARK                            x       y       z     vdW  Elec       q    Type
REMARK                         _______ _______ _______ _____ _____    ______ ____
ROOT
ATOM      1  C   LIG    1       23.693 -24.255   6.635  0.00  0.00    +0.070 C 
ATOM      2  C   LIG    1       23.741 -22.739   6.732  0.00  0.00    +0.253 C 
ATOM      3  O   LIG    1       23.971 -22.226   5.432  0.00  0.00    -0.323 OA
ATOM      4  C   LIG    1       24.173 -20.821   5.453  0.00  0.00    +0.253 C 
ATOM      5  C   LIG    1       22.868 -20.044   5.600  0.00  0.00    +0.070 C 
ATOM      6  O   LIG    1       25.154 -20.425   6.399  0.00  0.00    -0.323 OA
ATOM      7  C   LIG    1       24.898 -20.977   7.678  0.00  0.00    +0.253 C 
ATOM      8  C   LIG    1       26.073 -20.632   8.579  0.00  0.00    +0.070 C 
ATOM      9  O   LIG    1       24.789 -22.388   7.619  0.00  0.00    -0.323 OA
ENDROOT
TORSDOF 0
ENDMDL
MODEL 6
REMARK VINA RESULT:      -5.2      0.797      2.871
REMARK  Name = *****
REMARK                            x       y       z     vdW  Elec       q    Type
REMARK                         _______ _______ _______ _____ _____    ______ ____
ROOT
ATOM      1  C   LIG    1       31.149 -21.842   9.137  0.00  0.00    +0.070 C 
ATOM      2  C   LIG    1       31.236 -20.388   8.702  0.00  0.00    +0.253 C 
ATOM      3  O   LIG    1       30.801 -19.582   9.784  0.00  0.00    -0.323 OA
ATOM      4  C   LIG    1       30.715 -18.215   9.415  0.00  0.00    +0.253 C 
ATOM      5  C   LIG    1       32.079 -17.533   9.371  0.00  0.00    +0.070 C 
ATOM      6  O   LIG    1       29.967 -18.017   8.226  0.00  0.00    -0.323 OA
ATOM      7  C   LIG    1       30.420 -18.855   7.178  0.00  0.00    +0.253 C 
ATOM      8  C   LIG    1       29.469 -18.691   6.003  0.00  0.00    +0.070 C 
ATOM      9  O   LIG    1       30.407 -20.218   7.566  0.00  0.00    -0.323 OA
ENDROOT
TORSDOF 0
ENDMDL
MODEL 7
REMARK VINA RESULT:      -5.1      5.694      6.857
REMARK  Name = *****
REMARK                            x       y       z     vdW  Elec       q    Type
REMARK                         _______ _______ _______ _____ _____    ______ ____
ROOT
ATOM      1  C   LIG    1       25.755 -24.410   6.799  0.00  0.00    +0.070 C 
ATOM      2  C   LIG    1       25.765 -22.894   6.916  0.00  0.00    +0.253 C 
ATOM      3  O   LIG    1       26.008 -22.562   8.272  0.00  0.00    -0.323 OA
ATOM      4  C   LIG    1       25.891 -21.166   8.496  0.00  0.00    +0.253 C 
ATOM      5  C   LIG    1       27.115 -20.391   8.019  0.00  0.00    +0.070 C 
ATOM      6  O   LIG    1       24.676 -20.633   7.993  0.00  0.00    -0.323 OA
ATOM      7  C   LIG    1       24.461 -21.005   6.643  0.00  0.00    +0.253 C 
ATOM      8  C   LIG    1       23.075 -20.527   6.241  0.00  0.00    +0.070 C 
ATOM      9  O   LIG    1       24.503 -22.413   6.485  0.00  0.00    -0.323 OA
ENDROOT
TORSDOF 0
ENDMDL
MODEL 8
REMARK VINA RESULT:      -5.1      5.917      7.105
REMARK  Name = *****
REMARK                            x       y       z     vdW  Elec       q    Type
REMARK                         _______ _______ _______ _____ _____    ______ ____
ROOT
ATOM      1  C   LIG    1       25.001 -19.951   3.910  0.00  0.00    +0.070 C 
ATOM      2  C   LIG    1       24.821 -20.752   5.189  0.00  0.00    +0.253 C 
ATOM      3  O   LIG    1       23.512 -20.511   5.675  0.00  0.00    -0.323 OA
ATOM      4  C   LIG    1       23.308 -21.110   6.945  0.00  0.00    +0.253 C 
ATOM      5  C   LIG    1       23.067 -22.613   6.852  0.00  0.00    +0.070 C 
ATOM      6  O   LIG    1       24.326 -20.776   7.875  0.00  0.00    -0.323 OA
ATOM      7  C   LIG    1       25.617 -21.012   7.343  0.00  0.00    +0.253 C 
ATOM      8  C   LIG    1       26.637 -20.483   8.339  0.00  0.00    +0.070 C 
ATOM      9  O   LIG    1       25.803 -20.325   6.117  0.00  0.00    -0.323 OA
ENDROOT
TORSDOF 0
ENDMDL
MODEL 9
REMARK VINA RESULT:      -5.1      6.658      7.805
REMARK  Name = *****
REMARK                            x       y       z     vdW  Elec       q    Type
REMARK                         _______ _______ _______ _____ _____    ______ ____
ROOT
ATOM      1  C   LIG    1       26.002 -20.740   8.690  0.00  0.00    +0.070 C 
ATOM      2  C   LIG    1       25.159 -21.158   7.496  0.00  0.00    +0.253 C 
ATOM      3  O   LIG    1       23.891 -20.537   7.618  0.00  0.00    -0.323 OA
ATOM      4  C   LIG    1       22.990 -20.987   6.619  0.00  0.00    +0.253 C 
ATOM      5  C   LIG    1       23.250 -20.340   5.261  0.00  0.00    +0.070 C 
ATOM      6  O   LIG    1       22.921 -22.402   6.545  0.00  0.00    -0.323 OA
ATOM      7  C   LIG    1       24.209 -22.984   6.446  0.00  0.00    +0.253 C 
ATOM      8  C   LIG    1       24.048 -24.494   6.530  0.00  0.00    +0.070 C 
ATOM      9  O   LIG    1       25.045 -22.570   7.512  0.00  0.00    -0.323 OA
ENDROOT
TORSDOF 0
ENDMDL
