MODEL 1
REMARK VINA RESULT:      -8.1      0.000      0.000
REMARK  Name = *****
REMARK                            x       y       z     vdW  Elec       q    Type
REMARK                         _______ _______ _______ _____ _____    ______ ____
ROOT
ATOM      1  C   LIG    1       27.517 -21.154   7.402  0.00  0.00    +0.234 C 
ATOM      2  N   LIG    1       28.810 -21.156   6.881  0.00  0.00    -0.284 N 
ATOM      3  H   LIG    1       28.823 -21.415   5.899  0.00  0.00    +0.155 HD
ATOM      4  O   LIG    1       27.113 -20.405   8.284  0.00  0.00    -0.274 OA
ENDROOT
BRANCH   2   5
ATOM      5  C   LIG    1       29.833 -20.297   7.355  0.00  0.00    +0.039 A 
ATOM      6  C   LIG    1       30.046 -19.019   6.785  0.00  0.00    -0.029 A 
ATOM      7  C   LIG    1       29.209 -18.442   5.673  0.00  0.00    +0.045 C 
ATOM      8  C   LIG    1       31.003 -18.160   7.363  0.00  0.00    +0.005 A 
ATOM      9  C   LIG    1       31.749 -18.552   8.468  0.00  0.00    +0.001 A 
ATOM     10  C   LIG    1       31.549 -19.811   9.021  0.00  0.00    +0.005 A 
ATOM     11  C   LIG    1       30.592 -20.692   8.482  0.00  0.00    -0.029 A 
ATOM     12  C   LIG    1       30.470 -22.056   9.103  0.00  0.00    +0.045 C 
ENDBRANCH   2   5
BRANCH   1  14
ATOM     13  N   LIG    1       25.510 -21.633   5.932  0.00  0.00    -0.291 NA
ATOM     14  C   LIG    1       26.611 -22.232   6.756  0.00  0.00    +0.143 C 
ATOM     15  C   LIG    1       26.106 -23.250   7.796  0.00  0.00    +0.028 C 
ATOM     16  C   LIG    1       25.262 -24.349   7.152  0.00  0.00    +0.003 C 
ATOM     17  C   LIG    1       24.207 -23.782   6.207  0.00  0.00    +0.015 C 
ATOM     18  C   LIG    1       24.809 -22.746   5.251  0.00  0.00    +0.085 C 
BRANCH  13  19
ATOM     19  C   LIG    1       24.594 -20.794   6.742  0.00  0.00    +0.085 C 
BRANCH  19  20
ATOM     20  C   LIG    1       23.246 -20.500   6.059  0.00  0.00    +0.015 C 
BRANCH  20  22
ATOM     21  C   LIG    1       22.235 -18.684   4.626  0.00  0.00    +0.004 C 
ATOM     22  C   LIG    1       23.428 -19.606   4.830  0.00  0.00    -0.002 C 
ENDBRANCH  20  22
ENDBRANCH  19  20
ENDBRANCH  13  19
ENDBRANCH   1  14
TORSDOF 5
ENDMDL
MODEL 2
REMARK VINA RESULT:      -8.0      0.129      1.910
REMARK  Name = *****
REMARK                            x       y       z     vdW  Elec       q    Type
REMARK                         _______ _______ _______ _____ _____    ______ ____
ROOT
ATOM      1  C   LIG    1       27.383 -21.164   7.442  0.00  0.00    +0.234 C 
ATOM      2  N   LIG    1       28.685 -21.139   6.946  0.00  0.00    -0.284 N 
ATOM      3  H   LIG    1       28.721 -21.379   5.960  0.00  0.00    +0.155 HD
ATOM      4  O   LIG    1       26.951 -20.437   8.329  0.00  0.00    -0.274 OA
ENDROOT
BRANCH   2   5
ATOM      5  C   LIG    1       29.687 -20.274   7.456  0.00  0.00    +0.039 A 
ATOM      6  C   LIG    1       30.517 -20.661   8.535  0.00  0.00    -0.029 A 
ATOM      7  C   LIG    1       30.449 -22.006   9.210  0.00  0.00    +0.045 C 
ATOM      8  C   LIG    1       31.568 -19.810   8.931  0.00  0.00    +0.005 A 
ATOM      9  C   LIG    1       31.793 -18.595   8.294  0.00  0.00    +0.001 A 
ATOM     10  C   LIG    1       30.969 -18.209   7.243  0.00  0.00    +0.005 A 
ATOM     11  C   LIG    1       29.919 -19.038   6.807  0.00  0.00    -0.029 A 
ATOM     12  C   LIG    1       29.040 -18.528   5.698  0.00  0.00    +0.045 C 
ENDBRANCH   2   5
BRANCH   1  14
ATOM     13  N   LIG    1       25.394 -21.643   5.946  0.00  0.00    -0.291 NA
ATOM     14  C   LIG    1       26.504 -22.242   6.758  0.00  0.00    +0.143 C 
ATOM     15  C   LIG    1       26.018 -23.302   7.764  0.00  0.00    +0.028 C 
ATOM     16  C   LIG    1       25.202 -24.400   7.082  0.00  0.00    +0.003 C 
ATOM     17  C   LIG    1       24.139 -23.829   6.149  0.00  0.00    +0.015 C 
ATOM     18  C   LIG    1       24.721 -22.750   5.229  0.00  0.00    +0.085 C 
BRANCH  13  19
ATOM     19  C   LIG    1       24.455 -20.850   6.777  0.00  0.00    +0.085 C 
BRANCH  19  20
ATOM     20  C   LIG    1       23.141 -20.486   6.062  0.00  0.00    +0.015 C 
BRANCH  20  22
ATOM     21  C   LIG    1       22.215 -18.703   4.534  0.00  0.00    +0.004 C 
ATOM     22  C   LIG    1       23.399 -19.610   4.834  0.00  0.00    -0.002 C 
ENDBRANCH  20  22
ENDBRANCH  19  20
ENDBRANCH  13  19
ENDBRANCH   1  14
TORSDOF 5
ENDMDL
MODEL 3
REMARK VINA RESULT:      -7.3      1.555      5.798
REMARK  Name = *****
REMARK                            x       y       z     vdW  Elec       q    Type
REMARK                         _______ _______ _______ _____ _____    ______ ____
ROOT
ATOM      1  C   LIG    1       26.611 -21.202   8.281  0.00  0.00    +0.234 C 
ATOM      2  N   LIG    1       26.210 -21.884   7.133  0.00  0.00    -0.284 N 
ATOM      3  H   LIG    1       27.000 -22.271   6.626  0.00  0.00    +0.155 HD
ATOM      4  O   LIG    1       25.966 -21.130   9.320  0.00  0.00    -0.274 OA
ENDROOT
BRANCH   2   5
ATOM      5  C   LIG    1       24.963 -22.552   7.030  0.00  0.00    +0.039 A 
ATOM      6  C   LIG    1       23.740 -21.842   7.078  0.00  0.00    -0.029 A 
ATOM      7  C   LIG    1       23.639 -20.344   7.205  0.00  0.00    +0.045 C 
ATOM      8  C   LIG    1       22.534 -22.538   6.861  0.00  0.00    +0.005 A 
ATOM      9  C   LIG    1       22.524 -23.907   6.617  0.00  0.00    +0.001 A 
ATOM     10  C   LIG    1       23.725 -24.605   6.581  0.00  0.00    +0.005 A 
ATOM     11  C   LIG    1       24.952 -23.944   6.778  0.00  0.00    -0.029 A 
ATOM     12  C   LIG    1       26.204 -24.778   6.777  0.00  0.00    +0.045 C 
ENDBRANCH   2   5
BRANCH   1  14
ATOM     13  N   LIG    1       27.995 -19.533   6.970  0.00  0.00    -0.291 NA
ATOM     14  C   LIG    1       27.985 -20.505   8.112  0.00  0.00    +0.143 C 
ATOM     15  C   LIG    1       29.138 -21.525   8.053  0.00  0.00    +0.028 C 
ATOM     16  C   LIG    1       30.498 -20.838   7.949  0.00  0.00    +0.003 C 
ATOM     17  C   LIG    1       30.513 -19.754   6.877  0.00  0.00    +0.015 C 
ATOM     18  C   LIG    1       29.297 -18.828   6.999  0.00  0.00    +0.085 C 
BRANCH  13  19
ATOM     19  C   LIG    1       27.736 -20.194   5.668  0.00  0.00    +0.085 C 
BRANCH  19  20
ATOM     20  C   LIG    1       26.858 -19.368   4.710  0.00  0.00    +0.015 C 
BRANCH  20  22
ATOM     21  C   LIG    1       24.582 -19.234   3.625  0.00  0.00    +0.004 C 
ATOM     22  C   LIG    1       25.600 -20.139   4.302  0.00  0.00    -0.002 C 
ENDBRANCH  20  22
ENDBRANCH  19  20
ENDBRANCH  13  19
ENDBRANCH   1  14
TORSDOF 5
ENDMDL
MODEL 4
REMARK VINA RESULT:      -7.3      1.588      6.779
REMARK  Name = *****
REMARK                            x       y       z     vdW  Elec       q    Type
REMARK                         _______ _______ _______ _____ _____    ______ ____
ROOT
ATOM      1  C   LIG    1       27.309 -21.533   7.477  0.00  0.00    +0.234 C 
ATOM      2  N   LIG    1       26.521 -22.018   6.436  0.00  0.00    -0.284 N 
ATOM      3  H   LIG    1       27.082 -22.378   5.670  0.00  0.00    +0.155 HD
ATOM      4  O   LIG    1       27.010 -21.569   8.665  0.00  0.00    -0.274 OA
ENDROOT
BRANCH   2   5
ATOM      5  C   LIG    1       25.237 -22.584   6.641  0.00  0.00    +0.039 A 
ATOM      6  C   LIG    1       24.100 -21.773   6.872  0.00  0.00    -0.029 A 
ATOM      7  C   LIG    1       24.130 -20.267   6.887  0.00  0.00    +0.045 C 
ATOM      8  C   LIG    1       22.831 -22.379   6.960  0.00  0.00    +0.005 A 
ATOM      9  C   LIG    1       22.678 -23.755   6.841  0.00  0.00    +0.001 A 
ATOM     10  C   LIG    1       23.796 -24.553   6.627  0.00  0.00    +0.005 A 
ATOM     11  C   LIG    1       25.079 -23.985   6.517  0.00  0.00    -0.029 A 
ATOM     12  C   LIG    1       26.244 -24.919   6.338  0.00  0.00    +0.045 C 
ENDBRANCH   2   5
BRANCH   1  14
ATOM     13  N   LIG    1       29.521 -20.472   8.111  0.00  0.00    -0.291 NA
ATOM     14  C   LIG    1       28.637 -20.908   6.980  0.00  0.00    +0.143 C 
ATOM     15  C   LIG    1       28.391 -19.800   5.939  0.00  0.00    +0.028 C 
ATOM     16  C   LIG    1       29.699 -19.224   5.402  0.00  0.00    +0.003 C 
ATOM     17  C   LIG    1       30.677 -18.881   6.521  0.00  0.00    +0.015 C 
ATOM     18  C   LIG    1       30.808 -20.033   7.524  0.00  0.00    +0.085 C 
BRANCH  13  19
ATOM     19  C   LIG    1       28.889 -19.421   8.945  0.00  0.00    +0.085 C 
BRANCH  19  20
ATOM     20  C   LIG    1       29.763 -18.170   9.144  0.00  0.00    +0.015 C 
BRANCH  20  22
ATOM     21  C   LIG    1       30.889 -16.669  10.834  0.00  0.00    +0.004 C 
ATOM     22  C   LIG    1       30.077 -17.939  10.624  0.00  0.00    -0.002 C 
ENDBRANCH  20  22
ENDBRANCH  19  20
ENDBRANCH  13  19
ENDBRANCH   1  14
TORSDOF 5
ENDMDL
MODEL 5
REMARK VINA RESULT:      -7.0      1.526      7.005
REMARK  Name = *****
REMARK                            x       y       z     vdW  Elec       q    Type
REMARK                         _______ _______ _______ _____ _____    ______ ____
ROOT
ATOM      1  C   LIG    1       27.343 -20.503   7.150  0.00  0.00    +0.234 C 
ATOM      2  N   LIG    1       26.750 -21.093   6.036  0.00  0.00    -0.284 N 
ATOM      3  H   LIG    1       27.366 -21.766   5.590  0.00  0.00    +0.155 HD
ATOM      4  O   LIG    1       26.746 -20.133   8.155  0.00  0.00    -0.274 OA
ENDROOT
BRANCH   2   5
ATOM      5  C   LIG    1       25.351 -21.299   5.926  0.00  0.00    +0.039 A 
ATOM      6  C   LIG    1       24.692 -22.304   6.673  0.00  0.00    -0.029 A 
ATOM      7  C   LIG    1       25.381 -23.208   7.661  0.00  0.00    +0.045 C 
ATOM      8  C   LIG    1       23.287 -22.395   6.609  0.00  0.00    +0.005 A 
ATOM      9  C   LIG    1       22.542 -21.529   5.817  0.00  0.00    +0.001 A 
ATOM     10  C   LIG    1       23.191 -20.551   5.073  0.00  0.00    +0.005 A 
ATOM     11  C   LIG    1       24.591 -20.417   5.121  0.00  0.00    -0.029 A 
ATOM     12  C   LIG    1       25.224 -19.368   4.249  0.00  0.00    +0.045 C 
ENDBRANCH   2   5
BRANCH   1  14
ATOM     13  N   LIG    1       29.570 -20.172   8.313  0.00  0.00    -0.291 NA
ATOM     14  C   LIG    1       28.875 -20.335   6.993  0.00  0.00    +0.143 C 
ATOM     15  C   LIG    1       29.227 -19.228   5.981  0.00  0.00    +0.028 C 
ATOM     16  C   LIG    1       30.736 -19.102   5.778  0.00  0.00    +0.003 C 
ATOM     17  C   LIG    1       31.491 -19.058   7.103  0.00  0.00    +0.015 C 
ATOM     18  C   LIG    1       31.028 -20.171   8.050  0.00  0.00    +0.085 C 
BRANCH  13  19
ATOM     19  C   LIG    1       29.122 -18.959   9.037  0.00  0.00    +0.085 C 
BRANCH  19  20
ATOM     20  C   LIG    1       30.190 -18.355   9.967  0.00  0.00    +0.015 C 
BRANCH  20  22
ATOM     21  C   LIG    1       31.824 -16.446   9.713  0.00  0.00    +0.004 C 
ATOM     22  C   LIG    1       30.358 -16.853   9.722  0.00  0.00    -0.002 C 
ENDBRANCH  20  22
ENDBRANCH  19  20
ENDBRANCH  13  19
ENDBRANCH   1  14
TORSDOF 5
ENDMDL
MODEL 6
REMARK VINA RESULT:      -6.9      1.405      3.693
REMARK  Name = *****
REMARK                            x       y       z     vdW  Elec       q    Type
REMARK                         _______ _______ _______ _____ _____    ______ ____
ROOT
ATOM      1  C   LIG    1       26.265 -20.416   7.734  0.00  0.00    +0.234 C 
ATOM      2  N   LIG    1       27.173 -20.394   6.678  0.00  0.00    -0.284 N 
ATOM      3  H   LIG    1       26.721 -20.187   5.792  0.00  0.00    +0.155 HD
ATOM      4  O   LIG    1       26.515 -20.083   8.887  0.00  0.00    -0.274 OA
ENDROOT
BRANCH   2   5
ATOM      5  C   LIG    1       28.530 -20.011   6.836  0.00  0.00    +0.039 A 
ATOM      6  C   LIG    1       29.380 -20.669   7.756  0.00  0.00    -0.029 A 
ATOM      7  C   LIG    1       28.955 -21.834   8.612  0.00  0.00    +0.045 C 
ATOM      8  C   LIG    1       30.746 -20.324   7.796  0.00  0.00    +0.005 A 
ATOM      9  C   LIG    1       31.267 -19.341   6.963  0.00  0.00    +0.001 A 
ATOM     10  C   LIG    1       30.429 -18.686   6.068  0.00  0.00    +0.005 A 
ATOM     11  C   LIG    1       29.063 -19.013   5.986  0.00  0.00    -0.029 A 
ATOM     12  C   LIG    1       28.211 -18.224   5.030  0.00  0.00    +0.045 C 
ENDBRANCH   2   5
BRANCH   1  14
ATOM     13  N   LIG    1       24.740 -22.421   7.457  0.00  0.00    -0.291 NA
ATOM     14  C   LIG    1       24.867 -20.933   7.309  0.00  0.00    +0.143 C 
ATOM     15  C   LIG    1       24.473 -20.426   5.909  0.00  0.00    +0.028 C 
ATOM     16  C   LIG    1       23.070 -20.884   5.513  0.00  0.00    +0.003 C 
ATOM     17  C   LIG    1       22.861 -22.373   5.766  0.00  0.00    +0.015 C 
ATOM     18  C   LIG    1       23.332 -22.776   7.168  0.00  0.00    +0.085 C 
BRANCH  13  19
ATOM     19  C   LIG    1       25.700 -23.155   6.598  0.00  0.00    +0.085 C 
BRANCH  19  20
ATOM     20  C   LIG    1       25.683 -24.681   6.802  0.00  0.00    +0.015 C 
BRANCH  20  22
ATOM     21  C   LIG    1       24.240 -26.478   5.771  0.00  0.00    +0.004 C 
ATOM     22  C   LIG    1       25.293 -25.411   5.514  0.00  0.00    -0.002 C 
ENDBRANCH  20  22
ENDBRANCH  19  20
ENDBRANCH  13  19
ENDBRANCH   1  14
TORSDOF 5
ENDMDL
MODEL 7
REMARK VINA RESULT:      -6.9      1.432      3.190
REMARK  Name = *****
REMARK                            x       y       z     vdW  Elec       q    Type
REMARK                         _______ _______ _______ _____ _____    ______ ____
ROOT
ATOM      1  C   LIG    1       26.276 -20.406   7.618  0.00  0.00    +0.234 C 
ATOM      2  N   LIG    1       27.153 -20.406   6.535  0.00  0.00    -0.284 N 
ATOM      3  H   LIG    1       26.681 -20.178   5.665  0.00  0.00    +0.155 HD
ATOM      4  O   LIG    1       26.572 -20.089   8.765  0.00  0.00    -0.274 OA
ENDROOT
BRANCH   2   5
ATOM      5  C   LIG    1       28.525 -20.069   6.653  0.00  0.00    +0.039 A 
ATOM      6  C   LIG    1       29.088 -18.996   5.921  0.00  0.00    -0.029 A 
ATOM      7  C   LIG    1       28.302 -18.105   4.995  0.00  0.00    +0.045 C 
ATOM      8  C   LIG    1       30.429 -18.634   6.157  0.00  0.00    +0.005 A 
ATOM      9  C   LIG    1       31.210 -19.319   7.080  0.00  0.00    +0.001 A 
ATOM     10  C   LIG    1       30.662 -20.380   7.789  0.00  0.00    +0.005 A 
ATOM     11  C   LIG    1       29.322 -20.763   7.595  0.00  0.00    -0.029 A 
ATOM     12  C   LIG    1       28.816 -21.954   8.362  0.00  0.00    +0.045 C 
ENDBRANCH   2   5
BRANCH   1  14
ATOM     13  N   LIG    1       24.662 -22.349   7.429  0.00  0.00    -0.291 NA
ATOM     14  C   LIG    1       24.850 -20.874   7.233  0.00  0.00    +0.143 C 
ATOM     15  C   LIG    1       24.452 -20.392   5.825  0.00  0.00    +0.028 C 
ATOM     16  C   LIG    1       23.024 -20.799   5.468  0.00  0.00    +0.003 C 
ATOM     17  C   LIG    1       22.756 -22.270   5.769  0.00  0.00    +0.015 C 
ATOM     18  C   LIG    1       23.234 -22.652   7.174  0.00  0.00    +0.085 C 
BRANCH  13  19
ATOM     19  C   LIG    1       25.573 -23.150   6.576  0.00  0.00    +0.085 C 
BRANCH  19  20
ATOM     20  C   LIG    1       25.398 -24.672   6.729  0.00  0.00    +0.015 C 
BRANCH  20  22
ATOM     21  C   LIG    1       24.389 -26.701   5.615  0.00  0.00    +0.004 C 
ATOM     22  C   LIG    1       24.999 -25.323   5.402  0.00  0.00    -0.002 C 
ENDBRANCH  20  22
ENDBRANCH  19  20
ENDBRANCH  13  19
ENDBRANCH   1  14
TORSDOF 5
ENDMDL
MODEL 8
REMARK VINA RESULT:      -6.9      1.592      6.801
REMARK  Name = *****
REMARK                            x       y       z     vdW  Elec       q    Type
REMARK                         _______ _______ _______ _____ _____    ______ ____
ROOT
ATOM      1  C   LIG    1       27.368 -20.554   7.309  0.00  0.00    +0.234 C 
ATOM      2  N   LIG    1       26.726 -21.165   6.234  0.00  0.00    -0.284 N 
ATOM      3  H   LIG    1       27.332 -21.824   5.754  0.00  0.00    +0.155 HD
ATOM      4  O   LIG    1       26.821 -20.195   8.345  0.00  0.00    -0.274 OA
ENDROOT
BRANCH   2   5
ATOM      5  C   LIG    1       25.329 -21.407   6.206  0.00  0.00    +0.039 A 
ATOM      6  C   LIG    1       24.461 -20.628   5.404  0.00  0.00    -0.029 A 
ATOM      7  C   LIG    1       24.922 -19.518   4.496  0.00  0.00    +0.045 C 
ATOM      8  C   LIG    1       23.098 -20.979   5.328  0.00  0.00    +0.005 A 
ATOM      9  C   LIG    1       22.591 -22.061   6.037  0.00  0.00    +0.001 A 
ATOM     10  C   LIG    1       23.441 -22.818   6.834  0.00  0.00    +0.005 A 
ATOM     11  C   LIG    1       24.811 -22.510   6.925  0.00  0.00    -0.029 A 
ATOM     12  C   LIG    1       25.656 -23.344   7.848  0.00  0.00    +0.045 C 
ENDBRANCH   2   5
BRANCH   1  14
ATOM     13  N   LIG    1       29.651 -20.168   8.338  0.00  0.00    -0.291 NA
ATOM     14  C   LIG    1       28.884 -20.348   7.061  0.00  0.00    +0.143 C 
ATOM     15  C   LIG    1       29.147 -19.232   6.032  0.00  0.00    +0.028 C 
ATOM     16  C   LIG    1       30.637 -19.069   5.741  0.00  0.00    +0.003 C 
ATOM     17  C   LIG    1       31.468 -19.006   7.018  0.00  0.00    +0.015 C 
ATOM     18  C   LIG    1       31.090 -20.130   7.989  0.00  0.00    +0.085 C 
BRANCH  13  19
ATOM     19  C   LIG    1       29.217 -18.966   9.090  0.00  0.00    +0.085 C 
BRANCH  19  20
ATOM     20  C   LIG    1       30.247 -18.466  10.119  0.00  0.00    +0.015 C 
BRANCH  20  22
ATOM     21  C   LIG    1       31.365 -16.435  11.119  0.00  0.00    +0.004 C 
ATOM     22  C   LIG    1       30.411 -16.945  10.050  0.00  0.00    -0.002 C 
ENDBRANCH  20  22
ENDBRANCH  19  20
ENDBRANCH  13  19
ENDBRANCH   1  14
TORSDOF 5
ENDMDL
MODEL 9
REMARK VINA RESULT:      -6.9      2.498      6.191
REMARK  Name = *****
REMARK                            x       y       z     vdW  Elec       q    Type
REMARK                         _______ _______ _______ _____ _____    ______ ____
ROOT
ATOM      1  C   LIG    1       23.865 -22.689   6.184  0.00  0.00    +0.234 C 
ATOM      2  N   LIG    1       23.962 -22.087   4.931  0.00  0.00    -0.284 N 
ATOM      3  H   LIG    1       23.859 -22.760   4.177  0.00  0.00    +0.155 HD
ATOM      4  O   LIG    1       23.403 -22.158   7.187  0.00  0.00    -0.274 OA
ENDROOT
BRANCH   2   5
ATOM      5  C   LIG    1       23.563 -20.749   4.685  0.00  0.00    +0.039 A 
ATOM      6  C   LIG    1       24.514 -19.719   4.486  0.00  0.00    -0.029 A 
ATOM      7  C   LIG    1       26.004 -19.939   4.477  0.00  0.00    +0.045 C 
ATOM      8  C   LIG    1       24.065 -18.429   4.137  0.00  0.00    +0.005 A 
ATOM      9  C   LIG    1       22.711 -18.148   4.002  0.00  0.00    +0.001 A 
ATOM     10  C   LIG    1       21.777 -19.156   4.211  0.00  0.00    +0.005 A 
ATOM     11  C   LIG    1       22.184 -20.461   4.545  0.00  0.00    -0.029 A 
ATOM     12  C   LIG    1       21.112 -21.483   4.805  0.00  0.00    +0.045 C 
ENDBRANCH   2   5
BRANCH   1  14
ATOM     13  N   LIG    1       25.547 -24.298   7.185  0.00  0.00    -0.291 NA
ATOM     14  C   LIG    1       24.428 -24.132   6.199  0.00  0.00    +0.143 C 
ATOM     15  C   LIG    1       24.790 -24.618   4.782  0.00  0.00    +0.028 C 
ATOM     16  C   LIG    1       25.288 -26.062   4.787  0.00  0.00    +0.003 C 
ATOM     17  C   LIG    1       26.343 -26.301   5.863  0.00  0.00    +0.015 C 
ATOM     18  C   LIG    1       25.901 -25.736   7.217  0.00  0.00    +0.085 C 
BRANCH  13  19
ATOM     19  C   LIG    1       26.710 -23.433   6.865  0.00  0.00    +0.085 C 
BRANCH  19  20
ATOM     20  C   LIG    1       26.815 -22.176   7.747  0.00  0.00    +0.015 C 
BRANCH  20  22
ATOM     21  C   LIG    1       28.072 -19.987   7.696  0.00  0.00    +0.004 C 
ATOM     22  C   LIG    1       28.181 -21.501   7.595  0.00  0.00    -0.002 C 
ENDBRANCH  20  22
ENDBRANCH  19  20
ENDBRANCH  13  19
ENDBRANCH   1  14
TORSDOF 5
ENDMDL
