MODEL 1
REMARK VINA RESULT:      31.6      0.000      0.000
REMARK  Name = *****
REMARK                            x       y       z     vdW  Elec       q    Type
REMARK                         _______ _______ _______ _____ _____    ______ ____
ROOT
ATOM      1  C   LIG    1       22.797 -31.400   5.967  0.00  0.00    +0.186 C 
ATOM      2  O   LIG    1       22.416 -31.973   7.260  0.00  0.00    -0.459 OA
ATOM      3  C   LIG    1       21.881 -31.178   8.227  0.00  0.00    +0.328 C 
ATOM      4  O   LIG    1       21.886 -29.941   8.175  0.00  0.00    -0.249 OA
ATOM      5  C   LIG    1       21.368 -32.012   9.446  0.00  0.00    +0.185 C 
ATOM      6  N   LIG    1       20.292 -31.317  10.197  0.00  0.00    -0.281 N 
ATOM      7  C   LIG    1       18.996 -31.330   9.532  0.00  0.00    +0.109 C 
ATOM      8  C   LIG    1       18.456 -32.765   9.469  0.00  0.00    +0.019 C 
ATOM      9  C   LIG    1       19.545 -33.825   9.679  0.00  0.00    +0.004 C 
ATOM     10  C   LIG    1       20.281 -31.175  11.595  0.00  0.00    +0.288 C 
ATOM     11  O   LIG    1       19.335 -30.716  12.238  0.00  0.00    -0.267 OA
ATOM     12  C   LIG    1       21.408 -31.798  12.395  0.00  0.00    +0.276 C 
ATOM     13  O   LIG    1       21.478 -33.026  12.428  0.00  0.00    -0.281 OA
ATOM     14  C   LIG    1       22.406 -30.840  13.074  0.00  0.00    +0.240 C 
ATOM     15  O   LIG    1       23.543 -30.901  12.190  0.00  0.00    -0.339 OA
ATOM     16  C   LIG    1       24.760 -30.281  12.630  0.00  0.00    +0.125 C 
ATOM     17  C   LIG    1       25.163 -30.729  14.031  0.00  0.00    +0.032 C 
ATOM     18  C   LIG    1       24.020 -30.678  15.023  0.00  0.00    +0.011 C 
ATOM     19  C   LIG    1       24.717 -28.755  12.401  0.00  0.00    +0.067 C 
ATOM     20  C   LIG    1       25.694 -28.188  11.336  0.00  0.00    +0.146 C 
ATOM     21  C   LIG    1       26.860 -27.417  11.941  0.00  0.00    -0.044 C 
ATOM     22  C   LIG    1       27.969 -28.244  12.543  0.00  0.00    +0.041 C 
ATOM     23  C   LIG    1       27.010 -26.075  11.912  0.00  0.00    +0.001 C 
ATOM     24  C   LIG    1       26.106 -25.084  11.365  0.00  0.00    +0.000 C 
ATOM     25  C   LIG    1       26.558 -23.877  10.985  0.00  0.00    -0.000 C 
ATOM     26  C   LIG    1       25.738 -22.853  10.375  0.00  0.00    -0.004 C 
ATOM     27  C   LIG    1       26.286 -21.813   9.729  0.00  0.00    -0.024 C 
ATOM     28  C   LIG    1       25.514 -20.736   9.011  0.00  0.00    +0.009 C 
ATOM     29  C   LIG    1       25.719 -19.417   9.763  0.00  0.00    +0.012 C 
ATOM     30  C   LIG    1       25.952 -20.573   7.535  0.00  0.00    +0.018 C 
ATOM     31  C   LIG    1       25.444 -21.681   6.582  0.00  0.00    +0.056 C 
ATOM     32  C   LIG    1       25.457 -21.148   5.143  0.00  0.00    +0.015 C 
ATOM     33  C   LIG    1       26.280 -22.973   6.632  0.00  0.00    +0.167 C 
ATOM     34  O   LIG    1       27.413 -22.996   7.125  0.00  0.00    -0.294 OA
ATOM     35  C   LIG    1       25.658 -24.235   5.984  0.00  0.00    +0.216 C 
ATOM     36  C   LIG    1       26.674 -25.404   5.773  0.00  0.00    +0.176 C 
ATOM     37  C   LIG    1       26.298 -26.279   4.575  0.00  0.00    -0.045 C 
ATOM     38  C   LIG    1       26.561 -25.671   3.212  0.00  0.00    +0.041 C 
ATOM     39  C   LIG    1       25.803 -27.536   4.631  0.00  0.00    -0.015 C 
ATOM     40  C   LIG    1       25.506 -28.393   5.842  0.00  0.00    +0.075 C 
ATOM     41  C   LIG    1       26.719 -29.300   6.030  0.00  0.00    +0.019 C 
ATOM     42  C   LIG    1       24.154 -29.160   5.656  0.00  0.00    +0.143 C 
ATOM     43  O   LIG    1       23.160 -28.606   5.182  0.00  0.00    -0.297 OA
ATOM     44  C   LIG    1       22.805 -31.423  14.460  0.00  0.00    +0.054 C 
ATOM     45  C   LIG    1       21.681 -31.420  15.499  0.00  0.00    +0.013 C 
ATOM     46  C   LIG    1       20.877 -33.423   9.038  0.00  0.00    +0.034 C 
ATOM     47  C   LIG    1       24.126 -30.630   6.073  0.00  0.00    +0.119 C 
ENDROOT
BRANCH   1  48
ATOM     48  C   LIG    1       22.925 -32.614   4.967  0.00  0.00    +0.027 C 
ATOM     49  C   LIG    1       22.142 -33.825   5.503  0.00  0.00    +0.011 C 
BRANCH  48  50
ATOM     50  C   LIG    1       24.410 -33.032   4.695  0.00  0.00    +0.010 C 
BRANCH  50  55
ATOM     51  C   LIG    1       27.680 -32.834   4.232  0.00  0.00    +0.147 C 
ATOM     52  C   LIG    1       27.791 -33.397   2.798  0.00  0.00    +0.143 C 
ATOM     53  C   LIG    1       26.426 -33.816   2.251  0.00  0.00    +0.034 C 
ATOM     54  C   LIG    1       25.386 -32.698   2.349  0.00  0.00    +0.006 C 
ATOM     55  C   LIG    1       25.237 -32.099   3.765  0.00  0.00    -0.008 C 
ATOM     56  C   LIG    1       26.633 -31.704   4.290  0.00  0.00    +0.037 C 
BRANCH  51  58
ATOM     57  C   LIG    1       28.098 -33.720   6.407  0.00  0.00    +0.194 C 
ATOM     58  O   LIG    1       27.340 -33.824   5.210  0.00  0.00    -0.377 OA
ENDBRANCH  51  58
BRANCH  52  59
ATOM     59  O   LIG    1       28.371 -32.424   1.925  0.00  0.00    -0.389 OA
ATOM     60  H   LIG    1       28.879 -32.905   1.249  0.00  0.00    +0.210 HD
ENDBRANCH  52  59
ENDBRANCH  50  55
ENDBRANCH  48  50
ENDBRANCH   1  48
BRANCH  14  61
ATOM     61  O   LIG    1       21.941 -29.511  13.169  0.00  0.00    -0.358 OA
ATOM     62  H   LIG    1       22.547 -28.987  13.714  0.00  0.00    +0.213 HD
ENDBRANCH  14  61
BRANCH  20  63
ATOM     63  O   LIG    1       26.241 -29.187  10.470  0.00  0.00    -0.375 OA
ATOM     64  C   LIG    1       26.450 -28.734   9.137  0.00  0.00    +0.194 C 
ENDBRANCH  20  63
BRANCH  35  65
ATOM     65  O   LIG    1       24.452 -24.626   6.653  0.00  0.00    -0.369 OA
ATOM     66  C   LIG    1       23.669 -23.547   7.142  0.00  0.00    +0.195 C 
ENDBRANCH  35  65
BRANCH  36  67
ATOM     67  O   LIG    1       28.009 -24.948   5.522  0.00  0.00    -0.385 OA
ATOM     68  H   LIG    1       28.516 -25.100   6.349  0.00  0.00    +0.210 HD
ENDBRANCH  36  67
TORSDOF 9
ENDMDL
