MODEL 1
REMARK VINA RESULT:      -1.7      0.000      0.000
REMARK  Name = *****
REMARK                            x       y       z     vdW  Elec       q    Type
REMARK                         _______ _______ _______ _____ _____    ______ ____
ROOT
ATOM      1  C   LIG    1       23.579 -21.275   7.062  0.00  0.00    +0.086 C 
ATOM      2  C   LIG    1       24.571 -21.027   5.981  0.00  0.00    +0.111 A 
ATOM      3  N   LIG    1       24.368 -20.205   4.879  0.00  0.00    -0.298 N 
ATOM      4  C   LIG    1       23.168 -19.610   4.403  0.00  0.00    +0.057 A 
ATOM      5  C   LIG    1       23.191 -18.371   3.732  0.00  0.00    +0.026 A 
ATOM      6  C   LIG    1       24.414 -17.509   3.645  0.00  0.00    +0.078 C 
ATOM      7  N   LIG    1       25.585 -17.925   3.291  0.00  0.00    -0.276 NA
ATOM      8  C   LIG    1       25.788 -19.334   3.002  0.00  0.00    +0.197 C 
ATOM      9  C   LIG    1       22.005 -17.865   3.170  0.00  0.00    +0.032 A 
ATOM     10  C   LIG    1       20.811 -18.567   3.307  0.00  0.00    +0.042 A 
ATOM     11 CL   LIG    1       19.365 -17.933   2.624  0.00  0.00    -0.084 Cl
ATOM     12  C   LIG    1       20.780 -19.778   3.990  0.00  0.00    +0.022 A 
ATOM     13  C   LIG    1       21.955 -20.305   4.531  0.00  0.00    +0.028 A 
ATOM     14  C   LIG    1       25.589 -20.113   4.240  0.00  0.00    +0.065 A 
ATOM     15  C   LIG    1       26.449 -20.909   4.957  0.00  0.00    +0.136 A 
ATOM     16  N   LIG    1       25.810 -21.482   6.017  0.00  0.00    -0.240 NA
ENDROOT
BRANCH   6  17
ATOM     17  C   LIG    1       24.292 -16.057   3.982  0.00  0.00    +0.036 A 
ATOM     18  C   LIG    1       25.281 -15.136   3.631  0.00  0.00    +0.133 A 
ATOM     19  F   LIG    1       26.381 -15.521   2.965  0.00  0.00    -0.205 F 
ATOM     20  C   LIG    1       25.143 -13.786   3.948  0.00  0.00    +0.039 A 
ATOM     21  C   LIG    1       23.999 -13.343   4.611  0.00  0.00    +0.003 A 
ATOM     22  C   LIG    1       22.994 -14.251   4.949  0.00  0.00    +0.001 A 
ATOM     23  C   LIG    1       23.135 -15.604   4.630  0.00  0.00    +0.013 A 
ENDBRANCH   6  17
TORSDOF 1
ENDMDL
MODEL 2
REMARK VINA RESULT:      -1.4      3.139      5.681
REMARK  Name = *****
REMARK                            x       y       z     vdW  Elec       q    Type
REMARK                         _______ _______ _______ _____ _____    ______ ____
ROOT
ATOM      1  C   LIG    1       21.956 -16.339   5.320  0.00  0.00    +0.086 C 
ATOM      2  C   LIG    1       22.283 -17.505   4.457  0.00  0.00    +0.111 A 
ATOM      3  N   LIG    1       23.534 -17.778   3.916  0.00  0.00    -0.298 N 
ATOM      4  C   LIG    1       24.692 -16.956   3.854  0.00  0.00    +0.057 A 
ATOM      5  C   LIG    1       25.983 -17.519   3.883  0.00  0.00    +0.026 A 
ATOM      6  C   LIG    1       26.238 -18.967   4.175  0.00  0.00    +0.078 C 
ATOM      7  N   LIG    1       25.626 -19.952   3.606  0.00  0.00    -0.276 NA
ATOM      8  C   LIG    1       24.566 -19.682   2.649  0.00  0.00    +0.197 C 
ATOM      9  C   LIG    1       27.104 -16.691   3.702  0.00  0.00    +0.032 A 
ATOM     10  C   LIG    1       26.941 -15.319   3.531  0.00  0.00    +0.042 A 
ATOM     11 CL   LIG    1       28.322 -14.315   3.321  0.00  0.00    -0.084 Cl
ATOM     12  C   LIG    1       25.670 -14.756   3.527  0.00  0.00    +0.022 A 
ATOM     13  C   LIG    1       24.545 -15.570   3.680  0.00  0.00    +0.028 A 
ATOM     14  C   LIG    1       23.440 -19.033   3.349  0.00  0.00    +0.065 A 
ATOM     15  C   LIG    1       22.139 -19.434   3.536  0.00  0.00    +0.136 A 
ATOM     16  N   LIG    1       21.429 -18.480   4.204  0.00  0.00    -0.240 NA
ENDROOT
BRANCH   6  17
ATOM     17  C   LIG    1       27.278 -19.320   5.191  0.00  0.00    +0.036 A 
ATOM     18  C   LIG    1       27.091 -20.364   6.099  0.00  0.00    +0.133 A 
ATOM     19  F   LIG    1       25.970 -21.100   6.087  0.00  0.00    -0.205 F 
ATOM     20  C   LIG    1       28.076 -20.681   7.032  0.00  0.00    +0.039 A 
ATOM     21  C   LIG    1       29.269 -19.959   7.054  0.00  0.00    +0.003 A 
ATOM     22  C   LIG    1       29.475 -18.927   6.137  0.00  0.00    +0.001 A 
ATOM     23  C   LIG    1       28.486 -18.611   5.202  0.00  0.00    +0.013 A 
ENDBRANCH   6  17
TORSDOF 1
ENDMDL
