MODEL 1
REMARK VINA RESULT:      -4.7      0.000      0.000
REMARK  Name = *****
REMARK                            x       y       z     vdW  Elec       q    Type
REMARK                         _______ _______ _______ _____ _____    ______ ____
ROOT
ATOM      1  C   LIG    1       26.169 -15.366   3.408  0.00  0.00    +0.017 C 
ATOM      2  C   LIG    1       24.802 -14.966   4.004  0.00  0.00    +0.025 C 
ATOM      3  C   LIG    1       24.789 -13.463   4.335  0.00  0.00    -0.009 C 
ATOM      4  C   LIG    1       25.043 -12.658   3.049  0.00  0.00    +0.007 C 
ATOM      5  C   LIG    1       26.408 -13.038   2.450  0.00  0.00    -0.009 C 
ATOM      6  C   LIG    1       27.514 -12.738   3.475  0.00  0.00    +0.007 C 
ATOM      7  C   LIG    1       27.272 -13.540   4.764  0.00  0.00    -0.009 C 
ATOM      8  C   LIG    1       25.903 -13.157   5.351  0.00  0.00    +0.007 C 
ATOM      9  C   LIG    1       26.416 -14.543   2.123  0.00  0.00    +0.025 C 
ATOM     10  C   LIG    1       27.279 -15.043   4.433  0.00  0.00    +0.025 C 
ENDROOT
BRANCH   1  11
ATOM     11  N   LIG    1       26.179 -16.796   3.106  0.00  0.00    -0.325 NA
ATOM     12  H   LIG    1       25.329 -17.231   3.461  0.00  0.00    +0.119 HD
ATOM     13  H   LIG    1       26.168 -16.937   2.097  0.00  0.00    +0.119 HD
ENDBRANCH   1  11
TORSDOF 1
ENDMDL
MODEL 2
REMARK VINA RESULT:      -4.6      0.009      2.274
REMARK  Name = *****
REMARK                            x       y       z     vdW  Elec       q    Type
REMARK                         _______ _______ _______ _____ _____    ______ ____
ROOT
ATOM      1  C   LIG    1       26.163 -15.363   3.415  0.00  0.00    +0.017 C 
ATOM      2  C   LIG    1       27.273 -15.040   4.439  0.00  0.00    +0.025 C 
ATOM      3  C   LIG    1       27.271 -13.535   4.763  0.00  0.00    -0.009 C 
ATOM      4  C   LIG    1       25.903 -13.144   5.348  0.00  0.00    +0.007 C 
ATOM      5  C   LIG    1       24.788 -13.451   4.334  0.00  0.00    -0.009 C 
ATOM      6  C   LIG    1       25.044 -12.656   3.042  0.00  0.00    +0.007 C 
ATOM      7  C   LIG    1       26.408 -13.041   2.446  0.00  0.00    -0.009 C 
ATOM      8  C   LIG    1       27.514 -12.737   3.471  0.00  0.00    +0.007 C 
ATOM      9  C   LIG    1       24.797 -14.956   4.011  0.00  0.00    +0.025 C 
ATOM     10  C   LIG    1       26.414 -14.547   2.127  0.00  0.00    +0.025 C 
ENDROOT
BRANCH   1  11
ATOM     11  N   LIG    1       26.178 -16.791   3.103  0.00  0.00    -0.325 NA
ATOM     12  H   LIG    1       25.603 -16.973   2.282  0.00  0.00    +0.119 HD
ATOM     13  H   LIG    1       27.123 -17.082   2.856  0.00  0.00    +0.119 HD
ENDBRANCH   1  11
TORSDOF 1
ENDMDL
MODEL 3
REMARK VINA RESULT:      -4.6      0.007      2.274
REMARK  Name = *****
REMARK                            x       y       z     vdW  Elec       q    Type
REMARK                         _______ _______ _______ _____ _____    ______ ____
ROOT
ATOM      1  C   LIG    1       26.173 -15.364   3.413  0.00  0.00    +0.017 C 
ATOM      2  C   LIG    1       26.419 -14.547   2.126  0.00  0.00    +0.025 C 
ATOM      3  C   LIG    1       26.405 -13.041   2.445  0.00  0.00    -0.009 C 
ATOM      4  C   LIG    1       27.509 -12.730   3.470  0.00  0.00    +0.007 C 
ATOM      5  C   LIG    1       27.271 -13.530   4.762  0.00  0.00    -0.009 C 
ATOM      6  C   LIG    1       25.900 -13.151   5.348  0.00  0.00    +0.007 C 
ATOM      7  C   LIG    1       24.788 -13.461   4.333  0.00  0.00    -0.009 C 
ATOM      8  C   LIG    1       25.040 -12.662   3.043  0.00  0.00    +0.007 C 
ATOM      9  C   LIG    1       27.283 -15.035   4.436  0.00  0.00    +0.025 C 
ATOM     10  C   LIG    1       24.804 -14.966   4.008  0.00  0.00    +0.025 C 
ENDROOT
BRANCH   1  11
ATOM     11  N   LIG    1       26.177 -16.793   3.100  0.00  0.00    -0.325 NA
ATOM     12  H   LIG    1       26.068 -17.335   3.956  0.00  0.00    +0.119 HD
ATOM     13  H   LIG    1       25.373 -17.022   2.518  0.00  0.00    +0.119 HD
ENDBRANCH   1  11
TORSDOF 1
ENDMDL
MODEL 4
REMARK VINA RESULT:      -4.3      1.551      2.782
REMARK  Name = *****
REMARK                            x       y       z     vdW  Elec       q    Type
REMARK                         _______ _______ _______ _____ _____    ______ ____
ROOT
ATOM      1  C   LIG    1       27.045 -13.318   4.726  0.00  0.00    +0.017 C 
ATOM      2  C   LIG    1       25.605 -13.122   5.248  0.00  0.00    +0.025 C 
ATOM      3  C   LIG    1       24.591 -13.605   4.195  0.00  0.00    -0.009 C 
ATOM      4  C   LIG    1       24.833 -15.096   3.904  0.00  0.00    +0.007 C 
ATOM      5  C   LIG    1       26.261 -15.305   3.372  0.00  0.00    -0.009 C 
ATOM      6  C   LIG    1       26.446 -14.489   2.082  0.00  0.00    +0.007 C 
ATOM      7  C   LIG    1       26.210 -12.996   2.362  0.00  0.00    -0.009 C 
ATOM      8  C   LIG    1       24.782 -12.800   2.899  0.00  0.00    +0.007 C 
ATOM      9  C   LIG    1       27.271 -14.817   4.428  0.00  0.00    +0.025 C 
ATOM     10  C   LIG    1       27.219 -12.513   3.419  0.00  0.00    +0.025 C 
ENDROOT
BRANCH   1  11
ATOM     11  N   LIG    1       28.002 -12.847   5.726  0.00  0.00    -0.325 NA
ATOM     12  H   LIG    1       27.509 -12.377   6.483  0.00  0.00    +0.119 HD
ATOM     13  H   LIG    1       28.479 -13.642   6.149  0.00  0.00    +0.119 HD
ENDBRANCH   1  11
TORSDOF 1
ENDMDL
MODEL 5
REMARK VINA RESULT:      -4.3      1.552      2.821
REMARK  Name = *****
REMARK                            x       y       z     vdW  Elec       q    Type
REMARK                         _______ _______ _______ _____ _____    ______ ____
ROOT
ATOM      1  C   LIG    1       27.049 -13.307   4.715  0.00  0.00    +0.017 C 
ATOM      2  C   LIG    1       27.283 -14.804   4.418  0.00  0.00    +0.025 C 
ATOM      3  C   LIG    1       26.270 -15.300   3.371  0.00  0.00    -0.009 C 
ATOM      4  C   LIG    1       26.440 -14.487   2.076  0.00  0.00    +0.007 C 
ATOM      5  C   LIG    1       26.199 -12.994   2.354  0.00  0.00    -0.009 C 
ATOM      6  C   LIG    1       24.774 -12.803   2.901  0.00  0.00    +0.007 C 
ATOM      7  C   LIG    1       24.593 -13.609   4.198  0.00  0.00    -0.009 C 
ATOM      8  C   LIG    1       24.843 -15.099   3.909  0.00  0.00    +0.007 C 
ATOM      9  C   LIG    1       27.213 -12.504   3.404  0.00  0.00    +0.025 C 
ATOM     10  C   LIG    1       25.610 -13.118   5.244  0.00  0.00    +0.025 C 
ENDROOT
BRANCH   1  11
ATOM     11  N   LIG    1       28.007 -12.845   5.718  0.00  0.00    -0.325 NA
ATOM     12  H   LIG    1       28.902 -12.642   5.275  0.00  0.00    +0.119 HD
ATOM     13  H   LIG    1       27.687 -11.967   6.124  0.00  0.00    +0.119 HD
ENDBRANCH   1  11
TORSDOF 1
ENDMDL
MODEL 6
REMARK VINA RESULT:      -4.3      1.550      3.042
REMARK  Name = *****
REMARK                            x       y       z     vdW  Elec       q    Type
REMARK                         _______ _______ _______ _____ _____    ______ ____
ROOT
ATOM      1  C   LIG    1       27.028 -13.311   4.728  0.00  0.00    +0.017 C 
ATOM      2  C   LIG    1       27.215 -12.517   3.418  0.00  0.00    +0.025 C 
ATOM      3  C   LIG    1       26.210 -13.002   2.357  0.00  0.00    -0.009 C 
ATOM      4  C   LIG    1       24.779 -12.796   2.883  0.00  0.00    +0.007 C 
ATOM      5  C   LIG    1       24.575 -13.591   4.184  0.00  0.00    -0.009 C 
ATOM      6  C   LIG    1       24.814 -15.085   3.909  0.00  0.00    +0.007 C 
ATOM      7  C   LIG    1       26.243 -15.304   3.385  0.00  0.00    -0.009 C 
ATOM      8  C   LIG    1       26.438 -14.499   2.089  0.00  0.00    +0.007 C 
ATOM      9  C   LIG    1       25.585 -13.104   5.239  0.00  0.00    +0.025 C 
ATOM     10  C   LIG    1       27.250 -14.813   4.442  0.00  0.00    +0.025 C 
ENDROOT
BRANCH   1  11
ATOM     11  N   LIG    1       27.993 -12.853   5.727  0.00  0.00    -0.325 NA
ATOM     12  H   LIG    1       27.550 -12.186   6.356  0.00  0.00    +0.119 HD
ATOM     13  H   LIG    1       28.288 -13.637   6.307  0.00  0.00    +0.119 HD
ENDBRANCH   1  11
TORSDOF 1
ENDMDL
MODEL 7
REMARK VINA RESULT:      -3.9      5.513      6.948
REMARK  Name = *****
REMARK                            x       y       z     vdW  Elec       q    Type
REMARK                         _______ _______ _______ _____ _____    ______ ____
ROOT
ATOM      1  C   LIG    1       25.193 -20.307   5.276  0.00  0.00    +0.017 C 
ATOM      2  C   LIG    1       24.869 -21.572   4.452  0.00  0.00    +0.025 C 
ATOM      3  C   LIG    1       23.481 -21.437   3.801  0.00  0.00    -0.009 C 
ATOM      4  C   LIG    1       23.470 -20.207   2.878  0.00  0.00    +0.007 C 
ATOM      5  C   LIG    1       23.780 -18.937   3.688  0.00  0.00    -0.009 C 
ATOM      6  C   LIG    1       22.721 -18.766   4.790  0.00  0.00    +0.007 C 
ATOM      7  C   LIG    1       22.725 -19.989   5.721  0.00  0.00    -0.009 C 
ATOM      8  C   LIG    1       22.420 -21.254   4.900  0.00  0.00    +0.007 C 
ATOM      9  C   LIG    1       25.168 -19.078   4.339  0.00  0.00    +0.025 C 
ATOM     10  C   LIG    1       24.115 -20.128   6.368  0.00  0.00    +0.025 C 
ENDROOT
BRANCH   1  11
ATOM     11  N   LIG    1       26.508 -20.445   5.900  0.00  0.00    -0.325 NA
ATOM     12  H   LIG    1       26.953 -21.304   5.582  0.00  0.00    +0.119 HD
ATOM     13  H   LIG    1       27.115 -19.684   5.601  0.00  0.00    +0.119 HD
ENDBRANCH   1  11
TORSDOF 1
ENDMDL
MODEL 8
REMARK VINA RESULT:      -3.9      5.510      7.129
REMARK  Name = *****
REMARK                            x       y       z     vdW  Elec       q    Type
REMARK                         _______ _______ _______ _____ _____    ______ ____
ROOT
ATOM      1  C   LIG    1       25.193 -20.307   5.277  0.00  0.00    +0.017 C 
ATOM      2  C   LIG    1       25.176 -19.079   4.341  0.00  0.00    +0.025 C 
ATOM      3  C   LIG    1       23.790 -18.933   3.687  0.00  0.00    -0.009 C 
ATOM      4  C   LIG    1       22.727 -18.758   4.785  0.00  0.00    +0.007 C 
ATOM      5  C   LIG    1       22.726 -19.980   5.719  0.00  0.00    -0.009 C 
ATOM      6  C   LIG    1       22.419 -21.244   4.899  0.00  0.00    +0.007 C 
ATOM      7  C   LIG    1       23.478 -21.432   3.800  0.00  0.00    -0.009 C 
ATOM      8  C   LIG    1       23.475 -20.202   2.877  0.00  0.00    +0.007 C 
ATOM      9  C   LIG    1       24.115 -20.123   6.368  0.00  0.00    +0.025 C 
ATOM     10  C   LIG    1       24.865 -21.572   4.453  0.00  0.00    +0.025 C 
ENDROOT
BRANCH   1  11
ATOM     11  N   LIG    1       26.515 -20.446   5.886  0.00  0.00    -0.325 NA
ATOM     12  H   LIG    1       26.446 -20.990   6.744  0.00  0.00    +0.119 HD
ATOM     13  H   LIG    1       27.128 -20.974   5.266  0.00  0.00    +0.119 HD
ENDBRANCH   1  11
TORSDOF 1
ENDMDL
MODEL 9
REMARK VINA RESULT:      -3.9      1.530      3.031
REMARK  Name = *****
REMARK                            x       y       z     vdW  Elec       q    Type
REMARK                         _______ _______ _______ _____ _____    ______ ____
ROOT
ATOM      1  C   LIG    1       25.097 -13.320   4.332  0.00  0.00    +0.017 C 
ATOM      2  C   LIG    1       24.905 -14.787   3.890  0.00  0.00    +0.025 C 
ATOM      3  C   LIG    1       26.214 -15.335   3.294  0.00  0.00    -0.009 C 
ATOM      4  C   LIG    1       27.325 -15.260   4.355  0.00  0.00    +0.007 C 
ATOM      5  C   LIG    1       27.535 -13.802   4.797  0.00  0.00    -0.009 C 
ATOM      6  C   LIG    1       27.928 -12.954   3.577  0.00  0.00    +0.007 C 
ATOM      7  C   LIG    1       26.823 -13.018   2.510  0.00  0.00    -0.009 C 
ATOM      8  C   LIG    1       26.616 -14.481   2.080  0.00  0.00    +0.007 C 
ATOM      9  C   LIG    1       26.222 -13.258   5.389  0.00  0.00    +0.025 C 
ATOM     10  C   LIG    1       25.511 -12.476   3.106  0.00  0.00    +0.025 C 
ENDROOT
BRANCH   1  11
ATOM     11  N   LIG    1       23.847 -12.802   4.886  0.00  0.00    -0.325 NA
ATOM     12  H   LIG    1       23.592 -13.331   5.718  0.00  0.00    +0.119 HD
ATOM     13  H   LIG    1       23.977 -11.839   5.192  0.00  0.00    +0.119 HD
ENDBRANCH   1  11
TORSDOF 1
ENDMDL
