MODEL 1
REMARK VINA RESULT:      -8.9      0.000      0.000
REMARK  Name = *****
REMARK                            x       y       z     vdW  Elec       q    Type
REMARK                         _______ _______ _______ _____ _____    ______ ____
ROOT
ATOM      1  N   LIG    1       25.974 -30.210   9.542  0.00  0.00    -0.241 N 
ATOM      2  C   LIG    1       25.738 -31.109   8.534  0.00  0.00    +0.164 A 
ATOM      3  N   LIG    1       25.769 -32.450   8.630  0.00  0.00    -0.216 NA
ATOM      4  C   LIG    1       25.476 -33.067   7.489  0.00  0.00    +0.225 A 
ATOM      5  N   LIG    1       25.206 -32.497   6.315  0.00  0.00    -0.220 NA
ATOM      6  C   LIG    1       25.237 -31.155   6.226  0.00  0.00    +0.131 A 
ATOM      7  C   LIG    1       25.476 -30.377   7.389  0.00  0.00    +0.086 A 
ATOM      8  C   LIG    1       25.548 -28.994   7.841  0.00  0.00    +0.105 A 
ATOM      9  N   LIG    1       25.878 -28.925   9.143  0.00  0.00    -0.168 NA
ENDROOT
BRANCH   1  13
ATOM     10  C   LIG    1       28.757 -29.749  13.483  0.00  0.00    +0.239 C 
ATOM     11  N   LIG    1       27.482 -29.584  12.940  0.00  0.00    -0.296 N 
ATOM     12  C   LIG    1       27.150 -29.311  11.533  0.00  0.00    +0.134 C 
ATOM     13  C   LIG    1       26.357 -30.483  10.926  0.00  0.00    +0.127 C 
ATOM     14  C   LIG    1       25.166 -30.839  11.839  0.00  0.00    +0.030 C 
ATOM     15  C   LIG    1       25.548 -31.018  13.299  0.00  0.00    +0.021 C 
ATOM     16  C   LIG    1       26.353 -29.783  13.808  0.00  0.00    +0.108 C 
ATOM     17  O   LIG    1       28.985 -30.030  14.625  0.00  0.00    -0.271 OA
BRANCH  10  19
ATOM     18  C   LIG    1       31.131 -29.668  12.956  0.00  0.00    +0.013 C 
ATOM     19  C   LIG    1       29.875 -29.532  12.524  0.00  0.00    +0.060 C 
ENDBRANCH  10  19
ENDBRANCH   1  13
BRANCH   8  20
ATOM     20  C   LIG    1       25.327 -27.756   7.084  0.00  0.00    +0.003 A 
ATOM     21  C   LIG    1       24.287 -27.504   6.187  0.00  0.00    +0.013 A 
ATOM     22  C   LIG    1       24.200 -26.250   5.508  0.00  0.00    +0.047 A 
ATOM     23  C   LIG    1       25.094 -25.200   5.785  0.00  0.00    +0.129 A 
ATOM     24  C   LIG    1       26.034 -25.463   6.753  0.00  0.00    +0.047 A 
ATOM     25  C   LIG    1       26.208 -26.723   7.271  0.00  0.00    +0.013 A 
BRANCH  23  26
ATOM     26  O   LIG    1       25.008 -24.029   5.051  0.00  0.00    -0.456 OA
BRANCH  26  27
ATOM     27  C   LIG    1       24.466 -22.852   5.557  0.00  0.00    +0.128 A 
ATOM     28  C   LIG    1       24.505 -21.709   4.744  0.00  0.00    +0.046 A 
ATOM     29  C   LIG    1       23.928 -20.497   5.181  0.00  0.00    +0.004 A 
ATOM     30  C   LIG    1       23.284 -20.413   6.415  0.00  0.00    +0.000 A 
ATOM     31  C   LIG    1       23.215 -21.537   7.211  0.00  0.00    +0.004 A 
ATOM     32  C   LIG    1       23.773 -22.733   6.766  0.00  0.00    +0.046 A 
ENDBRANCH  26  27
ENDBRANCH  23  26
ENDBRANCH   8  20
BRANCH   6  33
ATOM     33  N   LIG    1       25.067 -30.712   4.917  0.00  0.00    -0.343 N 
ATOM     34  H   LIG    1       24.130 -30.358   4.756  0.00  0.00    +0.144 HD
ATOM     35  H   LIG    1       25.790 -30.040   4.684  0.00  0.00    +0.144 HD
ENDBRANCH   6  33
TORSDOF 6
ENDMDL
MODEL 2
REMARK VINA RESULT:      -8.7      4.971      9.367
REMARK  Name = *****
REMARK                            x       y       z     vdW  Elec       q    Type
REMARK                         _______ _______ _______ _____ _____    ______ ____
ROOT
ATOM      1  N   LIG    1       26.400 -21.686   6.629  0.00  0.00    -0.241 N 
ATOM      2  C   LIG    1       25.060 -21.435   6.485  0.00  0.00    +0.164 A 
ATOM      3  N   LIG    1       24.473 -20.228   6.404  0.00  0.00    -0.216 NA
ATOM      4  C   LIG    1       23.155 -20.292   6.244  0.00  0.00    +0.225 A 
ATOM      5  N   LIG    1       22.405 -21.393   6.198  0.00  0.00    -0.220 NA
ATOM      6  C   LIG    1       23.004 -22.590   6.340  0.00  0.00    +0.131 A 
ATOM      7  C   LIG    1       24.417 -22.660   6.454  0.00  0.00    +0.086 A 
ATOM      8  C   LIG    1       25.506 -23.623   6.557  0.00  0.00    +0.105 A 
ATOM      9  N   LIG    1       26.692 -23.002   6.689  0.00  0.00    -0.168 NA
ENDROOT
BRANCH   1  13
ATOM     10  C   LIG    1       30.789 -20.236   8.087  0.00  0.00    +0.239 C 
ATOM     11  N   LIG    1       29.940 -20.443   6.999  0.00  0.00    -0.296 N 
ATOM     12  C   LIG    1       28.852 -21.430   6.903  0.00  0.00    +0.134 C 
ATOM     13  C   LIG    1       27.490 -20.723   6.776  0.00  0.00    +0.127 C 
ATOM     14  C   LIG    1       27.545 -19.674   5.647  0.00  0.00    +0.030 C 
ATOM     15  C   LIG    1       28.740 -18.740   5.740  0.00  0.00    +0.021 C 
ATOM     16  C   LIG    1       30.063 -19.555   5.874  0.00  0.00    +0.108 C 
ATOM     17  O   LIG    1       31.626 -19.380   8.151  0.00  0.00    -0.271 OA
BRANCH  10  19
ATOM     18  C   LIG    1       31.390 -22.264   9.289  0.00  0.00    +0.013 C 
ATOM     19  C   LIG    1       30.600 -21.190   9.215  0.00  0.00    +0.060 C 
ENDBRANCH  10  19
ENDBRANCH   1  13
BRANCH   8  20
ATOM     20  C   LIG    1       25.455 -25.089   6.544  0.00  0.00    +0.003 A 
ATOM     21  C   LIG    1       26.177 -25.954   7.370  0.00  0.00    +0.013 A 
ATOM     22  C   LIG    1       26.037 -27.369   7.240  0.00  0.00    +0.047 A 
ATOM     23  C   LIG    1       25.106 -27.938   6.352  0.00  0.00    +0.129 A 
ATOM     24  C   LIG    1       24.345 -27.043   5.639  0.00  0.00    +0.047 A 
ATOM     25  C   LIG    1       24.610 -25.695   5.652  0.00  0.00    +0.013 A 
BRANCH  23  26
ATOM     26  O   LIG    1       25.057 -29.315   6.217  0.00  0.00    -0.456 OA
BRANCH  26  27
ATOM     27  C   LIG    1       24.412 -30.147   7.127  0.00  0.00    +0.128 A 
ATOM     28  C   LIG    1       24.137 -31.464   6.730  0.00  0.00    +0.046 A 
ATOM     29  C   LIG    1       23.529 -32.371   7.625  0.00  0.00    +0.004 A 
ATOM     30  C   LIG    1       23.214 -31.990   8.929  0.00  0.00    +0.000 A 
ATOM     31  C   LIG    1       23.506 -30.706   9.339  0.00  0.00    +0.004 A 
ATOM     32  C   LIG    1       24.120 -29.822   8.455  0.00  0.00    +0.046 A 
ENDBRANCH  26  27
ENDBRANCH  23  26
ENDBRANCH   8  20
BRANCH   6  33
ATOM     33  N   LIG    1       22.084 -23.632   6.403  0.00  0.00    -0.343 N 
ATOM     34  H   LIG    1       21.172 -23.314   6.712  0.00  0.00    +0.144 HD
ATOM     35  H   LIG    1       22.053 -24.119   5.514  0.00  0.00    +0.144 HD
ENDBRANCH   6  33
TORSDOF 6
ENDMDL
MODEL 3
REMARK VINA RESULT:      -8.0      2.190      2.831
REMARK  Name = *****
REMARK                            x       y       z     vdW  Elec       q    Type
REMARK                         _______ _______ _______ _____ _____    ______ ____
ROOT
ATOM      1  N   LIG    1       23.894 -31.123   8.893  0.00  0.00    -0.241 N 
ATOM      2  C   LIG    1       24.206 -31.850   7.773  0.00  0.00    +0.164 A 
ATOM      3  N   LIG    1       24.109 -33.183   7.628  0.00  0.00    -0.216 NA
ATOM      4  C   LIG    1       24.460 -33.609   6.419  0.00  0.00    +0.225 A 
ATOM      5  N   LIG    1       24.913 -32.869   5.408  0.00  0.00    -0.220 NA
ATOM      6  C   LIG    1       25.059 -31.544   5.591  0.00  0.00    +0.131 A 
ATOM      7  C   LIG    1       24.658 -30.955   6.819  0.00  0.00    +0.086 A 
ATOM      8  C   LIG    1       24.542 -29.661   7.479  0.00  0.00    +0.105 A 
ATOM      9  N   LIG    1       24.102 -29.799   8.743  0.00  0.00    -0.168 NA
ENDROOT
BRANCH   1  13
ATOM     10  C   LIG    1       24.044 -31.517  13.721  0.00  0.00    +0.239 C 
ATOM     11  N   LIG    1       23.290 -31.125  12.614  0.00  0.00    -0.296 N 
ATOM     12  C   LIG    1       23.804 -30.638  11.324  0.00  0.00    +0.134 C 
ATOM     13  C   LIG    1       23.436 -31.614  10.191  0.00  0.00    +0.127 C 
ATOM     14  C   LIG    1       21.927 -31.926  10.237  0.00  0.00    +0.030 C 
ATOM     15  C   LIG    1       21.429 -32.334  11.614  0.00  0.00    +0.021 C 
ATOM     16  C   LIG    1       21.863 -31.285  12.684  0.00  0.00    +0.108 C 
ATOM     17  O   LIG    1       23.591 -31.967  14.736  0.00  0.00    -0.271 OA
BRANCH  10  19
ATOM     18  C   LIG    1       26.167 -30.611  14.493  0.00  0.00    +0.013 C 
ATOM     19  C   LIG    1       25.514 -31.327  13.574  0.00  0.00    +0.060 C 
ENDBRANCH  10  19
ENDBRANCH   1  13
BRANCH   8  20
ATOM     20  C   LIG    1       24.840 -28.322   6.959  0.00  0.00    +0.003 A 
ATOM     21  C   LIG    1       25.872 -27.478   7.376  0.00  0.00    +0.013 A 
ATOM     22  C   LIG    1       26.040 -26.188   6.786  0.00  0.00    +0.047 A 
ATOM     23  C   LIG    1       25.242 -25.762   5.709  0.00  0.00    +0.129 A 
ATOM     24  C   LIG    1       24.310 -26.671   5.267  0.00  0.00    +0.047 A 
ATOM     25  C   LIG    1       24.051 -27.834   5.951  0.00  0.00    +0.013 A 
BRANCH  23  26
ATOM     26  O   LIG    1       25.401 -24.477   5.217  0.00  0.00    -0.456 OA
BRANCH  26  27
ATOM     27  C   LIG    1       24.715 -23.378   5.724  0.00  0.00    +0.128 A 
ATOM     28  C   LIG    1       24.706 -22.202   4.959  0.00  0.00    +0.046 A 
ATOM     29  C   LIG    1       23.987 -21.068   5.394  0.00  0.00    +0.004 A 
ATOM     30  C   LIG    1       23.250 -21.097   6.578  0.00  0.00    +0.000 A 
ATOM     31  C   LIG    1       23.229 -22.257   7.324  0.00  0.00    +0.004 A 
ATOM     32  C   LIG    1       23.928 -23.376   6.879  0.00  0.00    +0.046 A 
ENDBRANCH  26  27
ENDBRANCH  23  26
ENDBRANCH   8  20
BRANCH   6  33
ATOM     33  N   LIG    1       25.661 -30.926   4.499  0.00  0.00    -0.343 N 
ATOM     34  H   LIG    1       26.589 -31.296   4.319  0.00  0.00    +0.144 HD
ATOM     35  H   LIG    1       25.049 -30.981   3.692  0.00  0.00    +0.144 HD
ENDBRANCH   6  33
TORSDOF 6
ENDMDL
MODEL 4
REMARK VINA RESULT:      -8.0      3.317      4.510
REMARK  Name = *****
REMARK                            x       y       z     vdW  Elec       q    Type
REMARK                         _______ _______ _______ _____ _____    ______ ____
ROOT
ATOM      1  N   LIG    1       23.757 -31.089   8.791  0.00  0.00    -0.241 N 
ATOM      2  C   LIG    1       24.122 -31.808   7.683  0.00  0.00    +0.164 A 
ATOM      3  N   LIG    1       24.028 -33.140   7.523  0.00  0.00    -0.216 NA
ATOM      4  C   LIG    1       24.438 -33.557   6.329  0.00  0.00    +0.225 A 
ATOM      5  N   LIG    1       24.942 -32.810   5.347  0.00  0.00    -0.220 NA
ATOM      6  C   LIG    1       25.083 -31.487   5.548  0.00  0.00    +0.131 A 
ATOM      7  C   LIG    1       24.622 -30.907   6.759  0.00  0.00    +0.086 A 
ATOM      8  C   LIG    1       24.477 -29.618   7.423  0.00  0.00    +0.105 A 
ATOM      9  N   LIG    1       23.976 -29.764   8.663  0.00  0.00    -0.168 NA
ENDROOT
BRANCH   1  13
ATOM     10  C   LIG    1       20.244 -32.331  11.890  0.00  0.00    +0.239 C 
ATOM     11  N   LIG    1       21.356 -32.764  11.167  0.00  0.00    -0.296 N 
ATOM     12  C   LIG    1       21.842 -32.223   9.887  0.00  0.00    +0.134 C 
ATOM     13  C   LIG    1       23.234 -31.588  10.062  0.00  0.00    +0.127 C 
ATOM     14  C   LIG    1       24.178 -32.579  10.772  0.00  0.00    +0.030 C 
ATOM     15  C   LIG    1       23.590 -33.181  12.039  0.00  0.00    +0.021 C 
ATOM     16  C   LIG    1       22.181 -33.785  11.753  0.00  0.00    +0.108 C 
ATOM     17  O   LIG    1       19.913 -32.757  12.960  0.00  0.00    -0.271 OA
BRANCH  10  19
ATOM     18  C   LIG    1       18.235 -31.581  10.738  0.00  0.00    +0.013 C 
ATOM     19  C   LIG    1       19.441 -31.269  11.222  0.00  0.00    +0.060 C 
ENDBRANCH  10  19
ENDBRANCH   1  13
BRANCH   8  20
ATOM     20  C   LIG    1       24.805 -28.276   6.929  0.00  0.00    +0.003 A 
ATOM     21  C   LIG    1       25.847 -27.458   7.370  0.00  0.00    +0.013 A 
ATOM     22  C   LIG    1       26.044 -26.162   6.804  0.00  0.00    +0.047 A 
ATOM     23  C   LIG    1       25.264 -25.702   5.727  0.00  0.00    +0.129 A 
ATOM     24  C   LIG    1       24.321 -26.587   5.261  0.00  0.00    +0.047 A 
ATOM     25  C   LIG    1       24.034 -27.756   5.922  0.00  0.00    +0.013 A 
BRANCH  23  26
ATOM     26  O   LIG    1       25.451 -24.412   5.259  0.00  0.00    -0.456 OA
BRANCH  26  27
ATOM     27  C   LIG    1       24.719 -23.322   5.719  0.00  0.00    +0.128 A 
ATOM     28  C   LIG    1       24.711 -22.160   4.933  0.00  0.00    +0.046 A 
ATOM     29  C   LIG    1       23.948 -21.037   5.321  0.00  0.00    +0.004 A 
ATOM     30  C   LIG    1       23.166 -21.065   6.475  0.00  0.00    +0.000 A 
ATOM     31  C   LIG    1       23.145 -22.212   7.240  0.00  0.00    +0.004 A 
ATOM     32  C   LIG    1       23.888 -23.321   6.843  0.00  0.00    +0.046 A 
ENDBRANCH  26  27
ENDBRANCH  23  26
ENDBRANCH   8  20
BRANCH   6  33
ATOM     33  N   LIG    1       25.740 -30.863   4.492  0.00  0.00    -0.343 N 
ATOM     34  H   LIG    1       25.624 -31.370   3.621  0.00  0.00    +0.144 HD
ATOM     35  H   LIG    1       25.446 -29.894   4.428  0.00  0.00    +0.144 HD
ENDBRANCH   6  33
TORSDOF 6
ENDMDL
MODEL 5
REMARK VINA RESULT:      -7.5      5.078      9.423
REMARK  Name = *****
REMARK                            x       y       z     vdW  Elec       q    Type
REMARK                         _______ _______ _______ _____ _____    ______ ____
ROOT
ATOM      1  N   LIG    1       26.256 -21.700   6.588  0.00  0.00    -0.241 N 
ATOM      2  C   LIG    1       24.939 -21.415   6.331  0.00  0.00    +0.164 A 
ATOM      3  N   LIG    1       24.412 -20.201   6.096  0.00  0.00    -0.216 NA
ATOM      4  C   LIG    1       23.105 -20.232   5.854  0.00  0.00    +0.225 A 
ATOM      5  N   LIG    1       22.313 -21.304   5.862  0.00  0.00    -0.220 NA
ATOM      6  C   LIG    1       22.850 -22.503   6.157  0.00  0.00    +0.131 A 
ATOM      7  C   LIG    1       24.248 -22.613   6.373  0.00  0.00    +0.086 A 
ATOM      8  C   LIG    1       25.286 -23.600   6.640  0.00  0.00    +0.105 A 
ATOM      9  N   LIG    1       26.487 -23.013   6.792  0.00  0.00    -0.168 NA
ENDROOT
BRANCH   1  13
ATOM     10  C   LIG    1       30.687 -20.355   8.019  0.00  0.00    +0.239 C 
ATOM     11  N   LIG    1       29.832 -20.557   6.934  0.00  0.00    -0.296 N 
ATOM     12  C   LIG    1       28.715 -21.513   6.858  0.00  0.00    +0.134 C 
ATOM     13  C   LIG    1       27.375 -20.768   6.717  0.00  0.00    +0.127 C 
ATOM     14  C   LIG    1       27.461 -19.743   5.568  0.00  0.00    +0.030 C 
ATOM     15  C   LIG    1       28.684 -18.843   5.643  0.00  0.00    +0.021 C 
ATOM     16  C   LIG    1       29.981 -19.696   5.793  0.00  0.00    +0.108 C 
ATOM     17  O   LIG    1       31.549 -19.524   8.067  0.00  0.00    -0.271 OA
BRANCH  10  19
ATOM     18  C   LIG    1       31.303 -22.312   9.327  0.00  0.00    +0.013 C 
ATOM     19  C   LIG    1       30.470 -21.281   9.165  0.00  0.00    +0.060 C 
ENDBRANCH  10  19
ENDBRANCH   1  13
BRANCH   8  20
ATOM     20  C   LIG    1       25.173 -25.058   6.763  0.00  0.00    +0.003 A 
ATOM     21  C   LIG    1       24.243 -25.878   6.119  0.00  0.00    +0.013 A 
ATOM     22  C   LIG    1       24.240 -27.288   6.342  0.00  0.00    +0.047 A 
ATOM     23  C   LIG    1       25.222 -27.911   7.133  0.00  0.00    +0.129 A 
ATOM     24  C   LIG    1       26.177 -27.072   7.658  0.00  0.00    +0.047 A 
ATOM     25  C   LIG    1       26.068 -25.706   7.574  0.00  0.00    +0.013 A 
BRANCH  23  26
ATOM     26  O   LIG    1       25.136 -29.272   7.371  0.00  0.00    -0.456 OA
BRANCH  26  27
ATOM     27  C   LIG    1       25.581 -30.232   6.467  0.00  0.00    +0.128 A 
ATOM     28  C   LIG    1       26.242 -31.358   6.980  0.00  0.00    +0.046 A 
ATOM     29  C   LIG    1       26.675 -32.390   6.120  0.00  0.00    +0.004 A 
ATOM     30  C   LIG    1       26.431 -32.329   4.748  0.00  0.00    +0.000 A 
ATOM     31  C   LIG    1       25.757 -31.241   4.236  0.00  0.00    +0.004 A 
ATOM     32  C   LIG    1       25.321 -30.234   5.094  0.00  0.00    +0.046 A 
ENDBRANCH  26  27
ENDBRANCH  23  26
ENDBRANCH   8  20
BRANCH   6  33
ATOM     33  N   LIG    1       21.884 -23.500   6.256  0.00  0.00    -0.343 N 
ATOM     34  H   LIG    1       21.005 -23.141   6.614  0.00  0.00    +0.144 HD
ATOM     35  H   LIG    1       21.784 -23.973   5.364  0.00  0.00    +0.144 HD
ENDBRANCH   6  33
TORSDOF 6
ENDMDL
MODEL 6
REMARK VINA RESULT:      -7.4      1.774      2.380
REMARK  Name = *****
REMARK                            x       y       z     vdW  Elec       q    Type
REMARK                         _______ _______ _______ _____ _____    ______ ____
ROOT
ATOM      1  N   LIG    1       26.163 -28.322   8.921  0.00  0.00    -0.241 N 
ATOM      2  C   LIG    1       25.458 -29.207   8.147  0.00  0.00    +0.164 A 
ATOM      3  N   LIG    1       25.247 -30.509   8.406  0.00  0.00    -0.216 NA
ATOM      4  C   LIG    1       24.504 -31.115   7.485  0.00  0.00    +0.225 A 
ATOM      5  N   LIG    1       24.012 -30.577   6.369  0.00  0.00    -0.220 NA
ATOM      6  C   LIG    1       24.284 -29.288   6.098  0.00  0.00    +0.131 A 
ATOM      7  C   LIG    1       25.015 -28.511   7.035  0.00  0.00    +0.086 A 
ATOM      8  C   LIG    1       25.497 -27.155   7.263  0.00  0.00    +0.105 A 
ATOM      9  N   LIG    1       26.213 -27.079   8.400  0.00  0.00    -0.168 NA
ENDROOT
BRANCH   1  13
ATOM     10  C   LIG    1       27.310 -27.528  13.563  0.00  0.00    +0.239 C 
ATOM     11  N   LIG    1       26.799 -28.437  12.635  0.00  0.00    -0.296 N 
ATOM     12  C   LIG    1       26.078 -28.118  11.392  0.00  0.00    +0.134 C 
ATOM     13  C   LIG    1       26.884 -28.584  10.166  0.00  0.00    +0.127 C 
ATOM     14  C   LIG    1       27.302 -30.058  10.340  0.00  0.00    +0.030 C 
ATOM     15  C   LIG    1       27.956 -30.353  11.680  0.00  0.00    +0.021 C 
ATOM     16  C   LIG    1       27.064 -29.833  12.849  0.00  0.00    +0.108 C 
ATOM     17  O   LIG    1       27.945 -27.824  14.535  0.00  0.00    -0.271 OA
BRANCH  10  19
ATOM     18  C   LIG    1       27.619 -25.150  13.977  0.00  0.00    +0.013 C 
ATOM     19  C   LIG    1       26.999 -26.100  13.273  0.00  0.00    +0.060 C 
ENDBRANCH  10  19
ENDBRANCH   1  13
BRANCH   8  20
ATOM     20  C   LIG    1       25.312 -25.953   6.442  0.00  0.00    +0.003 A 
ATOM     21  C   LIG    1       24.656 -25.878   5.212  0.00  0.00    +0.013 A 
ATOM     22  C   LIG    1       24.559 -24.636   4.513  0.00  0.00    +0.047 A 
ATOM     23  C   LIG    1       25.031 -23.437   5.076  0.00  0.00    +0.129 A 
ATOM     24  C   LIG    1       25.574 -23.547   6.334  0.00  0.00    +0.047 A 
ATOM     25  C   LIG    1       25.811 -24.768   6.917  0.00  0.00    +0.013 A 
BRANCH  23  26
ATOM     26  O   LIG    1       24.973 -22.272   4.329  0.00  0.00    -0.456 OA
BRANCH  26  27
ATOM     27  C   LIG    1       24.145 -21.201   4.653  0.00  0.00    +0.128 A 
ATOM     28  C   LIG    1       23.957 -20.203   3.686  0.00  0.00    +0.046 A 
ATOM     29  C   LIG    1       23.091 -19.116   3.935  0.00  0.00    +0.004 A 
ATOM     30  C   LIG    1       22.384 -19.023   5.133  0.00  0.00    +0.000 A 
ATOM     31  C   LIG    1       22.540 -20.013   6.080  0.00  0.00    +0.004 A 
ATOM     32  C   LIG    1       23.384 -21.090   5.820  0.00  0.00    +0.046 A 
ENDBRANCH  26  27
ENDBRANCH  23  26
ENDBRANCH   8  20
BRANCH   6  33
ATOM     33  N   LIG    1       23.818 -28.905   4.844  0.00  0.00    -0.343 N 
ATOM     34  H   LIG    1       24.104 -29.556   4.119  0.00  0.00    +0.144 HD
ATOM     35  H   LIG    1       22.814 -28.766   4.877  0.00  0.00    +0.144 HD
ENDBRANCH   6  33
TORSDOF 6
ENDMDL
MODEL 7
REMARK VINA RESULT:      -7.1      4.743      9.739
REMARK  Name = *****
REMARK                            x       y       z     vdW  Elec       q    Type
REMARK                         _______ _______ _______ _____ _____    ______ ____
ROOT
ATOM      1  N   LIG    1       26.647 -22.459   6.844  0.00  0.00    -0.241 N 
ATOM      2  C   LIG    1       25.364 -21.981   6.791  0.00  0.00    +0.164 A 
ATOM      3  N   LIG    1       24.984 -20.693   6.850  0.00  0.00    -0.216 NA
ATOM      4  C   LIG    1       23.669 -20.526   6.751  0.00  0.00    +0.225 A 
ATOM      5  N   LIG    1       22.745 -21.481   6.642  0.00  0.00    -0.220 NA
ATOM      6  C   LIG    1       23.141 -22.767   6.644  0.00  0.00    +0.131 A 
ATOM      7  C   LIG    1       24.526 -23.077   6.681  0.00  0.00    +0.086 A 
ATOM      8  C   LIG    1       25.442 -24.209   6.641  0.00  0.00    +0.105 A 
ATOM      9  N   LIG    1       26.719 -23.805   6.769  0.00  0.00    -0.168 NA
ENDROOT
BRANCH   1  13
ATOM     10  C   LIG    1       29.565 -18.633   6.260  0.00  0.00    +0.239 C 
ATOM     11  N   LIG    1       28.891 -19.448   7.172  0.00  0.00    -0.296 N 
ATOM     12  C   LIG    1       27.641 -20.188   6.938  0.00  0.00    +0.134 C 
ATOM     13  C   LIG    1       27.887 -21.706   7.024  0.00  0.00    +0.127 C 
ATOM     14  C   LIG    1       28.633 -22.044   8.331  0.00  0.00    +0.030 C 
ATOM     15  C   LIG    1       29.864 -21.186   8.571  0.00  0.00    +0.021 C 
ATOM     16  C   LIG    1       29.506 -19.672   8.452  0.00  0.00    +0.108 C 
ATOM     17  O   LIG    1       30.614 -18.093   6.468  0.00  0.00    -0.271 OA
BRANCH  10  19
ATOM     18  C   LIG    1       28.339 -17.259   4.670  0.00  0.00    +0.013 C 
ATOM     19  C   LIG    1       28.869 -18.450   4.956  0.00  0.00    +0.060 C 
ENDBRANCH  10  19
ENDBRANCH   1  13
BRANCH   8  20
ATOM     20  C   LIG    1       25.147 -25.639   6.497  0.00  0.00    +0.003 A 
ATOM     21  C   LIG    1       24.270 -26.219   5.578  0.00  0.00    +0.013 A 
ATOM     22  C   LIG    1       24.070 -27.633   5.557  0.00  0.00    +0.047 A 
ATOM     23  C   LIG    1       24.810 -28.494   6.387  0.00  0.00    +0.129 A 
ATOM     24  C   LIG    1       25.736 -27.881   7.199  0.00  0.00    +0.047 A 
ATOM     25  C   LIG    1       25.796 -26.515   7.327  0.00  0.00    +0.013 A 
BRANCH  23  26
ATOM     26  O   LIG    1       24.530 -29.850   6.375  0.00  0.00    -0.456 OA
BRANCH  26  27
ATOM     27  C   LIG    1       25.501 -30.829   6.562  0.00  0.00    +0.128 A 
ATOM     28  C   LIG    1       25.851 -31.161   7.879  0.00  0.00    +0.046 A 
ATOM     29  C   LIG    1       26.794 -32.180   8.136  0.00  0.00    +0.004 A 
ATOM     30  C   LIG    1       27.376 -32.898   7.092  0.00  0.00    +0.000 A 
ATOM     31  C   LIG    1       27.018 -32.599   5.794  0.00  0.00    +0.004 A 
ATOM     32  C   LIG    1       26.077 -31.603   5.550  0.00  0.00    +0.046 A 
ENDBRANCH  26  27
ENDBRANCH  23  26
ENDBRANCH   8  20
BRANCH   6  33
ATOM     33  N   LIG    1       22.063 -23.647   6.658  0.00  0.00    -0.343 N 
ATOM     34  H   LIG    1       22.042 -24.207   7.504  0.00  0.00    +0.144 HD
ATOM     35  H   LIG    1       21.200 -23.138   6.499  0.00  0.00    +0.144 HD
ENDBRANCH   6  33
TORSDOF 6
ENDMDL
MODEL 8
REMARK VINA RESULT:      -6.8      4.775      8.362
REMARK  Name = *****
REMARK                            x       y       z     vdW  Elec       q    Type
REMARK                         _______ _______ _______ _____ _____    ______ ____
ROOT
ATOM      1  N   LIG    1       25.459 -29.887   9.990  0.00  0.00    -0.241 N 
ATOM      2  C   LIG    1       26.515 -29.775  10.857  0.00  0.00    +0.164 A 
ATOM      3  N   LIG    1       27.820 -29.855  10.547  0.00  0.00    -0.216 NA
ATOM      4  C   LIG    1       28.622 -29.684  11.594  0.00  0.00    +0.225 A 
ATOM      5  N   LIG    1       28.257 -29.490  12.861  0.00  0.00    -0.220 NA
ATOM      6  C   LIG    1       26.945 -29.471  13.160  0.00  0.00    +0.131 A 
ATOM      7  C   LIG    1       25.984 -29.579  12.121  0.00  0.00    +0.086 A 
ATOM      8  C   LIG    1       24.546 -29.554  11.890  0.00  0.00    +0.105 A 
ATOM      9  N   LIG    1       24.258 -29.771  10.594  0.00  0.00    -0.168 NA
ENDROOT
BRANCH   1  13
ATOM     10  C   LIG    1       26.365 -32.603   6.080  0.00  0.00    +0.239 C 
ATOM     11  N   LIG    1       25.394 -31.930   6.822  0.00  0.00    -0.296 N 
ATOM     12  C   LIG    1       25.410 -31.676   8.272  0.00  0.00    +0.134 C 
ATOM     13  C   LIG    1       25.492 -30.165   8.555  0.00  0.00    +0.127 C 
ATOM     14  C   LIG    1       24.403 -29.421   7.756  0.00  0.00    +0.030 C 
ATOM     15  C   LIG    1       24.368 -29.791   6.282  0.00  0.00    +0.021 C 
ATOM     16  C   LIG    1       24.295 -31.339   6.109  0.00  0.00    +0.108 C 
ATOM     17  O   LIG    1       26.347 -32.739   4.889  0.00  0.00    -0.271 OA
BRANCH  10  19
ATOM     18  C   LIG    1       28.649 -33.419   6.294  0.00  0.00    +0.013 C 
ATOM     19  C   LIG    1       27.475 -33.185   6.886  0.00  0.00    +0.060 C 
ENDBRANCH  10  19
ENDBRANCH   1  13
BRANCH   8  20
ATOM     20  C   LIG    1       23.454 -29.345  12.849  0.00  0.00    +0.003 A 
ATOM     21  C   LIG    1       23.132 -30.162  13.934  0.00  0.00    +0.013 A 
ATOM     22  C   LIG    1       22.030 -29.842  14.784  0.00  0.00    +0.047 A 
ATOM     23  C   LIG    1       21.294 -28.655  14.619  0.00  0.00    +0.129 A 
ATOM     24  C   LIG    1       21.718 -27.833  13.601  0.00  0.00    +0.047 A 
ATOM     25  C   LIG    1       22.667 -28.234  12.693  0.00  0.00    +0.013 A 
BRANCH  23  26
ATOM     26  O   LIG    1       20.193 -28.424  15.427  0.00  0.00    -0.456 OA
BRANCH  26  27
ATOM     27  C   LIG    1       18.970 -27.976  14.937  0.00  0.00    +0.128 A 
ATOM     28  C   LIG    1       17.942 -28.916  14.782  0.00  0.00    +0.046 A 
ATOM     29  C   LIG    1       16.664 -28.515  14.337  0.00  0.00    +0.004 A 
ATOM     30  C   LIG    1       16.386 -27.176  14.067  0.00  0.00    +0.000 A 
ATOM     31  C   LIG    1       17.382 -26.238  14.243  0.00  0.00    +0.004 A 
ATOM     32  C   LIG    1       18.635 -26.640  14.697  0.00  0.00    +0.046 A 
ENDBRANCH  26  27
ENDBRANCH  23  26
ENDBRANCH   8  20
BRANCH   6  33
ATOM     33  N   LIG    1       26.721 -29.392  14.532  0.00  0.00    -0.343 N 
ATOM     34  H   LIG    1       25.732 -29.346  14.752  0.00  0.00    +0.144 HD
ATOM     35  H   LIG    1       27.197 -30.153  15.003  0.00  0.00    +0.144 HD
ENDBRANCH   6  33
TORSDOF 6
ENDMDL
MODEL 9
REMARK VINA RESULT:      -6.5      4.663      8.328
REMARK  Name = *****
REMARK                            x       y       z     vdW  Elec       q    Type
REMARK                         _______ _______ _______ _____ _____    ______ ____
ROOT
ATOM      1  N   LIG    1       24.346 -29.896   8.263  0.00  0.00    -0.241 N 
ATOM      2  C   LIG    1       25.116 -30.884   8.821  0.00  0.00    +0.164 A 
ATOM      3  N   LIG    1       26.244 -31.407   8.310  0.00  0.00    -0.216 NA
ATOM      4  C   LIG    1       26.792 -32.338   9.086  0.00  0.00    +0.225 A 
ATOM      5  N   LIG    1       26.319 -32.797  10.245  0.00  0.00    -0.220 NA
ATOM      6  C   LIG    1       25.158 -32.302  10.710  0.00  0.00    +0.131 A 
ATOM      7  C   LIG    1       24.506 -31.255  10.006  0.00  0.00    +0.086 A 
ATOM      8  C   LIG    1       23.349 -30.374  10.089  0.00  0.00    +0.105 A 
ATOM      9  N   LIG    1       23.264 -29.581   9.005  0.00  0.00    -0.168 NA
ENDROOT
BRANCH   1  13
ATOM     10  C   LIG    1       24.946 -26.030   5.403  0.00  0.00    +0.239 C 
ATOM     11  N   LIG    1       25.487 -27.238   5.846  0.00  0.00    -0.296 N 
ATOM     12  C   LIG    1       25.265 -27.877   7.153  0.00  0.00    +0.134 C 
ATOM     13  C   LIG    1       24.532 -29.220   6.981  0.00  0.00    +0.127 C 
ATOM     14  C   LIG    1       25.255 -30.082   5.926  0.00  0.00    +0.030 C 
ATOM     15  C   LIG    1       25.544 -29.344   4.629  0.00  0.00    +0.021 C 
ATOM     16  C   LIG    1       26.278 -27.999   4.918  0.00  0.00    +0.108 C 
ATOM     17  O   LIG    1       25.101 -25.569   4.307  0.00  0.00    -0.271 OA
BRANCH  10  19
ATOM     18  C   LIG    1       24.488 -24.056   6.751  0.00  0.00    +0.013 C 
ATOM     19  C   LIG    1       24.135 -25.300   6.417  0.00  0.00    +0.060 C 
ENDBRANCH  10  19
ENDBRANCH   1  13
BRANCH   8  20
ATOM     20  C   LIG    1       22.333 -30.270  11.142  0.00  0.00    +0.003 A 
ATOM     21  C   LIG    1       21.145 -31.000  11.228  0.00  0.00    +0.013 A 
ATOM     22  C   LIG    1       20.237 -30.787  12.309  0.00  0.00    +0.047 A 
ATOM     23  C   LIG    1       20.544 -29.913  13.367  0.00  0.00    +0.129 A 
ATOM     24  C   LIG    1       21.771 -29.298  13.289  0.00  0.00    +0.047 A 
ATOM     25  C   LIG    1       22.555 -29.385  12.164  0.00  0.00    +0.013 A 
BRANCH  23  26
ATOM     26  O   LIG    1       19.601 -29.692  14.356  0.00  0.00    -0.456 OA
BRANCH  26  27
ATOM     27  C   LIG    1       18.641 -28.687  14.282  0.00  0.00    +0.128 A 
ATOM     28  C   LIG    1       17.291 -29.067  14.318  0.00  0.00    +0.046 A 
ATOM     29  C   LIG    1       16.270 -28.092  14.295  0.00  0.00    +0.004 A 
ATOM     30  C   LIG    1       16.578 -26.732  14.264  0.00  0.00    +0.000 A 
ATOM     31  C   LIG    1       17.902 -26.347  14.258  0.00  0.00    +0.004 A 
ATOM     32  C   LIG    1       18.903 -27.314  14.296  0.00  0.00    +0.046 A 
ENDBRANCH  26  27
ENDBRANCH  23  26
ENDBRANCH   8  20
BRANCH   6  33
ATOM     33  N   LIG    1       24.726 -32.966  11.855  0.00  0.00    -0.343 N 
ATOM     34  H   LIG    1       24.550 -32.325  12.621  0.00  0.00    +0.144 HD
ATOM     35  H   LIG    1       23.924 -33.547  11.634  0.00  0.00    +0.144 HD
ENDBRANCH   6  33
TORSDOF 6
ENDMDL
