MODEL 1
REMARK VINA RESULT:      -5.4      0.000      0.000
REMARK  Name = *****
REMARK                            x       y       z     vdW  Elec       q    Type
REMARK                         _______ _______ _______ _____ _____    ______ ____
ROOT
ATOM      1  C   LIG    1       23.973 -14.005   4.672  0.00  0.00    +0.000 C 
ENDROOT
BRANCH   1   2
ATOM      2  C   LIG    1       23.362 -15.271   4.057  0.00  0.00    -0.000 C 
BRANCH   2   3
ATOM      3  C   LIG    1       22.443 -16.101   4.981  0.00  0.00    -0.000 C 
BRANCH   3   4
ATOM      4  C   LIG    1       22.022 -17.465   4.389  0.00  0.00    -0.000 C 
BRANCH   4   5
ATOM      5  C   LIG    1       22.982 -18.641   4.436  0.00  0.00    -0.000 C 
BRANCH   5   6
ATOM      6  C   LIG    1       22.587 -19.759   5.419  0.00  0.00    -0.000 C 
BRANCH   6   7
ATOM      7  C   LIG    1       23.550 -20.953   5.550  0.00  0.00    -0.000 C 
BRANCH   7   9
ATOM      8  C   LIG    1       26.024 -20.563   6.003  0.00  0.00    +0.004 C 
ATOM      9  C   LIG    1       24.646 -20.756   6.602  0.00  0.00    -0.003 C 
ENDBRANCH   7   9
ENDBRANCH   6   7
ENDBRANCH   5   6
ENDBRANCH   4   5
ENDBRANCH   3   4
ENDBRANCH   2   3
ENDBRANCH   1   2
BRANCH   1  10
ATOM     10  C   LIG    1       23.960 -12.743   3.780  0.00  0.00    +0.002 C 
BRANCH  10  11
ATOM     11  C   LIG    1       24.519 -12.852   2.341  0.00  0.00    +0.028 C 
BRANCH  11  12
ATOM     12  C   LIG    1       26.040 -12.968   2.170  0.00  0.00    +0.160 C 
BRANCH  12  13
ATOM     13  O   LIG    1       26.481 -14.318   2.098  0.00  0.00    -0.378 OA
BRANCH  13  14
ATOM     14  C   LIG    1       27.265 -14.707   3.233  0.00  0.00    +0.187 C 
BRANCH  14  15
ATOM     15  C   LIG    1       27.959 -13.507   3.844  0.00  0.00    +0.184 C 
BRANCH  15  16
ATOM     16  O   LIG    1       29.296 -13.353   3.374  0.00  0.00    -0.393 OA
ATOM     17  H   LIG    1       29.679 -14.180   3.222  0.00  0.00    +0.209 HD
ENDBRANCH  15  16
ENDBRANCH  14  15
ENDBRANCH  13  14
ENDBRANCH  12  13
ENDBRANCH  11  12
ENDBRANCH  10  11
ENDBRANCH   1  10
TORSDOF 14
ENDMDL
MODEL 2
REMARK VINA RESULT:      -5.4      0.667      1.342
REMARK  Name = *****
REMARK                            x       y       z     vdW  Elec       q    Type
REMARK                         _______ _______ _______ _____ _____    ______ ____
ROOT
ATOM      1  C   LIG    1       23.669 -15.855   4.124  0.00  0.00    +0.000 C 
ENDROOT
BRANCH   1   2
ATOM      2  C   LIG    1       22.472 -16.485   4.848  0.00  0.00    -0.000 C 
BRANCH   2   3
ATOM      3  C   LIG    1       22.009 -17.865   4.325  0.00  0.00    -0.000 C 
BRANCH   3   4
ATOM      4  C   LIG    1       23.036 -18.997   4.549  0.00  0.00    -0.000 C 
BRANCH   4   5
ATOM      5  C   LIG    1       22.627 -20.255   5.297  0.00  0.00    -0.000 C 
BRANCH   5   6
ATOM      6  C   LIG    1       23.234 -20.395   6.705  0.00  0.00    -0.000 C 
BRANCH   6   7
ATOM      7  C   LIG    1       24.374 -21.415   6.881  0.00  0.00    -0.000 C 
BRANCH   7   9
ATOM      8  C   LIG    1       26.402 -20.371   5.753  0.00  0.00    +0.004 C 
ATOM      9  C   LIG    1       25.756 -20.780   7.062  0.00  0.00    -0.003 C 
ENDBRANCH   7   9
ENDBRANCH   6   7
ENDBRANCH   5   6
ENDBRANCH   4   5
ENDBRANCH   3   4
ENDBRANCH   2   3
ENDBRANCH   1   2
BRANCH   1  10
ATOM     10  C   LIG    1       23.839 -14.328   4.295  0.00  0.00    +0.002 C 
BRANCH  10  11
ATOM     11  C   LIG    1       24.042 -13.462   3.029  0.00  0.00    +0.028 C 
BRANCH  11  12
ATOM     12  C   LIG    1       25.472 -13.031   2.678  0.00  0.00    +0.160 C 
BRANCH  12  13
ATOM     13  O   LIG    1       26.243 -14.090   2.125  0.00  0.00    -0.378 OA
BRANCH  13  14
ATOM     14  C   LIG    1       27.107 -14.708   3.087  0.00  0.00    +0.187 C 
BRANCH  14  15
ATOM     15  C   LIG    1       27.872 -13.662   3.873  0.00  0.00    +0.184 C 
BRANCH  15  16
ATOM     16  O   LIG    1       29.146 -13.374   3.302  0.00  0.00    -0.393 OA
ATOM     17  H   LIG    1       29.168 -13.642   2.418  0.00  0.00    +0.209 HD
ENDBRANCH  15  16
ENDBRANCH  14  15
ENDBRANCH  13  14
ENDBRANCH  12  13
ENDBRANCH  11  12
ENDBRANCH  10  11
ENDBRANCH   1  10
TORSDOF 14
ENDMDL
MODEL 3
REMARK VINA RESULT:      -5.3      1.639      4.166
REMARK  Name = *****
REMARK                            x       y       z     vdW  Elec       q    Type
REMARK                         _______ _______ _______ _____ _____    ______ ____
ROOT
ATOM      1  C   LIG    1       25.492 -19.223   3.682  0.00  0.00    +0.000 C 
ENDROOT
BRANCH   1   2
ATOM      2  C   LIG    1       26.318 -19.670   4.895  0.00  0.00    -0.000 C 
BRANCH   2   3
ATOM      3  C   LIG    1       25.867 -20.979   5.581  0.00  0.00    -0.000 C 
BRANCH   3   4
ATOM      4  C   LIG    1       25.182 -20.768   6.949  0.00  0.00    -0.000 C 
BRANCH   4   5
ATOM      5  C   LIG    1       23.669 -20.855   7.062  0.00  0.00    -0.000 C 
BRANCH   5   6
ATOM      6  C   LIG    1       22.969 -21.517   5.860  0.00  0.00    -0.000 C 
BRANCH   6   7
ATOM      7  C   LIG    1       22.160 -20.600   4.926  0.00  0.00    -0.000 C 
BRANCH   7   9
ATOM      8  C   LIG    1       21.953 -18.227   4.027  0.00  0.00    +0.004 C 
ATOM      9  C   LIG    1       22.358 -19.105   5.195  0.00  0.00    -0.003 C 
ENDBRANCH   7   9
ENDBRANCH   6   7
ENDBRANCH   5   6
ENDBRANCH   4   5
ENDBRANCH   3   4
ENDBRANCH   2   3
ENDBRANCH   1   2
BRANCH   1  10
ATOM     10  C   LIG    1       25.616 -17.733   3.287  0.00  0.00    +0.002 C 
BRANCH  10  11
ATOM     11  C   LIG    1       26.929 -16.988   3.626  0.00  0.00    +0.028 C 
BRANCH  11  12
ATOM     12  C   LIG    1       26.902 -15.453   3.629  0.00  0.00    +0.160 C 
BRANCH  12  13
ATOM     13  O   LIG    1       26.508 -14.911   2.375  0.00  0.00    -0.378 OA
BRANCH  13  14
ATOM     14  C   LIG    1       25.946 -13.597   2.490  0.00  0.00    +0.187 C 
BRANCH  14  15
ATOM     15  C   LIG    1       24.589 -13.649   3.162  0.00  0.00    +0.184 C 
BRANCH  15  16
ATOM     16  O   LIG    1       24.547 -12.885   4.365  0.00  0.00    -0.393 OA
ATOM     17  H   LIG    1       24.920 -12.051   4.227  0.00  0.00    +0.209 HD
ENDBRANCH  15  16
ENDBRANCH  14  15
ENDBRANCH  13  14
ENDBRANCH  12  13
ENDBRANCH  11  12
ENDBRANCH  10  11
ENDBRANCH   1  10
TORSDOF 14
ENDMDL
MODEL 4
REMARK VINA RESULT:      -5.2      2.786      6.774
REMARK  Name = *****
REMARK                            x       y       z     vdW  Elec       q    Type
REMARK                         _______ _______ _______ _____ _____    ______ ____
ROOT
ATOM      1  C   LIG    1       21.966 -18.221   4.432  0.00  0.00    +0.000 C 
ENDROOT
BRANCH   1   2
ATOM      2  C   LIG    1       23.099 -17.198   4.274  0.00  0.00    -0.000 C 
BRANCH   2   3
ATOM      3  C   LIG    1       22.741 -15.731   4.604  0.00  0.00    -0.000 C 
BRANCH   3   4
ATOM      4  C   LIG    1       23.924 -14.747   4.457  0.00  0.00    -0.000 C 
BRANCH   4   5
ATOM      5  C   LIG    1       23.915 -13.710   3.348  0.00  0.00    -0.000 C 
BRANCH   5   6
ATOM      6  C   LIG    1       25.303 -13.166   2.961  0.00  0.00    -0.000 C 
BRANCH   6   7
ATOM      7  C   LIG    1       26.383 -14.197   2.585  0.00  0.00    -0.000 C 
BRANCH   7   9
ATOM      8  C   LIG    1       27.345 -13.437   4.816  0.00  0.00    +0.004 C 
ATOM      9  C   LIG    1       27.415 -14.448   3.688  0.00  0.00    -0.003 C 
ENDBRANCH   7   9
ENDBRANCH   6   7
ENDBRANCH   5   6
ENDBRANCH   4   5
ENDBRANCH   3   4
ENDBRANCH   2   3
ENDBRANCH   1   2
BRANCH   1  10
ATOM     10  C   LIG    1       22.403 -19.691   4.633  0.00  0.00    +0.002 C 
BRANCH  10  11
ATOM     11  C   LIG    1       23.059 -20.086   5.977  0.00  0.00    +0.028 C 
BRANCH  11  12
ATOM     12  C   LIG    1       23.611 -21.513   6.113  0.00  0.00    +0.160 C 
BRANCH  12  13
ATOM     13  O   LIG    1       25.024 -21.569   5.958  0.00  0.00    -0.378 OA
BRANCH  13  14
ATOM     14  C   LIG    1       25.713 -20.652   6.817  0.00  0.00    +0.187 C 
BRANCH  14  15
ATOM     15  C   LIG    1       27.149 -20.471   6.369  0.00  0.00    +0.184 C 
BRANCH  15  16
ATOM     16  O   LIG    1       27.249 -20.097   4.997  0.00  0.00    -0.393 OA
ATOM     17  H   LIG    1       26.459 -20.283   4.556  0.00  0.00    +0.209 HD
ENDBRANCH  15  16
ENDBRANCH  14  15
ENDBRANCH  13  14
ENDBRANCH  12  13
ENDBRANCH  11  12
ENDBRANCH  10  11
ENDBRANCH   1  10
TORSDOF 14
ENDMDL
MODEL 5
REMARK VINA RESULT:      -5.1      3.012      6.954
REMARK  Name = *****
REMARK                            x       y       z     vdW  Elec       q    Type
REMARK                         _______ _______ _______ _____ _____    ______ ____
ROOT
ATOM      1  C   LIG    1       23.721 -18.664   3.963  0.00  0.00    +0.000 C 
ENDROOT
BRANCH   1   2
ATOM      2  C   LIG    1       25.222 -18.593   3.649  0.00  0.00    -0.000 C 
BRANCH   2   3
ATOM      3  C   LIG    1       25.727 -17.266   3.038  0.00  0.00    -0.000 C 
BRANCH   3   4
ATOM      4  C   LIG    1       27.048 -16.753   3.653  0.00  0.00    -0.000 C 
BRANCH   4   5
ATOM      5  C   LIG    1       27.258 -15.264   3.867  0.00  0.00    -0.000 C 
BRANCH   5   6
ATOM      6  C   LIG    1       26.765 -14.369   2.715  0.00  0.00    -0.000 C 
BRANCH   6   7
ATOM      7  C   LIG    1       25.452 -13.597   2.937  0.00  0.00    -0.000 C 
BRANCH   7   9
ATOM      8  C   LIG    1       23.602 -14.675   4.313  0.00  0.00    +0.004 C 
ATOM      9  C   LIG    1       24.839 -13.799   4.326  0.00  0.00    -0.003 C 
ENDBRANCH   7   9
ENDBRANCH   6   7
ENDBRANCH   5   6
ENDBRANCH   4   5
ENDBRANCH   3   4
ENDBRANCH   2   3
ENDBRANCH   1   2
BRANCH   1  10
ATOM     10  C   LIG    1       23.190 -20.039   4.429  0.00  0.00    +0.002 C 
BRANCH  10  11
ATOM     11  C   LIG    1       23.164 -20.342   5.946  0.00  0.00    +0.028 C 
BRANCH  11  12
ATOM     12  C   LIG    1       23.940 -21.569   6.446  0.00  0.00    +0.160 C 
BRANCH  12  13
ATOM     13  O   LIG    1       25.317 -21.526   6.092  0.00  0.00    -0.378 OA
BRANCH  13  14
ATOM     14  C   LIG    1       26.048 -20.537   6.828  0.00  0.00    +0.187 C 
BRANCH  14  15
ATOM     15  C   LIG    1       27.531 -20.634   6.533  0.00  0.00    +0.184 C 
BRANCH  15  16
ATOM     16  O   LIG    1       27.865 -20.127   5.244  0.00  0.00    -0.393 OA
ATOM     17  H   LIG    1       27.962 -20.822   4.641  0.00  0.00    +0.209 HD
ENDBRANCH  15  16
ENDBRANCH  14  15
ENDBRANCH  13  14
ENDBRANCH  12  13
ENDBRANCH  11  12
ENDBRANCH  10  11
ENDBRANCH   1  10
TORSDOF 14
ENDMDL
MODEL 6
REMARK VINA RESULT:      -5.1      2.561      6.514
REMARK  Name = *****
REMARK                            x       y       z     vdW  Elec       q    Type
REMARK                         _______ _______ _______ _____ _____    ______ ____
ROOT
ATOM      1  C   LIG    1       22.363 -16.381   4.954  0.00  0.00    +0.000 C 
ENDROOT
BRANCH   1   2
ATOM      2  C   LIG    1       23.176 -15.464   4.032  0.00  0.00    -0.000 C 
BRANCH   2   3
ATOM      3  C   LIG    1       23.858 -14.252   4.707  0.00  0.00    -0.000 C 
BRANCH   3   4
ATOM      4  C   LIG    1       23.942 -12.997   3.809  0.00  0.00    -0.000 C 
BRANCH   4   5
ATOM      5  C   LIG    1       24.626 -13.077   2.456  0.00  0.00    -0.000 C 
BRANCH   5   6
ATOM      6  C   LIG    1       26.163 -12.991   2.502  0.00  0.00    -0.000 C 
BRANCH   6   7
ATOM      7  C   LIG    1       26.939 -14.317   2.591  0.00  0.00    -0.000 C 
BRANCH   7   9
ATOM      8  C   LIG    1       27.454 -13.425   4.919  0.00  0.00    +0.004 C 
ATOM      9  C   LIG    1       27.501 -14.617   3.984  0.00  0.00    -0.003 C 
ENDBRANCH   7   9
ENDBRANCH   6   7
ENDBRANCH   5   6
ENDBRANCH   4   5
ENDBRANCH   3   4
ENDBRANCH   2   3
ENDBRANCH   1   2
BRANCH   1  10
ATOM     10  C   LIG    1       22.001 -17.771   4.382  0.00  0.00    +0.002 C 
BRANCH  10  11
ATOM     11  C   LIG    1       23.104 -18.855   4.329  0.00  0.00    +0.028 C 
BRANCH  11  12
ATOM     12  C   LIG    1       22.866 -20.158   5.105  0.00  0.00    +0.160 C 
BRANCH  12  13
ATOM     13  O   LIG    1       24.029 -20.974   5.172  0.00  0.00    -0.378 OA
BRANCH  13  14
ATOM     14  C   LIG    1       24.853 -20.673   6.306  0.00  0.00    +0.187 C 
BRANCH  14  15
ATOM     15  C   LIG    1       26.293 -20.464   5.885  0.00  0.00    +0.184 C 
BRANCH  15  16
ATOM     16  O   LIG    1       26.428 -20.278   4.478  0.00  0.00    -0.393 OA
ATOM     17  H   LIG    1       26.357 -19.382   4.265  0.00  0.00    +0.209 HD
ENDBRANCH  15  16
ENDBRANCH  14  15
ENDBRANCH  13  14
ENDBRANCH  12  13
ENDBRANCH  11  12
ENDBRANCH  10  11
ENDBRANCH   1  10
TORSDOF 14
ENDMDL
MODEL 7
REMARK VINA RESULT:      -5.1      3.077      6.913
REMARK  Name = *****
REMARK                            x       y       z     vdW  Elec       q    Type
REMARK                         _______ _______ _______ _____ _____    ______ ____
ROOT
ATOM      1  C   LIG    1       23.100 -19.307   4.575  0.00  0.00    +0.000 C 
ENDROOT
BRANCH   1   2
ATOM      2  C   LIG    1       24.010 -19.541   3.362  0.00  0.00    -0.000 C 
BRANCH   2   3
ATOM      3  C   LIG    1       25.448 -18.987   3.474  0.00  0.00    -0.000 C 
BRANCH   3   4
ATOM      4  C   LIG    1       25.554 -17.462   3.246  0.00  0.00    -0.000 C 
BRANCH   4   5
ATOM      5  C   LIG    1       26.807 -16.716   3.672  0.00  0.00    -0.000 C 
BRANCH   5   6
ATOM      6  C   LIG    1       26.883 -15.255   3.192  0.00  0.00    -0.000 C 
BRANCH   6   7
ATOM      7  C   LIG    1       25.609 -14.403   3.327  0.00  0.00    -0.000 C 
BRANCH   7   9
ATOM      8  C   LIG    1       26.893 -13.489   5.326  0.00  0.00    +0.004 C 
ATOM      9  C   LIG    1       25.568 -13.540   4.592  0.00  0.00    -0.003 C 
ENDBRANCH   7   9
ENDBRANCH   6   7
ENDBRANCH   5   6
ENDBRANCH   4   5
ENDBRANCH   3   4
ENDBRANCH   2   3
ENDBRANCH   1   2
BRANCH   1  10
ATOM     10  C   LIG    1       22.835 -20.538   5.472  0.00  0.00    +0.002 C 
BRANCH  10  11
ATOM     11  C   LIG    1       23.528 -20.605   6.854  0.00  0.00    +0.028 C 
BRANCH  11  12
ATOM     12  C   LIG    1       24.860 -21.363   6.952  0.00  0.00    +0.160 C 
BRANCH  12  13
ATOM     13  O   LIG    1       25.977 -20.491   7.062  0.00  0.00    -0.378 OA
BRANCH  13  14
ATOM     14  C   LIG    1       27.230 -21.181   6.967  0.00  0.00    +0.187 C 
BRANCH  14  15
ATOM     15  C   LIG    1       28.323 -20.249   6.485  0.00  0.00    +0.184 C 
BRANCH  15  16
ATOM     16  O   LIG    1       28.211 -19.951   5.096  0.00  0.00    -0.393 OA
ATOM     17  H   LIG    1       29.032 -19.694   4.756  0.00  0.00    +0.209 HD
ENDBRANCH  15  16
ENDBRANCH  14  15
ENDBRANCH  13  14
ENDBRANCH  12  13
ENDBRANCH  11  12
ENDBRANCH  10  11
ENDBRANCH   1  10
TORSDOF 14
ENDMDL
MODEL 8
REMARK VINA RESULT:      -5.0      1.797      3.619
REMARK  Name = *****
REMARK                            x       y       z     vdW  Elec       q    Type
REMARK                         _______ _______ _______ _____ _____    ______ ____
ROOT
ATOM      1  C   LIG    1       25.446 -18.052   3.338  0.00  0.00    +0.000 C 
ENDROOT
BRANCH   1   2
ATOM      2  C   LIG    1       25.478 -19.536   3.723  0.00  0.00    -0.000 C 
BRANCH   2   3
ATOM      3  C   LIG    1       26.305 -19.896   4.978  0.00  0.00    -0.000 C 
BRANCH   3   4
ATOM      4  C   LIG    1       25.722 -21.067   5.801  0.00  0.00    -0.000 C 
BRANCH   4   5
ATOM      5  C   LIG    1       24.923 -20.785   7.062  0.00  0.00    -0.000 C 
BRANCH   5   6
ATOM      6  C   LIG    1       23.403 -20.660   6.849  0.00  0.00    -0.000 C 
BRANCH   6   7
ATOM      7  C   LIG    1       22.818 -21.290   5.572  0.00  0.00    -0.000 C 
BRANCH   7   9
ATOM      8  C   LIG    1       22.310 -18.899   4.864  0.00  0.00    +0.004 C 
ATOM      9  C   LIG    1       21.898 -20.355   4.781  0.00  0.00    -0.003 C 
ENDBRANCH   7   9
ENDBRANCH   6   7
ENDBRANCH   5   6
ENDBRANCH   4   5
ENDBRANCH   3   4
ENDBRANCH   2   3
ENDBRANCH   1   2
BRANCH   1  10
ATOM     10  C   LIG    1       26.737 -17.249   3.621  0.00  0.00    +0.002 C 
BRANCH  10  11
ATOM     11  C   LIG    1       26.768 -15.748   3.247  0.00  0.00    +0.028 C 
BRANCH  11  12
ATOM     12  C   LIG    1       25.592 -14.872   3.700  0.00  0.00    +0.160 C 
BRANCH  12  13
ATOM     13  O   LIG    1       26.000 -13.565   4.084  0.00  0.00    -0.378 OA
BRANCH  13  14
ATOM     14  C   LIG    1       27.024 -13.575   5.087  0.00  0.00    +0.187 C 
BRANCH  14  15
ATOM     15  C   LIG    1       28.211 -12.739   4.653  0.00  0.00    +0.184 C 
BRANCH  15  16
ATOM     16  O   LIG    1       28.488 -12.866   3.261  0.00  0.00    -0.393 OA
ATOM     17  H   LIG    1       29.343 -13.195   3.134  0.00  0.00    +0.209 HD
ENDBRANCH  15  16
ENDBRANCH  14  15
ENDBRANCH  13  14
ENDBRANCH  12  13
ENDBRANCH  11  12
ENDBRANCH  10  11
ENDBRANCH   1  10
TORSDOF 14
ENDMDL
MODEL 9
REMARK VINA RESULT:      -4.8      3.223      7.048
REMARK  Name = *****
REMARK                            x       y       z     vdW  Elec       q    Type
REMARK                         _______ _______ _______ _____ _____    ______ ____
ROOT
ATOM      1  C   LIG    1       25.729 -18.116   3.304  0.00  0.00    +0.000 C 
ENDROOT
BRANCH   1   2
ATOM      2  C   LIG    1       25.874 -16.591   3.220  0.00  0.00    -0.000 C 
BRANCH   2   3
ATOM      3  C   LIG    1       27.174 -15.997   3.809  0.00  0.00    -0.000 C 
BRANCH   3   4
ATOM      4  C   LIG    1       27.442 -14.534   3.392  0.00  0.00    -0.000 C 
BRANCH   4   5
ATOM      5  C   LIG    1       27.116 -13.400   4.350  0.00  0.00    -0.000 C 
BRANCH   5   6
ATOM      6  C   LIG    1       25.756 -13.526   5.062  0.00  0.00    -0.000 C 
BRANCH   6   7
ATOM      7  C   LIG    1       24.569 -12.762   4.449  0.00  0.00    -0.000 C 
BRANCH   7   9
ATOM      8  C   LIG    1       24.554 -12.681   1.905  0.00  0.00    +0.004 C 
ATOM      9  C   LIG    1       24.038 -13.375   3.150  0.00  0.00    -0.003 C 
ENDBRANCH   7   9
ENDBRANCH   6   7
ENDBRANCH   5   6
ENDBRANCH   4   5
ENDBRANCH   3   4
ENDBRANCH   2   3
ENDBRANCH   1   2
BRANCH   1  10
ATOM     10  C   LIG    1       24.330 -18.645   3.693  0.00  0.00    +0.002 C 
BRANCH  10  11
ATOM     11  C   LIG    1       24.235 -19.981   4.466  0.00  0.00    +0.028 C 
BRANCH  11  12
ATOM     12  C   LIG    1       25.544 -20.629   4.941  0.00  0.00    +0.160 C 
BRANCH  12  13
ATOM     13  O   LIG    1       25.856 -20.304   6.290  0.00  0.00    -0.378 OA
BRANCH  13  14
ATOM     14  C   LIG    1       26.935 -21.089   6.814  0.00  0.00    +0.187 C 
BRANCH  14  15
ATOM     15  C   LIG    1       28.224 -20.293   6.823  0.00  0.00    +0.184 C 
BRANCH  15  16
ATOM     16  O   LIG    1       29.377 -21.119   6.678  0.00  0.00    -0.393 OA
ATOM     17  H   LIG    1       29.134 -21.956   6.368  0.00  0.00    +0.209 HD
ENDBRANCH  15  16
ENDBRANCH  14  15
ENDBRANCH  13  14
ENDBRANCH  12  13
ENDBRANCH  11  12
ENDBRANCH  10  11
ENDBRANCH   1  10
TORSDOF 14
ENDMDL
