MODEL 1
REMARK VINA RESULT:      -3.6      0.000      0.000
REMARK  Name = *****
REMARK                            x       y       z     vdW  Elec       q    Type
REMARK                         _______ _______ _______ _____ _____    ______ ____
ROOT
ATOM      1  C   LIG    1       26.068 -13.547   4.347  0.00  0.00    +0.255 C 
ENDROOT
BRANCH   1   3
ATOM      2  C   LIG    1       24.002 -12.089   4.635  0.00  0.00    +0.192 C 
ATOM      3  N   LIG    1       24.595 -13.278   3.881  0.00  0.00    +0.245 N 
ATOM      4  C   LIG    1       24.598 -12.963   2.392  0.00  0.00    +0.192 C 
ATOM      5  C   LIG    1       23.727 -14.510   4.129  0.00  0.00    +0.192 C 
ENDBRANCH   1   3
BRANCH   1   6
ATOM      6  C   LIG    1       26.975 -14.295   3.366  0.00  0.00    +0.350 C 
ATOM      7  O   LIG    1       26.837 -15.473   3.069  0.00  0.00    -0.245 OA
BRANCH   6   8
ATOM      8  O   LIG    1       27.966 -13.546   2.838  0.00  0.00    -0.477 OA
ATOM      9  H   LIG    1       28.854 -13.568   3.245  0.00  0.00    +0.295 HD
ENDBRANCH   6   8
ENDBRANCH   1   6
TORSDOF 3
ENDMDL
MODEL 2
REMARK VINA RESULT:      -3.6      0.796      2.045
REMARK  Name = *****
REMARK                            x       y       z     vdW  Elec       q    Type
REMARK                         _______ _______ _______ _____ _____    ______ ____
ROOT
ATOM      1  C   LIG    1       26.347 -13.546   4.792  0.00  0.00    +0.255 C 
ENDROOT
BRANCH   1   3
ATOM      2  C   LIG    1       24.227 -14.728   4.029  0.00  0.00    +0.192 C 
ATOM      3  N   LIG    1       25.042 -13.440   3.930  0.00  0.00    +0.245 N 
ATOM      4  C   LIG    1       24.199 -12.284   4.449  0.00  0.00    +0.192 C 
ATOM      5  C   LIG    1       25.394 -13.183   2.466  0.00  0.00    +0.192 C 
ENDBRANCH   1   3
BRANCH   1   6
ATOM      6  C   LIG    1       27.614 -14.013   4.070  0.00  0.00    +0.350 C 
ATOM      7  O   LIG    1       28.511 -13.264   3.709  0.00  0.00    -0.245 OA
BRANCH   6   8
ATOM      8  O   LIG    1       27.678 -15.343   3.853  0.00  0.00    -0.477 OA
ATOM      9  H   LIG    1       27.215 -15.727   3.083  0.00  0.00    +0.295 HD
ENDBRANCH   6   8
ENDBRANCH   1   6
TORSDOF 3
ENDMDL
MODEL 3
REMARK VINA RESULT:      -3.6      0.789      2.028
REMARK  Name = *****
REMARK                            x       y       z     vdW  Elec       q    Type
REMARK                         _______ _______ _______ _____ _____    ______ ____
ROOT
ATOM      1  C   LIG    1       26.335 -13.559   4.794  0.00  0.00    +0.255 C 
ENDROOT
BRANCH   1   3
ATOM      2  C   LIG    1       25.390 -13.178   2.462  0.00  0.00    +0.192 C 
ATOM      3  N   LIG    1       25.036 -13.424   3.928  0.00  0.00    +0.245 N 
ATOM      4  C   LIG    1       24.236 -14.716   4.030  0.00  0.00    +0.192 C 
ATOM      5  C   LIG    1       24.179 -12.266   4.435  0.00  0.00    +0.192 C 
ENDBRANCH   1   3
BRANCH   1   6
ATOM      6  C   LIG    1       27.603 -14.016   4.069  0.00  0.00    +0.350 C 
ATOM      7  O   LIG    1       28.496 -13.262   3.711  0.00  0.00    -0.245 OA
BRANCH   6   8
ATOM      8  O   LIG    1       27.671 -15.345   3.844  0.00  0.00    -0.477 OA
ATOM      9  H   LIG    1       28.504 -15.822   4.030  0.00  0.00    +0.295 HD
ENDBRANCH   6   8
ENDBRANCH   1   6
TORSDOF 3
ENDMDL
MODEL 4
REMARK VINA RESULT:      -3.4      2.423      3.388
REMARK  Name = *****
REMARK                            x       y       z     vdW  Elec       q    Type
REMARK                         _______ _______ _______ _____ _____    ______ ____
ROOT
ATOM      1  C   LIG    1       25.868 -13.596   4.740  0.00  0.00    +0.255 C 
ENDROOT
BRANCH   1   3
ATOM      2  C   LIG    1       28.226 -13.383   3.805  0.00  0.00    +0.192 C 
ATOM      3  N   LIG    1       26.848 -14.007   3.587  0.00  0.00    +0.245 N 
ATOM      4  C   LIG    1       26.991 -15.523   3.578  0.00  0.00    +0.192 C 
ATOM      5  C   LIG    1       26.300 -13.550   2.237  0.00  0.00    +0.192 C 
ENDBRANCH   1   3
BRANCH   1   6
ATOM      6  C   LIG    1       24.382 -13.509   4.383  0.00  0.00    +0.350 C 
ATOM      7  O   LIG    1       23.660 -14.482   4.220  0.00  0.00    -0.245 OA
BRANCH   6   8
ATOM      8  O   LIG    1       23.909 -12.251   4.256  0.00  0.00    -0.477 OA
ATOM      9  H   LIG    1       23.379 -12.014   3.470  0.00  0.00    +0.295 HD
ENDBRANCH   6   8
ENDBRANCH   1   6
TORSDOF 3
ENDMDL
MODEL 5
REMARK VINA RESULT:      -3.4      2.425      3.314
REMARK  Name = *****
REMARK                            x       y       z     vdW  Elec       q    Type
REMARK                         _______ _______ _______ _____ _____    ______ ____
ROOT
ATOM      1  C   LIG    1       25.927 -13.535   4.760  0.00  0.00    +0.255 C 
ENDROOT
BRANCH   1   3
ATOM      2  C   LIG    1       26.355 -13.585   2.252  0.00  0.00    +0.192 C 
ATOM      3  N   LIG    1       26.903 -13.989   3.619  0.00  0.00    +0.245 N 
ATOM      4  C   LIG    1       28.252 -13.316   3.826  0.00  0.00    +0.192 C 
ATOM      5  C   LIG    1       27.090 -15.504   3.655  0.00  0.00    +0.192 C 
ENDBRANCH   1   3
BRANCH   1   6
ATOM      6  C   LIG    1       24.435 -13.506   4.421  0.00  0.00    +0.350 C 
ATOM      7  O   LIG    1       23.748 -14.506   4.274  0.00  0.00    -0.245 OA
BRANCH   6   8
ATOM      8  O   LIG    1       23.914 -12.268   4.291  0.00  0.00    -0.477 OA
ATOM      9  H   LIG    1       24.513 -11.498   4.233  0.00  0.00    +0.295 HD
ENDBRANCH   6   8
ENDBRANCH   1   6
TORSDOF 3
ENDMDL
MODEL 6
REMARK VINA RESULT:      -3.4      1.846      2.576
REMARK  Name = *****
REMARK                            x       y       z     vdW  Elec       q    Type
REMARK                         _______ _______ _______ _____ _____    ______ ____
ROOT
ATOM      1  C   LIG    1       27.028 -13.449   5.003  0.00  0.00    +0.255 C 
ENDROOT
BRANCH   1   3
ATOM      2  C   LIG    1       26.201 -13.090   2.623  0.00  0.00    +0.192 C 
ATOM      3  N   LIG    1       26.157 -14.022   3.832  0.00  0.00    +0.245 N 
ATOM      4  C   LIG    1       26.708 -15.381   3.425  0.00  0.00    +0.192 C 
ATOM      5  C   LIG    1       24.707 -14.186   4.283  0.00  0.00    +0.192 C 
ENDBRANCH   1   3
BRANCH   1   6
ATOM      6  C   LIG    1       28.390 -12.860   4.625  0.00  0.00    +0.350 C 
ATOM      7  O   LIG    1       29.022 -13.183   3.630  0.00  0.00    -0.245 OA
BRANCH   6   8
ATOM      8  O   LIG    1       28.858 -11.933   5.487  0.00  0.00    -0.477 OA
ATOM      9  H   LIG    1       29.810 -11.714   5.487  0.00  0.00    +0.295 HD
ENDBRANCH   6   8
ENDBRANCH   1   6
TORSDOF 3
ENDMDL
MODEL 7
REMARK VINA RESULT:      -3.3      2.513      3.478
REMARK  Name = *****
REMARK                            x       y       z     vdW  Elec       q    Type
REMARK                         _______ _______ _______ _____ _____    ______ ____
ROOT
ATOM      1  C   LIG    1       24.793 -14.188   3.999  0.00  0.00    +0.255 C 
ENDROOT
BRANCH   1   3
ATOM      2  C   LIG    1       26.793 -13.256   2.730  0.00  0.00    +0.192 C 
ATOM      3  N   LIG    1       26.356 -14.166   3.877  0.00  0.00    +0.245 N 
ATOM      4  C   LIG    1       26.947 -13.638   5.176  0.00  0.00    +0.192 C 
ATOM      5  C   LIG    1       26.887 -15.576   3.625  0.00  0.00    +0.192 C 
ENDBRANCH   1   3
BRANCH   1   6
ATOM      6  C   LIG    1       24.051 -12.920   3.569  0.00  0.00    +0.350 C 
ATOM      7  O   LIG    1       23.854 -11.961   4.300  0.00  0.00    -0.245 OA
BRANCH   6   8
ATOM      8  O   LIG    1       23.615 -12.933   2.291  0.00  0.00    -0.477 OA
ATOM      9  H   LIG    1       22.716 -13.260   2.094  0.00  0.00    +0.295 HD
ENDBRANCH   6   8
ENDBRANCH   1   6
TORSDOF 3
ENDMDL
MODEL 8
REMARK VINA RESULT:      -3.3      2.518      3.553
REMARK  Name = *****
REMARK                            x       y       z     vdW  Elec       q    Type
REMARK                         _______ _______ _______ _____ _____    ______ ____
ROOT
ATOM      1  C   LIG    1       25.725 -13.007   2.534  0.00  0.00    +0.255 C 
ENDROOT
BRANCH   1   3
ATOM      2  C   LIG    1       26.380 -15.317   3.378  0.00  0.00    +0.192 C 
ATOM      3  N   LIG    1       26.538 -13.815   3.604  0.00  0.00    +0.245 N 
ATOM      4  C   LIG    1       28.011 -13.452   3.483  0.00  0.00    +0.192 C 
ATOM      5  C   LIG    1       26.053 -13.467   5.010  0.00  0.00    +0.192 C 
ENDBRANCH   1   3
BRANCH   1   6
ATOM      6  C   LIG    1       24.284 -12.638   2.897  0.00  0.00    +0.350 C 
ATOM      7  O   LIG    1       23.915 -11.504   3.164  0.00  0.00    -0.245 OA
BRANCH   6   8
ATOM      8  O   LIG    1       23.424 -13.678   2.901  0.00  0.00    -0.477 OA
ATOM      9  H   LIG    1       22.491 -13.531   2.650  0.00  0.00    +0.295 HD
ENDBRANCH   6   8
ENDBRANCH   1   6
TORSDOF 3
ENDMDL
MODEL 9
REMARK VINA RESULT:      -3.3      6.033      6.905
REMARK  Name = *****
REMARK                            x       y       z     vdW  Elec       q    Type
REMARK                         _______ _______ _______ _____ _____    ______ ____
ROOT
ATOM      1  C   LIG    1       24.036 -20.649   3.912  0.00  0.00    +0.255 C 
ENDROOT
BRANCH   1   3
ATOM      2  C   LIG    1       22.403 -18.955   4.880  0.00  0.00    +0.192 C 
ATOM      3  N   LIG    1       22.970 -20.366   5.026  0.00  0.00    +0.245 N 
ATOM      4  C   LIG    1       21.833 -21.369   4.889  0.00  0.00    +0.192 C 
ATOM      5  C   LIG    1       23.599 -20.511   6.410  0.00  0.00    +0.192 C 
ENDBRANCH   1   3
BRANCH   1   6
ATOM      6  C   LIG    1       25.289 -19.769   3.916  0.00  0.00    +0.350 C 
ATOM      7  O   LIG    1       25.325 -18.629   3.476  0.00  0.00    -0.245 OA
BRANCH   6   8
ATOM      8  O   LIG    1       26.381 -20.352   4.453  0.00  0.00    -0.477 OA
ATOM      9  H   LIG    1       26.305 -20.817   5.309  0.00  0.00    +0.295 HD
ENDBRANCH   6   8
ENDBRANCH   1   6
TORSDOF 3
ENDMDL
