MODEL 1
REMARK VINA RESULT:      -5.4      0.000      0.000
REMARK  Name = *****
REMARK                            x       y       z     vdW  Elec       q    Type
REMARK                         _______ _______ _______ _____ _____    ______ ____
ROOT
ATOM      1  C   LIG    1       24.785 -32.395   9.051  0.00  0.00    +0.242 C 
ATOM      2  C   LIG    1       25.200 -31.239   8.029  0.00  0.00    +0.199 C 
ATOM      3  N   LIG    1       25.697 -30.471   9.168  0.00  0.00    -0.244 N 
ATOM      4  C   LIG    1       26.189 -29.204   9.100  0.00  0.00    +0.123 C 
ATOM      5  C   LIG    1       25.898 -28.428   8.016  0.00  0.00    -0.021 C 
ATOM      6  C   LIG    1       25.031 -28.886   6.847  0.00  0.00    +0.104 C 
ATOM      7  S   LIG    1       23.896 -30.263   7.240  0.00  0.00    -0.129 S 
ATOM      8  C   LIG    1       25.652 -31.489  10.048  0.00  0.00    +0.275 C 
ATOM      9  O   LIG    1       26.143 -31.572  11.155  0.00  0.00    -0.270 OA
ENDROOT
BRANCH   1  10
ATOM     10  N   LIG    1       23.310 -32.549   9.342  0.00  0.00    -0.276 N 
ATOM     11  H   LIG    1       22.653 -32.155   8.682  0.00  0.00    +0.152 HD
ATOM     12  C   LIG    1       22.782 -33.161  10.478  0.00  0.00    +0.239 C 
ATOM     13  O   LIG    1       23.533 -33.571  11.364  0.00  0.00    -0.274 OA
BRANCH  12  14
ATOM     14  C   LIG    1       21.191 -33.247  10.500  0.00  0.00    +0.200 C 
ATOM     15  S   LIG    1       20.364 -31.617  10.333  0.00  0.00    -0.093 S 
ATOM     16  C   LIG    1       20.724 -31.743  12.049  0.00  0.00    +0.063 C 
ATOM     17  C   LIG    1       21.073 -30.817  12.973  0.00  0.00    +0.140 C 
ATOM     18  S   LIG    1       20.440 -33.469  12.152  0.00  0.00    -0.093 S 
BRANCH  17  19
ATOM     19  C   LIG    1       21.226 -29.383  12.602  0.00  0.00    +0.250 C 
ATOM     20  O   LIG    1       22.282 -28.981  12.114  0.00  0.00    -0.270 OA
ATOM     21  N   LIG    1       20.224 -28.501  12.843  0.00  0.00    -0.325 N 
ATOM     22  H   LIG    1       20.359 -27.531  12.585  0.00  0.00    +0.145 HD
ATOM     23  H   LIG    1       19.325 -28.769  13.224  0.00  0.00    +0.145 HD
ENDBRANCH  17  19
BRANCH  17  24
ATOM     24  C   LIG    1       21.362 -31.258  14.369  0.00  0.00    +0.344 C 
ATOM     25  O   LIG    1       22.473 -31.505  14.813  0.00  0.00    -0.245 OA
BRANCH  24  26
ATOM     26  O   LIG    1       20.265 -31.401  15.153  0.00  0.00    -0.477 OA
ATOM     27  H   LIG    1       20.442 -31.377  16.124  0.00  0.00    +0.295 HD
ENDBRANCH  24  26
ENDBRANCH  17  24
ENDBRANCH  12  14
ENDBRANCH   1  10
BRANCH   1  29
ATOM     28  C   LIG    1       26.662 -33.745   8.134  0.00  0.00    +0.197 C 
ATOM     29  O   LIG    1       25.487 -33.663   8.907  0.00  0.00    -0.349 OA
ENDBRANCH   1  29
BRANCH   4  30
ATOM     30  C   LIG    1       27.000 -28.637  10.258  0.00  0.00    +0.351 C 
ATOM     31  O   LIG    1       26.641 -27.677  10.926  0.00  0.00    -0.244 OA
BRANCH  30  32
ATOM     32  O   LIG    1       28.154 -29.248  10.573  0.00  0.00    -0.476 OA
ATOM     33  H   LIG    1       28.547 -29.868   9.920  0.00  0.00    +0.295 HD
ENDBRANCH  30  32
ENDBRANCH   4  30
BRANCH   5  34
ATOM     34  C   LIG    1       26.371 -26.989   7.823  0.00  0.00    +0.111 C 
BRANCH  34  35
ATOM     35  S   LIG    1       26.024 -26.466   6.116  0.00  0.00    -0.080 S 
BRANCH  35  36
ATOM     36  C   LIG    1       24.798 -25.290   6.415  0.00  0.00    +0.209 A 
ATOM     37  N   LIG    1       25.052 -24.008   6.800  0.00  0.00    -0.223 N 
ATOM     38  C   LIG    1       26.310 -23.351   7.015  0.00  0.00    +0.177 C 
ATOM     39  N   LIG    1       23.889 -23.347   6.948  0.00  0.00    -0.043 NA
ATOM     40  N   LIG    1       22.947 -24.235   6.654  0.00  0.00    -0.022 NA
ATOM     41  N   LIG    1       23.498 -25.451   6.323  0.00  0.00    -0.102 NA
ENDBRANCH  35  36
ENDBRANCH  34  35
ENDBRANCH   5  34
TORSDOF 11
ENDMDL
MODEL 2
REMARK VINA RESULT:      -5.4      4.267      9.294
REMARK  Name = *****
REMARK                            x       y       z     vdW  Elec       q    Type
REMARK                         _______ _______ _______ _____ _____    ______ ____
ROOT
ATOM      1  C   LIG    1       25.841 -26.773   6.215  0.00  0.00    +0.242 C 
ATOM      2  C   LIG    1       26.402 -27.900   7.198  0.00  0.00    +0.199 C 
ATOM      3  N   LIG    1       25.369 -28.798   6.688  0.00  0.00    -0.244 N 
ATOM      4  C   LIG    1       25.132 -30.057   7.147  0.00  0.00    +0.123 C 
ATOM      5  C   LIG    1       25.601 -30.423   8.374  0.00  0.00    -0.021 C 
ATOM      6  C   LIG    1       26.386 -29.496   9.299  0.00  0.00    +0.104 C 
ATOM      7  S   LIG    1       26.132 -27.716   8.979  0.00  0.00    -0.129 S 
ATOM      8  C   LIG    1       25.023 -28.025   5.641  0.00  0.00    +0.275 C 
ATOM      9  O   LIG    1       24.346 -28.300   4.672  0.00  0.00    -0.270 OA
ENDROOT
BRANCH   1  10
ATOM     10  N   LIG    1       25.054 -25.648   6.847  0.00  0.00    -0.276 N 
ATOM     11  H   LIG    1       24.688 -25.790   7.779  0.00  0.00    +0.152 HD
ATOM     12  C   LIG    1       24.756 -24.436   6.225  0.00  0.00    +0.239 C 
ATOM     13  O   LIG    1       25.091 -24.245   5.054  0.00  0.00    -0.274 OA
BRANCH  12  14
ATOM     14  C   LIG    1       23.970 -23.400   7.145  0.00  0.00    +0.200 C 
ATOM     15  S   LIG    1       23.121 -22.075   6.200  0.00  0.00    -0.093 S 
ATOM     16  C   LIG    1       24.768 -21.488   6.377  0.00  0.00    +0.063 C 
ATOM     17  C   LIG    1       25.563 -20.756   5.562  0.00  0.00    +0.140 C 
ATOM     18  S   LIG    1       25.009 -22.150   7.982  0.00  0.00    -0.093 S 
BRANCH  17  19
ATOM     19  C   LIG    1       25.082 -20.299   4.229  0.00  0.00    +0.250 C 
ATOM     20  O   LIG    1       24.307 -21.002   3.579  0.00  0.00    -0.270 OA
ATOM     21  N   LIG    1       25.527 -19.132   3.700  0.00  0.00    -0.325 N 
ATOM     22  H   LIG    1       25.186 -18.850   2.789  0.00  0.00    +0.145 HD
ATOM     23  H   LIG    1       26.149 -18.500   4.190  0.00  0.00    +0.145 HD
ENDBRANCH  17  19
BRANCH  17  24
ATOM     24  C   LIG    1       26.960 -20.454   5.991  0.00  0.00    +0.344 C 
ATOM     25  O   LIG    1       27.328 -20.324   7.148  0.00  0.00    -0.245 OA
BRANCH  24  26
ATOM     26  O   LIG    1       27.842 -20.301   4.972  0.00  0.00    -0.477 OA
ATOM     27  H   LIG    1       27.904 -21.070   4.356  0.00  0.00    +0.295 HD
ENDBRANCH  24  26
ENDBRANCH  17  24
ENDBRANCH  12  14
ENDBRANCH   1  10
BRANCH   1  29
ATOM     28  C   LIG    1       27.651 -27.237   4.573  0.00  0.00    +0.197 C 
ATOM     29  O   LIG    1       26.744 -26.333   5.160  0.00  0.00    -0.349 OA
ENDBRANCH   1  29
BRANCH   4  30
ATOM     30  C   LIG    1       24.291 -31.024   6.324  0.00  0.00    +0.351 C 
ATOM     31  O   LIG    1       23.204 -31.449   6.687  0.00  0.00    -0.244 OA
BRANCH  30  32
ATOM     32  O   LIG    1       24.764 -31.401   5.124  0.00  0.00    -0.476 OA
ATOM     33  H   LIG    1       25.376 -30.793   4.653  0.00  0.00    +0.295 HD
ENDBRANCH  30  32
ENDBRANCH   4  30
BRANCH   5  34
ATOM     34  C   LIG    1       25.394 -31.794   9.013  0.00  0.00    +0.111 C 
BRANCH  34  35
ATOM     35  S   LIG    1       24.968 -31.583  10.769  0.00  0.00    -0.080 S 
BRANCH  35  36
ATOM     36  C   LIG    1       23.286 -31.228  10.620  0.00  0.00    +0.209 A 
ATOM     37  N   LIG    1       22.664 -30.210  11.279  0.00  0.00    -0.223 N 
ATOM     38  C   LIG    1       23.212 -29.233  12.176  0.00  0.00    +0.177 C 
ATOM     39  N   LIG    1       21.359 -30.195  10.949  0.00  0.00    -0.043 NA
ATOM     40  N   LIG    1       21.206 -31.204  10.099  0.00  0.00    -0.022 NA
ATOM     41  N   LIG    1       22.398 -31.859   9.887  0.00  0.00    -0.102 NA
ENDBRANCH  35  36
ENDBRANCH  34  35
ENDBRANCH   5  34
TORSDOF 11
ENDMDL
MODEL 3
REMARK VINA RESULT:      -5.3      5.222      9.004
REMARK  Name = *****
REMARK                            x       y       z     vdW  Elec       q    Type
REMARK                         _______ _______ _______ _____ _____    ______ ____
ROOT
ATOM      1  C   LIG    1       24.137 -23.456   5.711  0.00  0.00    +0.242 C 
ATOM      2  C   LIG    1       25.057 -22.686   6.765  0.00  0.00    +0.199 C 
ATOM      3  N   LIG    1       25.323 -21.684   5.735  0.00  0.00    -0.244 N 
ATOM      4  C   LIG    1       26.177 -20.633   5.870  0.00  0.00    +0.123 C 
ATOM      5  C   LIG    1       27.129 -20.664   6.846  0.00  0.00    -0.021 C 
ATOM      6  C   LIG    1       27.318 -21.824   7.820  0.00  0.00    +0.104 C 
ATOM      7  S   LIG    1       26.645 -23.418   7.234  0.00  0.00    -0.129 S 
ATOM      8  C   LIG    1       24.356 -22.096   4.893  0.00  0.00    +0.275 C 
ATOM      9  O   LIG    1       23.897 -21.539   3.917  0.00  0.00    -0.270 OA
ENDROOT
BRANCH   1  10
ATOM     10  N   LIG    1       24.696 -24.729   5.120  0.00  0.00    -0.276 N 
ATOM     11  H   LIG    1       25.245 -24.659   4.274  0.00  0.00    +0.152 HD
ATOM     12  C   LIG    1       24.480 -26.008   5.633  0.00  0.00    +0.239 C 
ATOM     13  O   LIG    1       23.740 -26.166   6.605  0.00  0.00    -0.274 OA
BRANCH  12  14
ATOM     14  C   LIG    1       25.245 -27.168   4.853  0.00  0.00    +0.200 C 
ATOM     15  S   LIG    1       24.472 -28.820   5.051  0.00  0.00    -0.093 S 
ATOM     16  C   LIG    1       25.492 -28.651   6.472  0.00  0.00    +0.063 C 
ATOM     17  C   LIG    1       25.346 -29.075   7.750  0.00  0.00    +0.140 C 
ATOM     18  S   LIG    1       26.772 -27.777   5.655  0.00  0.00    -0.093 S 
BRANCH  17  19
ATOM     19  C   LIG    1       24.136 -29.834   8.173  0.00  0.00    +0.250 C 
ATOM     20  O   LIG    1       23.526 -30.526   7.357  0.00  0.00    -0.270 OA
ATOM     21  N   LIG    1       23.671 -29.733   9.442  0.00  0.00    -0.325 N 
ATOM     22  H   LIG    1       22.843 -30.256   9.700  0.00  0.00    +0.145 HD
ATOM     23  H   LIG    1       24.136 -29.197  10.166  0.00  0.00    +0.145 HD
ENDBRANCH  17  19
BRANCH  17  24
ATOM     24  C   LIG    1       26.391 -28.724   8.755  0.00  0.00    +0.344 C 
ATOM     25  O   LIG    1       26.534 -27.624   9.266  0.00  0.00    -0.245 OA
BRANCH  24  26
ATOM     26  O   LIG    1       27.234 -29.739   9.069  0.00  0.00    -0.477 OA
ATOM     27  H   LIG    1       27.124 -30.103   9.981  0.00  0.00    +0.295 HD
ENDBRANCH  24  26
ENDBRANCH  17  24
ENDBRANCH  12  14
ENDBRANCH   1  10
BRANCH   1  29
ATOM     28  C   LIG    1       22.164 -22.704   7.027  0.00  0.00    +0.197 C 
ATOM     29  O   LIG    1       22.719 -23.536   6.034  0.00  0.00    -0.349 OA
ENDBRANCH   1  29
BRANCH   4  30
ATOM     30  C   LIG    1       26.112 -19.466   4.893  0.00  0.00    +0.351 C 
ATOM     31  O   LIG    1       27.101 -18.888   4.467  0.00  0.00    -0.244 OA
BRANCH  30  32
ATOM     32  O   LIG    1       24.900 -19.079   4.460  0.00  0.00    -0.476 OA
ATOM     33  H   LIG    1       24.134 -19.184   5.065  0.00  0.00    +0.295 HD
ENDBRANCH  30  32
ENDBRANCH   4  30
BRANCH   5  34
ATOM     34  C   LIG    1       28.157 -19.562   7.095  0.00  0.00    +0.111 C 
BRANCH  34  35
ATOM     35  S   LIG    1       29.738 -20.028   6.328  0.00  0.00    -0.080 S 
BRANCH  35  36
ATOM     36  C   LIG    1       30.824 -19.531   7.572  0.00  0.00    +0.209 A 
ATOM     37  N   LIG    1       31.207 -20.328   8.609  0.00  0.00    -0.223 N 
ATOM     38  C   LIG    1       30.852 -21.689   8.894  0.00  0.00    +0.177 C 
ATOM     39  N   LIG    1       32.058 -19.652   9.403  0.00  0.00    -0.043 NA
ATOM     40  N   LIG    1       32.177 -18.455   8.841  0.00  0.00    -0.022 NA
ATOM     41  N   LIG    1       31.411 -18.364   7.702  0.00  0.00    -0.102 NA
ENDBRANCH  35  36
ENDBRANCH  34  35
ENDBRANCH   5  34
TORSDOF 11
ENDMDL
MODEL 4
REMARK VINA RESULT:      -5.2      4.412      9.509
REMARK  Name = *****
REMARK                            x       y       z     vdW  Elec       q    Type
REMARK                         _______ _______ _______ _____ _____    ______ ____
ROOT
ATOM      1  C   LIG    1       25.762 -26.773   6.191  0.00  0.00    +0.242 C 
ATOM      2  C   LIG    1       26.376 -27.866   7.181  0.00  0.00    +0.199 C 
ATOM      3  N   LIG    1       25.332 -28.788   6.741  0.00  0.00    -0.244 N 
ATOM      4  C   LIG    1       25.129 -30.036   7.245  0.00  0.00    +0.123 C 
ATOM      5  C   LIG    1       25.653 -30.362   8.461  0.00  0.00    -0.021 C 
ATOM      6  C   LIG    1       26.467 -29.402   9.325  0.00  0.00    +0.104 C 
ATOM      7  S   LIG    1       26.180 -27.634   8.966  0.00  0.00    -0.129 S 
ATOM      8  C   LIG    1       24.934 -28.049   5.688  0.00  0.00    +0.275 C 
ATOM      9  O   LIG    1       24.220 -28.358   4.757  0.00  0.00    -0.270 OA
ENDROOT
BRANCH   1  10
ATOM     10  N   LIG    1       24.990 -25.639   6.824  0.00  0.00    -0.276 N 
ATOM     11  H   LIG    1       24.602 -25.785   7.747  0.00  0.00    +0.152 HD
ATOM     12  C   LIG    1       24.736 -24.410   6.215  0.00  0.00    +0.239 C 
ATOM     13  O   LIG    1       25.099 -24.210   5.055  0.00  0.00    -0.274 OA
BRANCH  12  14
ATOM     14  C   LIG    1       23.956 -23.368   7.135  0.00  0.00    +0.200 C 
ATOM     15  S   LIG    1       23.115 -22.039   6.190  0.00  0.00    -0.093 S 
ATOM     16  C   LIG    1       24.766 -21.462   6.365  0.00  0.00    +0.063 C 
ATOM     17  C   LIG    1       25.565 -20.735   5.548  0.00  0.00    +0.140 C 
ATOM     18  S   LIG    1       25.004 -22.124   7.971  0.00  0.00    -0.093 S 
BRANCH  17  19
ATOM     19  C   LIG    1       25.085 -20.277   4.215  0.00  0.00    +0.250 C 
ATOM     20  O   LIG    1       24.299 -20.971   3.571  0.00  0.00    -0.270 OA
ATOM     21  N   LIG    1       25.545 -19.119   3.681  0.00  0.00    -0.325 N 
ATOM     22  H   LIG    1       25.205 -18.835   2.770  0.00  0.00    +0.145 HD
ATOM     23  H   LIG    1       26.177 -18.493   4.166  0.00  0.00    +0.145 HD
ENDBRANCH  17  19
BRANCH  17  24
ATOM     24  C   LIG    1       26.964 -20.442   5.976  0.00  0.00    +0.344 C 
ATOM     25  O   LIG    1       27.334 -20.315   7.133  0.00  0.00    -0.245 OA
BRANCH  24  26
ATOM     26  O   LIG    1       27.845 -20.292   4.956  0.00  0.00    -0.477 OA
ATOM     27  H   LIG    1       27.482 -20.492   4.059  0.00  0.00    +0.295 HD
ENDBRANCH  24  26
ENDBRANCH  17  24
ENDBRANCH  12  14
ENDBRANCH   1  10
BRANCH   1  29
ATOM     28  C   LIG    1       27.588 -27.230   4.565  0.00  0.00    +0.197 C 
ATOM     29  O   LIG    1       26.615 -26.355   5.087  0.00  0.00    -0.349 OA
ENDBRANCH   1  29
BRANCH   4  30
ATOM     30  C   LIG    1       24.264 -31.034   6.486  0.00  0.00    +0.351 C 
ATOM     31  O   LIG    1       23.214 -31.485   6.922  0.00  0.00    -0.244 OA
BRANCH  30  32
ATOM     32  O   LIG    1       24.670 -31.410   5.261  0.00  0.00    -0.476 OA
ATOM     33  H   LIG    1       24.971 -30.714   4.636  0.00  0.00    +0.295 HD
ENDBRANCH  30  32
ENDBRANCH   4  30
BRANCH   5  34
ATOM     34  C   LIG    1       25.487 -31.717   9.146  0.00  0.00    +0.111 C 
BRANCH  34  35
ATOM     35  S   LIG    1       24.140 -31.615  10.364  0.00  0.00    -0.080 S 
BRANCH  35  36
ATOM     36  C   LIG    1       25.066 -31.537  11.817  0.00  0.00    +0.209 A 
ATOM     37  N   LIG    1       25.149 -30.430  12.607  0.00  0.00    -0.223 N 
ATOM     38  C   LIG    1       24.513 -29.151  12.457  0.00  0.00    +0.177 C 
ATOM     39  N   LIG    1       25.942 -30.690  13.662  0.00  0.00    -0.043 NA
ATOM     40  N   LIG    1       26.334 -31.949  13.497  0.00  0.00    -0.022 NA
ATOM     41  N   LIG    1       25.799 -32.488  12.349  0.00  0.00    -0.102 NA
ENDBRANCH  35  36
ENDBRANCH  34  35
ENDBRANCH   5  34
TORSDOF 11
ENDMDL
MODEL 5
REMARK VINA RESULT:      -5.0      4.117      5.000
REMARK  Name = *****
REMARK                            x       y       z     vdW  Elec       q    Type
REMARK                         _______ _______ _______ _____ _____    ______ ____
ROOT
ATOM      1  C   LIG    1       24.007 -31.085  10.258  0.00  0.00    +0.242 C 
ATOM      2  C   LIG    1       24.105 -29.646  10.945  0.00  0.00    +0.199 C 
ATOM      3  N   LIG    1       25.486 -29.959  11.303  0.00  0.00    -0.244 N 
ATOM      4  C   LIG    1       26.298 -29.163  12.052  0.00  0.00    +0.123 C 
ATOM      5  C   LIG    1       25.748 -28.192  12.836  0.00  0.00    -0.021 C 
ATOM      6  C   LIG    1       24.248 -27.929  12.944  0.00  0.00    +0.104 C 
ATOM      7  S   LIG    1       23.197 -29.350  12.483  0.00  0.00    -0.129 S 
ATOM      8  C   LIG    1       25.588 -31.044  10.512  0.00  0.00    +0.275 C 
ATOM      9  O   LIG    1       26.577 -31.663  10.179  0.00  0.00    -0.270 OA
ENDROOT
BRANCH   1  10
ATOM     10  N   LIG    1       23.203 -32.135  10.989  0.00  0.00    -0.276 N 
ATOM     11  H   LIG    1       23.697 -32.763  11.609  0.00  0.00    +0.152 HD
ATOM     12  C   LIG    1       21.831 -32.332  10.844  0.00  0.00    +0.239 C 
ATOM     13  O   LIG    1       21.194 -31.662  10.030  0.00  0.00    -0.274 OA
BRANCH  12  14
ATOM     14  C   LIG    1       21.225 -33.466  11.787  0.00  0.00    +0.200 C 
ATOM     15  S   LIG    1       19.456 -33.825  11.461  0.00  0.00    -0.093 S 
ATOM     16  C   LIG    1       19.420 -32.442  12.545  0.00  0.00    +0.063 C 
ATOM     17  C   LIG    1       18.585 -31.379  12.633  0.00  0.00    +0.140 C 
ATOM     18  S   LIG    1       20.814 -32.934  13.487  0.00  0.00    -0.093 S 
BRANCH  17  19
ATOM     19  C   LIG    1       17.443 -31.221  11.692  0.00  0.00    +0.250 C 
ATOM     20  O   LIG    1       16.291 -31.412  12.083  0.00  0.00    -0.270 OA
ATOM     21  N   LIG    1       17.663 -30.914  10.389  0.00  0.00    -0.325 N 
ATOM     22  H   LIG    1       16.866 -30.819   9.771  0.00  0.00    +0.145 HD
ATOM     23  H   LIG    1       18.582 -30.726  10.008  0.00  0.00    +0.145 HD
ENDBRANCH  17  19
BRANCH  17  24
ATOM     24  C   LIG    1       18.856 -30.327  13.656  0.00  0.00    +0.344 C 
ATOM     25  O   LIG    1       18.442 -30.340  14.805  0.00  0.00    -0.245 OA
BRANCH  24  26
ATOM     26  O   LIG    1       19.608 -29.290  13.212  0.00  0.00    -0.477 OA
ATOM     27  H   LIG    1       19.928 -28.676  13.917  0.00  0.00    +0.295 HD
ENDBRANCH  24  26
ENDBRANCH  17  24
ENDBRANCH  12  14
ENDBRANCH   1  10
BRANCH   1  29
ATOM     28  C   LIG    1       24.212 -29.999   8.029  0.00  0.00    +0.197 C 
ATOM     29  O   LIG    1       23.807 -31.096   8.815  0.00  0.00    -0.349 OA
ENDBRANCH   1  29
BRANCH   4  30
ATOM     30  C   LIG    1       27.802 -29.404  12.064  0.00  0.00    +0.351 C 
ATOM     31  O   LIG    1       28.373 -30.053  12.929  0.00  0.00    -0.244 OA
BRANCH  30  32
ATOM     32  O   LIG    1       28.526 -28.899  11.052  0.00  0.00    -0.476 OA
ATOM     33  H   LIG    1       28.075 -28.315  10.403  0.00  0.00    +0.295 HD
ENDBRANCH  30  32
ENDBRANCH   4  30
BRANCH   5  34
ATOM     34  C   LIG    1       26.541 -27.245  13.734  0.00  0.00    +0.111 C 
BRANCH  34  35
ATOM     35  S   LIG    1       25.463 -26.635  15.066  0.00  0.00    -0.080 S 
BRANCH  35  36
ATOM     36  C   LIG    1       25.896 -24.965  15.049  0.00  0.00    +0.209 A 
ATOM     37  N   LIG    1       27.162 -24.507  15.258  0.00  0.00    -0.223 N 
ATOM     38  C   LIG    1       28.372 -25.241  15.500  0.00  0.00    +0.177 C 
ATOM     39  N   LIG    1       27.170 -23.163  15.178  0.00  0.00    -0.043 NA
ATOM     40  N   LIG    1       25.911 -22.825  14.927  0.00  0.00    -0.022 NA
ATOM     41  N   LIG    1       25.105 -23.937  14.848  0.00  0.00    -0.102 NA
ENDBRANCH  35  36
ENDBRANCH  34  35
ENDBRANCH   5  34
TORSDOF 11
ENDMDL
MODEL 6
REMARK VINA RESULT:      -4.8      3.733      7.415
REMARK  Name = *****
REMARK                            x       y       z     vdW  Elec       q    Type
REMARK                         _______ _______ _______ _____ _____    ______ ____
ROOT
ATOM      1  C   LIG    1       25.096 -29.639  10.079  0.00  0.00    +0.242 C 
ATOM      2  C   LIG    1       23.658 -29.372  10.723  0.00  0.00    +0.199 C 
ATOM      3  N   LIG    1       24.320 -29.172  12.010  0.00  0.00    -0.244 N 
ATOM      4  C   LIG    1       23.680 -28.955  13.191  0.00  0.00    +0.123 C 
ATOM      5  C   LIG    1       22.362 -29.288  13.312  0.00  0.00    -0.021 C 
ATOM      6  C   LIG    1       21.533 -29.910  12.192  0.00  0.00    +0.104 C 
ATOM      7  S   LIG    1       22.515 -30.763  10.909  0.00  0.00    -0.129 S 
ATOM      8  C   LIG    1       25.568 -29.093  11.510  0.00  0.00    +0.275 C 
ATOM      9  O   LIG    1       26.589 -28.715  12.046  0.00  0.00    -0.270 OA
ENDROOT
BRANCH   1  10
ATOM     10  N   LIG    1       25.429 -31.070   9.727  0.00  0.00    -0.276 N 
ATOM     11  H   LIG    1       24.668 -31.732   9.661  0.00  0.00    +0.152 HD
ATOM     12  C   LIG    1       26.719 -31.561   9.526  0.00  0.00    +0.239 C 
ATOM     13  O   LIG    1       27.692 -30.825   9.690  0.00  0.00    -0.274 OA
BRANCH  12  14
ATOM     14  C   LIG    1       26.779 -33.095   9.098  0.00  0.00    +0.200 C 
ATOM     15  S   LIG    1       27.479 -33.364   7.423  0.00  0.00    -0.093 S 
ATOM     16  C   LIG    1       25.783 -33.007   7.128  0.00  0.00    +0.063 C 
ATOM     17  C   LIG    1       25.156 -32.350   6.124  0.00  0.00    +0.140 C 
ATOM     18  S   LIG    1       25.190 -33.823   8.561  0.00  0.00    -0.093 S 
BRANCH  17  19
ATOM     19  C   LIG    1       25.926 -31.761   4.994  0.00  0.00    +0.250 C 
ATOM     20  O   LIG    1       26.335 -32.482   4.084  0.00  0.00    -0.270 OA
ATOM     21  N   LIG    1       26.223 -30.438   4.981  0.00  0.00    -0.325 N 
ATOM     22  H   LIG    1       26.753 -30.066   4.202  0.00  0.00    +0.145 HD
ATOM     23  H   LIG    1       25.902 -29.787   5.688  0.00  0.00    +0.145 HD
ENDBRANCH  17  19
BRANCH  17  24
ATOM     24  C   LIG    1       23.676 -32.171   6.188  0.00  0.00    +0.344 C 
ATOM     25  O   LIG    1       22.878 -33.030   6.531  0.00  0.00    -0.245 OA
BRANCH  24  26
ATOM     26  O   LIG    1       23.240 -30.947   5.802  0.00  0.00    -0.477 OA
ATOM     27  H   LIG    1       22.848 -30.398   6.524  0.00  0.00    +0.295 HD
ENDBRANCH  24  26
ENDBRANCH  17  24
ENDBRANCH  12  14
ENDBRANCH   1  10
BRANCH   1  29
ATOM     28  C   LIG    1       25.146 -28.797   7.739  0.00  0.00    +0.197 C 
ATOM     29  O   LIG    1       25.544 -28.673   9.085  0.00  0.00    -0.349 OA
ENDBRANCH   1  29
BRANCH   4  30
ATOM     30  C   LIG    1       24.449 -28.408  14.387  0.00  0.00    +0.351 C 
ATOM     31  O   LIG    1       24.444 -27.229  14.710  0.00  0.00    -0.244 OA
BRANCH  30  32
ATOM     32  O   LIG    1       25.141 -29.281  15.138  0.00  0.00    -0.476 OA
ATOM     33  H   LIG    1       25.172 -29.138  16.109  0.00  0.00    +0.295 HD
ENDBRANCH  30  32
ENDBRANCH   4  30
BRANCH   5  34
ATOM     34  C   LIG    1       21.532 -29.112  14.581  0.00  0.00    +0.111 C 
BRANCH  34  35
ATOM     35  S   LIG    1       19.830 -29.673  14.271  0.00  0.00    -0.080 S 
BRANCH  35  36
ATOM     36  C   LIG    1       19.031 -28.147  14.185  0.00  0.00    +0.209 A 
ATOM     37  N   LIG    1       17.692 -27.979  14.371  0.00  0.00    -0.223 N 
ATOM     38  C   LIG    1       16.684 -28.952  14.686  0.00  0.00    +0.177 C 
ATOM     39  N   LIG    1       17.382 -26.676  14.243  0.00  0.00    -0.043 NA
ATOM     40  N   LIG    1       18.534 -26.071  13.979  0.00  0.00    -0.022 NA
ATOM     41  N   LIG    1       19.570 -26.976  13.936  0.00  0.00    -0.102 NA
ENDBRANCH  35  36
ENDBRANCH  34  35
ENDBRANCH   5  34
TORSDOF 11
ENDMDL
MODEL 7
REMARK VINA RESULT:      -4.7      3.126      5.195
REMARK  Name = *****
REMARK                            x       y       z     vdW  Elec       q    Type
REMARK                         _______ _______ _______ _____ _____    ______ ____
ROOT
ATOM      1  C   LIG    1       24.359 -32.573  11.609  0.00  0.00    +0.242 C 
ATOM      2  C   LIG    1       23.808 -31.924  10.257  0.00  0.00    +0.199 C 
ATOM      3  N   LIG    1       25.093 -32.236   9.635  0.00  0.00    -0.244 N 
ATOM      4  C   LIG    1       25.454 -31.885   8.371  0.00  0.00    +0.123 C 
ATOM      5  C   LIG    1       24.778 -30.886   7.733  0.00  0.00    -0.021 C 
ATOM      6  C   LIG    1       23.621 -30.107   8.353  0.00  0.00    +0.104 C 
ATOM      7  S   LIG    1       23.588 -30.129  10.179  0.00  0.00    -0.129 S 
ATOM      8  C   LIG    1       25.526 -33.047  10.619  0.00  0.00    +0.275 C 
ATOM      9  O   LIG    1       26.462 -33.820  10.623  0.00  0.00    -0.270 OA
ENDROOT
BRANCH   1  10
ATOM     10  N   LIG    1       24.726 -31.619  12.722  0.00  0.00    -0.276 N 
ATOM     11  H   LIG    1       24.359 -30.678  12.681  0.00  0.00    +0.152 HD
ATOM     12  C   LIG    1       25.572 -31.925  13.788  0.00  0.00    +0.239 C 
ATOM     13  O   LIG    1       26.128 -33.023  13.839  0.00  0.00    -0.274 OA
BRANCH  12  14
ATOM     14  C   LIG    1       25.734 -30.755  14.858  0.00  0.00    +0.200 C 
ATOM     15  S   LIG    1       25.490 -29.078  14.154  0.00  0.00    -0.093 S 
ATOM     16  C   LIG    1       27.174 -29.446  13.812  0.00  0.00    +0.063 C 
ATOM     17  C   LIG    1       27.978 -29.131  12.769  0.00  0.00    +0.140 C 
ATOM     18  S   LIG    1       27.456 -30.329  15.299  0.00  0.00    -0.093 S 
BRANCH  17  19
ATOM     19  C   LIG    1       27.467 -28.331  11.621  0.00  0.00    +0.250 C 
ATOM     20  O   LIG    1       27.422 -28.828  10.495  0.00  0.00    -0.270 OA
ATOM     21  N   LIG    1       27.094 -27.039  11.796  0.00  0.00    -0.325 N 
ATOM     22  H   LIG    1       26.756 -26.519  10.995  0.00  0.00    +0.145 HD
ATOM     23  H   LIG    1       27.088 -26.578  12.697  0.00  0.00    +0.145 HD
ENDBRANCH  17  19
BRANCH  17  24
ATOM     24  C   LIG    1       29.378 -29.644  12.752  0.00  0.00    +0.344 C 
ATOM     25  O   LIG    1       29.902 -30.288  13.648  0.00  0.00    -0.245 OA
BRANCH  24  26
ATOM     26  O   LIG    1       30.084 -29.321  11.640  0.00  0.00    -0.477 OA
ATOM     27  H   LIG    1       29.967 -28.391  11.329  0.00  0.00    +0.295 HD
ENDBRANCH  24  26
ENDBRANCH  17  24
ENDBRANCH  12  14
ENDBRANCH   1  10
BRANCH   1  29
ATOM     28  C   LIG    1       22.269 -33.825  12.107  0.00  0.00    +0.197 C 
ATOM     29  O   LIG    1       23.676 -33.773  12.071  0.00  0.00    -0.349 OA
ENDBRANCH   1  29
BRANCH   4  30
ATOM     30  C   LIG    1       26.647 -32.557   7.703  0.00  0.00    +0.351 C 
ATOM     31  O   LIG    1       26.549 -33.533   6.973  0.00  0.00    -0.244 OA
BRANCH  30  32
ATOM     32  O   LIG    1       27.862 -32.024   7.910  0.00  0.00    -0.476 OA
ATOM     33  H   LIG    1       28.464 -31.923   7.139  0.00  0.00    +0.295 HD
ENDBRANCH  30  32
ENDBRANCH   4  30
BRANCH   5  34
ATOM     34  C   LIG    1       25.090 -30.385   6.325  0.00  0.00    +0.111 C 
BRANCH  34  35
ATOM     35  S   LIG    1       24.036 -28.951   5.948  0.00  0.00    -0.080 S 
BRANCH  35  36
ATOM     36  C   LIG    1       25.252 -27.788   5.569  0.00  0.00    +0.209 A 
ATOM     37  N   LIG    1       25.090 -26.443   5.720  0.00  0.00    -0.223 N 
ATOM     38  C   LIG    1       23.961 -25.710   6.220  0.00  0.00    +0.177 C 
ATOM     39  N   LIG    1       26.216 -25.812   5.343  0.00  0.00    -0.043 NA
ATOM     40  N   LIG    1       27.044 -26.778   4.964  0.00  0.00    -0.022 NA
ATOM     41  N   LIG    1       26.455 -28.015   5.096  0.00  0.00    -0.102 NA
ENDBRANCH  35  36
ENDBRANCH  34  35
ENDBRANCH   5  34
TORSDOF 11
ENDMDL
MODEL 8
REMARK VINA RESULT:      -4.6      2.995      5.143
REMARK  Name = *****
REMARK                            x       y       z     vdW  Elec       q    Type
REMARK                         _______ _______ _______ _____ _____    ______ ____
ROOT
ATOM      1  C   LIG    1       22.400 -31.646  11.043  0.00  0.00    +0.242 C 
ATOM      2  C   LIG    1       22.855 -30.608   9.917  0.00  0.00    +0.199 C 
ATOM      3  N   LIG    1       23.200 -31.748   9.069  0.00  0.00    -0.244 N 
ATOM      4  C   LIG    1       23.784 -31.660   7.843  0.00  0.00    +0.123 C 
ATOM      5  C   LIG    1       24.433 -30.513   7.490  0.00  0.00    -0.021 C 
ATOM      6  C   LIG    1       24.561 -29.291   8.395  0.00  0.00    +0.104 C 
ATOM      7  S   LIG    1       24.366 -29.646  10.176  0.00  0.00    -0.129 S 
ATOM      8  C   LIG    1       22.581 -32.672   9.827  0.00  0.00    +0.275 C 
ATOM      9  O   LIG    1       22.305 -33.824   9.564  0.00  0.00    -0.270 OA
ENDROOT
BRANCH   1  10
ATOM     10  N   LIG    1       23.316 -31.800  12.236  0.00  0.00    -0.276 N 
ATOM     11  H   LIG    1       23.860 -32.649  12.310  0.00  0.00    +0.152 HD
ATOM     12  C   LIG    1       23.440 -30.873  13.270  0.00  0.00    +0.239 C 
ATOM     13  O   LIG    1       22.731 -29.866  13.285  0.00  0.00    -0.274 OA
BRANCH  12  14
ATOM     14  C   LIG    1       24.530 -31.255  14.369  0.00  0.00    +0.200 C 
ATOM     15  S   LIG    1       25.187 -29.808  15.286  0.00  0.00    -0.093 S 
ATOM     16  C   LIG    1       26.160 -29.868  13.823  0.00  0.00    +0.063 C 
ATOM     17  C   LIG    1       26.708 -28.895  13.057  0.00  0.00    +0.140 C 
ATOM     18  S   LIG    1       26.201 -31.617  13.723  0.00  0.00    -0.093 S 
BRANCH  17  19
ATOM     19  C   LIG    1       26.525 -27.457  13.398  0.00  0.00    +0.250 C 
ATOM     20  O   LIG    1       25.423 -26.926  13.262  0.00  0.00    -0.270 OA
ATOM     21  N   LIG    1       27.579 -26.710  13.812  0.00  0.00    -0.325 N 
ATOM     22  H   LIG    1       27.425 -25.733  14.031  0.00  0.00    +0.145 HD
ATOM     23  H   LIG    1       28.506 -27.088  13.963  0.00  0.00    +0.145 HD
ENDBRANCH  17  19
BRANCH  17  24
ATOM     24  C   LIG    1       27.457 -29.277  11.825  0.00  0.00    +0.344 C 
ATOM     25  O   LIG    1       27.605 -30.419  11.418  0.00  0.00    -0.245 OA
BRANCH  24  26
ATOM     26  O   LIG    1       28.015 -28.237  11.159  0.00  0.00    -0.477 OA
ATOM     27  H   LIG    1       27.557 -27.370  11.282  0.00  0.00    +0.295 HD
ENDBRANCH  24  26
ENDBRANCH  17  24
ENDBRANCH  12  14
ENDBRANCH   1  10
BRANCH   1  29
ATOM     28  C   LIG    1       20.094 -30.767  10.735  0.00  0.00    +0.197 C 
ATOM     29  O   LIG    1       20.986 -31.638  11.390  0.00  0.00    -0.349 OA
ENDBRANCH   1  29
BRANCH   4  30
ATOM     30  C   LIG    1       23.772 -32.859   6.904  0.00  0.00    +0.351 C 
ATOM     31  O   LIG    1       22.927 -33.026   6.036  0.00  0.00    -0.244 OA
BRANCH  30  32
ATOM     32  O   LIG    1       24.762 -33.759   7.024  0.00  0.00    -0.476 OA
ATOM     33  H   LIG    1       24.523 -34.710   7.082  0.00  0.00    +0.295 HD
ENDBRANCH  30  32
ENDBRANCH   4  30
BRANCH   5  34
ATOM     34  C   LIG    1       25.142 -30.290   6.156  0.00  0.00    +0.111 C 
BRANCH  34  35
ATOM     35  S   LIG    1       24.306 -28.956   5.245  0.00  0.00    -0.080 S 
BRANCH  35  36
ATOM     36  C   LIG    1       25.493 -27.713   5.393  0.00  0.00    +0.209 A 
ATOM     37  N   LIG    1       25.206 -26.425   5.730  0.00  0.00    -0.223 N 
ATOM     38  C   LIG    1       23.942 -25.825   6.050  0.00  0.00    +0.177 C 
ATOM     39  N   LIG    1       26.343 -25.707   5.764  0.00  0.00    -0.043 NA
ATOM     40  N   LIG    1       27.304 -26.566   5.444  0.00  0.00    -0.022 NA
ATOM     41  N   LIG    1       26.788 -27.819   5.206  0.00  0.00    -0.102 NA
ENDBRANCH  35  36
ENDBRANCH  34  35
ENDBRANCH   5  34
TORSDOF 11
ENDMDL
MODEL 9
REMARK VINA RESULT:      -4.0      4.305      9.339
REMARK  Name = *****
REMARK                            x       y       z     vdW  Elec       q    Type
REMARK                         _______ _______ _______ _____ _____    ______ ____
ROOT
ATOM      1  C   LIG    1       25.177 -26.777   5.837  0.00  0.00    +0.242 C 
ATOM      2  C   LIG    1       26.062 -27.476   6.967  0.00  0.00    +0.199 C 
ATOM      3  N   LIG    1       25.065 -28.543   7.027  0.00  0.00    -0.244 N 
ATOM      4  C   LIG    1       25.085 -29.583   7.904  0.00  0.00    +0.123 C 
ATOM      5  C   LIG    1       25.838 -29.488   9.038  0.00  0.00    -0.021 C 
ATOM      6  C   LIG    1       26.675 -28.267   9.409  0.00  0.00    +0.104 C 
ATOM      7  S   LIG    1       26.143 -26.714   8.607  0.00  0.00    -0.129 S 
ATOM      8  C   LIG    1       24.420 -28.187   5.900  0.00  0.00    +0.275 C 
ATOM      9  O   LIG    1       23.598 -28.806   5.256  0.00  0.00    -0.270 OA
ENDROOT
BRANCH   1  10
ATOM     10  N   LIG    1       24.403 -25.544   6.243  0.00  0.00    -0.276 N 
ATOM     11  H   LIG    1       23.408 -25.638   6.396  0.00  0.00    +0.152 HD
ATOM     12  C   LIG    1       24.952 -24.270   6.387  0.00  0.00    +0.239 C 
ATOM     13  O   LIG    1       26.138 -24.076   6.118  0.00  0.00    -0.274 OA
BRANCH  12  14
ATOM     14  C   LIG    1       23.923 -23.163   6.893  0.00  0.00    +0.200 C 
ATOM     15  S   LIG    1       23.853 -21.678   5.817  0.00  0.00    -0.093 S 
ATOM     16  C   LIG    1       25.216 -21.373   6.885  0.00  0.00    +0.063 C 
ATOM     17  C   LIG    1       26.398 -20.741   6.689  0.00  0.00    +0.140 C 
ATOM     18  S   LIG    1       24.501 -22.136   8.290  0.00  0.00    -0.093 S 
BRANCH  17  19
ATOM     19  C   LIG    1       26.744 -20.153   5.365  0.00  0.00    +0.250 C 
ATOM     20  O   LIG    1       25.865 -19.971   4.523  0.00  0.00    -0.270 OA
ATOM     21  N   LIG    1       28.032 -19.858   5.060  0.00  0.00    -0.325 N 
ATOM     22  H   LIG    1       28.237 -19.463   4.150  0.00  0.00    +0.145 HD
ATOM     23  H   LIG    1       28.798 -19.965   5.713  0.00  0.00    +0.145 HD
ENDBRANCH  17  19
BRANCH  17  24
ATOM     24  C   LIG    1       27.386 -20.688   7.806  0.00  0.00    +0.344 C 
ATOM     25  O   LIG    1       27.946 -19.678   8.202  0.00  0.00    -0.245 OA
BRANCH  24  26
ATOM     26  O   LIG    1       27.659 -21.889   8.374  0.00  0.00    -0.477 OA
ATOM     27  H   LIG    1       28.583 -21.990   8.709  0.00  0.00    +0.295 HD
ENDBRANCH  24  26
ENDBRANCH  17  24
ENDBRANCH  12  14
ENDBRANCH   1  10
BRANCH   1  29
ATOM     28  C   LIG    1       26.933 -27.426   4.199  0.00  0.00    +0.197 C 
ATOM     29  O   LIG    1       25.783 -26.676   4.516  0.00  0.00    -0.349 OA
ENDBRANCH   1  29
BRANCH   4  30
ATOM     30  C   LIG    1       24.220 -30.811   7.653  0.00  0.00    +0.351 C 
ATOM     31  O   LIG    1       24.503 -31.680   6.841  0.00  0.00    -0.244 OA
BRANCH  30  32
ATOM     32  O   LIG    1       23.105 -30.952   8.389  0.00  0.00    -0.476 OA
ATOM     33  H   LIG    1       23.119 -31.588   9.138  0.00  0.00    +0.295 HD
ENDBRANCH  30  32
ENDBRANCH   4  30
BRANCH   5  34
ATOM     34  C   LIG    1       25.936 -30.572  10.111  0.00  0.00    +0.111 C 
BRANCH  34  35
ATOM     35  S   LIG    1       25.762 -29.811  11.753  0.00  0.00    -0.080 S 
BRANCH  35  36
ATOM     36  C   LIG    1       27.410 -29.838  12.263  0.00  0.00    +0.209 A 
ATOM     37  N   LIG    1       27.802 -30.021  13.556  0.00  0.00    -0.223 N 
ATOM     38  C   LIG    1       27.005 -30.245  14.729  0.00  0.00    +0.177 C 
ATOM     39  N   LIG    1       29.145 -29.994  13.623  0.00  0.00    -0.043 NA
ATOM     40  N   LIG    1       29.550 -29.792  12.375  0.00  0.00    -0.022 NA
ATOM     41  N   LIG    1       28.479 -29.689  11.517  0.00  0.00    -0.102 NA
ENDBRANCH  35  36
ENDBRANCH  34  35
ENDBRANCH   5  34
TORSDOF 11
ENDMDL
