MODEL 1
REMARK VINA RESULT:      -2.7      0.000      0.000
REMARK  Name = *****
REMARK                            x       y       z     vdW  Elec       q    Type
REMARK                         _______ _______ _______ _____ _____    ______ ____
ROOT
ATOM      1  C   LIG    1       26.799 -17.415   3.935  0.00  0.00    +0.265 C 
ATOM      2  N   LIG    1       25.564 -17.981   3.660  0.00  0.00    -0.307 N 
ATOM      3  H   LIG    1       24.822 -17.313   3.472  0.00  0.00    +0.149 HD
ATOM      4  O   LIG    1       27.787 -18.076   4.233  0.00  0.00    -0.268 OA
ENDROOT
BRANCH   1  12
ATOM      5  C   LIG    1       28.607 -12.943   3.683  0.00  0.00    +0.173 C 
ATOM      6  N   LIG    1       27.587 -13.962   3.729  0.00  0.00    -0.266 N 
ATOM      7  C   LIG    1       26.228 -13.777   3.711  0.00  0.00    +0.069 A 
ATOM      8  C   LIG    1       25.688 -15.060   3.767  0.00  0.00    +0.032 A 
ATOM      9  C   LIG    1       24.284 -15.204   3.755  0.00  0.00    +0.012 A 
ATOM     10  C   LIG    1       23.473 -14.064   3.691  0.00  0.00    +0.001 A 
ATOM     11  C   LIG    1       24.039 -12.792   3.644  0.00  0.00    +0.002 A 
ATOM     12  C   LIG    1       26.812 -15.942   3.837  0.00  0.00    +0.155 A 
ATOM     13  C   LIG    1       25.428 -12.623   3.654  0.00  0.00    +0.028 A 
ATOM     14  N   LIG    1       27.973 -15.252   3.817  0.00  0.00    -0.166 NA
ENDBRANCH   1  12
BRANCH   2  15
ATOM     15  C   LIG    1       25.322 -19.420   3.690  0.00  0.00    +0.076 C 
ATOM     16  C   LIG    1       24.241 -19.877   2.695  0.00  0.00    +0.041 C 
ATOM     17  C   LIG    1       22.837 -20.114   3.279  0.00  0.00    +0.058 C 
ATOM     18  N   LIG    1       22.978 -20.960   4.471  0.00  0.00    -0.299 NA
ATOM     19  C   LIG    1       23.650 -20.207   5.536  0.00  0.00    +0.058 C 
ATOM     20  C   LIG    1       22.899 -18.927   5.937  0.00  0.00    +0.019 C 
ATOM     21  C   LIG    1       22.474 -18.041   4.771  0.00  0.00    +0.003 C 
ATOM     22  C   LIG    1       21.721 -21.572   4.896  0.00  0.00    +0.105 C 
ATOM     23  C   LIG    1       22.039 -18.826   3.540  0.00  0.00    +0.019 C 
ATOM     24  C   LIG    1       25.109 -19.961   5.113  0.00  0.00    +0.041 C 
ENDBRANCH   2  15
TORSDOF 2
ENDMDL
MODEL 2
REMARK VINA RESULT:      -1.8      1.513      6.866
REMARK  Name = *****
REMARK                            x       y       z     vdW  Elec       q    Type
REMARK                         _______ _______ _______ _____ _____    ______ ____
ROOT
ATOM      1  C   LIG    1       25.663 -17.958   3.391  0.00  0.00    +0.265 C 
ATOM      2  N   LIG    1       25.714 -16.572   3.417  0.00  0.00    -0.307 N 
ATOM      3  H   LIG    1       24.855 -16.121   3.719  0.00  0.00    +0.149 HD
ATOM      4  O   LIG    1       26.593 -18.655   3.004  0.00  0.00    -0.268 OA
ENDROOT
BRANCH   1  12
ATOM      5  C   LIG    1       20.886 -18.432   3.929  0.00  0.00    +0.173 C 
ATOM      6  N   LIG    1       22.282 -18.739   4.128  0.00  0.00    -0.266 N 
ATOM      7  C   LIG    1       22.809 -19.725   4.923  0.00  0.00    +0.069 A 
ATOM      8  C   LIG    1       24.190 -19.613   4.768  0.00  0.00    +0.032 A 
ATOM      9  C   LIG    1       25.023 -20.513   5.466  0.00  0.00    +0.012 A 
ATOM     10  C   LIG    1       24.449 -21.486   6.295  0.00  0.00    +0.001 A 
ATOM     11  C   LIG    1       23.067 -21.570   6.438  0.00  0.00    +0.002 A 
ATOM     12  C   LIG    1       24.383 -18.514   3.874  0.00  0.00    +0.155 A 
ATOM     13  C   LIG    1       22.218 -20.690   5.756  0.00  0.00    +0.028 A 
ATOM     14  N   LIG    1       23.201 -17.984   3.492  0.00  0.00    -0.166 NA
ENDBRANCH   1  12
BRANCH   2  15
ATOM     15  C   LIG    1       26.883 -15.810   2.993  0.00  0.00    +0.076 C 
ATOM     16  C   LIG    1       27.843 -15.473   4.147  0.00  0.00    +0.041 C 
ATOM     17  C   LIG    1       27.728 -14.055   4.734  0.00  0.00    +0.058 C 
ATOM     18  N   LIG    1       27.742 -13.100   3.619  0.00  0.00    -0.299 NA
ATOM     19  C   LIG    1       26.506 -13.229   2.840  0.00  0.00    +0.058 C 
ATOM     20  C   LIG    1       25.238 -12.982   3.672  0.00  0.00    +0.019 C 
ATOM     21  C   LIG    1       25.180 -13.742   4.994  0.00  0.00    +0.003 C 
ATOM     22  C   LIG    1       28.023 -11.728   4.038  0.00  0.00    +0.105 C 
ATOM     23  C   LIG    1       26.534 -13.863   5.683  0.00  0.00    +0.019 C 
ATOM     24  C   LIG    1       26.521 -14.593   2.126  0.00  0.00    +0.041 C 
ENDBRANCH   2  15
TORSDOF 2
ENDMDL
MODEL 3
REMARK VINA RESULT:      -1.5      1.693      6.361
REMARK  Name = *****
REMARK                            x       y       z     vdW  Elec       q    Type
REMARK                         _______ _______ _______ _____ _____    ______ ____
ROOT
ATOM      1  C   LIG    1       26.173 -17.811   3.459  0.00  0.00    +0.265 C 
ATOM      2  N   LIG    1       26.532 -16.638   4.105  0.00  0.00    -0.307 N 
ATOM      3  H   LIG    1       26.465 -16.672   5.118  0.00  0.00    +0.149 HD
ATOM      4  O   LIG    1       26.148 -17.924   2.239  0.00  0.00    -0.268 OA
ENDROOT
BRANCH   1  12
ATOM      5  C   LIG    1       26.816 -21.339   6.697  0.00  0.00    +0.173 C 
ATOM      6  N   LIG    1       26.085 -20.473   5.803  0.00  0.00    -0.266 N 
ATOM      7  C   LIG    1       24.736 -20.487   5.554  0.00  0.00    +0.069 A 
ATOM      8  C   LIG    1       24.529 -19.463   4.632  0.00  0.00    +0.032 A 
ATOM      9  C   LIG    1       23.215 -19.217   4.178  0.00  0.00    +0.012 A 
ATOM     10  C   LIG    1       22.160 -20.004   4.658  0.00  0.00    +0.001 A 
ATOM     11  C   LIG    1       22.396 -21.026   5.573  0.00  0.00    +0.002 A 
ATOM     12  C   LIG    1       25.824 -18.912   4.379  0.00  0.00    +0.155 A 
ATOM     13  C   LIG    1       23.689 -21.289   6.039  0.00  0.00    +0.028 A 
ATOM     14  N   LIG    1       26.772 -19.546   5.103  0.00  0.00    -0.166 NA
ENDBRANCH   1  12
BRANCH   2  15
ATOM     15  C   LIG    1       26.922 -15.424   3.394  0.00  0.00    +0.076 C 
ATOM     16  C   LIG    1       27.225 -14.241   4.330  0.00  0.00    +0.041 C 
ATOM     17  C   LIG    1       26.100 -13.204   4.500  0.00  0.00    +0.058 C 
ATOM     18  N   LIG    1       25.622 -12.830   3.163  0.00  0.00    -0.299 NA
ATOM     19  C   LIG    1       24.927 -13.966   2.550  0.00  0.00    +0.058 C 
ATOM     20  C   LIG    1       23.724 -14.456   3.373  0.00  0.00    +0.019 C 
ATOM     21  C   LIG    1       24.009 -14.674   4.855  0.00  0.00    +0.003 C 
ATOM     22  C   LIG    1       24.839 -11.596   3.156  0.00  0.00    +0.105 C 
ATOM     23  C   LIG    1       24.972 -13.651   5.445  0.00  0.00    +0.019 C 
ATOM     24  C   LIG    1       25.960 -15.066   2.250  0.00  0.00    +0.041 C 
ENDBRANCH   2  15
TORSDOF 2
ENDMDL
MODEL 4
REMARK VINA RESULT:      -1.2      2.107      6.960
REMARK  Name = *****
REMARK                            x       y       z     vdW  Elec       q    Type
REMARK                         _______ _______ _______ _____ _____    ______ ____
ROOT
ATOM      1  C   LIG    1       22.942 -15.837   4.690  0.00  0.00    +0.265 C 
ATOM      2  N   LIG    1       23.960 -15.260   3.946  0.00  0.00    -0.307 N 
ATOM      3  H   LIG    1       24.446 -15.899   3.323  0.00  0.00    +0.149 HD
ATOM      4  O   LIG    1       22.291 -15.221   5.526  0.00  0.00    -0.268 OA
ENDROOT
BRANCH   1  12
ATOM      5  C   LIG    1       20.523 -19.969   4.048  0.00  0.00    +0.173 C 
ATOM      6  N   LIG    1       21.670 -19.096   4.098  0.00  0.00    -0.266 N 
ATOM      7  C   LIG    1       22.979 -19.433   3.862  0.00  0.00    +0.069 A 
ATOM      8  C   LIG    1       23.692 -18.247   4.027  0.00  0.00    +0.032 A 
ATOM      9  C   LIG    1       25.090 -18.266   3.838  0.00  0.00    +0.012 A 
ATOM     10  C   LIG    1       25.724 -19.468   3.496  0.00  0.00    +0.001 A 
ATOM     11  C   LIG    1       24.989 -20.640   3.345  0.00  0.00    +0.002 A 
ATOM     12  C   LIG    1       22.716 -17.263   4.382  0.00  0.00    +0.155 A 
ATOM     13  C   LIG    1       23.601 -20.647   3.526  0.00  0.00    +0.028 A 
ATOM     14  N   LIG    1       21.478 -17.802   4.426  0.00  0.00    -0.166 NA
ENDBRANCH   1  12
BRANCH   2  15
ATOM     15  C   LIG    1       24.350 -13.861   4.081  0.00  0.00    +0.076 C 
ATOM     16  C   LIG    1       24.886 -13.250   2.775  0.00  0.00    +0.041 C 
ATOM     17  C   LIG    1       26.418 -13.166   2.642  0.00  0.00    +0.058 C 
ATOM     18  N   LIG    1       26.946 -12.560   3.871  0.00  0.00    -0.299 NA
ATOM     19  C   LIG    1       26.768 -13.485   4.995  0.00  0.00    +0.058 C 
ATOM     20  C   LIG    1       27.467 -14.838   4.783  0.00  0.00    +0.019 C 
ATOM     21  C   LIG    1       27.195 -15.495   3.434  0.00  0.00    +0.003 C 
ATOM     22  C   LIG    1       28.317 -12.074   3.730  0.00  0.00    +0.105 C 
ATOM     23  C   LIG    1       27.091 -14.500   2.284  0.00  0.00    +0.019 C 
ATOM     24  C   LIG    1       25.262 -13.608   5.292  0.00  0.00    +0.041 C 
ENDBRANCH   2  15
TORSDOF 2
ENDMDL
MODEL 5
REMARK VINA RESULT:       0.2      1.206      2.276
REMARK  Name = *****
REMARK                            x       y       z     vdW  Elec       q    Type
REMARK                         _______ _______ _______ _____ _____    ______ ____
ROOT
ATOM      1  C   LIG    1       26.397 -16.968   3.556  0.00  0.00    +0.265 C 
ATOM      2  N   LIG    1       25.229 -17.703   3.420  0.00  0.00    -0.307 N 
ATOM      3  H   LIG    1       24.403 -17.152   3.206  0.00  0.00    +0.149 HD
ATOM      4  O   LIG    1       27.472 -17.470   3.863  0.00  0.00    -0.268 OA
ENDROOT
BRANCH   1  12
ATOM      5  C   LIG    1       24.234 -12.878   2.168  0.00  0.00    +0.173 C 
ATOM      6  N   LIG    1       25.292 -13.711   2.687  0.00  0.00    -0.266 N 
ATOM      7  C   LIG    1       26.541 -13.311   3.090  0.00  0.00    +0.069 A 
ATOM      8  C   LIG    1       27.176 -14.478   3.510  0.00  0.00    +0.032 A 
ATOM      9  C   LIG    1       28.496 -14.391   3.999  0.00  0.00    +0.012 A 
ATOM     10  C   LIG    1       29.135 -13.145   4.046  0.00  0.00    +0.001 A 
ATOM     11  C   LIG    1       28.481 -11.996   3.613  0.00  0.00    +0.002 A 
ATOM     12  C   LIG    1       26.224 -15.525   3.297  0.00  0.00    +0.155 A 
ATOM     13  C   LIG    1       27.170 -12.055   3.125  0.00  0.00    +0.028 A 
ATOM     14  N   LIG    1       25.073 -15.038   2.786  0.00  0.00    -0.166 NA
ENDBRANCH   1  12
BRANCH   2  15
ATOM     15  C   LIG    1       25.168 -19.146   3.622  0.00  0.00    +0.076 C 
ATOM     16  C   LIG    1       24.140 -19.846   2.714  0.00  0.00    +0.041 C 
ATOM     17  C   LIG    1       22.783 -20.181   3.358  0.00  0.00    +0.058 C 
ATOM     18  N   LIG    1       23.042 -20.858   4.635  0.00  0.00    -0.299 NA
ATOM     19  C   LIG    1       23.627 -19.909   5.588  0.00  0.00    +0.058 C 
ATOM     20  C   LIG    1       22.729 -18.691   5.859  0.00  0.00    +0.019 C 
ATOM     21  C   LIG    1       22.184 -18.007   4.610  0.00  0.00    +0.003 C 
ATOM     22  C   LIG    1       21.875 -21.564   5.160  0.00  0.00    +0.105 C 
ATOM     23  C   LIG    1       21.835 -18.978   3.489  0.00  0.00    +0.019 C 
ATOM     24  C   LIG    1       25.040 -19.539   5.102  0.00  0.00    +0.041 C 
ENDBRANCH   2  15
TORSDOF 2
ENDMDL
