MODEL 1
REMARK VINA RESULT:      -7.8      0.000      0.000
REMARK  Name = *****
REMARK                            x       y       z     vdW  Elec       q    Type
REMARK                         _______ _______ _______ _____ _____    ______ ____
ROOT
ATOM      1  C   LIG    1       24.627 -22.464   5.909  0.00  0.00    +0.065 C 
ATOM      2  C   LIG    1       25.423 -21.292   5.304  0.00  0.00    +0.096 C 
ATOM      3  C   LIG    1       24.511 -20.201   4.734  0.00  0.00    +0.065 C 
ATOM      4  C   LIG    1       23.234 -20.106   5.166  0.00  0.00    +0.016 C 
ATOM      5  C   LIG    1       22.249 -19.042   4.756  0.00  0.00    +0.061 C 
ATOM      6  N   LIG    1       22.736 -21.051   6.052  0.00  0.00    -0.321 N 
ATOM      7  H   LIG    1       21.731 -21.011   6.214  0.00  0.00    +0.152 HD
ATOM      8  C   LIG    1       23.329 -22.290   6.263  0.00  0.00    +0.016 C 
ATOM      9  C   LIG    1       22.389 -23.335   6.816  0.00  0.00    +0.061 C 
ENDROOT
BRANCH   2  10
ATOM     10  C   LIG    1       26.417 -20.701   6.323  0.00  0.00    -0.029 A 
ATOM     11  C   LIG    1       27.677 -20.227   5.913  0.00  0.00    +0.088 A 
ATOM     12  C   LIG    1       28.606 -19.775   6.862  0.00  0.00    +0.273 A 
ATOM     13  C   LIG    1       28.288 -19.761   8.224  0.00  0.00    +0.084 A 
ATOM     14  C   LIG    1       27.033 -20.208   8.636  0.00  0.00    +0.007 A 
ATOM     15  C   LIG    1       26.106 -20.672   7.695  0.00  0.00    +0.005 A 
BRANCH  12  16
ATOM     16  N   LIG    1       29.937 -19.340   6.421  0.00  0.00    +0.080 N 
ATOM     17  O   LIG    1       30.922 -19.930   6.890  0.00  0.00    -0.576 OA
ATOM     18  O   LIG    1       30.001 -18.405   5.611  0.00  0.00    +0.041 OA
ENDBRANCH  12  16
ENDBRANCH   2  10
BRANCH   1  19
ATOM     19  C   LIG    1       25.396 -23.734   5.927  0.00  0.00    +0.338 C 
ATOM     20  O   LIG    1       26.194 -24.003   6.814  0.00  0.00    -0.245 OA
BRANCH  19  21
ATOM     21  O   LIG    1       25.107 -24.539   4.882  0.00  0.00    -0.459 OA
BRANCH  21  22
ATOM     22  C   LIG    1       25.440 -25.925   5.035  0.00  0.00    +0.260 C 
BRANCH  22  23
ATOM     23  C   LIG    1       24.302 -26.755   5.640  0.00  0.00    +0.200 C 
BRANCH  23  25
ATOM     24  C   LIG    1       24.239 -29.059   6.227  0.00  0.00    +0.194 C 
ATOM     25  O   LIG    1       24.291 -28.104   5.174  0.00  0.00    -0.380 OA
ENDBRANCH  23  25
ENDBRANCH  22  23
ENDBRANCH  21  22
ENDBRANCH  19  21
ENDBRANCH   1  19
BRANCH   3  26
ATOM     26  C   LIG    1       25.037 -19.361   3.619  0.00  0.00    +0.338 C 
ATOM     27  O   LIG    1       25.443 -19.804   2.570  0.00  0.00    -0.245 OA
BRANCH  26  28
ATOM     28  O   LIG    1       25.060 -18.033   3.971  0.00  0.00    -0.459 OA
BRANCH  28  29
ATOM     29  C   LIG    1       25.992 -17.206   3.252  0.00  0.00    +0.171 C 
ATOM     30  C   LIG    1       27.358 -17.359   3.912  0.00  0.00    +0.051 C 
ATOM     31  C   LIG    1       25.538 -15.752   3.302  0.00  0.00    +0.051 C 
ENDBRANCH  28  29
ENDBRANCH  26  28
ENDBRANCH   3  26
TORSDOF 10
ENDMDL
MODEL 2
REMARK VINA RESULT:      -7.6      2.322      5.817
REMARK  Name = *****
REMARK                            x       y       z     vdW  Elec       q    Type
REMARK                         _______ _______ _______ _____ _____    ______ ____
ROOT
ATOM      1  C   LIG    1       26.092 -20.661   6.678  0.00  0.00    +0.065 C 
ATOM      2  C   LIG    1       24.606 -20.991   6.443  0.00  0.00    +0.096 C 
ATOM      3  C   LIG    1       24.067 -20.369   5.151  0.00  0.00    +0.065 C 
ATOM      4  C   LIG    1       24.928 -20.016   4.171  0.00  0.00    +0.016 C 
ATOM      5  C   LIG    1       24.541 -19.468   2.823  0.00  0.00    +0.061 C 
ATOM      6  N   LIG    1       26.295 -20.137   4.381  0.00  0.00    -0.321 N 
ATOM      7  H   LIG    1       26.885 -19.711   3.667  0.00  0.00    +0.152 HD
ATOM      8  C   LIG    1       26.869 -20.259   5.641  0.00  0.00    +0.016 C 
ATOM      9  C   LIG    1       28.321 -19.846   5.698  0.00  0.00    +0.061 C 
ENDROOT
BRANCH   2  10
ATOM     10  C   LIG    1       24.357 -22.512   6.466  0.00  0.00    -0.029 A 
ATOM     11  C   LIG    1       25.324 -23.412   5.982  0.00  0.00    +0.088 A 
ATOM     12  C   LIG    1       25.048 -24.786   5.926  0.00  0.00    +0.273 A 
ATOM     13  C   LIG    1       23.821 -25.287   6.373  0.00  0.00    +0.084 A 
ATOM     14  C   LIG    1       22.866 -24.405   6.875  0.00  0.00    +0.007 A 
ATOM     15  C   LIG    1       23.131 -23.031   6.922  0.00  0.00    +0.005 A 
BRANCH  12  16
ATOM     16  N   LIG    1       26.046 -25.703   5.362  0.00  0.00    +0.080 N 
ATOM     17  O   LIG    1       27.019 -26.005   6.070  0.00  0.00    -0.576 OA
ATOM     18  O   LIG    1       25.864 -26.118   4.209  0.00  0.00    +0.041 OA
ENDBRANCH  12  16
ENDBRANCH   2  10
BRANCH   1  19
ATOM     19  C   LIG    1       26.477 -20.723   8.110  0.00  0.00    +0.338 C 
ATOM     20  O   LIG    1       25.672 -20.987   8.993  0.00  0.00    -0.245 OA
BRANCH  19  21
ATOM     21  O   LIG    1       27.787 -20.471   8.315  0.00  0.00    -0.459 OA
BRANCH  21  22
ATOM     22  C   LIG    1       28.651 -21.613   8.394  0.00  0.00    +0.260 C 
BRANCH  22  23
ATOM     23  C   LIG    1       30.137 -21.241   8.437  0.00  0.00    +0.200 C 
BRANCH  23  25
ATOM     24  C   LIG    1       31.257 -19.179   8.049  0.00  0.00    +0.194 C 
ATOM     25  O   LIG    1       30.363 -19.905   8.884  0.00  0.00    -0.380 OA
ENDBRANCH  23  25
ENDBRANCH  22  23
ENDBRANCH  21  22
ENDBRANCH  19  21
ENDBRANCH   1  19
BRANCH   3  26
ATOM     26  C   LIG    1       22.610 -20.055   5.080  0.00  0.00    +0.338 C 
ATOM     27  O   LIG    1       21.765 -20.839   4.716  0.00  0.00    -0.245 OA
BRANCH  26  28
ATOM     28  O   LIG    1       22.372 -18.744   5.415  0.00  0.00    -0.459 OA
BRANCH  28  29
ATOM     29  C   LIG    1       22.193 -17.834   4.315  0.00  0.00    +0.171 C 
ATOM     30  C   LIG    1       22.200 -16.416   4.875  0.00  0.00    +0.051 C 
ATOM     31  C   LIG    1       20.870 -18.123   3.615  0.00  0.00    +0.051 C 
ENDBRANCH  28  29
ENDBRANCH  26  28
ENDBRANCH   3  26
TORSDOF 10
ENDMDL
MODEL 3
REMARK VINA RESULT:      -6.2      2.074      6.386
REMARK  Name = *****
REMARK                            x       y       z     vdW  Elec       q    Type
REMARK                         _______ _______ _______ _____ _____    ______ ____
ROOT
ATOM      1  C   LIG    1       24.354 -21.231   5.331  0.00  0.00    +0.065 C 
ATOM      2  C   LIG    1       25.497 -22.073   5.927  0.00  0.00    +0.096 C 
ATOM      3  C   LIG    1       25.997 -21.515   7.263  0.00  0.00    +0.065 C 
ATOM      4  C   LIG    1       25.195 -20.706   7.990  0.00  0.00    +0.016 C 
ATOM      5  C   LIG    1       25.518 -20.147   9.351  0.00  0.00    +0.061 C 
ATOM      6  N   LIG    1       23.965 -20.315   7.477  0.00  0.00    -0.321 N 
ATOM      7  H   LIG    1       23.485 -19.587   8.002  0.00  0.00    +0.152 HD
ATOM      8  C   LIG    1       23.637 -20.401   6.129  0.00  0.00    +0.016 C 
ATOM      9  C   LIG    1       22.525 -19.468   5.708  0.00  0.00    +0.061 C 
ENDROOT
BRANCH   2  10
ATOM     10  C   LIG    1       25.092 -23.553   6.066  0.00  0.00    -0.029 A 
ATOM     11  C   LIG    1       25.991 -24.584   5.735  0.00  0.00    +0.088 A 
ATOM     12  C   LIG    1       25.580 -25.924   5.780  0.00  0.00    +0.273 A 
ATOM     13  C   LIG    1       24.283 -26.261   6.181  0.00  0.00    +0.084 A 
ATOM     14  C   LIG    1       23.393 -25.247   6.533  0.00  0.00    +0.007 A 
ATOM     15  C   LIG    1       23.794 -23.907   6.477  0.00  0.00    +0.005 A 
BRANCH  12  16
ATOM     16  N   LIG    1       26.513 -26.982   5.373  0.00  0.00    +0.080 N 
ATOM     17  O   LIG    1       26.035 -28.074   5.030  0.00  0.00    -0.576 OA
ATOM     18  O   LIG    1       27.725 -26.726   5.400  0.00  0.00    +0.041 OA
ENDBRANCH  12  16
ENDBRANCH   2  10
BRANCH   1  19
ATOM     19  C   LIG    1       24.250 -21.362   3.856  0.00  0.00    +0.338 C 
ATOM     20  O   LIG    1       24.097 -22.443   3.304  0.00  0.00    -0.245 OA
BRANCH  19  21
ATOM     21  O   LIG    1       24.329 -20.176   3.214  0.00  0.00    -0.459 OA
BRANCH  21  22
ATOM     22  C   LIG    1       25.493 -19.383   3.482  0.00  0.00    +0.260 C 
BRANCH  22  23
ATOM     23  C   LIG    1       25.217 -17.876   3.443  0.00  0.00    +0.200 C 
BRANCH  23  25
ATOM     24  C   LIG    1       26.236 -15.727   3.386  0.00  0.00    +0.194 C 
ATOM     25  O   LIG    1       26.366 -17.111   3.081  0.00  0.00    -0.380 OA
ENDBRANCH  23  25
ENDBRANCH  22  23
ENDBRANCH  21  22
ENDBRANCH  19  21
ENDBRANCH   1  19
BRANCH   3  26
ATOM     26  C   LIG    1       27.412 -21.787   7.651  0.00  0.00    +0.338 C 
ATOM     27  O   LIG    1       27.741 -22.312   8.688  0.00  0.00    -0.245 OA
BRANCH  26  28
ATOM     28  O   LIG    1       28.283 -21.302   6.705  0.00  0.00    -0.459 OA
BRANCH  28  29
ATOM     29  C   LIG    1       28.741 -19.953   6.904  0.00  0.00    +0.171 C 
ATOM     30  C   LIG    1       28.576 -19.205   5.585  0.00  0.00    +0.051 C 
ATOM     31  C   LIG    1       30.205 -19.962   7.330  0.00  0.00    +0.051 C 
ENDBRANCH  28  29
ENDBRANCH  26  28
ENDBRANCH   3  26
TORSDOF 10
ENDMDL
MODEL 4
REMARK VINA RESULT:      -6.0      5.814     10.981
REMARK  Name = *****
REMARK                            x       y       z     vdW  Elec       q    Type
REMARK                         _______ _______ _______ _____ _____    ______ ____
ROOT
ATOM      1  C   LIG    1       24.953 -29.482   7.470  0.00  0.00    +0.065 C 
ATOM      2  C   LIG    1       24.429 -29.654   8.908  0.00  0.00    +0.096 C 
ATOM      3  C   LIG    1       23.646 -30.958   9.092  0.00  0.00    +0.065 C 
ATOM      4  C   LIG    1       23.845 -31.982   8.231  0.00  0.00    +0.016 C 
ATOM      5  C   LIG    1       23.209 -33.344   8.331  0.00  0.00    +0.061 C 
ATOM      6  N   LIG    1       24.684 -31.809   7.139  0.00  0.00    -0.321 N 
ATOM      7  H   LIG    1       24.666 -32.561   6.451  0.00  0.00    +0.152 HD
ATOM      8  C   LIG    1       25.066 -30.562   6.657  0.00  0.00    +0.016 C 
ATOM      9  C   LIG    1       25.507 -30.572   5.211  0.00  0.00    +0.061 C 
ENDROOT
BRANCH   2  10
ATOM     10  C   LIG    1       25.568 -29.546   9.940  0.00  0.00    -0.029 A 
ATOM     11  C   LIG    1       25.437 -28.732  11.080  0.00  0.00    +0.088 A 
ATOM     12  C   LIG    1       26.515 -28.573  11.964  0.00  0.00    +0.273 A 
ATOM     13  C   LIG    1       27.725 -29.239  11.743  0.00  0.00    +0.084 A 
ATOM     14  C   LIG    1       27.855 -30.066  10.628  0.00  0.00    +0.007 A 
ATOM     15  C   LIG    1       26.787 -30.218   9.735  0.00  0.00    +0.005 A 
BRANCH  12  16
ATOM     16  N   LIG    1       26.380 -27.673  13.115  0.00  0.00    +0.080 N 
ATOM     17  O   LIG    1       27.162 -27.827  14.065  0.00  0.00    -0.576 OA
ATOM     18  O   LIG    1       25.488 -26.814  13.076  0.00  0.00    +0.041 OA
ENDBRANCH  12  16
ENDBRANCH   2  10
BRANCH   1  19
ATOM     19  C   LIG    1       25.177 -28.061   7.104  0.00  0.00    +0.338 C 
ATOM     20  O   LIG    1       26.205 -27.465   7.396  0.00  0.00    -0.245 OA
BRANCH  19  21
ATOM     21  O   LIG    1       24.145 -27.525   6.419  0.00  0.00    -0.459 OA
BRANCH  21  22
ATOM     22  C   LIG    1       24.453 -26.409   5.572  0.00  0.00    +0.260 C 
BRANCH  22  23
ATOM     23  C   LIG    1       24.398 -25.064   6.304  0.00  0.00    +0.200 C 
BRANCH  23  25
ATOM     24  C   LIG    1       22.906 -23.272   6.776  0.00  0.00    +0.194 C 
ATOM     25  O   LIG    1       23.070 -24.680   6.661  0.00  0.00    -0.380 OA
ENDBRANCH  23  25
ENDBRANCH  22  23
ENDBRANCH  21  22
ENDBRANCH  19  21
ENDBRANCH   1  19
BRANCH   3  26
ATOM     26  C   LIG    1       22.593 -31.001  10.147  0.00  0.00    +0.338 C 
ATOM     27  O   LIG    1       21.409 -30.903   9.926  0.00  0.00    -0.245 OA
BRANCH  26  28
ATOM     28  O   LIG    1       23.152 -31.097  11.398  0.00  0.00    -0.459 OA
BRANCH  28  29
ATOM     29  C   LIG    1       23.746 -32.365  11.728  0.00  0.00    +0.171 C 
ATOM     30  C   LIG    1       22.716 -33.176  12.505  0.00  0.00    +0.051 C 
ATOM     31  C   LIG    1       24.997 -32.146  12.572  0.00  0.00    +0.051 C 
ENDBRANCH  28  29
ENDBRANCH  26  28
ENDBRANCH   3  26
TORSDOF 10
ENDMDL
MODEL 5
REMARK VINA RESULT:      -5.9      5.963     11.073
REMARK  Name = *****
REMARK                            x       y       z     vdW  Elec       q    Type
REMARK                         _______ _______ _______ _____ _____    ______ ____
ROOT
ATOM      1  C   LIG    1       25.133 -29.699   7.729  0.00  0.00    +0.065 C 
ATOM      2  C   LIG    1       24.589 -29.868   9.159  0.00  0.00    +0.096 C 
ATOM      3  C   LIG    1       23.934 -31.236   9.377  0.00  0.00    +0.065 C 
ATOM      4  C   LIG    1       24.256 -32.266   8.563  0.00  0.00    +0.016 C 
ATOM      5  C   LIG    1       23.756 -33.680   8.702  0.00  0.00    +0.061 C 
ATOM      6  N   LIG    1       25.104 -32.052   7.485  0.00  0.00    -0.321 N 
ATOM      7  H   LIG    1       25.180 -32.827   6.828  0.00  0.00    +0.152 HD
ATOM      8  C   LIG    1       25.374 -30.792   6.963  0.00  0.00    +0.016 C 
ATOM      9  C   LIG    1       25.854 -30.812   5.530  0.00  0.00    +0.061 C 
ENDROOT
BRANCH   2  10
ATOM     10  C   LIG    1       25.683 -29.609  10.213  0.00  0.00    -0.029 A 
ATOM     11  C   LIG    1       25.413 -28.846  11.364  0.00  0.00    +0.088 A 
ATOM     12  C   LIG    1       26.441 -28.542  12.269  0.00  0.00    +0.273 A 
ATOM     13  C   LIG    1       27.741 -29.013  12.059  0.00  0.00    +0.084 A 
ATOM     14  C   LIG    1       28.011 -29.789  10.933  0.00  0.00    +0.007 A 
ATOM     15  C   LIG    1       26.993 -30.085  10.020  0.00  0.00    +0.005 A 
BRANCH  12  16
ATOM     16  N   LIG    1       26.153 -27.694  13.433  0.00  0.00    +0.080 N 
ATOM     17  O   LIG    1       25.075 -27.082  13.451  0.00  0.00    -0.576 OA
ATOM     18  O   LIG    1       27.008 -27.632  14.328  0.00  0.00    +0.041 OA
ENDBRANCH  12  16
ENDBRANCH   2  10
BRANCH   1  19
ATOM     19  C   LIG    1       25.226 -28.278   7.312  0.00  0.00    +0.338 C 
ATOM     20  O   LIG    1       26.128 -27.542   7.689  0.00  0.00    -0.245 OA
BRANCH  19  21
ATOM     21  O   LIG    1       24.230 -27.907   6.479  0.00  0.00    -0.459 OA
BRANCH  21  22
ATOM     22  C   LIG    1       24.623 -27.231   5.277  0.00  0.00    +0.260 C 
BRANCH  22  23
ATOM     23  C   LIG    1       24.321 -25.729   5.305  0.00  0.00    +0.200 C 
BRANCH  23  25
ATOM     24  C   LIG    1       23.587 -23.958   6.714  0.00  0.00    +0.194 C 
ATOM     25  O   LIG    1       23.508 -25.346   6.414  0.00  0.00    -0.380 OA
ENDBRANCH  23  25
ENDBRANCH  22  23
ENDBRANCH  21  22
ENDBRANCH  19  21
ENDBRANCH   1  19
BRANCH   3  26
ATOM     26  C   LIG    1       22.861 -31.344  10.408  0.00  0.00    +0.338 C 
ATOM     27  O   LIG    1       23.060 -31.631  11.565  0.00  0.00    -0.245 OA
BRANCH  26  28
ATOM     28  O   LIG    1       21.622 -31.141   9.851  0.00  0.00    -0.459 OA
BRANCH  28  29
ATOM     29  C   LIG    1       20.526 -31.824  10.486  0.00  0.00    +0.171 C 
ATOM     30  C   LIG    1       20.382 -33.191   9.826  0.00  0.00    +0.051 C 
ATOM     31  C   LIG    1       19.245 -31.015  10.317  0.00  0.00    +0.051 C 
ENDBRANCH  28  29
ENDBRANCH  26  28
ENDBRANCH   3  26
TORSDOF 10
ENDMDL
MODEL 6
REMARK VINA RESULT:      -5.2      6.614     10.675
REMARK  Name = *****
REMARK                            x       y       z     vdW  Elec       q    Type
REMARK                         _______ _______ _______ _____ _____    ______ ____
ROOT
ATOM      1  C   LIG    1       25.467 -30.134  10.233  0.00  0.00    +0.065 C 
ATOM      2  C   LIG    1       24.594 -29.353  11.233  0.00  0.00    +0.096 C 
ATOM      3  C   LIG    1       23.411 -30.181  11.746  0.00  0.00    +0.065 C 
ATOM      4  C   LIG    1       23.463 -31.530  11.678  0.00  0.00    +0.016 C 
ATOM      5  C   LIG    1       22.416 -32.473  12.209  0.00  0.00    +0.061 C 
ATOM      6  N   LIG    1       24.545 -32.147  11.063  0.00  0.00    -0.321 N 
ATOM      7  H   LIG    1       24.446 -33.149  10.909  0.00  0.00    +0.152 HD
ATOM      8  C   LIG    1       25.411 -31.488  10.198  0.00  0.00    +0.016 C 
ATOM      9  C   LIG    1       26.151 -32.407   9.254  0.00  0.00    +0.061 C 
ENDROOT
BRANCH   2  10
ATOM     10  C   LIG    1       25.431 -28.807  12.406  0.00  0.00    -0.029 A 
ATOM     11  C   LIG    1       25.767 -27.443  12.482  0.00  0.00    +0.088 A 
ATOM     12  C   LIG    1       26.605 -26.976  13.506  0.00  0.00    +0.273 A 
ATOM     13  C   LIG    1       27.097 -27.849  14.482  0.00  0.00    +0.084 A 
ATOM     14  C   LIG    1       26.750 -29.198  14.426  0.00  0.00    +0.007 A 
ATOM     15  C   LIG    1       25.925 -29.673  13.399  0.00  0.00    +0.005 A 
BRANCH  12  16
ATOM     16  N   LIG    1       26.993 -25.561  13.535  0.00  0.00    +0.080 N 
ATOM     17  O   LIG    1       27.961 -25.241  14.241  0.00  0.00    -0.576 OA
ATOM     18  O   LIG    1       26.329 -24.765  12.856  0.00  0.00    +0.041 OA
ENDBRANCH  12  16
ENDBRANCH   2  10
BRANCH   1  19
ATOM     19  C   LIG    1       26.219 -29.247   9.310  0.00  0.00    +0.338 C 
ATOM     20  O   LIG    1       27.360 -28.872   9.546  0.00  0.00    -0.245 OA
BRANCH  19  21
ATOM     21  O   LIG    1       25.517 -28.922   8.203  0.00  0.00    -0.459 OA
BRANCH  21  22
ATOM     22  C   LIG    1       25.892 -27.705   7.544  0.00  0.00    +0.260 C 
BRANCH  22  23
ATOM     23  C   LIG    1       25.464 -27.659   6.074  0.00  0.00    +0.200 C 
BRANCH  23  25
ATOM     24  C   LIG    1       25.247 -25.514   5.069  0.00  0.00    +0.194 C 
ATOM     25  O   LIG    1       26.105 -26.615   5.341  0.00  0.00    -0.380 OA
ENDBRANCH  23  25
ENDBRANCH  22  23
ENDBRANCH  21  22
ENDBRANCH  19  21
ENDBRANCH   1  19
BRANCH   3  26
ATOM     26  C   LIG    1       22.185 -29.454  12.184  0.00  0.00    +0.338 C 
ATOM     27  O   LIG    1       21.109 -29.552  11.642  0.00  0.00    -0.245 OA
BRANCH  26  28
ATOM     28  O   LIG    1       22.459 -28.615  13.236  0.00  0.00    -0.459 OA
BRANCH  28  29
ATOM     29  C   LIG    1       22.087 -27.237  13.057  0.00  0.00    +0.171 C 
ATOM     30  C   LIG    1       22.942 -26.395  13.998  0.00  0.00    +0.051 C 
ATOM     31  C   LIG    1       20.608 -27.055  13.378  0.00  0.00    +0.051 C 
ENDBRANCH  28  29
ENDBRANCH  26  28
ENDBRANCH   3  26
TORSDOF 10
ENDMDL
MODEL 7
REMARK VINA RESULT:      -5.2      9.077     11.530
REMARK  Name = *****
REMARK                            x       y       z     vdW  Elec       q    Type
REMARK                         _______ _______ _______ _____ _____    ______ ____
ROOT
ATOM      1  C   LIG    1       23.411 -30.716  11.577  0.00  0.00    +0.065 C 
ATOM      2  C   LIG    1       24.525 -29.807  11.024  0.00  0.00    +0.096 C 
ATOM      3  C   LIG    1       25.676 -29.624  12.017  0.00  0.00    +0.065 C 
ATOM      4  C   LIG    1       25.860 -30.535  12.999  0.00  0.00    +0.016 C 
ATOM      5  C   LIG    1       26.989 -30.530  13.996  0.00  0.00    +0.061 C 
ATOM      6  N   LIG    1       24.952 -31.574  13.152  0.00  0.00    -0.321 N 
ATOM      7  H   LIG    1       25.062 -32.128  14.000  0.00  0.00    +0.152 HD
ATOM      8  C   LIG    1       23.675 -31.561  12.605  0.00  0.00    +0.016 C 
ATOM      9  C   LIG    1       22.697 -32.478  13.303  0.00  0.00    +0.061 C 
ENDROOT
BRANCH   2  10
ATOM     10  C   LIG    1       25.046 -30.316   9.666  0.00  0.00    -0.029 A 
ATOM     11  C   LIG    1       24.585 -29.759   8.459  0.00  0.00    +0.088 A 
ATOM     12  C   LIG    1       25.000 -30.293   7.229  0.00  0.00    +0.273 A 
ATOM     13  C   LIG    1       25.896 -31.366   7.181  0.00  0.00    +0.084 A 
ATOM     14  C   LIG    1       26.375 -31.908   8.373  0.00  0.00    +0.007 A 
ATOM     15  C   LIG    1       25.954 -31.389   9.603  0.00  0.00    +0.005 A 
BRANCH  12  16
ATOM     16  N   LIG    1       24.462 -29.738   5.981  0.00  0.00    +0.080 N 
ATOM     17  O   LIG    1       25.253 -29.169   5.214  0.00  0.00    -0.576 OA
ATOM     18  O   LIG    1       23.248 -29.864   5.768  0.00  0.00    +0.041 OA
ENDBRANCH  12  16
ENDBRANCH   2  10
BRANCH   1  19
ATOM     19  C   LIG    1       22.091 -30.456  10.950  0.00  0.00    +0.338 C 
ATOM     20  O   LIG    1       21.619 -31.188  10.090  0.00  0.00    -0.245 OA
BRANCH  19  21
ATOM     21  O   LIG    1       21.484 -29.353  11.437  0.00  0.00    -0.459 OA
BRANCH  21  22
ATOM     22  C   LIG    1       20.738 -29.518  12.650  0.00  0.00    +0.260 C 
BRANCH  22  23
ATOM     23  C   LIG    1       20.673 -28.243  13.496  0.00  0.00    +0.200 C 
BRANCH  23  25
ATOM     24  C   LIG    1       22.351 -26.565  13.333  0.00  0.00    +0.194 C 
ATOM     25  O   LIG    1       21.141 -27.089  12.799  0.00  0.00    -0.380 OA
ENDBRANCH  23  25
ENDBRANCH  22  23
ENDBRANCH  21  22
ENDBRANCH  19  21
ENDBRANCH   1  19
BRANCH   3  26
ATOM     26  C   LIG    1       26.478 -28.368  11.939  0.00  0.00    +0.338 C 
ATOM     27  O   LIG    1       27.530 -28.272  11.353  0.00  0.00    -0.245 OA
BRANCH  26  28
ATOM     28  O   LIG    1       25.894 -27.365  12.674  0.00  0.00    -0.459 OA
BRANCH  28  29
ATOM     29  C   LIG    1       26.680 -26.839  13.758  0.00  0.00    +0.171 C 
ATOM     30  C   LIG    1       25.865 -26.982  15.039  0.00  0.00    +0.051 C 
ATOM     31  C   LIG    1       27.005 -25.373  13.497  0.00  0.00    +0.051 C 
ENDBRANCH  28  29
ENDBRANCH  26  28
ENDBRANCH   3  26
TORSDOF 10
ENDMDL
MODEL 8
REMARK VINA RESULT:      -5.1      9.099     12.184
REMARK  Name = *****
REMARK                            x       y       z     vdW  Elec       q    Type
REMARK                         _______ _______ _______ _____ _____    ______ ____
ROOT
ATOM      1  C   LIG    1       23.402 -30.887  11.148  0.00  0.00    +0.065 C 
ATOM      2  C   LIG    1       22.126 -30.205  11.677  0.00  0.00    +0.096 C 
ATOM      3  C   LIG    1       21.338 -31.104  12.635  0.00  0.00    +0.065 C 
ATOM      4  C   LIG    1       21.967 -32.124  13.262  0.00  0.00    +0.016 C 
ATOM      5  C   LIG    1       21.345 -33.039  14.284  0.00  0.00    +0.061 C 
ATOM      6  N   LIG    1       23.294 -32.401  12.962  0.00  0.00    -0.321 N 
ATOM      7  H   LIG    1       23.657 -33.271  13.350  0.00  0.00    +0.152 HD
ATOM      8  C   LIG    1       23.932 -31.943  11.815  0.00  0.00    +0.016 C 
ATOM      9  C   LIG    1       25.138 -32.760  11.415  0.00  0.00    +0.061 C 
ENDROOT
BRANCH   2  10
ATOM     10  C   LIG    1       22.443 -28.848  12.334  0.00  0.00    -0.029 A 
ATOM     11  C   LIG    1       23.745 -28.541  12.771  0.00  0.00    +0.088 A 
ATOM     12  C   LIG    1       24.000 -27.339  13.448  0.00  0.00    +0.273 A 
ATOM     13  C   LIG    1       22.975 -26.415  13.674  0.00  0.00    +0.084 A 
ATOM     14  C   LIG    1       21.687 -26.701  13.224  0.00  0.00    +0.007 A 
ATOM     15  C   LIG    1       21.423 -27.905  12.560  0.00  0.00    +0.005 A 
BRANCH  12  16
ATOM     16  N   LIG    1       25.352 -27.063  13.949  0.00  0.00    +0.080 N 
ATOM     17  O   LIG    1       25.456 -26.495  15.046  0.00  0.00    -0.576 OA
ATOM     18  O   LIG    1       26.311 -27.408  13.245  0.00  0.00    +0.041 OA
ENDBRANCH  12  16
ENDBRANCH   2  10
BRANCH   1  19
ATOM     19  C   LIG    1       23.850 -30.338   9.844  0.00  0.00    +0.338 C 
ATOM     20  O   LIG    1       24.811 -29.586   9.745  0.00  0.00    -0.245 OA
BRANCH  19  21
ATOM     21  O   LIG    1       23.100 -30.765   8.806  0.00  0.00    -0.459 OA
BRANCH  21  22
ATOM     22  C   LIG    1       23.665 -31.805   7.996  0.00  0.00    +0.260 C 
BRANCH  22  23
ATOM     23  C   LIG    1       24.084 -31.322   6.603  0.00  0.00    +0.200 C 
BRANCH  23  25
ATOM     24  C   LIG    1       24.425 -29.040   6.027  0.00  0.00    +0.194 C 
ATOM     25  O   LIG    1       23.480 -30.081   6.241  0.00  0.00    -0.380 OA
ENDBRANCH  23  25
ENDBRANCH  22  23
ENDBRANCH  21  22
ENDBRANCH  19  21
ENDBRANCH   1  19
BRANCH   3  26
ATOM     26  C   LIG    1       19.865 -30.896  12.739  0.00  0.00    +0.338 C 
ATOM     27  O   LIG    1       19.345 -30.092  13.477  0.00  0.00    -0.245 OA
BRANCH  26  28
ATOM     28  O   LIG    1       19.184 -31.782  11.941  0.00  0.00    -0.459 OA
BRANCH  28  29
ATOM     29  C   LIG    1       19.389 -31.641  10.524  0.00  0.00    +0.171 C 
ATOM     30  C   LIG    1       18.049 -31.287   9.890  0.00  0.00    +0.051 C 
ATOM     31  C   LIG    1       19.922 -32.946   9.945  0.00  0.00    +0.051 C 
ENDBRANCH  28  29
ENDBRANCH  26  28
ENDBRANCH   3  26
TORSDOF 10
ENDMDL
MODEL 9
REMARK VINA RESULT:      -5.0      7.007     11.139
REMARK  Name = *****
REMARK                            x       y       z     vdW  Elec       q    Type
REMARK                         _______ _______ _______ _____ _____    ______ ____
ROOT
ATOM      1  C   LIG    1       25.207 -31.926   7.755  0.00  0.00    +0.065 C 
ATOM      2  C   LIG    1       24.309 -30.813   8.327  0.00  0.00    +0.096 C 
ATOM      3  C   LIG    1       24.041 -30.992   9.825  0.00  0.00    +0.065 C 
ATOM      4  C   LIG    1       24.886 -31.741  10.568  0.00  0.00    +0.016 C 
ATOM      5  C   LIG    1       24.795 -31.942  12.058  0.00  0.00    +0.061 C 
ATOM      6  N   LIG    1       25.933 -32.413   9.952  0.00  0.00    -0.321 N 
ATOM      7  H   LIG    1       26.432 -33.078  10.542  0.00  0.00    +0.152 HD
ATOM      8  C   LIG    1       25.981 -32.667   8.586  0.00  0.00    +0.016 C 
ATOM      9  C   LIG    1       26.875 -33.825   8.208  0.00  0.00    +0.061 C 
ENDROOT
BRANCH   2  10
ATOM     10  C   LIG    1       24.890 -29.416   8.036  0.00  0.00    -0.029 A 
ATOM     11  C   LIG    1       24.484 -28.685   6.904  0.00  0.00    +0.088 A 
ATOM     12  C   LIG    1       25.086 -27.454   6.603  0.00  0.00    +0.273 A 
ATOM     13  C   LIG    1       26.077 -26.920   7.434  0.00  0.00    +0.084 A 
ATOM     14  C   LIG    1       26.469 -27.628   8.569  0.00  0.00    +0.007 A 
ATOM     15  C   LIG    1       25.881 -28.863   8.868  0.00  0.00    +0.005 A 
BRANCH  12  16
ATOM     16  N   LIG    1       24.692 -26.734   5.386  0.00  0.00    +0.080 N 
ATOM     17  O   LIG    1       23.972 -25.733   5.513  0.00  0.00    -0.576 OA
ATOM     18  O   LIG    1       25.097 -27.171   4.299  0.00  0.00    +0.041 OA
ENDBRANCH  12  16
ENDBRANCH   2  10
BRANCH   1  19
ATOM     19  C   LIG    1       25.015 -32.128   6.296  0.00  0.00    +0.338 C 
ATOM     20  O   LIG    1       23.953 -32.507   5.822  0.00  0.00    -0.245 OA
BRANCH  19  21
ATOM     21  O   LIG    1       26.120 -31.840   5.575  0.00  0.00    -0.459 OA
BRANCH  21  22
ATOM     22  C   LIG    1       26.105 -32.242   4.198  0.00  0.00    +0.260 C 
BRANCH  22  23
ATOM     23  C   LIG    1       26.939 -33.498   3.929  0.00  0.00    +0.200 C 
BRANCH  23  25
ATOM     24  C   LIG    1       26.641 -33.003   1.621  0.00  0.00    +0.194 C 
ATOM     25  O   LIG    1       27.513 -33.514   2.622  0.00  0.00    -0.380 OA
ENDBRANCH  23  25
ENDBRANCH  22  23
ENDBRANCH  21  22
ENDBRANCH  19  21
ENDBRANCH   1  19
BRANCH   3  26
ATOM     26  C   LIG    1       22.775 -30.433  10.382  0.00  0.00    +0.338 C 
ATOM     27  O   LIG    1       22.717 -29.439  11.066  0.00  0.00    -0.245 OA
BRANCH  26  28
ATOM     28  O   LIG    1       21.704 -31.234  10.069  0.00  0.00    -0.459 OA
BRANCH  28  29
ATOM     29  C   LIG    1       20.604 -31.206  10.996  0.00  0.00    +0.171 C 
ATOM     30  C   LIG    1       20.571 -32.546  11.723  0.00  0.00    +0.051 C 
ATOM     31  C   LIG    1       19.299 -30.979  10.242  0.00  0.00    +0.051 C 
ENDBRANCH  28  29
ENDBRANCH  26  28
ENDBRANCH   3  26
TORSDOF 10
ENDMDL
