MODEL 1
REMARK VINA RESULT:      -9.8      0.000      0.000
REMARK  Name = *****
REMARK                            x       y       z     vdW  Elec       q    Type
REMARK                         _______ _______ _______ _____ _____    ______ ____
ROOT
ATOM      1  C   LIG    1       27.140 -22.586   7.496  0.00  0.00    -0.021 C 
ATOM      2  C   LIG    1       25.950 -22.672   6.899  0.00  0.00    -0.035 C 
ATOM      3  C   LIG    1       25.027 -21.489   6.618  0.00  0.00    +0.059 C 
ATOM      4  C   LIG    1       23.594 -21.617   7.191  0.00  0.00    +0.085 C 
ATOM      5  C   LIG    1       22.680 -20.561   6.589  0.00  0.00    -0.011 C 
ATOM      6  C   LIG    1       22.942 -19.934   5.460  0.00  0.00    +0.009 C 
ATOM      7  C   LIG    1       24.155 -20.205   4.666  0.00  0.00    +0.051 C 
ATOM      8  S   LIG    1       22.743 -23.213   6.948  0.00  0.00    -0.116 S 
ATOM      9  C   LIG    1       24.068 -24.323   6.520  0.00  0.00    +0.016 A 
ATOM     10  C   LIG    1       23.651 -25.617   6.153  0.00  0.00    +0.015 A 
ATOM     11  C   LIG    1       24.572 -26.596   5.792  0.00  0.00    +0.001 A 
ATOM     12  C   LIG    1       25.923 -26.305   5.791  0.00  0.00    +0.001 A 
ATOM     13  C   LIG    1       26.350 -25.024   6.151  0.00  0.00    +0.009 A 
ATOM     14  C   LIG    1       25.109 -20.996   5.189  0.00  0.00    -0.005 C 
ATOM     15  C   LIG    1       25.433 -24.019   6.519  0.00  0.00    -0.008 A 
ENDROOT
BRANCH   7  16
ATOM     16  C   LIG    1       24.338 -19.466   3.360  0.00  0.00    +0.417 C 
ATOM     17  F   LIG    1       23.332 -18.591   3.119  0.00  0.00    -0.166 F 
ATOM     18  F   LIG    1       24.358 -20.339   2.316  0.00  0.00    -0.166 F 
ATOM     19  F   LIG    1       25.499 -18.765   3.292  0.00  0.00    -0.166 F 
ENDBRANCH   7  16
BRANCH   1  20
ATOM     20  C   LIG    1       27.745 -21.342   8.087  0.00  0.00    +0.043 C 
BRANCH  20  21
ATOM     21  C   LIG    1       29.099 -20.900   7.524  0.00  0.00    +0.088 C 
BRANCH  21  25
ATOM     22  N   LIG    1       31.913 -18.541   8.772  0.00  0.00    -0.298 NA
ATOM     23  C   LIG    1       30.690 -18.788   9.553  0.00  0.00    +0.100 C 
ATOM     24  C   LIG    1       29.353 -18.769   8.766  0.00  0.00    +0.100 C 
ATOM     25  N   LIG    1       29.353 -19.452   7.460  0.00  0.00    -0.300 NA
ATOM     26  C   LIG    1       30.555 -19.121   6.684  0.00  0.00    +0.100 C 
ATOM     27  C   LIG    1       31.894 -19.204   7.460  0.00  0.00    +0.100 C 
BRANCH  22  28
ATOM     28  C   LIG    1       32.265 -17.120   8.673  0.00  0.00    +0.112 C 
BRANCH  28  29
ATOM     29  C   LIG    1       32.574 -16.379   9.978  0.00  0.00    +0.171 C 
BRANCH  29  30
ATOM     30  O   LIG    1       33.025 -15.055   9.751  0.00  0.00    -0.394 OA
ATOM     31  H   LIG    1       32.448 -14.716   9.041  0.00  0.00    +0.209 HD
ENDBRANCH  29  30
ENDBRANCH  28  29
ENDBRANCH  22  28
ENDBRANCH  21  25
ENDBRANCH  20  21
ENDBRANCH   1  20
TORSDOF 7
ENDMDL
MODEL 2
REMARK VINA RESULT:      -7.3      8.266     10.177
REMARK  Name = *****
REMARK                            x       y       z     vdW  Elec       q    Type
REMARK                         _______ _______ _______ _____ _____    ______ ____
ROOT
ATOM      1  C   LIG    1       26.817 -28.973   9.709  0.00  0.00    -0.021 C 
ATOM      2  C   LIG    1       25.753 -29.382   9.015  0.00  0.00    -0.035 C 
ATOM      3  C   LIG    1       24.811 -30.504   9.444  0.00  0.00    +0.059 C 
ATOM      4  C   LIG    1       24.630 -31.645   8.413  0.00  0.00    +0.085 C 
ATOM      5  C   LIG    1       23.447 -32.525   8.791  0.00  0.00    -0.011 C 
ATOM      6  C   LIG    1       22.482 -32.134   9.599  0.00  0.00    +0.009 C 
ATOM      7  C   LIG    1       22.456 -30.793  10.212  0.00  0.00    +0.051 C 
ATOM      8  S   LIG    1       24.356 -31.159   6.676  0.00  0.00    -0.116 S 
ATOM      9  C   LIG    1       24.877 -29.456   6.641  0.00  0.00    +0.016 A 
ATOM     10  C   LIG    1       24.644 -28.799   5.417  0.00  0.00    +0.015 A 
ATOM     11  C   LIG    1       24.997 -27.465   5.236  0.00  0.00    +0.001 A 
ATOM     12  C   LIG    1       25.588 -26.762   6.271  0.00  0.00    +0.001 A 
ATOM     13  C   LIG    1       25.823 -27.402   7.490  0.00  0.00    +0.009 A 
ATOM     14  C   LIG    1       23.533 -29.999  10.079  0.00  0.00    -0.005 C 
ATOM     15  C   LIG    1       25.472 -28.753   7.692  0.00  0.00    -0.008 A 
ENDROOT
BRANCH   7  16
ATOM     16  C   LIG    1       21.278 -30.426  11.085  0.00  0.00    +0.417 C 
ATOM     17  F   LIG    1       20.133 -30.289  10.372  0.00  0.00    -0.166 F 
ATOM     18  F   LIG    1       21.497 -29.236  11.708  0.00  0.00    -0.166 F 
ATOM     19  F   LIG    1       21.028 -31.330  12.066  0.00  0.00    -0.166 F 
ENDBRANCH   7  16
BRANCH   1  20
ATOM     20  C   LIG    1       27.341 -29.595  10.973  0.00  0.00    +0.043 C 
BRANCH  20  21
ATOM     21  C   LIG    1       26.794 -29.042  12.292  0.00  0.00    +0.088 C 
BRANCH  21  25
ATOM     22  N   LIG    1       25.780 -26.266  14.804  0.00  0.00    -0.298 NA
ATOM     23  C   LIG    1       24.914 -27.421  14.517  0.00  0.00    +0.100 C 
ATOM     24  C   LIG    1       24.765 -27.818  13.024  0.00  0.00    +0.100 C 
ATOM     25  N   LIG    1       26.000 -27.805  12.218  0.00  0.00    -0.300 NA
ATOM     26  C   LIG    1       26.797 -26.601  12.481  0.00  0.00    +0.100 C 
ATOM     27  C   LIG    1       26.996 -26.246  13.976  0.00  0.00    +0.100 C 
BRANCH  22  28
ATOM     28  C   LIG    1       25.069 -24.982  14.778  0.00  0.00    +0.112 C 
BRANCH  28  29
ATOM     29  C   LIG    1       25.858 -23.733  15.185  0.00  0.00    +0.171 C 
BRANCH  29  30
ATOM     30  O   LIG    1       25.476 -22.590  14.439  0.00  0.00    -0.394 OA
ATOM     31  H   LIG    1       25.290 -22.929  13.544  0.00  0.00    +0.209 HD
ENDBRANCH  29  30
ENDBRANCH  28  29
ENDBRANCH  22  28
ENDBRANCH  21  25
ENDBRANCH  20  21
ENDBRANCH   1  20
TORSDOF 7
ENDMDL
MODEL 3
REMARK VINA RESULT:      -7.2      5.496      9.025
REMARK  Name = *****
REMARK                            x       y       z     vdW  Elec       q    Type
REMARK                         _______ _______ _______ _____ _____    ______ ____
ROOT
ATOM      1  C   LIG    1       25.166 -23.953   5.363  0.00  0.00    -0.021 C 
ATOM      2  C   LIG    1       25.133 -22.693   5.801  0.00  0.00    -0.035 C 
ATOM      3  C   LIG    1       25.833 -22.188   7.059  0.00  0.00    +0.059 C 
ATOM      4  C   LIG    1       24.916 -21.479   8.086  0.00  0.00    +0.085 C 
ATOM      5  C   LIG    1       25.747 -20.741   9.127  0.00  0.00    -0.011 C 
ATOM      6  C   LIG    1       27.005 -20.399   8.938  0.00  0.00    +0.009 C 
ATOM      7  C   LIG    1       27.729 -20.696   7.688  0.00  0.00    +0.051 C 
ATOM      8  S   LIG    1       23.731 -20.254   7.434  0.00  0.00    -0.116 S 
ATOM      9  C   LIG    1       23.678 -20.623   5.692  0.00  0.00    +0.016 A 
ATOM     10  C   LIG    1       22.914 -19.721   4.927  0.00  0.00    +0.015 A 
ATOM     11  C   LIG    1       22.779 -19.878   3.550  0.00  0.00    +0.001 A 
ATOM     12  C   LIG    1       23.401 -20.937   2.913  0.00  0.00    +0.001 A 
ATOM     13  C   LIG    1       24.162 -21.838   3.661  0.00  0.00    +0.009 A 
ATOM     14  C   LIG    1       27.143 -21.487   6.773  0.00  0.00    -0.005 C 
ATOM     15  C   LIG    1       24.311 -21.695   5.056  0.00  0.00    -0.008 A 
ENDROOT
BRANCH   7  16
ATOM     16  C   LIG    1       29.156 -20.216   7.553  0.00  0.00    +0.417 C 
ATOM     17  F   LIG    1       29.356 -19.020   8.161  0.00  0.00    -0.166 F 
ATOM     18  F   LIG    1       29.483 -20.050   6.243  0.00  0.00    -0.166 F 
ATOM     19  F   LIG    1       30.069 -21.079   8.068  0.00  0.00    -0.166 F 
ENDBRANCH   7  16
BRANCH   1  20
ATOM     20  C   LIG    1       25.805 -25.117   6.068  0.00  0.00    +0.043 C 
BRANCH  20  21
ATOM     21  C   LIG    1       24.933 -26.360   6.276  0.00  0.00    +0.088 C 
BRANCH  21  25
ATOM     22  N   LIG    1       23.817 -30.056   6.639  0.00  0.00    -0.298 NA
ATOM     23  C   LIG    1       24.302 -29.266   7.782  0.00  0.00    +0.100 C 
ATOM     24  C   LIG    1       25.567 -28.400   7.535  0.00  0.00    +0.100 C 
ATOM     25  N   LIG    1       25.616 -27.663   6.259  0.00  0.00    -0.300 NA
ATOM     26  C   LIG    1       25.194 -28.510   5.137  0.00  0.00    +0.100 C 
ATOM     27  C   LIG    1       23.895 -29.324   5.367  0.00  0.00    +0.100 C 
BRANCH  22  28
ATOM     28  C   LIG    1       24.424 -31.389   6.552  0.00  0.00    +0.112 C 
BRANCH  28  29
ATOM     29  C   LIG    1       23.476 -32.586   6.419  0.00  0.00    +0.171 C 
BRANCH  29  30
ATOM     30  O   LIG    1       22.954 -32.715   5.108  0.00  0.00    -0.394 OA
ATOM     31  H   LIG    1       23.369 -33.524   4.756  0.00  0.00    +0.209 HD
ENDBRANCH  29  30
ENDBRANCH  28  29
ENDBRANCH  22  28
ENDBRANCH  21  25
ENDBRANCH  20  21
ENDBRANCH   1  20
TORSDOF 7
ENDMDL
MODEL 4
REMARK VINA RESULT:      -7.1      6.630      9.398
REMARK  Name = *****
REMARK                            x       y       z     vdW  Elec       q    Type
REMARK                         _______ _______ _______ _____ _____    ______ ____
ROOT
ATOM      1  C   LIG    1       24.838 -28.672   6.214  0.00  0.00    -0.021 C 
ATOM      2  C   LIG    1       25.032 -29.652   7.099  0.00  0.00    -0.035 C 
ATOM      3  C   LIG    1       24.872 -29.507   8.610  0.00  0.00    +0.059 C 
ATOM      4  C   LIG    1       26.111 -29.907   9.448  0.00  0.00    +0.085 C 
ATOM      5  C   LIG    1       25.744 -30.036  10.919  0.00  0.00    -0.011 C 
ATOM      6  C   LIG    1       24.509 -30.210  11.345  0.00  0.00    +0.009 C 
ATOM      7  C   LIG    1       23.359 -30.302  10.426  0.00  0.00    +0.051 C 
ATOM      8  S   LIG    1       26.944 -31.468   9.002  0.00  0.00    -0.116 S 
ATOM      9  C   LIG    1       26.321 -31.814   7.370  0.00  0.00    +0.016 A 
ATOM     10  C   LIG    1       26.724 -33.056   6.842  0.00  0.00    +0.015 A 
ATOM     11  C   LIG    1       26.316 -33.467   5.576  0.00  0.00    +0.001 A 
ATOM     12  C   LIG    1       25.502 -32.649   4.815  0.00  0.00    +0.001 A 
ATOM     13  C   LIG    1       25.094 -31.416   5.328  0.00  0.00    +0.009 A 
ATOM     14  C   LIG    1       23.549 -30.035   9.122  0.00  0.00    -0.005 C 
ATOM     15  C   LIG    1       25.496 -30.982   6.608  0.00  0.00    -0.008 A 
ENDROOT
BRANCH   7  16
ATOM     16  C   LIG    1       21.988 -30.551  11.014  0.00  0.00    +0.417 C 
ATOM     17  F   LIG    1       21.984 -31.592  11.883  0.00  0.00    -0.166 F 
ATOM     18  F   LIG    1       21.095 -30.853  10.033  0.00  0.00    -0.166 F 
ATOM     19  F   LIG    1       21.480 -29.480  11.676  0.00  0.00    -0.166 F 
ENDBRANCH   7  16
BRANCH   1  20
ATOM     20  C   LIG    1       24.528 -27.237   6.538  0.00  0.00    +0.043 C 
BRANCH  20  21
ATOM     21  C   LIG    1       24.312 -26.293   5.351  0.00  0.00    +0.088 C 
BRANCH  21  25
ATOM     22  N   LIG    1       25.128 -22.958   7.155  0.00  0.00    -0.298 NA
ATOM     23  C   LIG    1       24.246 -23.020   5.978  0.00  0.00    +0.100 C 
ATOM     24  C   LIG    1       24.727 -23.911   4.801  0.00  0.00    +0.100 C 
ATOM     25  N   LIG    1       25.301 -25.220   5.164  0.00  0.00    -0.300 NA
ATOM     26  C   LIG    1       26.230 -25.100   6.295  0.00  0.00    +0.100 C 
ATOM     27  C   LIG    1       25.717 -24.262   7.493  0.00  0.00    +0.100 C 
BRANCH  22  28
ATOM     28  C   LIG    1       26.137 -21.896   7.073  0.00  0.00    +0.112 C 
BRANCH  28  29
ATOM     29  C   LIG    1       25.850 -20.595   7.830  0.00  0.00    +0.171 C 
BRANCH  29  30
ATOM     30  O   LIG    1       25.975 -20.750   9.232  0.00  0.00    -0.394 OA
ATOM     31  H   LIG    1       26.717 -21.373   9.347  0.00  0.00    +0.209 HD
ENDBRANCH  29  30
ENDBRANCH  28  29
ENDBRANCH  22  28
ENDBRANCH  21  25
ENDBRANCH  20  21
ENDBRANCH   1  20
TORSDOF 7
ENDMDL
MODEL 5
REMARK VINA RESULT:      -7.0      6.877      9.753
REMARK  Name = *****
REMARK                            x       y       z     vdW  Elec       q    Type
REMARK                         _______ _______ _______ _____ _____    ______ ____
ROOT
ATOM      1  C   LIG    1       24.812 -28.895   6.157  0.00  0.00    -0.021 C 
ATOM      2  C   LIG    1       25.034 -29.796   7.117  0.00  0.00    -0.035 C 
ATOM      3  C   LIG    1       24.838 -29.545   8.609  0.00  0.00    +0.059 C 
ATOM      4  C   LIG    1       26.078 -29.823   9.494  0.00  0.00    +0.085 C 
ATOM      5  C   LIG    1       25.690 -29.858  10.966  0.00  0.00    -0.011 C 
ATOM      6  C   LIG    1       24.456 -30.056  11.385  0.00  0.00    +0.009 C 
ATOM      7  C   LIG    1       23.329 -30.270  10.458  0.00  0.00    +0.051 C 
ATOM      8  S   LIG    1       26.990 -31.373   9.182  0.00  0.00    -0.116 S 
ATOM      9  C   LIG    1       26.413 -31.869   7.572  0.00  0.00    +0.016 A 
ATOM     10  C   LIG    1       26.882 -33.127   7.146  0.00  0.00    +0.015 A 
ATOM     11  C   LIG    1       26.517 -33.651   5.909  0.00  0.00    +0.001 A 
ATOM     12  C   LIG    1       25.681 -32.932   5.075  0.00  0.00    +0.001 A 
ATOM     13  C   LIG    1       25.208 -31.683   5.486  0.00  0.00    +0.009 A 
ATOM     14  C   LIG    1       23.531 -30.094   9.140  0.00  0.00    -0.005 C 
ATOM     15  C   LIG    1       25.566 -31.136   6.736  0.00  0.00    -0.008 A 
ENDROOT
BRANCH   7  16
ATOM     16  C   LIG    1       21.960 -30.538  11.042  0.00  0.00    +0.417 C 
ATOM     17  F   LIG    1       21.970 -31.570  11.921  0.00  0.00    -0.166 F 
ATOM     18  F   LIG    1       21.077 -30.865  10.060  0.00  0.00    -0.166 F 
ATOM     19  F   LIG    1       21.430 -29.469  11.691  0.00  0.00    -0.166 F 
ENDBRANCH   7  16
BRANCH   1  20
ATOM     20  C   LIG    1       24.431 -27.456   6.366  0.00  0.00    +0.043 C 
BRANCH  20  21
ATOM     21  C   LIG    1       25.580 -26.458   6.543  0.00  0.00    +0.088 C 
BRANCH  21  25
ATOM     22  N   LIG    1       24.178 -22.927   7.322  0.00  0.00    -0.298 NA
ATOM     23  C   LIG    1       23.380 -23.955   6.634  0.00  0.00    +0.100 C 
ATOM     24  C   LIG    1       24.101 -24.754   5.514  0.00  0.00    +0.100 C 
ATOM     25  N   LIG    1       25.479 -25.188   5.806  0.00  0.00    -0.300 NA
ATOM     26  C   LIG    1       26.260 -24.110   6.424  0.00  0.00    +0.100 C 
ATOM     27  C   LIG    1       25.559 -23.359   7.584  0.00  0.00    +0.100 C 
BRANCH  22  28
ATOM     28  C   LIG    1       24.119 -21.612   6.672  0.00  0.00    +0.112 C 
BRANCH  28  29
ATOM     29  C   LIG    1       22.866 -21.289   5.852  0.00  0.00    +0.171 C 
BRANCH  29  30
ATOM     30  O   LIG    1       23.110 -21.333   4.457  0.00  0.00    -0.394 OA
ATOM     31  H   LIG    1       22.243 -21.157   4.048  0.00  0.00    +0.209 HD
ENDBRANCH  29  30
ENDBRANCH  28  29
ENDBRANCH  22  28
ENDBRANCH  21  25
ENDBRANCH  20  21
ENDBRANCH   1  20
TORSDOF 7
ENDMDL
