MODEL 1
REMARK VINA RESULT:      -7.9      0.000      0.000
REMARK  Name = *****
REMARK                            x       y       z     vdW  Elec       q    Type
REMARK                         _______ _______ _______ _____ _____    ______ ____
ROOT
ATOM      1  C   LIG    1       25.669 -20.962   4.738  0.00  0.00    +0.101 C 
ENDROOT
BRANCH   1   2
ATOM      2  N   LIG    1       24.277 -21.221   5.270  0.00  0.00    -0.277 NA
BRANCH   2   3
ATOM      3  C   LIG    1       23.255 -20.642   4.377  0.00  0.00    +0.206 C 
BRANCH   3   4
ATOM      4  C   LIG    1       23.214 -19.122   4.230  0.00  0.00    +0.319 C 
ATOM      5  O   LIG    1       23.973 -18.420   3.586  0.00  0.00    -0.250 OA
BRANCH   4   6
ATOM      6  O   LIG    1       22.195 -18.558   4.921  0.00  0.00    -0.480 OA
ATOM      7  H   LIG    1       21.412 -18.615   4.321  0.00  0.00    +0.295 HD
ENDBRANCH   4   6
ENDBRANCH   3   4
ENDBRANCH   2   3
BRANCH   2   8
ATOM      8  C   LIG    1       24.022 -22.630   5.613  0.00  0.00    +0.192 C 
BRANCH   8   9
ATOM      9  C   LIG    1       23.026 -22.736   6.874  0.00  0.00    +0.324 C 
ATOM     10  O   LIG    1       22.841 -21.891   7.722  0.00  0.00    -0.249 OA
BRANCH   9  11
ATOM     11  O   LIG    1       22.124 -23.744   6.800  0.00  0.00    -0.479 OA
ATOM     12  H   LIG    1       22.463 -24.392   7.459  0.00  0.00    +0.295 HD
ENDBRANCH   9  11
ENDBRANCH   8   9
BRANCH   8  13
ATOM     13  C   LIG    1       25.149 -23.816   5.490  0.00  0.00    +0.190 C 
BRANCH  13  14
ATOM     14  O   LIG    1       25.060 -25.073   6.225  0.00  0.00    -0.373 OA
BRANCH  14  15
ATOM     15  C   LIG    1       24.541 -26.269   5.606  0.00  0.00    +0.195 C 
BRANCH  15  16
ATOM     16  C   LIG    1       24.801 -27.528   6.406  0.00  0.00    -0.022 A 
ATOM     17  C   LIG    1       24.242 -28.765   6.395  0.00  0.00    +0.006 A 
ATOM     18  C   LIG    1       24.581 -29.701   7.419  0.00  0.00    +0.000 A 
ATOM     19  C   LIG    1       25.518 -29.447   8.426  0.00  0.00    +0.000 A 
ATOM     20  C   LIG    1       26.170 -28.276   8.362  0.00  0.00    +0.000 A 
ATOM     21  C   LIG    1       25.775 -27.448   7.344  0.00  0.00    +0.006 A 
ENDBRANCH  15  16
ENDBRANCH  14  15
ENDBRANCH  13  14
ENDBRANCH   8  13
ENDBRANCH   2   8
ENDBRANCH   1   2
BRANCH   1  22
ATOM     22  C   LIG    1       26.734 -19.914   5.308  0.00  0.00    +0.100 C 
BRANCH  22  23
ATOM     23  N   LIG    1       27.511 -20.172   6.538  0.00  0.00    -0.290 NA
BRANCH  23  24
ATOM     24  C   LIG    1       28.992 -19.877   6.346  0.00  0.00    +0.100 C 
BRANCH  24  25
ATOM     25  C   LIG    1       29.784 -18.752   7.159  0.00  0.00    +0.101 C 
BRANCH  25  26
ATOM     26  N   LIG    1       30.472 -19.127   8.464  0.00  0.00    -0.281 NA
BRANCH  26  27
ATOM     27  C   LIG    1       30.930 -17.870   9.109  0.00  0.00    +0.206 C 
BRANCH  27  28
ATOM     28  C   LIG    1       30.607 -17.644  10.553  0.00  0.00    +0.319 C 
ATOM     29  O   LIG    1       30.235 -16.490  11.025  0.00  0.00    -0.250 OA
BRANCH  28  30
ATOM     30  O   LIG    1       30.647 -18.691  11.347  0.00  0.00    -0.480 OA
ATOM     31  H   LIG    1       30.494 -18.391  12.271  0.00  0.00    +0.295 HD
ENDBRANCH  28  30
ENDBRANCH  27  28
ENDBRANCH  26  27
BRANCH  26  32
ATOM     32  C   LIG    1       31.393 -20.286   8.257  0.00  0.00    +0.206 C 
BRANCH  32  33
ATOM     33  C   LIG    1       31.325 -21.564   9.113  0.00  0.00    +0.319 C 
ATOM     34  O   LIG    1       30.842 -21.694  10.230  0.00  0.00    -0.250 OA
BRANCH  33  35
ATOM     35  O   LIG    1       32.062 -22.593   8.624  0.00  0.00    -0.480 OA
ATOM     36  H   LIG    1       32.971 -22.358   8.914  0.00  0.00    +0.295 HD
ENDBRANCH  33  35
ENDBRANCH  32  33
ENDBRANCH  26  32
ENDBRANCH  25  26
ENDBRANCH  24  25
ENDBRANCH  23  24
BRANCH  23  37
ATOM     37  C   LIG    1       27.376 -21.425   7.310  0.00  0.00    +0.205 C 
BRANCH  37  39
ATOM     38  O   LIG    1       25.903 -22.562   8.837  0.00  0.00    -0.250 OA
ATOM     39  C   LIG    1       26.429 -21.509   8.489  0.00  0.00    +0.319 C 
BRANCH  39  40
ATOM     40  O   LIG    1       26.286 -20.370   9.194  0.00  0.00    -0.480 OA
ATOM     41  H   LIG    1       25.709 -19.761   8.694  0.00  0.00    +0.295 HD
ENDBRANCH  39  40
ENDBRANCH  37  39
ENDBRANCH  23  37
ENDBRANCH  22  23
ENDBRANCH   1  22
TORSDOF 25
ENDMDL
MODEL 2
REMARK VINA RESULT:      -7.9      0.604      2.367
REMARK  Name = *****
REMARK                            x       y       z     vdW  Elec       q    Type
REMARK                         _______ _______ _______ _____ _____    ______ ____
ROOT
ATOM      1  C   LIG    1       25.508 -20.806   4.642  0.00  0.00    +0.101 C 
ENDROOT
BRANCH   1   2
ATOM      2  N   LIG    1       24.188 -21.146   5.300  0.00  0.00    -0.277 NA
BRANCH   2   3
ATOM      3  C   LIG    1       23.058 -20.607   4.523  0.00  0.00    +0.206 C 
BRANCH   3   4
ATOM      4  C   LIG    1       22.923 -19.089   4.418  0.00  0.00    +0.319 C 
ATOM      5  O   LIG    1       22.146 -18.372   5.023  0.00  0.00    -0.250 OA
BRANCH   4   6
ATOM      6  O   LIG    1       23.794 -18.547   3.535  0.00  0.00    -0.480 OA
ATOM      7  H   LIG    1       24.113 -19.304   2.986  0.00  0.00    +0.295 HD
ENDBRANCH   4   6
ENDBRANCH   3   4
ENDBRANCH   2   3
BRANCH   2   8
ATOM      8  C   LIG    1       24.040 -22.573   5.636  0.00  0.00    +0.192 C 
BRANCH   8   9
ATOM      9  C   LIG    1       23.079 -22.757   6.914  0.00  0.00    +0.324 C 
ATOM     10  O   LIG    1       22.994 -22.016   7.868  0.00  0.00    -0.249 OA
BRANCH   9  11
ATOM     11  O   LIG    1       22.090 -23.670   6.752  0.00  0.00    -0.479 OA
ATOM     12  H   LIG    1       21.744 -23.784   7.666  0.00  0.00    +0.295 HD
ENDBRANCH   9  11
ENDBRANCH   8   9
BRANCH   8  13
ATOM     13  C   LIG    1       25.244 -23.675   5.481  0.00  0.00    +0.190 C 
BRANCH  13  14
ATOM     14  O   LIG    1       25.477 -24.736   6.454  0.00  0.00    -0.373 OA
BRANCH  14  15
ATOM     15  C   LIG    1       26.208 -25.931   6.102  0.00  0.00    +0.195 C 
BRANCH  15  16
ATOM     16  C   LIG    1       25.681 -27.182   6.771  0.00  0.00    -0.022 A 
ATOM     17  C   LIG    1       25.995 -27.815   7.931  0.00  0.00    +0.006 A 
ATOM     18  C   LIG    1       25.444 -29.104   8.202  0.00  0.00    +0.000 A 
ATOM     19  C   LIG    1       24.532 -29.753   7.364  0.00  0.00    +0.000 A 
ATOM     20  C   LIG    1       24.117 -29.073   6.284  0.00  0.00    +0.000 A 
ATOM     21  C   LIG    1       24.702 -27.847   6.111  0.00  0.00    +0.006 A 
ENDBRANCH  15  16
ENDBRANCH  14  15
ENDBRANCH  13  14
ENDBRANCH   8  13
ENDBRANCH   2   8
ENDBRANCH   1   2
BRANCH   1  22
ATOM     22  C   LIG    1       26.640 -19.830   5.213  0.00  0.00    +0.100 C 
BRANCH  22  23
ATOM     23  N   LIG    1       27.487 -20.198   6.365  0.00  0.00    -0.290 NA
BRANCH  23  24
ATOM     24  C   LIG    1       28.970 -20.083   6.040  0.00  0.00    +0.100 C 
BRANCH  24  25
ATOM     25  C   LIG    1       29.977 -19.119   6.819  0.00  0.00    +0.101 C 
BRANCH  25  26
ATOM     26  N   LIG    1       30.948 -19.718   7.827  0.00  0.00    -0.281 NA
BRANCH  26  27
ATOM     27  C   LIG    1       30.320 -20.941   8.386  0.00  0.00    +0.206 C 
BRANCH  27  28
ATOM     28  C   LIG    1       31.171 -21.897   9.162  0.00  0.00    +0.319 C 
ATOM     29  O   LIG    1       30.862 -22.317  10.354  0.00  0.00    -0.250 OA
BRANCH  28  30
ATOM     30  O   LIG    1       32.243 -22.368   8.563  0.00  0.00    -0.480 OA
ATOM     31  H   LIG    1       32.210 -22.115   7.614  0.00  0.00    +0.295 HD
ENDBRANCH  28  30
ENDBRANCH  27  28
ENDBRANCH  26  27
BRANCH  26  32
ATOM     32  C   LIG    1       31.514 -18.651   8.707  0.00  0.00    +0.206 C 
BRANCH  32  33
ATOM     33  C   LIG    1       30.738 -18.060   9.900  0.00  0.00    +0.319 C 
ATOM     34  O   LIG    1       30.517 -18.583  10.983  0.00  0.00    -0.250 OA
BRANCH  33  35
ATOM     35  O   LIG    1       30.076 -16.912   9.609  0.00  0.00    -0.480 OA
ATOM     36  H   LIG    1       30.795 -16.334   9.270  0.00  0.00    +0.295 HD
ENDBRANCH  33  35
ENDBRANCH  32  33
ENDBRANCH  26  32
ENDBRANCH  25  26
ENDBRANCH  24  25
ENDBRANCH  23  24
BRANCH  23  37
ATOM     37  C   LIG    1       27.270 -21.435   7.144  0.00  0.00    +0.205 C 
BRANCH  37  39
ATOM     38  O   LIG    1       26.339 -20.386   9.100  0.00  0.00    -0.250 OA
ATOM     39  C   LIG    1       26.475 -21.408   8.434  0.00  0.00    +0.319 C 
BRANCH  39  40
ATOM     40  O   LIG    1       25.841 -22.554   8.744  0.00  0.00    -0.480 OA
ATOM     41  H   LIG    1       26.269 -23.290   8.264  0.00  0.00    +0.295 HD
ENDBRANCH  39  40
ENDBRANCH  37  39
ENDBRANCH  23  37
ENDBRANCH  22  23
ENDBRANCH   1  22
TORSDOF 25
ENDMDL
MODEL 3
REMARK VINA RESULT:      -7.4      1.761      2.435
REMARK  Name = *****
REMARK                            x       y       z     vdW  Elec       q    Type
REMARK                         _______ _______ _______ _____ _____    ______ ____
ROOT
ATOM      1  C   LIG    1       25.368 -21.652   8.004  0.00  0.00    +0.101 C 
ENDROOT
BRANCH   1   2
ATOM      2  N   LIG    1       24.349 -21.993   6.938  0.00  0.00    -0.277 NA
BRANCH   2   3
ATOM      3  C   LIG    1       24.261 -20.920   5.931  0.00  0.00    +0.206 C 
BRANCH   3   4
ATOM      4  C   LIG    1       22.870 -20.433   5.526  0.00  0.00    +0.319 C 
ATOM      5  O   LIG    1       22.444 -19.293   5.568  0.00  0.00    -0.250 OA
BRANCH   4   6
ATOM      6  O   LIG    1       22.076 -21.434   5.080  0.00  0.00    -0.480 OA
ATOM      7  H   LIG    1       21.634 -21.795   5.887  0.00  0.00    +0.295 HD
ENDBRANCH   4   6
ENDBRANCH   3   4
ENDBRANCH   2   3
BRANCH   2   8
ATOM      8  C   LIG    1       24.525 -23.332   6.351  0.00  0.00    +0.192 C 
BRANCH   8   9
ATOM      9  C   LIG    1       23.186 -24.208   6.526  0.00  0.00    +0.324 C 
ATOM     10  O   LIG    1       22.092 -23.801   6.851  0.00  0.00    -0.249 OA
BRANCH   9  11
ATOM     11  O   LIG    1       23.245 -25.448   5.982  0.00  0.00    -0.479 OA
ATOM     12  H   LIG    1       23.455 -25.265   5.039  0.00  0.00    +0.295 HD
ENDBRANCH   9  11
ENDBRANCH   8   9
BRANCH   8  13
ATOM     13  C   LIG    1       25.936 -24.167   6.394  0.00  0.00    +0.190 C 
BRANCH  13  14
ATOM     14  O   LIG    1       26.186 -25.344   5.570  0.00  0.00    -0.373 OA
BRANCH  14  15
ATOM     15  C   LIG    1       26.793 -26.532   6.123  0.00  0.00    +0.195 C 
BRANCH  15  16
ATOM     16  C   LIG    1       25.799 -27.632   6.432  0.00  0.00    -0.022 A 
ATOM     17  C   LIG    1       25.433 -28.253   7.582  0.00  0.00    +0.006 A 
ATOM     18  C   LIG    1       24.590 -29.404   7.524  0.00  0.00    +0.000 A 
ATOM     19  C   LIG    1       24.052 -29.916   6.339  0.00  0.00    +0.000 A 
ATOM     20  C   LIG    1       24.303 -29.226   5.216  0.00  0.00    +0.000 A 
ATOM     21  C   LIG    1       25.120 -28.138   5.374  0.00  0.00    +0.006 A 
ENDBRANCH  15  16
ENDBRANCH  14  15
ENDBRANCH  13  14
ENDBRANCH   8  13
ENDBRANCH   2   8
ENDBRANCH   1   2
BRANCH   1  22
ATOM     22  C   LIG    1       26.340 -20.382   8.029  0.00  0.00    +0.100 C 
BRANCH  22  23
ATOM     23  N   LIG    1       27.808 -20.514   7.942  0.00  0.00    -0.290 NA
BRANCH  23  24
ATOM     24  C   LIG    1       28.523 -19.498   8.822  0.00  0.00    +0.100 C 
BRANCH  24  25
ATOM     25  C   LIG    1       29.811 -18.674   8.359  0.00  0.00    +0.101 C 
BRANCH  25  26
ATOM     26  N   LIG    1       31.196 -19.214   8.690  0.00  0.00    -0.281 NA
BRANCH  26  27
ATOM     27  C   LIG    1       32.180 -18.143   8.393  0.00  0.00    +0.206 C 
BRANCH  27  28
ATOM     28  C   LIG    1       32.409 -17.074   9.416  0.00  0.00    +0.319 C 
ATOM     29  O   LIG    1       32.550 -17.324  10.685  0.00  0.00    -0.250 OA
BRANCH  28  30
ATOM     30  O   LIG    1       32.534 -15.841   8.977  0.00  0.00    -0.480 OA
ATOM     31  H   LIG    1       31.646 -15.420   8.965  0.00  0.00    +0.295 HD
ENDBRANCH  28  30
ENDBRANCH  27  28
ENDBRANCH  26  27
BRANCH  26  32
ATOM     32  C   LIG    1       31.357 -20.601   8.158  0.00  0.00    +0.206 C 
BRANCH  32  33
ATOM     33  C   LIG    1       31.380 -21.843   9.070  0.00  0.00    +0.319 C 
ATOM     34  O   LIG    1       30.886 -21.966  10.182  0.00  0.00    -0.250 OA
BRANCH  33  35
ATOM     35  O   LIG    1       32.213 -22.824   8.641  0.00  0.00    -0.480 OA
ATOM     36  H   LIG    1       32.829 -22.336   8.051  0.00  0.00    +0.295 HD
ENDBRANCH  33  35
ENDBRANCH  32  33
ENDBRANCH  26  32
ENDBRANCH  25  26
ENDBRANCH  24  25
ENDBRANCH  23  24
BRANCH  23  37
ATOM     37  C   LIG    1       28.519 -20.600   6.648  0.00  0.00    +0.205 C 
BRANCH  37  39
ATOM     38  O   LIG    1       28.754 -18.642   5.269  0.00  0.00    -0.250 OA
ATOM     39  C   LIG    1       28.148 -19.684   5.500  0.00  0.00    +0.319 C 
BRANCH  39  40
ATOM     40  O   LIG    1       27.179 -20.144   4.687  0.00  0.00    -0.480 OA
ATOM     41  H   LIG    1       26.577 -20.714   5.205  0.00  0.00    +0.295 HD
ENDBRANCH  39  40
ENDBRANCH  37  39
ENDBRANCH  23  37
ENDBRANCH  22  23
ENDBRANCH   1  22
TORSDOF 25
ENDMDL
MODEL 4
REMARK VINA RESULT:      -7.3      2.530      4.095
REMARK  Name = *****
REMARK                            x       y       z     vdW  Elec       q    Type
REMARK                         _______ _______ _______ _____ _____    ______ ____
ROOT
ATOM      1  C   LIG    1       26.155 -24.350   6.682  0.00  0.00    +0.101 C 
ENDROOT
BRANCH   1   2
ATOM      2  N   LIG    1       25.134 -25.459   6.812  0.00  0.00    -0.277 NA
BRANCH   2   3
ATOM      3  C   LIG    1       23.960 -25.196   5.960  0.00  0.00    +0.206 C 
BRANCH   3   4
ATOM      4  C   LIG    1       23.152 -23.927   6.229  0.00  0.00    +0.319 C 
ATOM      5  O   LIG    1       22.219 -23.794   7.001  0.00  0.00    -0.250 OA
BRANCH   4   6
ATOM      6  O   LIG    1       23.574 -22.873   5.493  0.00  0.00    -0.480 OA
ATOM      7  H   LIG    1       24.549 -22.999   5.394  0.00  0.00    +0.295 HD
ENDBRANCH   4   6
ENDBRANCH   3   4
ENDBRANCH   2   3
BRANCH   2   8
ATOM      8  C   LIG    1       25.694 -26.809   6.635  0.00  0.00    +0.192 C 
BRANCH   8   9
ATOM      9  C   LIG    1       26.462 -26.923   5.225  0.00  0.00    +0.324 C 
ATOM     10  O   LIG    1       26.003 -26.685   4.130  0.00  0.00    -0.249 OA
BRANCH   9  11
ATOM     11  O   LIG    1       27.810 -27.020   5.321  0.00  0.00    -0.479 OA
ATOM     12  H   LIG    1       28.017 -26.460   6.103  0.00  0.00    +0.295 HD
ENDBRANCH   9  11
ENDBRANCH   8   9
BRANCH   8  13
ATOM     13  C   LIG    1       24.957 -28.177   7.161  0.00  0.00    +0.190 C 
BRANCH  13  14
ATOM     14  O   LIG    1       25.433 -29.514   6.823  0.00  0.00    -0.373 OA
BRANCH  14  15
ATOM     15  C   LIG    1       24.929 -30.221   5.670  0.00  0.00    +0.195 C 
BRANCH  15  16
ATOM     16  C   LIG    1       25.795 -31.389   5.249  0.00  0.00    -0.022 A 
ATOM     17  C   LIG    1       25.955 -32.046   4.072  0.00  0.00    +0.006 A 
ATOM     18  C   LIG    1       26.721 -33.252   4.036  0.00  0.00    +0.000 A 
ATOM     19  C   LIG    1       27.385 -33.785   5.145  0.00  0.00    +0.000 A 
ATOM     20  C   LIG    1       27.339 -33.067   6.277  0.00  0.00    +0.000 A 
ATOM     21  C   LIG    1       26.582 -31.928   6.211  0.00  0.00    +0.006 A 
ENDBRANCH  15  16
ENDBRANCH  14  15
ENDBRANCH  13  14
ENDBRANCH   8  13
ENDBRANCH   2   8
ENDBRANCH   1   2
BRANCH   1  22
ATOM     22  C   LIG    1       26.205 -22.989   7.521  0.00  0.00    +0.100 C 
BRANCH  22  23
ATOM     23  N   LIG    1       26.892 -21.781   7.021  0.00  0.00    -0.290 NA
BRANCH  23  24
ATOM     24  C   LIG    1       28.101 -21.422   7.873  0.00  0.00    +0.100 C 
BRANCH  24  25
ATOM     25  C   LIG    1       28.835 -20.003   7.818  0.00  0.00    +0.101 C 
BRANCH  25  26
ATOM     26  N   LIG    1       29.893 -19.675   8.862  0.00  0.00    -0.281 NA
BRANCH  26  27
ATOM     27  C   LIG    1       29.924 -18.199   9.023  0.00  0.00    +0.206 C 
BRANCH  27  28
ATOM     28  C   LIG    1       30.278 -17.629  10.361  0.00  0.00    +0.319 C 
ATOM     29  O   LIG    1       30.659 -18.362  11.367  0.00  0.00    -0.250 OA
BRANCH  28  30
ATOM     30  O   LIG    1       30.258 -16.320  10.480  0.00  0.00    -0.480 OA
ATOM     31  H   LIG    1       31.105 -15.959  10.136  0.00  0.00    +0.295 HD
ENDBRANCH  28  30
ENDBRANCH  27  28
ENDBRANCH  26  27
BRANCH  26  32
ATOM     32  C   LIG    1       31.137 -20.466   8.614  0.00  0.00    +0.206 C 
BRANCH  32  33
ATOM     33  C   LIG    1       31.335 -21.894   9.158  0.00  0.00    +0.319 C 
ATOM     34  O   LIG    1       30.866 -22.380  10.178  0.00  0.00    -0.250 OA
BRANCH  33  35
ATOM     35  O   LIG    1       32.295 -22.599   8.510  0.00  0.00    -0.480 OA
ATOM     36  H   LIG    1       32.600 -23.227   9.201  0.00  0.00    +0.295 HD
ENDBRANCH  33  35
ENDBRANCH  32  33
ENDBRANCH  26  32
ENDBRANCH  25  26
ENDBRANCH  24  25
ENDBRANCH  23  24
BRANCH  23  37
ATOM     37  C   LIG    1       26.164 -20.538   6.687  0.00  0.00    +0.205 C 
BRANCH  37  39
ATOM     38  O   LIG    1       24.577 -20.175   4.915  0.00  0.00    -0.250 OA
ATOM     39  C   LIG    1       25.753 -20.242   5.260  0.00  0.00    +0.319 C 
BRANCH  39  40
ATOM     40  O   LIG    1       26.763 -19.954   4.418  0.00  0.00    -0.480 OA
ATOM     41  H   LIG    1       26.799 -18.987   4.288  0.00  0.00    +0.295 HD
ENDBRANCH  39  40
ENDBRANCH  37  39
ENDBRANCH  23  37
ENDBRANCH  22  23
ENDBRANCH   1  22
TORSDOF 25
ENDMDL
MODEL 5
REMARK VINA RESULT:      -7.3      1.318      2.128
REMARK  Name = *****
REMARK                            x       y       z     vdW  Elec       q    Type
REMARK                         _______ _______ _______ _____ _____    ______ ____
ROOT
ATOM      1  C   LIG    1       26.247 -20.849   5.150  0.00  0.00    +0.101 C 
ENDROOT
BRANCH   1   2
ATOM      2  N   LIG    1       24.869 -20.264   4.928  0.00  0.00    -0.277 NA
BRANCH   2   3
ATOM      3  C   LIG    1       24.764 -19.657   3.589  0.00  0.00    +0.206 C 
BRANCH   3   4
ATOM      4  C   LIG    1       24.984 -18.150   3.467  0.00  0.00    +0.319 C 
ATOM      5  O   LIG    1       24.194 -17.263   3.736  0.00  0.00    -0.250 OA
BRANCH   4   6
ATOM      6  O   LIG    1       26.216 -17.838   3.002  0.00  0.00    -0.480 OA
ATOM      7  H   LIG    1       26.552 -18.666   2.581  0.00  0.00    +0.295 HD
ENDBRANCH   4   6
ENDBRANCH   3   4
ENDBRANCH   2   3
BRANCH   2   8
ATOM      8  C   LIG    1       23.770 -21.194   5.237  0.00  0.00    +0.192 C 
BRANCH   8   9
ATOM      9  C   LIG    1       22.345 -20.507   4.937  0.00  0.00    +0.324 C 
ATOM     10  O   LIG    1       21.310 -21.075   4.669  0.00  0.00    -0.249 OA
BRANCH   9  11
ATOM     11  O   LIG    1       22.257 -19.205   5.301  0.00  0.00    -0.479 OA
ATOM     12  H   LIG    1       23.190 -18.897   5.249  0.00  0.00    +0.295 HD
ENDBRANCH   9  11
ENDBRANCH   8   9
BRANCH   8  13
ATOM     13  C   LIG    1       23.802 -22.261   6.483  0.00  0.00    +0.190 C 
BRANCH  13  14
ATOM     14  O   LIG    1       24.028 -23.689   6.297  0.00  0.00    -0.373 OA
BRANCH  14  15
ATOM     15  C   LIG    1       24.921 -24.182   5.274  0.00  0.00    +0.195 C 
BRANCH  15  16
ATOM     16  C   LIG    1       25.177 -25.671   5.359  0.00  0.00    -0.022 A 
ATOM     17  C   LIG    1       26.095 -26.488   4.783  0.00  0.00    +0.006 A 
ATOM     18  C   LIG    1       25.961 -27.904   4.913  0.00  0.00    +0.000 A 
ATOM     19  C   LIG    1       24.956 -28.524   5.662  0.00  0.00    +0.000 A 
ATOM     20  C   LIG    1       24.126 -27.718   6.342  0.00  0.00    +0.000 A 
ATOM     21  C   LIG    1       24.336 -26.378   6.153  0.00  0.00    +0.006 A 
ENDBRANCH  15  16
ENDBRANCH  14  15
ENDBRANCH  13  14
ENDBRANCH   8  13
ENDBRANCH   2   8
ENDBRANCH   1   2
BRANCH   1  22
ATOM     22  C   LIG    1       27.551 -20.068   5.647  0.00  0.00    +0.100 C 
BRANCH  22  23
ATOM     23  N   LIG    1       27.933 -20.001   7.072  0.00  0.00    -0.290 NA
BRANCH  23  24
ATOM     24  C   LIG    1       29.293 -19.346   7.266  0.00  0.00    +0.100 C 
BRANCH  24  25
ATOM     25  C   LIG    1       29.725 -18.577   8.598  0.00  0.00    +0.101 C 
BRANCH  25  26
ATOM     26  N   LIG    1       30.858 -19.140   9.445  0.00  0.00    -0.281 NA
BRANCH  26  27
ATOM     27  C   LIG    1       31.646 -17.994   9.964  0.00  0.00    +0.206 C 
BRANCH  27  28
ATOM     28  C   LIG    1       31.139 -17.259  11.166  0.00  0.00    +0.319 C 
ATOM     29  O   LIG    1       30.278 -16.286  11.092  0.00  0.00    -0.250 OA
BRANCH  28  30
ATOM     30  O   LIG    1       31.551 -17.678  12.343  0.00  0.00    -0.480 OA
ATOM     31  H   LIG    1       32.496 -17.935  12.272  0.00  0.00    +0.295 HD
ENDBRANCH  28  30
ENDBRANCH  27  28
ENDBRANCH  26  27
BRANCH  26  32
ATOM     32  C   LIG    1       31.509 -20.292   8.750  0.00  0.00    +0.206 C 
BRANCH  32  33
ATOM     33  C   LIG    1       31.366 -21.746   9.239  0.00  0.00    +0.319 C 
ATOM     34  O   LIG    1       30.750 -22.152  10.215  0.00  0.00    -0.250 OA
BRANCH  33  35
ATOM     35  O   LIG    1       32.187 -22.621   8.606  0.00  0.00    -0.480 OA
ATOM     36  H   LIG    1       32.704 -23.002   9.350  0.00  0.00    +0.295 HD
ENDBRANCH  33  35
ENDBRANCH  32  33
ENDBRANCH  26  32
ENDBRANCH  25  26
ENDBRANCH  24  25
ENDBRANCH  23  24
BRANCH  23  37
ATOM     37  C   LIG    1       27.840 -21.171   7.971  0.00  0.00    +0.205 C 
BRANCH  37  39
ATOM     38  O   LIG    1       25.905 -20.699   9.321  0.00  0.00    -0.250 OA
ATOM     39  C   LIG    1       26.536 -21.517   8.658  0.00  0.00    +0.319 C 
BRANCH  39  40
ATOM     40  O   LIG    1       26.062 -22.751   8.406  0.00  0.00    -0.480 OA
ATOM     41  H   LIG    1       25.172 -22.834   8.799  0.00  0.00    +0.295 HD
ENDBRANCH  39  40
ENDBRANCH  37  39
ENDBRANCH  23  37
ENDBRANCH  22  23
ENDBRANCH   1  22
TORSDOF 25
ENDMDL
MODEL 6
REMARK VINA RESULT:      -7.2      1.740      3.949
REMARK  Name = *****
REMARK                            x       y       z     vdW  Elec       q    Type
REMARK                         _______ _______ _______ _____ _____    ______ ____
ROOT
ATOM      1  C   LIG    1       25.625 -23.675   6.248  0.00  0.00    +0.101 C 
ENDROOT
BRANCH   1   2
ATOM      2  N   LIG    1       24.625 -24.638   6.851  0.00  0.00    -0.277 NA
BRANCH   2   3
ATOM      3  C   LIG    1       23.244 -24.169   6.633  0.00  0.00    +0.206 C 
BRANCH   3   4
ATOM      4  C   LIG    1       22.961 -22.677   6.801  0.00  0.00    +0.319 C 
ATOM      5  O   LIG    1       23.130 -22.001   7.800  0.00  0.00    -0.250 OA
BRANCH   4   6
ATOM      6  O   LIG    1       22.469 -22.108   5.676  0.00  0.00    -0.480 OA
ATOM      7  H   LIG    1       21.535 -21.869   5.893  0.00  0.00    +0.295 HD
ENDBRANCH   4   6
ENDBRANCH   3   4
ENDBRANCH   2   3
BRANCH   2   8
ATOM      8  C   LIG    1       24.835 -26.041   6.455  0.00  0.00    +0.192 C 
BRANCH   8   9
ATOM      9  C   LIG    1       26.287 -26.552   6.928  0.00  0.00    +0.324 C 
ATOM     10  O   LIG    1       26.559 -27.084   7.981  0.00  0.00    -0.249 OA
BRANCH   9  11
ATOM     11  O   LIG    1       27.206 -26.641   5.937  0.00  0.00    -0.479 OA
ATOM     12  H   LIG    1       27.120 -25.775   5.478  0.00  0.00    +0.295 HD
ENDBRANCH   9  11
ENDBRANCH   8   9
BRANCH   8  13
ATOM     13  C   LIG    1       24.269 -26.687   5.058  0.00  0.00    +0.190 C 
BRANCH  13  14
ATOM     14  O   LIG    1       23.945 -28.102   4.914  0.00  0.00    -0.373 OA
BRANCH  14  15
ATOM     15  C   LIG    1       24.875 -29.130   5.318  0.00  0.00    +0.195 C 
BRANCH  15  16
ATOM     16  C   LIG    1       24.395 -29.954   6.494  0.00  0.00    -0.022 A 
ATOM     17  C   LIG    1       24.274 -29.692   7.820  0.00  0.00    +0.006 A 
ATOM     18  C   LIG    1       23.963 -30.754   8.723  0.00  0.00    +0.000 A 
ATOM     19  C   LIG    1       23.709 -32.069   8.320  0.00  0.00    +0.000 A 
ATOM     20  C   LIG    1       23.695 -32.302   6.999  0.00  0.00    +0.000 A 
ATOM     21  C   LIG    1       24.004 -31.221   6.216  0.00  0.00    +0.006 A 
ENDBRANCH  15  16
ENDBRANCH  14  15
ENDBRANCH  13  14
ENDBRANCH   8  13
ENDBRANCH   2   8
ENDBRANCH   1   2
BRANCH   1  22
ATOM     22  C   LIG    1       26.499 -22.588   7.030  0.00  0.00    +0.100 C 
BRANCH  22  23
ATOM     23  N   LIG    1       26.721 -21.227   6.500  0.00  0.00    -0.290 NA
BRANCH  23  24
ATOM     24  C   LIG    1       27.563 -20.380   7.444  0.00  0.00    +0.100 C 
BRANCH  24  25
ATOM     25  C   LIG    1       28.904 -19.630   7.005  0.00  0.00    +0.101 C 
BRANCH  25  26
ATOM     26  N   LIG    1       30.241 -20.128   7.536  0.00  0.00    -0.281 NA
BRANCH  26  27
ATOM     27  C   LIG    1       29.998 -21.418   8.229  0.00  0.00    +0.206 C 
BRANCH  27  28
ATOM     28  C   LIG    1       31.049 -21.946   9.155  0.00  0.00    +0.319 C 
ATOM     29  O   LIG    1       30.919 -21.949  10.450  0.00  0.00    -0.250 OA
BRANCH  28  30
ATOM     30  O   LIG    1       32.116 -22.484   8.606  0.00  0.00    -0.480 OA
ATOM     31  H   LIG    1       32.915 -22.048   8.979  0.00  0.00    +0.295 HD
ENDBRANCH  28  30
ENDBRANCH  27  28
ENDBRANCH  26  27
BRANCH  26  32
ATOM     32  C   LIG    1       30.992 -19.013   8.189  0.00  0.00    +0.206 C 
BRANCH  32  33
ATOM     33  C   LIG    1       30.437 -18.230   9.394  0.00  0.00    +0.319 C 
ATOM     34  O   LIG    1       30.005 -17.086   9.411  0.00  0.00    -0.250 OA
BRANCH  33  35
ATOM     35  O   LIG    1       30.644 -18.841  10.588  0.00  0.00    -0.480 OA
ATOM     36  H   LIG    1       31.610 -19.017  10.570  0.00  0.00    +0.295 HD
ENDBRANCH  33  35
ENDBRANCH  32  33
ENDBRANCH  26  32
ENDBRANCH  25  26
ENDBRANCH  24  25
ENDBRANCH  23  24
BRANCH  23  37
ATOM     37  C   LIG    1       25.619 -20.394   5.975  0.00  0.00    +0.205 C 
BRANCH  37  39
ATOM     38  O   LIG    1       24.499 -21.105   3.967  0.00  0.00    -0.250 OA
ATOM     39  C   LIG    1       25.318 -20.356   4.491  0.00  0.00    +0.319 C 
BRANCH  39  40
ATOM     40  O   LIG    1       25.932 -19.375   3.804  0.00  0.00    -0.480 OA
ATOM     41  H   LIG    1       25.454 -19.232   2.964  0.00  0.00    +0.295 HD
ENDBRANCH  39  40
ENDBRANCH  37  39
ENDBRANCH  23  37
ENDBRANCH  22  23
ENDBRANCH   1  22
TORSDOF 25
ENDMDL
MODEL 7
REMARK VINA RESULT:      -7.1      1.920      3.794
REMARK  Name = *****
REMARK                            x       y       z     vdW  Elec       q    Type
REMARK                         _______ _______ _______ _____ _____    ______ ____
ROOT
ATOM      1  C   LIG    1       26.245 -24.371   6.856  0.00  0.00    +0.101 C 
ENDROOT
BRANCH   1   2
ATOM      2  N   LIG    1       25.010 -25.243   6.801  0.00  0.00    -0.277 NA
BRANCH   2   3
ATOM      3  C   LIG    1       23.951 -24.606   5.996  0.00  0.00    +0.206 C 
BRANCH   3   4
ATOM      4  C   LIG    1       23.049 -23.582   6.684  0.00  0.00    +0.319 C 
ATOM      5  O   LIG    1       23.393 -22.578   7.281  0.00  0.00    -0.250 OA
BRANCH   4   6
ATOM      6  O   LIG    1       21.735 -23.889   6.578  0.00  0.00    -0.480 OA
ATOM      7  H   LIG    1       21.414 -23.981   7.507  0.00  0.00    +0.295 HD
ENDBRANCH   4   6
ENDBRANCH   3   4
ENDBRANCH   2   3
BRANCH   2   8
ATOM      8  C   LIG    1       25.280 -26.638   6.413  0.00  0.00    +0.192 C 
BRANCH   8   9
ATOM      9  C   LIG    1       26.179 -26.690   5.079  0.00  0.00    +0.324 C 
ATOM     10  O   LIG    1       25.881 -26.257   3.987  0.00  0.00    -0.249 OA
BRANCH   9  11
ATOM     11  O   LIG    1       27.484 -26.991   5.286  0.00  0.00    -0.479 OA
ATOM     12  H   LIG    1       27.451 -27.581   6.073  0.00  0.00    +0.295 HD
ENDBRANCH   9  11
ENDBRANCH   8   9
BRANCH   8  13
ATOM     13  C   LIG    1       24.202 -27.860   6.596  0.00  0.00    +0.190 C 
BRANCH  13  14
ATOM     14  O   LIG    1       24.598 -29.222   6.934  0.00  0.00    -0.373 OA
BRANCH  14  15
ATOM     15  C   LIG    1       24.243 -29.815   8.203  0.00  0.00    +0.195 C 
BRANCH  15  16
ATOM     16  C   LIG    1       25.233 -29.518   9.308  0.00  0.00    -0.022 A 
ATOM     17  C   LIG    1       26.330 -28.722   9.380  0.00  0.00    +0.006 A 
ATOM     18  C   LIG    1       27.185 -28.800  10.522  0.00  0.00    +0.000 A 
ATOM     19  C   LIG    1       26.933 -29.617  11.628  0.00  0.00    +0.000 A 
ATOM     20  C   LIG    1       25.780 -30.305  11.619  0.00  0.00    +0.000 A 
ATOM     21  C   LIG    1       25.030 -30.164  10.482  0.00  0.00    +0.006 A 
ENDBRANCH  15  16
ENDBRANCH  14  15
ENDBRANCH  13  14
ENDBRANCH   8  13
ENDBRANCH   2   8
ENDBRANCH   1   2
BRANCH   1  22
ATOM     22  C   LIG    1       26.364 -22.917   7.509  0.00  0.00    +0.100 C 
BRANCH  22  23
ATOM     23  N   LIG    1       26.936 -21.769   6.776  0.00  0.00    -0.290 NA
BRANCH  23  24
ATOM     24  C   LIG    1       28.321 -21.401   7.290  0.00  0.00    +0.100 C 
BRANCH  24  25
ATOM     25  C   LIG    1       28.772 -19.906   7.628  0.00  0.00    +0.101 C 
BRANCH  25  26
ATOM     26  N   LIG    1       29.787 -19.670   8.738  0.00  0.00    -0.281 NA
BRANCH  26  27
ATOM     27  C   LIG    1       29.845 -18.209   8.993  0.00  0.00    +0.206 C 
BRANCH  27  28
ATOM     28  C   LIG    1       30.244 -17.732  10.355  0.00  0.00    +0.319 C 
ATOM     29  O   LIG    1       30.670 -18.530  11.290  0.00  0.00    -0.250 OA
BRANCH  28  30
ATOM     30  O   LIG    1       30.214 -16.435  10.569  0.00  0.00    -0.480 OA
ATOM     31  H   LIG    1       29.608 -16.022   9.915  0.00  0.00    +0.295 HD
ENDBRANCH  28  30
ENDBRANCH  27  28
ENDBRANCH  26  27
BRANCH  26  32
ATOM     32  C   LIG    1       31.022 -20.476   8.497  0.00  0.00    +0.206 C 
BRANCH  32  33
ATOM     33  C   LIG    1       31.240 -21.868   9.121  0.00  0.00    +0.319 C 
ATOM     34  O   LIG    1       30.771 -22.305  10.163  0.00  0.00    -0.250 OA
BRANCH  33  35
ATOM     35  O   LIG    1       32.219 -22.591   8.522  0.00  0.00    -0.480 OA
ATOM     36  H   LIG    1       31.712 -23.305   8.076  0.00  0.00    +0.295 HD
ENDBRANCH  33  35
ENDBRANCH  32  33
ENDBRANCH  26  32
ENDBRANCH  25  26
ENDBRANCH  24  25
ENDBRANCH  23  24
BRANCH  23  37
ATOM     37  C   LIG    1       26.175 -20.524   6.537  0.00  0.00    +0.205 C 
BRANCH  37  39
ATOM     38  O   LIG    1       24.306 -20.164   5.064  0.00  0.00    -0.250 OA
ATOM     39  C   LIG    1       25.522 -20.263   5.195  0.00  0.00    +0.319 C 
BRANCH  39  40
ATOM     40  O   LIG    1       26.373 -20.043   4.175  0.00  0.00    -0.480 OA
ATOM     41  H   LIG    1       26.579 -19.089   4.137  0.00  0.00    +0.295 HD
ENDBRANCH  39  40
ENDBRANCH  37  39
ENDBRANCH  23  37
ENDBRANCH  22  23
ENDBRANCH   1  22
TORSDOF 25
ENDMDL
MODEL 8
REMARK VINA RESULT:      -7.1      1.926      4.109
REMARK  Name = *****
REMARK                            x       y       z     vdW  Elec       q    Type
REMARK                         _______ _______ _______ _____ _____    ______ ____
ROOT
ATOM      1  C   LIG    1       25.972 -23.935   6.513  0.00  0.00    +0.101 C 
ENDROOT
BRANCH   1   2
ATOM      2  N   LIG    1       24.874 -24.921   6.850  0.00  0.00    -0.277 NA
BRANCH   2   3
ATOM      3  C   LIG    1       23.581 -24.480   6.298  0.00  0.00    +0.206 C 
BRANCH   3   4
ATOM      4  C   LIG    1       23.052 -23.111   6.724  0.00  0.00    +0.319 C 
ATOM      5  O   LIG    1       23.188 -22.570   7.806  0.00  0.00    -0.250 OA
BRANCH   4   6
ATOM      6  O   LIG    1       22.365 -22.487   5.738  0.00  0.00    -0.480 OA
ATOM      7  H   LIG    1       22.680 -22.902   4.899  0.00  0.00    +0.295 HD
ENDBRANCH   4   6
ENDBRANCH   3   4
ENDBRANCH   2   3
BRANCH   2   8
ATOM      8  C   LIG    1       25.205 -26.318   6.518  0.00  0.00    +0.192 C 
BRANCH   8   9
ATOM      9  C   LIG    1       26.385 -26.376   5.425  0.00  0.00    +0.324 C 
ATOM     10  O   LIG    1       27.546 -26.656   5.628  0.00  0.00    -0.249 OA
BRANCH   9  11
ATOM     11  O   LIG    1       25.964 -26.389   4.137  0.00  0.00    -0.479 OA
ATOM     12  H   LIG    1       25.312 -25.653   4.111  0.00  0.00    +0.295 HD
ENDBRANCH   9  11
ENDBRANCH   8   9
BRANCH   8  13
ATOM     13  C   LIG    1       24.095 -27.522   6.437  0.00  0.00    +0.190 C 
BRANCH  13  14
ATOM     14  O   LIG    1       24.257 -28.797   7.126  0.00  0.00    -0.373 OA
BRANCH  14  15
ATOM     15  C   LIG    1       25.543 -29.221   7.630  0.00  0.00    +0.195 C 
BRANCH  15  16
ATOM     16  C   LIG    1       25.631 -29.223   9.141  0.00  0.00    -0.022 A 
ATOM     17  C   LIG    1       24.917 -29.850  10.109  0.00  0.00    +0.006 A 
ATOM     18  C   LIG    1       25.123 -29.498  11.478  0.00  0.00    +0.000 A 
ATOM     19  C   LIG    1       26.076 -28.569  11.907  0.00  0.00    +0.000 A 
ATOM     20  C   LIG    1       26.875 -28.046  10.964  0.00  0.00    +0.000 A 
ATOM     21  C   LIG    1       26.600 -28.446   9.684  0.00  0.00    +0.006 A 
ENDBRANCH  15  16
ENDBRANCH  14  15
ENDBRANCH  13  14
ENDBRANCH   8  13
ENDBRANCH   2   8
ENDBRANCH   1   2
BRANCH   1  22
ATOM     22  C   LIG    1       26.455 -22.698   7.404  0.00  0.00    +0.100 C 
BRANCH  22  23
ATOM     23  N   LIG    1       26.662 -21.351   6.835  0.00  0.00    -0.290 NA
BRANCH  23  24
ATOM     24  C   LIG    1       27.498 -20.469   7.751  0.00  0.00    +0.100 C 
BRANCH  24  25
ATOM     25  C   LIG    1       28.756 -19.617   7.257  0.00  0.00    +0.101 C 
BRANCH  25  26
ATOM     26  N   LIG    1       30.160 -20.107   7.587  0.00  0.00    -0.281 NA
BRANCH  26  27
ATOM     27  C   LIG    1       30.036 -21.459   8.185  0.00  0.00    +0.206 C 
BRANCH  27  28
ATOM     28  C   LIG    1       31.091 -21.921   9.142  0.00  0.00    +0.319 C 
ATOM     29  O   LIG    1       30.921 -21.937  10.432  0.00  0.00    -0.250 OA
BRANCH  28  30
ATOM     30  O   LIG    1       32.207 -22.388   8.626  0.00  0.00    -0.480 OA
ATOM     31  H   LIG    1       32.244 -23.357   8.781  0.00  0.00    +0.295 HD
ENDBRANCH  28  30
ENDBRANCH  27  28
ENDBRANCH  26  27
BRANCH  26  32
ATOM     32  C   LIG    1       30.950 -19.023   8.247  0.00  0.00    +0.206 C 
BRANCH  32  33
ATOM     33  C   LIG    1       30.405 -18.201   9.430  0.00  0.00    +0.319 C 
ATOM     34  O   LIG    1       30.003 -17.046   9.419  0.00  0.00    -0.250 OA
BRANCH  33  35
ATOM     35  O   LIG    1       30.587 -18.791  10.638  0.00  0.00    -0.480 OA
ATOM     36  H   LIG    1       31.467 -19.215  10.536  0.00  0.00    +0.295 HD
ENDBRANCH  33  35
ENDBRANCH  32  33
ENDBRANCH  26  32
ENDBRANCH  25  26
ENDBRANCH  24  25
ENDBRANCH  23  24
BRANCH  23  37
ATOM     37  C   LIG    1       25.550 -20.544   6.289  0.00  0.00    +0.205 C 
BRANCH  37  39
ATOM     38  O   LIG    1       25.628 -19.501   4.122  0.00  0.00    -0.250 OA
ATOM     39  C   LIG    1       25.306 -20.474   4.796  0.00  0.00    +0.319 C 
BRANCH  39  40
ATOM     40  O   LIG    1       24.807 -21.595   4.241  0.00  0.00    -0.480 OA
ATOM     41  H   LIG    1       23.859 -21.457   4.050  0.00  0.00    +0.295 HD
ENDBRANCH  39  40
ENDBRANCH  37  39
ENDBRANCH  23  37
ENDBRANCH  22  23
ENDBRANCH   1  22
TORSDOF 25
ENDMDL
MODEL 9
REMARK VINA RESULT:      -7.1      2.053      3.935
REMARK  Name = *****
REMARK                            x       y       z     vdW  Elec       q    Type
REMARK                         _______ _______ _______ _____ _____    ______ ____
ROOT
ATOM      1  C   LIG    1       27.439 -20.423   7.733  0.00  0.00    +0.101 C 
ENDROOT
BRANCH   1   2
ATOM      2  N   LIG    1       26.300 -20.383   6.737  0.00  0.00    -0.277 NA
BRANCH   2   3
ATOM      3  C   LIG    1       26.793 -20.063   5.385  0.00  0.00    +0.206 C 
BRANCH   3   4
ATOM      4  C   LIG    1       25.760 -19.752   4.303  0.00  0.00    +0.319 C 
ATOM      5  O   LIG    1       25.461 -18.658   3.859  0.00  0.00    -0.250 OA
BRANCH   4   6
ATOM      6  O   LIG    1       25.146 -20.862   3.832  0.00  0.00    -0.480 OA
ATOM      7  H   LIG    1       25.877 -21.468   3.559  0.00  0.00    +0.295 HD
ENDBRANCH   4   6
ENDBRANCH   3   4
ENDBRANCH   2   3
BRANCH   2   8
ATOM      8  C   LIG    1       25.432 -21.573   6.776  0.00  0.00    +0.192 C 
BRANCH   8   9
ATOM      9  C   LIG    1       23.896 -21.147   6.995  0.00  0.00    +0.324 C 
ATOM     10  O   LIG    1       23.439 -20.548   7.944  0.00  0.00    -0.249 OA
BRANCH   9  11
ATOM     11  O   LIG    1       23.123 -21.224   5.885  0.00  0.00    -0.479 OA
ATOM     12  H   LIG    1       22.214 -21.305   6.254  0.00  0.00    +0.295 HD
ENDBRANCH   9  11
ENDBRANCH   8   9
BRANCH   8  13
ATOM     13  C   LIG    1       25.879 -23.005   7.440  0.00  0.00    +0.190 C 
BRANCH  13  14
ATOM     14  O   LIG    1       26.151 -24.197   6.645  0.00  0.00    -0.373 OA
BRANCH  14  15
ATOM     15  C   LIG    1       25.131 -24.794   5.815  0.00  0.00    +0.195 C 
BRANCH  15  16
ATOM     16  C   LIG    1       25.251 -26.298   5.695  0.00  0.00    -0.022 A 
ATOM     17  C   LIG    1       25.925 -27.108   4.839  0.00  0.00    +0.006 A 
ATOM     18  C   LIG    1       25.685 -28.516   4.864  0.00  0.00    +0.000 A 
ATOM     19  C   LIG    1       24.827 -29.143   5.772  0.00  0.00    +0.000 A 
ATOM     20  C   LIG    1       24.263 -28.362   6.706  0.00  0.00    +0.000 A 
ATOM     21  C   LIG    1       24.554 -27.028   6.599  0.00  0.00    +0.006 A 
ENDBRANCH  15  16
ENDBRANCH  14  15
ENDBRANCH  13  14
ENDBRANCH   8  13
ENDBRANCH   2   8
ENDBRANCH   1   2
BRANCH   1  22
ATOM     22  C   LIG    1       28.776 -19.547   7.693  0.00  0.00    +0.100 C 
BRANCH  22  23
ATOM     23  N   LIG    1       29.785 -19.601   8.771  0.00  0.00    -0.290 NA
BRANCH  23  24
ATOM     24  C   LIG    1       30.017 -18.235   9.401  0.00  0.00    +0.100 C 
BRANCH  24  25
ATOM     25  C   LIG    1       30.291 -18.011  10.959  0.00  0.00    +0.101 C 
BRANCH  25  26
ATOM     26  N   LIG    1       31.339 -16.994  11.390  0.00  0.00    -0.281 NA
BRANCH  26  27
ATOM     27  C   LIG    1       32.510 -17.146  10.491  0.00  0.00    +0.206 C 
BRANCH  27  28
ATOM     28  C   LIG    1       32.714 -16.142   9.400  0.00  0.00    +0.319 C 
ATOM     29  O   LIG    1       33.025 -14.899   9.628  0.00  0.00    -0.250 OA
BRANCH  28  30
ATOM     30  O   LIG    1       32.634 -16.576   8.161  0.00  0.00    -0.480 OA
ATOM     31  H   LIG    1       32.066 -15.960   7.648  0.00  0.00    +0.295 HD
ENDBRANCH  28  30
ENDBRANCH  27  28
ENDBRANCH  26  27
BRANCH  26  32
ATOM     32  C   LIG    1       31.483 -16.989  12.877  0.00  0.00    +0.206 C 
BRANCH  32  33
ATOM     33  C   LIG    1       32.233 -15.878  13.636  0.00  0.00    +0.319 C 
ATOM     34  O   LIG    1       32.248 -15.670  14.841  0.00  0.00    -0.250 OA
BRANCH  33  35
ATOM     35  O   LIG    1       32.769 -14.928  12.828  0.00  0.00    -0.480 OA
ATOM     36  H   LIG    1       33.324 -15.459  12.216  0.00  0.00    +0.295 HD
ENDBRANCH  33  35
ENDBRANCH  32  33
ENDBRANCH  26  32
ENDBRANCH  25  26
ENDBRANCH  24  25
ENDBRANCH  23  24
BRANCH  23  37
ATOM     37  C   LIG    1       31.092 -20.270   8.599  0.00  0.00    +0.205 C 
BRANCH  37  39
ATOM     38  O   LIG    1       30.761 -22.000  10.238  0.00  0.00    -0.250 OA
ATOM     39  C   LIG    1       31.363 -21.615   9.241  0.00  0.00    +0.319 C 
BRANCH  39  40
ATOM     40  O   LIG    1       32.234 -22.402   8.581  0.00  0.00    -0.480 OA
ATOM     41  H   LIG    1       32.816 -21.839   8.035  0.00  0.00    +0.295 HD
ENDBRANCH  39  40
ENDBRANCH  37  39
ENDBRANCH  23  37
ENDBRANCH  22  23
ENDBRANCH   1  22
TORSDOF 25
ENDMDL
