MODEL 1
REMARK VINA RESULT:      17.7      0.000      0.000
REMARK  Name = *****
REMARK                            x       y       z     vdW  Elec       q    Type
REMARK                         _______ _______ _______ _____ _____    ______ ____
ROOT
ATOM      1  C   LIG    1       23.010 -19.237   4.476  0.00  0.00    +0.098 C 
ENDROOT
BRANCH   1   2
ATOM      2  C   LIG    1       24.219 -19.878   5.357  0.00  0.00    -0.028 A 
ATOM      3  C   LIG    1       24.003 -20.875   6.339  0.00  0.00    +0.005 A 
ATOM      4  C   LIG    1       25.057 -21.478   7.049  0.00  0.00    +0.000 A 
ATOM      5  C   LIG    1       26.368 -21.094   6.816  0.00  0.00    +0.000 A 
ATOM      6  C   LIG    1       26.620 -20.091   5.888  0.00  0.00    +0.000 A 
ATOM      7  C   LIG    1       25.562 -19.470   5.197  0.00  0.00    +0.005 A 
ENDBRANCH   1   2
BRANCH   1   8
ATOM      8  C   LIG    1       22.560 -17.828   5.040  0.00  0.00    -0.028 A 
ATOM      9  C   LIG    1       22.302 -17.573   6.398  0.00  0.00    +0.005 A 
ATOM     10  C   LIG    1       21.827 -16.352   6.894  0.00  0.00    +0.000 A 
ATOM     11  C   LIG    1       21.670 -15.283   6.037  0.00  0.00    +0.000 A 
ATOM     12  C   LIG    1       21.981 -15.454   4.696  0.00  0.00    +0.000 A 
ATOM     13  C   LIG    1       22.387 -16.707   4.203  0.00  0.00    +0.005 A 
ENDBRANCH   1   8
BRANCH   1  16
ATOM     14  C   LIG    1       19.431 -21.070   4.209  0.00  0.00    +0.131 C 
ATOM     15  N   LIG    1       20.456 -20.040   4.010  0.00  0.00    -0.307 N 
ATOM     16  C   LIG    1       21.771 -20.324   4.489  0.00  0.00    +0.230 C 
ATOM     17  O   LIG    1       21.987 -21.452   4.909  0.00  0.00    -0.274 OA
ATOM     18  C   LIG    1       19.872 -18.819   3.442  0.00  0.00    +0.131 C 
ENDBRANCH   1  16
BRANCH   1  19
ATOM     19  C   LIG    1       23.512 -19.144   2.980  0.00  0.00    +0.041 C 
BRANCH  19  20
ATOM     20  C   LIG    1       24.306 -17.894   2.514  0.00  0.00    +0.086 C 
BRANCH  20  21
ATOM     21  N   LIG    1       25.195 -17.358   3.580  0.00  0.00    -0.302 NA
ATOM     22  C   LIG    1       26.580 -17.125   3.124  0.00  0.00    +0.087 C 
ATOM     23  C   LIG    1       26.783 -15.871   2.269  0.00  0.00    +0.055 C 
ATOM     24  C   LIG    1       26.175 -14.588   2.884  0.00  0.00    +0.093 C 
ATOM     25  C   LIG    1       24.740 -14.904   3.363  0.00  0.00    +0.055 C 
ATOM     26  C   LIG    1       24.692 -16.153   4.247  0.00  0.00    +0.087 C 
BRANCH  24  27
ATOM     27  C   LIG    1       27.052 -13.896   3.936  0.00  0.00    -0.016 A 
ATOM     28  C   LIG    1       26.865 -14.098   5.318  0.00  0.00    +0.008 A 
ATOM     29  C   LIG    1       27.613 -13.409   6.274  0.00  0.00    +0.020 A 
ATOM     30  C   LIG    1       28.564 -12.486   5.868  0.00  0.00    +0.041 A 
ATOM     31 CL   LIG    1       29.473 -11.633   7.051  0.00  0.00    -0.084 Cl
ATOM     32  C   LIG    1       28.767 -12.245   4.514  0.00  0.00    +0.020 A 
ATOM     33  C   LIG    1       28.014 -12.939   3.556  0.00  0.00    +0.008 A 
ENDBRANCH  24  27
BRANCH  24  34
ATOM     34  O   LIG    1       26.106 -13.626   1.812  0.00  0.00    -0.384 OA
ATOM     35  H   LIG    1       26.933 -13.657   1.306  0.00  0.00    +0.211 HD
ENDBRANCH  24  34
ENDBRANCH  20  21
ENDBRANCH  19  20
ENDBRANCH   1  19
TORSDOF 8
ENDMDL
