MODEL 1
REMARK VINA RESULT:      -5.6      0.000      0.000
REMARK  Name = *****
REMARK                            x       y       z     vdW  Elec       q    Type
REMARK                         _______ _______ _______ _____ _____    ______ ____
ROOT
ATOM      1  N   LIG    1       26.005 -16.003   3.642  0.00  0.00    -0.310 N 
ENDROOT
BRANCH   1   2
ATOM      2  C   LIG    1       25.190 -14.912   3.247  0.00  0.00    +0.121 A 
ATOM      3  N   LIG    1       25.485 -14.274   2.099  0.00  0.00    -0.240 NA
ATOM      4  C   LIG    1       24.963 -13.041   1.913  0.00  0.00    +0.113 A 
ATOM      5  C   LIG    1       24.258 -12.334   2.863  0.00  0.00    +0.020 A 
ATOM      6  C   LIG    1       23.915 -12.991   4.010  0.00  0.00    +0.005 A 
ATOM      7  C   LIG    1       24.234 -14.322   4.064  0.00  0.00    +0.043 A 
ENDBRANCH   1   2
BRANCH   1   8
ATOM      8  C   LIG    1       27.425 -15.648   3.963  0.00  0.00    +0.122 C 
BRANCH   8   9
ATOM      9  C   LIG    1       27.937 -14.177   3.709  0.00  0.00    +0.103 C 
BRANCH   9  11
ATOM     10  C   LIG    1       27.143 -13.406   5.927  0.00  0.00    +0.104 C 
ATOM     11  N   LIG    1       27.702 -13.043   4.641  0.00  0.00    -0.307 NA
ATOM     12  C   LIG    1       28.872 -12.193   4.827  0.00  0.00    +0.104 C 
ENDBRANCH   9  11
ENDBRANCH   8   9
ENDBRANCH   1   8
BRANCH   1  13
ATOM     13  C   LIG    1       25.762 -17.323   3.013  0.00  0.00    +0.141 C 
BRANCH  13  14
ATOM     14  C   LIG    1       24.838 -18.332   3.689  0.00  0.00    -0.030 A 
ATOM     15  C   LIG    1       25.332 -19.604   4.031  0.00  0.00    +0.005 A 
ATOM     16  C   LIG    1       24.511 -20.521   4.686  0.00  0.00    +0.000 A 
ATOM     17  C   LIG    1       23.163 -20.234   4.902  0.00  0.00    +0.000 A 
ATOM     18  C   LIG    1       22.633 -19.026   4.458  0.00  0.00    +0.000 A 
ATOM     19  C   LIG    1       23.483 -18.049   3.948  0.00  0.00    +0.005 A 
ENDBRANCH  13  14
ENDBRANCH   1  13
TORSDOF 6
ENDMDL
MODEL 2
REMARK VINA RESULT:      -5.3      2.768      6.633
REMARK  Name = *****
REMARK                            x       y       z     vdW  Elec       q    Type
REMARK                         _______ _______ _______ _____ _____    ______ ____
ROOT
ATOM      1  N   LIG    1       26.311 -18.792   4.335  0.00  0.00    -0.310 N 
ENDROOT
BRANCH   1   2
ATOM      2  C   LIG    1       27.458 -19.228   5.045  0.00  0.00    +0.121 A 
ATOM      3  N   LIG    1       27.339 -20.292   5.862  0.00  0.00    -0.240 NA
ATOM      4  C   LIG    1       28.299 -20.476   6.797  0.00  0.00    +0.113 A 
ATOM      5  C   LIG    1       29.319 -19.588   7.062  0.00  0.00    +0.020 A 
ATOM      6  C   LIG    1       29.473 -18.534   6.208  0.00  0.00    +0.005 A 
ATOM      7  C   LIG    1       28.645 -18.512   5.116  0.00  0.00    +0.043 A 
ENDBRANCH   1   2
BRANCH   1   8
ATOM      8  C   LIG    1       25.269 -19.844   4.108  0.00  0.00    +0.122 C 
BRANCH   8   9
ATOM      9  C   LIG    1       23.835 -19.426   3.599  0.00  0.00    +0.103 C 
BRANCH   9  11
ATOM     10  C   LIG    1       22.778 -20.018   5.761  0.00  0.00    +0.104 C 
ATOM     11  N   LIG    1       22.621 -19.408   4.456  0.00  0.00    -0.307 NA
ATOM     12  C   LIG    1       22.027 -18.084   4.593  0.00  0.00    +0.104 C 
ENDBRANCH   9  11
ENDBRANCH   8   9
ENDBRANCH   1   8
BRANCH   1  13
ATOM     13  C   LIG    1       26.491 -17.776   3.271  0.00  0.00    +0.141 C 
BRANCH  13  14
ATOM     14  C   LIG    1       26.274 -16.298   3.582  0.00  0.00    -0.030 A 
ATOM     15  C   LIG    1       24.965 -15.785   3.637  0.00  0.00    +0.005 A 
ATOM     16  C   LIG    1       24.752 -14.445   3.960  0.00  0.00    +0.000 A 
ATOM     17  C   LIG    1       25.830 -13.575   4.115  0.00  0.00    +0.000 A 
ATOM     18  C   LIG    1       27.129 -14.045   3.942  0.00  0.00    +0.000 A 
ATOM     19  C   LIG    1       27.349 -15.410   3.777  0.00  0.00    +0.005 A 
ENDBRANCH  13  14
ENDBRANCH   1  13
TORSDOF 6
ENDMDL
MODEL 3
REMARK VINA RESULT:      -5.2      2.240      3.630
REMARK  Name = *****
REMARK                            x       y       z     vdW  Elec       q    Type
REMARK                         _______ _______ _______ _____ _____    ______ ____
ROOT
ATOM      1  N   LIG    1       26.656 -17.442   4.053  0.00  0.00    -0.310 N 
ENDROOT
BRANCH   1   2
ATOM      2  C   LIG    1       26.600 -16.079   3.669  0.00  0.00    +0.121 A 
ATOM      3  N   LIG    1       27.702 -15.322   3.827  0.00  0.00    -0.240 NA
ATOM      4  C   LIG    1       27.548 -13.978   3.816  0.00  0.00    +0.113 A 
ATOM      5  C   LIG    1       26.335 -13.326   3.784  0.00  0.00    +0.020 A 
ATOM      6  C   LIG    1       25.219 -14.084   3.575  0.00  0.00    +0.005 A 
ATOM      7  C   LIG    1       25.427 -15.416   3.331  0.00  0.00    +0.043 A 
ENDBRANCH   1   2
BRANCH   1   8
ATOM      8  C   LIG    1       27.981 -17.894   4.587  0.00  0.00    +0.122 C 
BRANCH   8   9
ATOM      9  C   LIG    1       28.141 -19.366   5.133  0.00  0.00    +0.103 C 
BRANCH   9  11
ATOM     10  C   LIG    1       27.016 -20.442   7.062  0.00  0.00    +0.104 C 
ATOM     11  N   LIG    1       28.174 -19.719   6.576  0.00  0.00    -0.307 NA
ATOM     12  C   LIG    1       29.396 -20.406   6.978  0.00  0.00    +0.104 C 
ENDBRANCH   9  11
ENDBRANCH   8   9
ENDBRANCH   1   8
BRANCH   1  13
ATOM     13  C   LIG    1       25.871 -18.424   3.269  0.00  0.00    +0.141 C 
BRANCH  13  14
ATOM     14  C   LIG    1       24.650 -19.097   3.890  0.00  0.00    -0.030 A 
ATOM     15  C   LIG    1       24.709 -20.460   4.235  0.00  0.00    +0.005 A 
ATOM     16  C   LIG    1       23.615 -21.077   4.841  0.00  0.00    +0.000 A 
ATOM     17  C   LIG    1       22.415 -20.385   5.003  0.00  0.00    +0.000 A 
ATOM     18  C   LIG    1       22.306 -19.072   4.555  0.00  0.00    +0.000 A 
ATOM     19  C   LIG    1       23.440 -18.407   4.096  0.00  0.00    +0.005 A 
ENDBRANCH  13  14
ENDBRANCH   1  13
TORSDOF 6
ENDMDL
MODEL 4
REMARK VINA RESULT:      -4.5      2.545      6.046
REMARK  Name = *****
REMARK                            x       y       z     vdW  Elec       q    Type
REMARK                         _______ _______ _______ _____ _____    ______ ____
ROOT
ATOM      1  N   LIG    1       26.002 -18.690   3.802  0.00  0.00    -0.310 N 
ENDROOT
BRANCH   1   2
ATOM      2  C   LIG    1       24.853 -19.402   4.229  0.00  0.00    +0.121 A 
ATOM      3  N   LIG    1       23.641 -18.863   3.993  0.00  0.00    -0.240 NA
ATOM      4  C   LIG    1       22.594 -19.337   4.707  0.00  0.00    +0.113 A 
ATOM      5  C   LIG    1       22.693 -20.236   5.747  0.00  0.00    +0.020 A 
ATOM      6  C   LIG    1       23.909 -20.821   5.959  0.00  0.00    +0.005 A 
ATOM      7  C   LIG    1       24.894 -20.517   5.056  0.00  0.00    +0.043 A 
ENDBRANCH   1   2
BRANCH   1   8
ATOM      8  C   LIG    1       27.122 -18.642   4.796  0.00  0.00    +0.122 C 
BRANCH   8   9
ATOM      9  C   LIG    1       27.566 -19.964   5.534  0.00  0.00    +0.103 C 
BRANCH   9  11
ATOM     10  C   LIG    1       29.011 -21.282   7.057  0.00  0.00    +0.104 C 
ATOM     11  N   LIG    1       28.434 -19.992   6.741  0.00  0.00    -0.307 NA
ATOM     12  C   LIG    1       29.473 -18.969   6.731  0.00  0.00    +0.104 C 
ENDBRANCH   9  11
ENDBRANCH   8   9
ENDBRANCH   1   8
BRANCH   1  13
ATOM     13  C   LIG    1       25.809 -17.499   2.941  0.00  0.00    +0.141 C 
BRANCH  13  14
ATOM     14  C   LIG    1       26.016 -16.101   3.515  0.00  0.00    -0.030 A 
ATOM     15  C   LIG    1       24.897 -15.305   3.822  0.00  0.00    +0.005 A 
ATOM     16  C   LIG    1       25.071 -14.041   4.385  0.00  0.00    +0.000 A 
ATOM     17  C   LIG    1       26.350 -13.506   4.539  0.00  0.00    +0.000 A 
ATOM     18  C   LIG    1       27.460 -14.236   4.125  0.00  0.00    +0.000 A 
ATOM     19  C   LIG    1       27.299 -15.555   3.712  0.00  0.00    +0.005 A 
ENDBRANCH  13  14
ENDBRANCH   1  13
TORSDOF 6
ENDMDL
MODEL 5
REMARK VINA RESULT:      -4.4      1.055      3.108
REMARK  Name = *****
REMARK                            x       y       z     vdW  Elec       q    Type
REMARK                         _______ _______ _______ _____ _____    ______ ____
ROOT
ATOM      1  N   LIG    1       25.574 -15.507   3.435  0.00  0.00    -0.310 N 
ENDROOT
BRANCH   1   2
ATOM      2  C   LIG    1       26.683 -14.749   3.890  0.00  0.00    +0.121 A 
ATOM      3  N   LIG    1       26.670 -14.289   5.155  0.00  0.00    -0.240 NA
ATOM      4  C   LIG    1       27.520 -13.284   5.467  0.00  0.00    +0.113 A 
ATOM      5  C   LIG    1       28.304 -12.607   4.558  0.00  0.00    +0.020 A 
ATOM      6  C   LIG    1       28.358 -13.098   3.285  0.00  0.00    +0.005 A 
ATOM      7  C   LIG    1       27.689 -14.272   3.059  0.00  0.00    +0.043 A 
ENDBRANCH   1   2
BRANCH   1   8
ATOM      8  C   LIG    1       24.243 -15.051   3.952  0.00  0.00    +0.122 C 
BRANCH   8   9
ATOM      9  C   LIG    1       23.595 -13.731   3.380  0.00  0.00    +0.103 C 
BRANCH   9  11
ATOM     10  C   LIG    1       24.414 -11.789   2.075  0.00  0.00    +0.104 C 
ATOM     11  N   LIG    1       24.271 -12.407   3.378  0.00  0.00    -0.307 NA
ATOM     12  C   LIG    1       23.689 -11.458   4.319  0.00  0.00    +0.104 C 
ENDBRANCH   9  11
ENDBRANCH   8   9
ENDBRANCH   1   8
BRANCH   1  13
ATOM     13  C   LIG    1       25.758 -16.963   3.228  0.00  0.00    +0.141 C 
BRANCH  13  14
ATOM     14  C   LIG    1       24.711 -17.946   3.743  0.00  0.00    -0.030 A 
ATOM     15  C   LIG    1       25.049 -19.303   3.893  0.00  0.00    +0.005 A 
ATOM     16  C   LIG    1       24.114 -20.205   4.402  0.00  0.00    +0.000 A 
ATOM     17  C   LIG    1       22.805 -19.798   4.654  0.00  0.00    +0.000 A 
ATOM     18  C   LIG    1       22.426 -18.484   4.393  0.00  0.00    +0.000 A 
ATOM     19  C   LIG    1       23.393 -17.548   4.037  0.00  0.00    +0.005 A 
ENDBRANCH  13  14
ENDBRANCH   1  13
TORSDOF 6
ENDMDL
MODEL 6
REMARK VINA RESULT:      -4.3      2.200      4.563
REMARK  Name = *****
REMARK                            x       y       z     vdW  Elec       q    Type
REMARK                         _______ _______ _______ _____ _____    ______ ____
ROOT
ATOM      1  N   LIG    1       26.589 -18.216   3.649  0.00  0.00    -0.310 N 
ENDROOT
BRANCH   1   2
ATOM      2  C   LIG    1       27.382 -18.579   4.767  0.00  0.00    +0.121 A 
ATOM      3  N   LIG    1       28.561 -17.955   4.947  0.00  0.00    -0.240 NA
ATOM      4  C   LIG    1       29.463 -18.540   5.768  0.00  0.00    +0.113 A 
ATOM      5  C   LIG    1       29.318 -19.789   6.332  0.00  0.00    +0.020 A 
ATOM      6  C   LIG    1       28.108 -20.405   6.194  0.00  0.00    +0.005 A 
ATOM      7  C   LIG    1       27.124 -19.678   5.576  0.00  0.00    +0.043 A 
ENDBRANCH   1   2
BRANCH   1   8
ATOM      8  C   LIG    1       26.088 -16.804   3.661  0.00  0.00    +0.122 C 
BRANCH   8   9
ATOM      9  C   LIG    1       27.071 -15.624   3.300  0.00  0.00    +0.103 C 
BRANCH   9  11
ATOM     10  C   LIG    1       27.948 -13.413   3.996  0.00  0.00    +0.104 C 
ATOM     11  N   LIG    1       26.796 -14.193   3.593  0.00  0.00    -0.307 NA
ATOM     12  C   LIG    1       26.081 -13.509   2.522  0.00  0.00    +0.104 C 
ENDBRANCH   9  11
ENDBRANCH   8   9
ENDBRANCH   1   8
BRANCH   1  13
ATOM     13  C   LIG    1       25.703 -19.244   3.055  0.00  0.00    +0.141 C 
BRANCH  13  14
ATOM     14  C   LIG    1       24.500 -19.761   3.839  0.00  0.00    -0.030 A 
ATOM     15  C   LIG    1       23.390 -18.920   4.039  0.00  0.00    +0.005 A 
ATOM     16  C   LIG    1       22.267 -19.392   4.718  0.00  0.00    +0.000 A 
ATOM     17  C   LIG    1       22.278 -20.657   5.307  0.00  0.00    +0.000 A 
ATOM     18  C   LIG    1       23.418 -21.451   5.220  0.00  0.00    +0.000 A 
ATOM     19  C   LIG    1       24.476 -21.047   4.411  0.00  0.00    +0.005 A 
ENDBRANCH  13  14
ENDBRANCH   1  13
TORSDOF 6
ENDMDL
MODEL 7
REMARK VINA RESULT:      -4.2      1.473      5.675
REMARK  Name = *****
REMARK                            x       y       z     vdW  Elec       q    Type
REMARK                         _______ _______ _______ _____ _____    ______ ____
ROOT
ATOM      1  N   LIG    1       24.525 -15.815   4.057  0.00  0.00    -0.310 N 
ENDROOT
BRANCH   1   2
ATOM      2  C   LIG    1       23.950 -17.103   3.914  0.00  0.00    +0.121 A 
ATOM      3  N   LIG    1       22.678 -17.286   4.319  0.00  0.00    -0.240 NA
ATOM      4  C   LIG    1       22.262 -18.556   4.526  0.00  0.00    +0.113 A 
ATOM      5  C   LIG    1       23.075 -19.667   4.481  0.00  0.00    +0.020 A 
ATOM      6  C   LIG    1       24.350 -19.496   4.025  0.00  0.00    +0.005 A 
ATOM      7  C   LIG    1       24.670 -18.241   3.575  0.00  0.00    +0.043 A 
ENDBRANCH   1   2
BRANCH   1   8
ATOM      8  C   LIG    1       23.542 -14.687   4.122  0.00  0.00    +0.122 C 
BRANCH   8   9
ATOM      9  C   LIG    1       23.555 -13.576   3.001  0.00  0.00    +0.103 C 
BRANCH   9  11
ATOM     10  C   LIG    1       24.307 -11.470   1.933  0.00  0.00    +0.104 C 
ATOM     11  N   LIG    1       24.225 -12.257   3.146  0.00  0.00    -0.307 NA
ATOM     12  C   LIG    1       23.683 -11.447   4.230  0.00  0.00    +0.104 C 
ENDBRANCH   9  11
ENDBRANCH   8   9
ENDBRANCH   1   8
BRANCH   1  13
ATOM     13  C   LIG    1       25.820 -15.548   3.388  0.00  0.00    +0.141 C 
BRANCH  13  14
ATOM     14  C   LIG    1       26.753 -14.470   3.932  0.00  0.00    -0.030 A 
ATOM     15  C   LIG    1       27.799 -13.986   3.124  0.00  0.00    +0.005 A 
ATOM     16  C   LIG    1       28.634 -12.973   3.594  0.00  0.00    +0.000 A 
ATOM     17  C   LIG    1       28.517 -12.512   4.905  0.00  0.00    +0.000 A 
ATOM     18  C   LIG    1       27.564 -13.070   5.753  0.00  0.00    +0.000 A 
ATOM     19  C   LIG    1       26.631 -13.966   5.241  0.00  0.00    +0.005 A 
ENDBRANCH  13  14
ENDBRANCH   1  13
TORSDOF 6
ENDMDL
MODEL 8
REMARK VINA RESULT:      -4.0      1.144      5.365
REMARK  Name = *****
REMARK                            x       y       z     vdW  Elec       q    Type
REMARK                         _______ _______ _______ _____ _____    ______ ____
ROOT
ATOM      1  N   LIG    1       25.245 -16.521   3.527  0.00  0.00    -0.310 N 
ENDROOT
BRANCH   1   2
ATOM      2  C   LIG    1       24.924 -17.902   3.577  0.00  0.00    +0.121 A 
ATOM      3  N   LIG    1       23.628 -18.256   3.652  0.00  0.00    -0.240 NA
ATOM      4  C   LIG    1       23.343 -19.512   4.066  0.00  0.00    +0.113 A 
ATOM      5  C   LIG    1       24.271 -20.413   4.540  0.00  0.00    +0.020 A 
ATOM      6  C   LIG    1       25.590 -20.079   4.422  0.00  0.00    +0.005 A 
ATOM      7  C   LIG    1       25.862 -18.910   3.761  0.00  0.00    +0.043 A 
ENDBRANCH   1   2
BRANCH   1   8
ATOM      8  C   LIG    1       26.702 -16.205   3.683  0.00  0.00    +0.122 C 
BRANCH   8   9
ATOM      9  C   LIG    1       27.223 -14.752   3.358  0.00  0.00    +0.103 C 
BRANCH   9  11
ATOM     10  C   LIG    1       28.829 -12.891   3.680  0.00  0.00    +0.104 C 
ATOM     11  N   LIG    1       28.028 -13.929   4.298  0.00  0.00    -0.307 NA
ATOM     12  C   LIG    1       27.247 -13.369   5.395  0.00  0.00    +0.104 C 
ENDBRANCH   9  11
ENDBRANCH   8   9
ENDBRANCH   1   8
BRANCH   1  13
ATOM     13  C   LIG    1       24.277 -15.556   4.098  0.00  0.00    +0.141 C 
BRANCH  13  14
ATOM     14  C   LIG    1       24.254 -14.113   3.601  0.00  0.00    -0.030 A 
ATOM     15  C   LIG    1       23.873 -13.083   4.481  0.00  0.00    +0.005 A 
ATOM     16  C   LIG    1       23.887 -11.756   4.053  0.00  0.00    +0.000 A 
ATOM     17  C   LIG    1       24.163 -11.447   2.721  0.00  0.00    +0.000 A 
ATOM     18  C   LIG    1       24.423 -12.469   1.812  0.00  0.00    +0.000 A 
ATOM     19  C   LIG    1       24.564 -13.775   2.270  0.00  0.00    +0.005 A 
ENDBRANCH  13  14
ENDBRANCH   1  13
TORSDOF 6
ENDMDL
MODEL 9
REMARK VINA RESULT:      -4.0      1.134      5.571
REMARK  Name = *****
REMARK                            x       y       z     vdW  Elec       q    Type
REMARK                         _______ _______ _______ _____ _____    ______ ____
ROOT
ATOM      1  N   LIG    1       25.633 -15.774   3.170  0.00  0.00    -0.310 N 
ENDROOT
BRANCH   1   2
ATOM      2  C   LIG    1       24.914 -14.559   3.047  0.00  0.00    +0.121 A 
ATOM      3  N   LIG    1       25.183 -13.758   1.999  0.00  0.00    -0.240 NA
ATOM      4  C   LIG    1       24.785 -12.467   2.076  0.00  0.00    +0.113 A 
ATOM      5  C   LIG    1       24.242 -11.877   3.197  0.00  0.00    +0.020 A 
ATOM      6  C   LIG    1       23.923 -12.693   4.244  0.00  0.00    +0.005 A 
ATOM      7  C   LIG    1       24.098 -14.037   4.042  0.00  0.00    +0.043 A 
ENDBRANCH   1   2
BRANCH   1   8
ATOM      8  C   LIG    1       24.820 -16.946   3.628  0.00  0.00    +0.122 C 
BRANCH   8   9
ATOM      9  C   LIG    1       25.346 -18.411   3.366  0.00  0.00    +0.103 C 
BRANCH   9  11
ATOM     10  C   LIG    1       25.314 -20.461   4.759  0.00  0.00    +0.104 C 
ATOM     11  N   LIG    1       24.623 -19.641   3.784  0.00  0.00    -0.307 NA
ATOM     12  C   LIG    1       23.256 -19.389   4.223  0.00  0.00    +0.104 C 
ENDBRANCH   9  11
ENDBRANCH   8   9
ENDBRANCH   1   8
BRANCH   1  13
ATOM     13  C   LIG    1       27.044 -15.711   3.620  0.00  0.00    +0.141 C 
BRANCH  13  14
ATOM     14  C   LIG    1       27.621 -14.398   4.142  0.00  0.00    -0.030 A 
ATOM     15  C   LIG    1       28.547 -13.687   3.358  0.00  0.00    +0.005 A 
ATOM     16  C   LIG    1       29.051 -12.466   3.805  0.00  0.00    +0.000 A 
ATOM     17  C   LIG    1       28.735 -11.996   5.079  0.00  0.00    +0.000 A 
ATOM     18  C   LIG    1       27.916 -12.752   5.913  0.00  0.00    +0.000 A 
ATOM     19  C   LIG    1       27.288 -13.888   5.412  0.00  0.00    +0.005 A 
ENDBRANCH  13  14
ENDBRANCH   1  13
TORSDOF 6
ENDMDL
