MODEL 1
REMARK VINA RESULT:      -5.3      0.000      0.000
REMARK  Name = *****
REMARK                            x       y       z     vdW  Elec       q    Type
REMARK                         _______ _______ _______ _____ _____    ______ ____
ROOT
ATOM      1  C   LIG    1       21.774 -18.452   4.143  0.00  0.00    +0.229 C 
ENDROOT
BRANCH   1   2
ATOM      2  O   LIG    1       21.953 -19.808   4.551  0.00  0.00    -0.492 OA
BRANCH   2  10
ATOM      3  O   LIG    1       29.004 -21.298   7.061  0.00  0.00    -0.276 OA
ATOM      4  C   LIG    1       27.988 -20.867   6.526  0.00  0.00    +0.217 C 
ATOM      5  N   LIG    1       26.759 -21.370   6.853  0.00  0.00    -0.285 N 
ATOM      6  H   LIG    1       26.751 -22.070   7.582  0.00  0.00    +0.155 HD
ATOM      7  C   LIG    1       25.571 -20.958   6.254  0.00  0.00    +0.037 A 
ATOM      8  C   LIG    1       25.609 -20.132   5.126  0.00  0.00    -0.022 A 
ATOM      9  C   LIG    1       24.413 -19.734   4.517  0.00  0.00    +0.051 A 
ATOM     10  C   LIG    1       23.184 -20.143   5.041  0.00  0.00    +0.121 A 
ATOM     11  C   LIG    1       23.162 -20.979   6.163  0.00  0.00    +0.047 A 
ATOM     12  C   LIG    1       26.939 -19.776   4.525  0.00  0.00    +0.046 C 
ATOM     13  C   LIG    1       24.350 -21.396   6.765  0.00  0.00    +0.027 A 
ATOM     14  C   LIG    1       28.018 -19.681   5.588  0.00  0.00    +0.101 C 
ENDBRANCH   2  10
ENDBRANCH   1   2
BRANCH   1  15
ATOM     15  C   LIG    1       22.427 -17.530   5.167  0.00  0.00    +0.041 C 
BRANCH  15  16
ATOM     16  C   LIG    1       22.331 -16.053   4.760  0.00  0.00    +0.011 C 
BRANCH  16  17
ATOM     17  C   LIG    1       23.579 -15.566   4.016  0.00  0.00    +0.078 C 
BRANCH  17  18
ATOM     18  C   LIG    1       23.865 -14.123   4.241  0.00  0.00    +0.152 A 
ATOM     19  N   LIG    1       24.847 -13.394   3.614  0.00  0.00    -0.226 N 
ATOM     20  N   LIG    1       24.773 -12.115   4.023  0.00  0.00    -0.044 NA
ATOM     21  N   LIG    1       23.803 -12.081   4.919  0.00  0.00    -0.023 NA
ATOM     22  N   LIG    1       23.235 -13.316   5.072  0.00  0.00    -0.113 NA
BRANCH  19  23
ATOM     23  C   LIG    1       25.882 -13.830   2.690  0.00  0.00    +0.111 C 
ATOM     24  C   LIG    1       26.897 -12.726   2.355  0.00  0.00    +0.027 C 
ATOM     25  C   LIG    1       27.972 -12.528   3.424  0.00  0.00    +0.002 C 
ATOM     26  C   LIG    1       28.643 -13.840   3.823  0.00  0.00    +0.000 C 
ATOM     27  C   LIG    1       27.636 -14.913   4.222  0.00  0.00    +0.002 C 
ATOM     28  C   LIG    1       26.577 -15.125   3.141  0.00  0.00    +0.027 C 
ENDBRANCH  19  23
ENDBRANCH  17  18
ENDBRANCH  16  17
ENDBRANCH  15  16
ENDBRANCH   1  15
TORSDOF 7
ENDMDL
MODEL 2
REMARK VINA RESULT:      -3.0      2.868      6.953
REMARK  Name = *****
REMARK                            x       y       z     vdW  Elec       q    Type
REMARK                         _______ _______ _______ _____ _____    ______ ____
ROOT
ATOM      1  C   LIG    1       22.210 -15.855   5.065  0.00  0.00    +0.229 C 
ENDROOT
BRANCH   1   2
ATOM      2  O   LIG    1       22.404 -14.959   3.972  0.00  0.00    -0.492 OA
BRANCH   2  10
ATOM      3  O   LIG    1       29.475 -12.102   3.666  0.00  0.00    -0.276 OA
ATOM      4  C   LIG    1       28.419 -12.662   3.941  0.00  0.00    +0.217 C 
ATOM      5  N   LIG    1       27.382 -12.677   3.049  0.00  0.00    -0.285 N 
ATOM      6  H   LIG    1       27.568 -12.244   2.154  0.00  0.00    +0.155 HD
ATOM      7  C   LIG    1       26.144 -13.257   3.312  0.00  0.00    +0.037 A 
ATOM      8  C   LIG    1       25.836 -13.685   4.608  0.00  0.00    -0.022 A 
ATOM      9  C   LIG    1       24.584 -14.251   4.872  0.00  0.00    +0.051 A 
ATOM     10  C   LIG    1       23.648 -14.405   3.845  0.00  0.00    +0.121 A 
ATOM     11  C   LIG    1       23.966 -13.962   2.557  0.00  0.00    +0.047 A 
ATOM     12  C   LIG    1       26.819 -13.429   5.716  0.00  0.00    +0.046 C 
ATOM     13  C   LIG    1       25.205 -13.379   2.288  0.00  0.00    +0.027 A 
ATOM     14  C   LIG    1       28.248 -13.474   5.207  0.00  0.00    +0.101 C 
ENDBRANCH   2  10
ENDBRANCH   1   2
BRANCH   1  15
ATOM     15  C   LIG    1       21.511 -17.114   4.563  0.00  0.00    +0.041 C 
BRANCH  15  16
ATOM     16  C   LIG    1       22.295 -18.388   4.908  0.00  0.00    +0.011 C 
BRANCH  16  17
ATOM     17  C   LIG    1       23.061 -18.950   3.706  0.00  0.00    +0.078 C 
BRANCH  17  18
ATOM     18  C   LIG    1       24.504 -18.586   3.714  0.00  0.00    +0.152 A 
ATOM     19  N   LIG    1       25.533 -19.403   4.117  0.00  0.00    -0.226 N 
ATOM     20  N   LIG    1       26.701 -18.762   3.932  0.00  0.00    -0.044 NA
ATOM     21  N   LIG    1       26.383 -17.563   3.477  0.00  0.00    -0.023 NA
ATOM     22  N   LIG    1       25.028 -17.434   3.342  0.00  0.00    -0.113 NA
BRANCH  19  23
ATOM     23  C   LIG    1       25.489 -20.730   4.711  0.00  0.00    +0.111 C 
ATOM     24  C   LIG    1       25.554 -20.707   6.246  0.00  0.00    +0.027 C 
ATOM     25  C   LIG    1       24.218 -20.392   6.918  0.00  0.00    +0.002 C 
ATOM     26  C   LIG    1       23.082 -21.266   6.392  0.00  0.00    +0.000 C 
ATOM     27  C   LIG    1       22.976 -21.232   4.871  0.00  0.00    +0.002 C 
ATOM     28  C   LIG    1       24.306 -21.571   4.203  0.00  0.00    +0.027 C 
ENDBRANCH  19  23
ENDBRANCH  17  18
ENDBRANCH  16  17
ENDBRANCH  15  16
ENDBRANCH   1  15
TORSDOF 7
ENDMDL
MODEL 3
REMARK VINA RESULT:      -3.0      1.878      4.024
REMARK  Name = *****
REMARK                            x       y       z     vdW  Elec       q    Type
REMARK                         _______ _______ _______ _____ _____    ______ ____
ROOT
ATOM      1  C   LIG    1       29.027 -18.471   5.218  0.00  0.00    +0.229 C 
ENDROOT
BRANCH   1   2
ATOM      2  O   LIG    1       28.607 -19.637   5.926  0.00  0.00    -0.492 OA
BRANCH   2  10
ATOM      3  O   LIG    1       21.280 -21.525   4.930  0.00  0.00    -0.276 OA
ATOM      4  C   LIG    1       22.465 -21.227   4.831  0.00  0.00    +0.217 C 
ATOM      5  N   LIG    1       23.254 -21.115   5.942  0.00  0.00    -0.285 N 
ATOM      6  H   LIG    1       22.807 -21.337   6.821  0.00  0.00    +0.155 HD
ATOM      7  C   LIG    1       24.595 -20.739   5.904  0.00  0.00    +0.037 A 
ATOM      8  C   LIG    1       25.150 -20.258   4.714  0.00  0.00    -0.022 A 
ATOM      9  C   LIG    1       26.493 -19.865   4.685  0.00  0.00    +0.051 A 
ATOM     10  C   LIG    1       27.284 -19.969   5.832  0.00  0.00    +0.121 A 
ATOM     11  C   LIG    1       26.712 -20.441   7.018  0.00  0.00    +0.047 A 
ATOM     12  C   LIG    1       24.262 -20.070   3.516  0.00  0.00    +0.046 C 
ATOM     13  C   LIG    1       25.368 -20.817   7.062  0.00  0.00    +0.027 A 
ATOM     14  C   LIG    1       23.149 -21.100   3.487  0.00  0.00    +0.101 C 
ENDBRANCH   2  10
ENDBRANCH   1   2
BRANCH   1  15
ATOM     15  C   LIG    1       27.870 -17.959   4.366  0.00  0.00    +0.041 C 
BRANCH  15  16
ATOM     16  C   LIG    1       27.749 -16.430   4.413  0.00  0.00    +0.011 C 
BRANCH  16  17
ATOM     17  C   LIG    1       26.864 -15.874   3.293  0.00  0.00    +0.078 C 
BRANCH  17  18
ATOM     18  C   LIG    1       25.429 -15.786   3.674  0.00  0.00    +0.152 A 
ATOM     19  N   LIG    1       24.732 -14.625   3.911  0.00  0.00    -0.226 N 
ATOM     20  N   LIG    1       23.448 -14.928   4.173  0.00  0.00    -0.044 NA
ATOM     21  N   LIG    1       23.380 -16.248   4.149  0.00  0.00    -0.023 NA
ATOM     22  N   LIG    1       24.597 -16.795   3.849  0.00  0.00    -0.113 NA
BRANCH  19  23
ATOM     23  C   LIG    1       25.204 -13.250   3.953  0.00  0.00    +0.111 C 
ATOM     24  C   LIG    1       25.948 -12.906   5.253  0.00  0.00    +0.027 C 
ATOM     25  C   LIG    1       27.402 -13.379   5.278  0.00  0.00    +0.002 C 
ATOM     26  C   LIG    1       28.173 -12.952   4.032  0.00  0.00    +0.000 C 
ATOM     27  C   LIG    1       27.466 -13.356   2.742  0.00  0.00    +0.002 C 
ATOM     28  C   LIG    1       26.022 -12.862   2.709  0.00  0.00    +0.027 C 
ENDBRANCH  19  23
ENDBRANCH  17  18
ENDBRANCH  16  17
ENDBRANCH  15  16
ENDBRANCH   1  15
TORSDOF 7
ENDMDL
MODEL 4
REMARK VINA RESULT:      -2.4      2.619      7.612
REMARK  Name = *****
REMARK                            x       y       z     vdW  Elec       q    Type
REMARK                         _______ _______ _______ _____ _____    ______ ____
ROOT
ATOM      1  C   LIG    1       28.717 -18.167   5.314  0.00  0.00    +0.229 C 
ENDROOT
BRANCH   1   2
ATOM      2  O   LIG    1       28.185 -17.770   4.050  0.00  0.00    -0.492 OA
BRANCH   2  10
ATOM      3  O   LIG    1       23.695 -11.599   4.025  0.00  0.00    -0.276 OA
ATOM      4  C   LIG    1       24.193 -12.718   4.059  0.00  0.00    +0.217 C 
ATOM      5  N   LIG    1       25.551 -12.881   4.064  0.00  0.00    -0.285 N 
ATOM      6  H   LIG    1       26.094 -12.029   4.085  0.00  0.00    +0.155 HD
ATOM      7  C   LIG    1       26.181 -14.123   4.058  0.00  0.00    +0.037 A 
ATOM      8  C   LIG    1       25.432 -15.284   3.842  0.00  0.00    -0.022 A 
ATOM      9  C   LIG    1       26.072 -16.528   3.820  0.00  0.00    +0.051 A 
ATOM     10  C   LIG    1       27.450 -16.617   4.029  0.00  0.00    +0.121 A 
ATOM     11  C   LIG    1       28.189 -15.447   4.233  0.00  0.00    +0.047 A 
ATOM     12  C   LIG    1       23.967 -15.161   3.530  0.00  0.00    +0.046 C 
ATOM     13  C   LIG    1       27.562 -14.199   4.237  0.00  0.00    +0.027 A 
ATOM     14  C   LIG    1       23.351 -13.964   4.231  0.00  0.00    +0.101 C 
ENDBRANCH   2  10
ENDBRANCH   1   2
BRANCH   1  15
ATOM     15  C   LIG    1       28.376 -19.633   5.563  0.00  0.00    +0.041 C 
BRANCH  15  16
ATOM     16  C   LIG    1       27.465 -19.815   6.785  0.00  0.00    +0.011 C 
BRANCH  16  17
ATOM     17  C   LIG    1       26.164 -20.549   6.445  0.00  0.00    +0.078 C 
BRANCH  17  18
ATOM     18  C   LIG    1       25.681 -20.269   5.066  0.00  0.00    +0.152 A 
ATOM     19  N   LIG    1       24.411 -19.868   4.727  0.00  0.00    -0.226 N 
ATOM     20  N   LIG    1       24.356 -19.656   3.400  0.00  0.00    -0.044 NA
ATOM     21  N   LIG    1       25.552 -19.974   2.937  0.00  0.00    -0.023 NA
ATOM     22  N   LIG    1       26.383 -20.362   3.952  0.00  0.00    -0.113 NA
BRANCH  19  23
ATOM     23  C   LIG    1       23.230 -19.716   5.563  0.00  0.00    +0.111 C 
ATOM     24  C   LIG    1       22.314 -18.568   5.111  0.00  0.00    +0.027 C 
ATOM     25  C   LIG    1       21.404 -18.928   3.937  0.00  0.00    +0.002 C 
ATOM     26  C   LIG    1       20.641 -20.230   4.170  0.00  0.00    +0.000 C 
ATOM     27  C   LIG    1       21.561 -21.385   4.551  0.00  0.00    +0.002 C 
ATOM     28  C   LIG    1       22.452 -21.031   5.740  0.00  0.00    +0.027 C 
ENDBRANCH  19  23
ENDBRANCH  17  18
ENDBRANCH  16  17
ENDBRANCH  15  16
ENDBRANCH   1  15
TORSDOF 7
ENDMDL
