MODEL 1
REMARK VINA RESULT:      -8.0      0.000      0.000
REMARK  Name = *****
REMARK                            x       y       z     vdW  Elec       q    Type
REMARK                         _______ _______ _______ _____ _____    ______ ____
ROOT
ATOM      1  C   LIG    1       25.153 -22.413   6.996  0.00  0.00    +0.056 C 
ATOM      2  C   LIG    1       26.051 -21.689   5.949  0.00  0.00    +0.034 C 
ATOM      3  C   LIG    1       26.416 -20.250   6.348  0.00  0.00    +0.085 C 
ATOM      4  N   LIG    1       27.006 -20.125   7.683  0.00  0.00    -0.305 NA
ATOM      5  C   LIG    1       28.394 -20.578   7.723  0.00  0.00    +0.105 C 
ATOM      6  C   LIG    1       26.161 -20.754   8.695  0.00  0.00    +0.085 C 
ATOM      7  C   LIG    1       25.811 -22.210   8.386  0.00  0.00    +0.034 C 
ENDROOT
BRANCH   1   8
ATOM      8  C   LIG    1       25.038 -23.912   6.612  0.00  0.00    -0.030 A 
ATOM      9  C   LIG    1       26.200 -24.660   6.342  0.00  0.00    +0.050 A 
ATOM     10  C   LIG    1       26.118 -26.009   5.999  0.00  0.00    +0.117 A 
ATOM     11  C   LIG    1       24.891 -26.650   5.895  0.00  0.00    +0.045 A 
ATOM     12  C   LIG    1       23.729 -25.926   6.135  0.00  0.00    +0.004 A 
ATOM     13  C   LIG    1       23.800 -24.574   6.487  0.00  0.00    +0.005 A 
BRANCH  10  14
ATOM     14  O   LIG    1       27.285 -26.678   5.772  0.00  0.00    -0.507 OA
ATOM     15  H   LIG    1       27.187 -27.588   6.096  0.00  0.00    +0.292 HD
ENDBRANCH  10  14
ENDBRANCH   1   8
BRANCH   1  16
ATOM     16  C   LIG    1       23.722 -21.792   6.976  0.00  0.00    +0.144 C 
ATOM     17  O   LIG    1       23.070 -21.629   8.017  0.00  0.00    -0.296 OA
BRANCH  16  19
ATOM     18  C   LIG    1       22.744 -19.924   5.599  0.00  0.00    +0.012 C 
ATOM     19  C   LIG    1       23.113 -21.401   5.636  0.00  0.00    +0.072 C 
ENDBRANCH  16  19
ENDBRANCH   1  16
TORSDOF 4
ENDMDL
MODEL 2
REMARK VINA RESULT:      -7.9      1.488      3.063
REMARK  Name = *****
REMARK                            x       y       z     vdW  Elec       q    Type
REMARK                         _______ _______ _______ _____ _____    ______ ____
ROOT
ATOM      1  C   LIG    1       24.925 -22.775   6.585  0.00  0.00    +0.056 C 
ATOM      2  C   LIG    1       23.515 -22.443   7.156  0.00  0.00    +0.034 C 
ATOM      3  C   LIG    1       23.214 -20.936   7.202  0.00  0.00    +0.085 C 
ATOM      4  N   LIG    1       23.413 -20.242   5.928  0.00  0.00    -0.305 NA
ATOM      5  C   LIG    1       22.341 -20.512   4.973  0.00  0.00    +0.105 C 
ATOM      6  C   LIG    1       24.747 -20.496   5.390  0.00  0.00    +0.085 C 
ATOM      7  C   LIG    1       25.085 -21.981   5.262  0.00  0.00    +0.034 C 
ENDROOT
BRANCH   1   8
ATOM      8  C   LIG    1       25.035 -24.308   6.369  0.00  0.00    -0.030 A 
ATOM      9  C   LIG    1       26.294 -24.897   6.142  0.00  0.00    +0.050 A 
ATOM     10  C   LIG    1       26.414 -26.273   5.949  0.00  0.00    +0.117 A 
ATOM     11  C   LIG    1       25.299 -27.099   5.957  0.00  0.00    +0.045 A 
ATOM     12  C   LIG    1       24.044 -26.536   6.158  0.00  0.00    +0.004 A 
ATOM     13  C   LIG    1       23.912 -25.159   6.359  0.00  0.00    +0.005 A 
BRANCH  10  14
ATOM     14  O   LIG    1       27.666 -26.779   5.755  0.00  0.00    -0.507 OA
ATOM     15  H   LIG    1       27.957 -26.548   4.858  0.00  0.00    +0.292 HD
ENDBRANCH  10  14
ENDBRANCH   1   8
BRANCH   1  16
ATOM     16  C   LIG    1       26.020 -22.347   7.611  0.00  0.00    +0.144 C 
ATOM     17  O   LIG    1       25.855 -22.482   8.831  0.00  0.00    -0.296 OA
BRANCH  16  19
ATOM     18  C   LIG    1       27.590 -20.383   7.743  0.00  0.00    +0.012 C 
ATOM     19  C   LIG    1       27.309 -21.728   7.088  0.00  0.00    +0.072 C 
ENDBRANCH  16  19
ENDBRANCH   1  16
TORSDOF 4
ENDMDL
MODEL 3
REMARK VINA RESULT:      -7.6      2.435      5.134
REMARK  Name = *****
REMARK                            x       y       z     vdW  Elec       q    Type
REMARK                         _______ _______ _______ _____ _____    ______ ____
ROOT
ATOM      1  C   LIG    1       24.230 -22.181   6.245  0.00  0.00    +0.056 C 
ATOM      2  C   LIG    1       25.600 -22.805   5.845  0.00  0.00    +0.034 C 
ATOM      3  C   LIG    1       25.858 -24.176   6.492  0.00  0.00    +0.085 C 
ATOM      4  N   LIG    1       24.786 -25.152   6.287  0.00  0.00    -0.305 NA
ATOM      5  C   LIG    1       24.783 -25.698   4.932  0.00  0.00    +0.105 C 
ATOM      6  C   LIG    1       23.493 -24.611   6.697  0.00  0.00    +0.085 C 
ATOM      7  C   LIG    1       23.149 -23.275   6.040  0.00  0.00    +0.034 C 
ENDROOT
BRANCH   1   8
ATOM      8  C   LIG    1       23.972 -20.927   5.368  0.00  0.00    -0.030 A 
ATOM      9  C   LIG    1       25.031 -20.344   4.646  0.00  0.00    +0.050 A 
ATOM     10  C   LIG    1       24.819 -19.218   3.850  0.00  0.00    +0.117 A 
ATOM     11  C   LIG    1       23.566 -18.629   3.760  0.00  0.00    +0.045 A 
ATOM     12  C   LIG    1       22.510 -19.174   4.482  0.00  0.00    +0.004 A 
ATOM     13  C   LIG    1       22.710 -20.307   5.278  0.00  0.00    +0.005 A 
BRANCH  10  14
ATOM     14  O   LIG    1       25.885 -18.719   3.162  0.00  0.00    -0.507 OA
ATOM     15  H   LIG    1       26.547 -19.423   3.064  0.00  0.00    +0.292 HD
ENDBRANCH  10  14
ENDBRANCH   1   8
BRANCH   1  16
ATOM     16  C   LIG    1       24.274 -21.733   7.738  0.00  0.00    +0.144 C 
ATOM     17  O   LIG    1       23.260 -21.332   8.326  0.00  0.00    -0.296 OA
BRANCH  16  19
ATOM     18  C   LIG    1       26.305 -20.420   8.440  0.00  0.00    +0.012 C 
ATOM     19  C   LIG    1       25.607 -21.773   8.474  0.00  0.00    +0.072 C 
ENDBRANCH  16  19
ENDBRANCH   1  16
TORSDOF 4
ENDMDL
MODEL 4
REMARK VINA RESULT:      -7.5      2.656      5.237
REMARK  Name = *****
REMARK                            x       y       z     vdW  Elec       q    Type
REMARK                         _______ _______ _______ _____ _____    ______ ____
ROOT
ATOM      1  C   LIG    1       25.287 -21.262   5.851  0.00  0.00    +0.056 C 
ATOM      2  C   LIG    1       24.953 -20.747   4.419  0.00  0.00    +0.034 C 
ATOM      3  C   LIG    1       23.480 -20.945   4.027  0.00  0.00    +0.085 C 
ATOM      4  N   LIG    1       22.521 -20.399   4.990  0.00  0.00    -0.305 NA
ATOM      5  C   LIG    1       22.431 -18.943   4.921  0.00  0.00    +0.105 C 
ATOM      6  C   LIG    1       22.779 -20.901   6.337  0.00  0.00    +0.085 C 
ATOM      7  C   LIG    1       24.215 -20.680   6.811  0.00  0.00    +0.034 C 
ENDROOT
BRANCH   1   8
ATOM      8  C   LIG    1       26.722 -20.810   6.229  0.00  0.00    -0.030 A 
ATOM      9  C   LIG    1       27.365 -19.809   5.475  0.00  0.00    +0.050 A 
ATOM     10  C   LIG    1       28.654 -19.387   5.800  0.00  0.00    +0.117 A 
ATOM     11  C   LIG    1       29.348 -19.951   6.861  0.00  0.00    +0.045 A 
ATOM     12  C   LIG    1       28.742 -20.957   7.605  0.00  0.00    +0.004 A 
ATOM     13  C   LIG    1       27.447 -21.383   7.293  0.00  0.00    +0.005 A 
BRANCH  10  14
ATOM     14  O   LIG    1       29.208 -18.398   5.041  0.00  0.00    -0.507 OA
ATOM     15  H   LIG    1       30.061 -18.712   4.700  0.00  0.00    +0.292 HD
ENDBRANCH  10  14
ENDBRANCH   1   8
BRANCH   1  16
ATOM     16  C   LIG    1       25.244 -22.821   5.871  0.00  0.00    +0.144 C 
ATOM     17  O   LIG    1       25.050 -23.478   4.839  0.00  0.00    -0.296 OA
BRANCH  16  19
ATOM     18  C   LIG    1       25.705 -25.024   7.002  0.00  0.00    +0.012 C 
ATOM     19  C   LIG    1       25.425 -23.540   7.201  0.00  0.00    +0.072 C 
ENDBRANCH  16  19
ENDBRANCH   1  16
TORSDOF 4
ENDMDL
MODEL 5
REMARK VINA RESULT:      -7.5      2.498      5.147
REMARK  Name = *****
REMARK                            x       y       z     vdW  Elec       q    Type
REMARK                         _______ _______ _______ _____ _____    ______ ____
ROOT
ATOM      1  C   LIG    1       25.647 -21.403   6.504  0.00  0.00    +0.056 C 
ATOM      2  C   LIG    1       25.147 -21.307   5.032  0.00  0.00    +0.034 C 
ATOM      3  C   LIG    1       23.653 -21.632   4.872  0.00  0.00    +0.085 C 
ATOM      4  N   LIG    1       22.770 -20.860   5.751  0.00  0.00    -0.305 NA
ATOM      5  C   LIG    1       22.604 -19.481   5.301  0.00  0.00    +0.105 C 
ATOM      6  C   LIG    1       23.186 -20.969   7.147  0.00  0.00    +0.085 C 
ATOM      7  C   LIG    1       24.651 -20.600   7.382  0.00  0.00    +0.034 C 
ENDROOT
BRANCH   1   8
ATOM      8  C   LIG    1       27.090 -20.839   6.584  0.00  0.00    -0.030 A 
ATOM      9  C   LIG    1       27.495 -19.816   5.705  0.00  0.00    +0.050 A 
ATOM     10  C   LIG    1       28.787 -19.293   5.763  0.00  0.00    +0.117 A 
ATOM     11  C   LIG    1       29.716 -19.776   6.674  0.00  0.00    +0.045 A 
ATOM     12  C   LIG    1       29.345 -20.801   7.538  0.00  0.00    +0.004 A 
ATOM     13  C   LIG    1       28.050 -21.328   7.492  0.00  0.00    +0.005 A 
BRANCH  10  14
ATOM     14  O   LIG    1       29.104 -18.289   4.897  0.00  0.00    -0.507 OA
ATOM     15  H   LIG    1       30.069 -18.273   4.784  0.00  0.00    +0.292 HD
ENDBRANCH  10  14
ENDBRANCH   1   8
BRANCH   1  16
ATOM     16  C   LIG    1       25.681 -22.898   6.949  0.00  0.00    +0.144 C 
ATOM     17  O   LIG    1       25.899 -23.220   8.125  0.00  0.00    -0.296 OA
BRANCH  16  19
ATOM     18  C   LIG    1       24.382 -24.963   6.326  0.00  0.00    +0.012 C 
ATOM     19  C   LIG    1       25.462 -23.978   5.898  0.00  0.00    +0.072 C 
ENDBRANCH  16  19
ENDBRANCH   1  16
TORSDOF 4
ENDMDL
MODEL 6
REMARK VINA RESULT:      -7.3      2.334      4.999
REMARK  Name = *****
REMARK                            x       y       z     vdW  Elec       q    Type
REMARK                         _______ _______ _______ _____ _____    ______ ____
ROOT
ATOM      1  C   LIG    1       25.625 -21.403   6.496  0.00  0.00    +0.056 C 
ATOM      2  C   LIG    1       25.139 -21.271   5.022  0.00  0.00    +0.034 C 
ATOM      3  C   LIG    1       23.643 -21.572   4.842  0.00  0.00    +0.085 C 
ATOM      4  N   LIG    1       22.762 -20.808   5.729  0.00  0.00    -0.305 NA
ATOM      5  C   LIG    1       22.618 -19.418   5.307  0.00  0.00    +0.105 C 
ATOM      6  C   LIG    1       23.165 -20.951   7.126  0.00  0.00    +0.085 C 
ATOM      7  C   LIG    1       24.632 -20.606   7.381  0.00  0.00    +0.034 C 
ENDROOT
BRANCH   1   8
ATOM      8  C   LIG    1       27.075 -20.860   6.600  0.00  0.00    -0.030 A 
ATOM      9  C   LIG    1       27.930 -21.331   7.615  0.00  0.00    +0.050 A 
ATOM     10  C   LIG    1       29.237 -20.858   7.725  0.00  0.00    +0.117 A 
ATOM     11  C   LIG    1       29.728 -19.898   6.852  0.00  0.00    +0.045 A 
ATOM     12  C   LIG    1       28.895 -19.402   5.855  0.00  0.00    +0.004 A 
ATOM     13  C   LIG    1       27.584 -19.874   5.732  0.00  0.00    +0.005 A 
BRANCH  10  14
ATOM     14  O   LIG    1       30.017 -21.373   8.718  0.00  0.00    -0.507 OA
ATOM     15  H   LIG    1       30.914 -21.012   8.625  0.00  0.00    +0.292 HD
ENDBRANCH  10  14
ENDBRANCH   1   8
BRANCH   1  16
ATOM     16  C   LIG    1       25.636 -22.907   6.910  0.00  0.00    +0.144 C 
ATOM     17  O   LIG    1       25.755 -23.254   8.093  0.00  0.00    -0.296 OA
BRANCH  16  19
ATOM     18  C   LIG    1       25.777 -25.363   6.369  0.00  0.00    +0.012 C 
ATOM     19  C   LIG    1       25.519 -23.966   5.821  0.00  0.00    +0.072 C 
ENDBRANCH  16  19
ENDBRANCH   1  16
TORSDOF 4
ENDMDL
MODEL 7
REMARK VINA RESULT:      -6.9      2.237      4.690
REMARK  Name = *****
REMARK                            x       y       z     vdW  Elec       q    Type
REMARK                         _______ _______ _______ _____ _____    ______ ____
ROOT
ATOM      1  C   LIG    1       24.616 -21.271   6.651  0.00  0.00    +0.056 C 
ATOM      2  C   LIG    1       25.221 -20.462   7.836  0.00  0.00    +0.034 C 
ATOM      3  C   LIG    1       25.929 -21.342   8.879  0.00  0.00    +0.085 C 
ATOM      4  N   LIG    1       26.941 -22.242   8.322  0.00  0.00    -0.305 NA
ATOM      5  C   LIG    1       28.169 -21.541   7.957  0.00  0.00    +0.105 C 
ATOM      6  C   LIG    1       26.390 -23.051   7.237  0.00  0.00    +0.085 C 
ATOM      7  C   LIG    1       25.723 -22.228   6.135  0.00  0.00    +0.034 C 
ENDROOT
BRANCH   1   8
ATOM      8  C   LIG    1       24.136 -20.282   5.557  0.00  0.00    -0.030 A 
ATOM      9  C   LIG    1       25.057 -19.755   4.631  0.00  0.00    +0.050 A 
ATOM     10  C   LIG    1       24.645 -18.867   3.638  0.00  0.00    +0.117 A 
ATOM     11  C   LIG    1       23.321 -18.462   3.542  0.00  0.00    +0.045 A 
ATOM     12  C   LIG    1       22.397 -18.952   4.459  0.00  0.00    +0.004 A 
ATOM     13  C   LIG    1       22.799 -19.849   5.455  0.00  0.00    +0.005 A 
BRANCH  10  14
ATOM     14  O   LIG    1       25.587 -18.413   2.763  0.00  0.00    -0.507 OA
ATOM     15  H   LIG    1       25.208 -17.675   2.257  0.00  0.00    +0.292 HD
ENDBRANCH  10  14
ENDBRANCH   1   8
BRANCH   1  16
ATOM     16  C   LIG    1       23.383 -22.087   7.148  0.00  0.00    +0.144 C 
ATOM     17  O   LIG    1       22.856 -21.862   8.246  0.00  0.00    -0.296 OA
BRANCH  16  19
ATOM     18  C   LIG    1       23.408 -24.555   6.651  0.00  0.00    +0.012 C 
ATOM     19  C   LIG    1       22.837 -23.199   6.263  0.00  0.00    +0.072 C 
ENDBRANCH  16  19
ENDBRANCH   1  16
TORSDOF 4
ENDMDL
MODEL 8
REMARK VINA RESULT:      -6.6      1.789      3.375
REMARK  Name = *****
REMARK                            x       y       z     vdW  Elec       q    Type
REMARK                         _______ _______ _______ _____ _____    ______ ____
ROOT
ATOM      1  C   LIG    1       24.970 -22.751   6.703  0.00  0.00    +0.056 C 
ATOM      2  C   LIG    1       23.548 -22.428   7.252  0.00  0.00    +0.034 C 
ATOM      3  C   LIG    1       23.199 -20.932   7.199  0.00  0.00    +0.085 C 
ATOM      4  N   LIG    1       23.378 -20.316   5.883  0.00  0.00    -0.305 NA
ATOM      5  C   LIG    1       22.317 -20.682   4.948  0.00  0.00    +0.105 C 
ATOM      6  C   LIG    1       24.721 -20.562   5.362  0.00  0.00    +0.085 C 
ATOM      7  C   LIG    1       25.107 -22.041   5.331  0.00  0.00    +0.034 C 
ENDROOT
BRANCH   1   8
ATOM      8  C   LIG    1       25.129 -24.290   6.588  0.00  0.00    -0.030 A 
ATOM      9  C   LIG    1       24.306 -25.018   5.707  0.00  0.00    +0.050 A 
ATOM     10  C   LIG    1       24.435 -26.401   5.586  0.00  0.00    +0.117 A 
ATOM     11  C   LIG    1       25.363 -27.104   6.342  0.00  0.00    +0.045 A 
ATOM     12  C   LIG    1       26.172 -26.409   7.235  0.00  0.00    +0.004 A 
ATOM     13  C   LIG    1       26.055 -25.021   7.359  0.00  0.00    +0.005 A 
BRANCH  10  14
ATOM     14  O   LIG    1       23.620 -27.039   4.698  0.00  0.00    -0.507 OA
ATOM     15  H   LIG    1       22.698 -26.827   4.918  0.00  0.00    +0.292 HD
ENDBRANCH  10  14
ENDBRANCH   1   8
BRANCH   1  16
ATOM     16  C   LIG    1       26.048 -22.222   7.699  0.00  0.00    +0.144 C 
ATOM     17  O   LIG    1       25.826 -22.141   8.915  0.00  0.00    -0.296 OA
BRANCH  16  19
ATOM     18  C   LIG    1       27.723 -20.346   7.557  0.00  0.00    +0.012 C 
ATOM     19  C   LIG    1       27.396 -21.776   7.147  0.00  0.00    +0.072 C 
ENDBRANCH  16  19
ENDBRANCH   1  16
TORSDOF 4
ENDMDL
MODEL 9
REMARK VINA RESULT:      -6.6      2.521      5.061
REMARK  Name = *****
REMARK                            x       y       z     vdW  Elec       q    Type
REMARK                         _______ _______ _______ _____ _____    ______ ____
ROOT
ATOM      1  C   LIG    1       25.873 -21.852   6.696  0.00  0.00    +0.056 C 
ATOM      2  C   LIG    1       26.127 -23.256   7.322  0.00  0.00    +0.034 C 
ATOM      3  C   LIG    1       24.933 -24.213   7.180  0.00  0.00    +0.085 C 
ATOM      4  N   LIG    1       24.435 -24.360   5.811  0.00  0.00    -0.305 NA
ATOM      5  C   LIG    1       25.308 -25.193   4.988  0.00  0.00    +0.105 C 
ATOM      6  C   LIG    1       24.142 -23.060   5.212  0.00  0.00    +0.085 C 
ATOM      7  C   LIG    1       25.314 -22.080   5.267  0.00  0.00    +0.034 C 
ENDROOT
BRANCH   1   8
ATOM      8  C   LIG    1       27.203 -21.054   6.688  0.00  0.00    -0.030 A 
ATOM      9  C   LIG    1       27.403 -20.031   5.741  0.00  0.00    +0.050 A 
ATOM     10  C   LIG    1       28.590 -19.299   5.719  0.00  0.00    +0.117 A 
ATOM     11  C   LIG    1       29.615 -19.568   6.615  0.00  0.00    +0.045 A 
ATOM     12  C   LIG    1       29.449 -20.589   7.544  0.00  0.00    +0.004 A 
ATOM     13  C   LIG    1       28.260 -21.324   7.579  0.00  0.00    +0.005 A 
BRANCH  10  14
ATOM     14  O   LIG    1       28.707 -18.309   4.789  0.00  0.00    -0.507 OA
ATOM     15  H   LIG    1       28.475 -17.463   5.207  0.00  0.00    +0.292 HD
ENDBRANCH  10  14
ENDBRANCH   1   8
BRANCH   1  16
ATOM     16  C   LIG    1       24.839 -21.071   7.565  0.00  0.00    +0.144 C 
ATOM     17  O   LIG    1       25.176 -20.480   8.600  0.00  0.00    -0.296 OA
BRANCH  16  19
ATOM     18  C   LIG    1       23.082 -19.896   6.195  0.00  0.00    +0.012 C 
ATOM     19  C   LIG    1       23.379 -21.060   7.132  0.00  0.00    +0.072 C 
ENDBRANCH  16  19
ENDBRANCH   1  16
TORSDOF 4
ENDMDL
