MODEL 1
REMARK VINA RESULT:      -5.3      0.000      0.000
REMARK  Name = *****
REMARK                            x       y       z     vdW  Elec       q    Type
REMARK                         _______ _______ _______ _____ _____    ______ ____
ROOT
ATOM      1  C   LIG    1       25.846 -18.333   3.697  0.00  0.00    +0.242 A 
ATOM      2  C   LIG    1       26.931 -18.765   4.499  0.00  0.00    +0.063 A 
ATOM      3  C   LIG    1       27.792 -17.660   4.522  0.00  0.00    +0.073 A 
ATOM      4  C   LIG    1       29.005 -17.669   5.223  0.00  0.00    +0.028 A 
ATOM      5  C   LIG    1       29.349 -18.840   5.903  0.00  0.00    +0.002 A 
ATOM      6  C   LIG    1       28.503 -19.949   5.901  0.00  0.00    +0.001 A 
ATOM      7  N   LIG    1       27.156 -16.687   3.789  0.00  0.00    -0.256 N 
ATOM      8  C   LIG    1       27.282 -19.924   5.206  0.00  0.00    +0.015 A 
ATOM      9  N   LIG    1       26.017 -17.113   3.209  0.00  0.00    -0.132 NA
ENDROOT
BRANCH   1  10
ATOM     10  O   LIG    1       24.698 -19.004   3.430  0.00  0.00    -0.475 OA
BRANCH  10  11
ATOM     11  C   LIG    1       24.913 -20.299   2.850  0.00  0.00    +0.232 C 
BRANCH  11  12
ATOM     12  C   LIG    1       23.936 -21.297   3.456  0.00  0.00    +0.056 C 
BRANCH  12  13
ATOM     13  C   LIG    1       24.262 -21.571   4.932  0.00  0.00    +0.087 C 
BRANCH  13  15
ATOM     14  C   LIG    1       23.534 -20.643   7.051  0.00  0.00    +0.104 C 
ATOM     15  N   LIG    1       23.114 -21.325   5.826  0.00  0.00    -0.308 NA
ATOM     16  C   LIG    1       22.102 -20.517   5.138  0.00  0.00    +0.104 C 
ENDBRANCH  13  15
ENDBRANCH  12  13
ENDBRANCH  11  12
ENDBRANCH  10  11
ENDBRANCH   1  10
BRANCH   7  17
ATOM     17  C   LIG    1       27.531 -15.288   3.644  0.00  0.00    +0.179 C 
BRANCH  17  18
ATOM     18  C   LIG    1       26.341 -14.371   3.447  0.00  0.00    -0.026 A 
ATOM     19  C   LIG    1       26.013 -13.812   2.200  0.00  0.00    +0.005 A 
ATOM     20  C   LIG    1       24.913 -12.966   2.057  0.00  0.00    +0.000 A 
ATOM     21  C   LIG    1       24.135 -12.645   3.164  0.00  0.00    +0.000 A 
ATOM     22  C   LIG    1       24.465 -13.162   4.416  0.00  0.00    +0.000 A 
ATOM     23  C   LIG    1       25.564 -14.013   4.559  0.00  0.00    +0.005 A 
ENDBRANCH  17  18
ENDBRANCH   7  17
TORSDOF 7
ENDMDL
MODEL 2
REMARK VINA RESULT:      -5.0      1.746      5.711
REMARK  Name = *****
REMARK                            x       y       z     vdW  Elec       q    Type
REMARK                         _______ _______ _______ _____ _____    ______ ____
ROOT
ATOM      1  C   LIG    1       27.676 -16.683   4.085  0.00  0.00    +0.242 A 
ATOM      2  C   LIG    1       28.185 -17.749   4.866  0.00  0.00    +0.063 A 
ATOM      3  C   LIG    1       27.316 -18.813   4.590  0.00  0.00    +0.073 A 
ATOM      4  C   LIG    1       27.473 -20.079   5.169  0.00  0.00    +0.028 A 
ATOM      5  C   LIG    1       28.535 -20.254   6.060  0.00  0.00    +0.002 A 
ATOM      6  C   LIG    1       29.418 -19.211   6.343  0.00  0.00    +0.001 A 
ATOM      7  N   LIG    1       26.417 -18.320   3.675  0.00  0.00    -0.256 N 
ATOM      8  C   LIG    1       29.259 -17.949   5.747  0.00  0.00    +0.015 A 
ATOM      9  N   LIG    1       26.570 -17.004   3.428  0.00  0.00    -0.132 NA
ENDROOT
BRANCH   1  10
ATOM     10  O   LIG    1       28.208 -15.445   3.929  0.00  0.00    -0.475 OA
BRANCH  10  11
ATOM     11  C   LIG    1       27.239 -14.445   3.582  0.00  0.00    +0.232 C 
BRANCH  11  12
ATOM     12  C   LIG    1       26.887 -13.627   4.817  0.00  0.00    +0.056 C 
BRANCH  12  13
ATOM     13  C   LIG    1       25.400 -13.239   4.824  0.00  0.00    +0.087 C 
BRANCH  13  15
ATOM     14  C   LIG    1       23.601 -14.761   4.250  0.00  0.00    +0.104 C 
ATOM     15  N   LIG    1       24.640 -13.872   3.728  0.00  0.00    -0.308 NA
ATOM     16  C   LIG    1       24.024 -12.843   2.881  0.00  0.00    +0.104 C 
ENDBRANCH  13  15
ENDBRANCH  12  13
ENDBRANCH  11  12
ENDBRANCH  10  11
ENDBRANCH   1  10
BRANCH   7  17
ATOM     17  C   LIG    1       25.411 -19.058   2.923  0.00  0.00    +0.179 C 
BRANCH  17  18
ATOM     18  C   LIG    1       24.299 -19.603   3.794  0.00  0.00    -0.026 A 
ATOM     19  C   LIG    1       23.198 -18.826   4.194  0.00  0.00    +0.005 A 
ATOM     20  C   LIG    1       22.196 -19.361   5.003  0.00  0.00    +0.000 A 
ATOM     21  C   LIG    1       22.287 -20.676   5.446  0.00  0.00    +0.000 A 
ATOM     22  C   LIG    1       23.388 -21.452   5.089  0.00  0.00    +0.000 A 
ATOM     23  C   LIG    1       24.391 -20.918   4.275  0.00  0.00    +0.005 A 
ENDBRANCH  17  18
ENDBRANCH   7  17
TORSDOF 7
ENDMDL
MODEL 3
REMARK VINA RESULT:      -4.6      1.635      2.379
REMARK  Name = *****
REMARK                            x       y       z     vdW  Elec       q    Type
REMARK                         _______ _______ _______ _____ _____    ______ ____
ROOT
ATOM      1  C   LIG    1       25.739 -19.878   4.641  0.00  0.00    +0.242 A 
ATOM      2  C   LIG    1       26.974 -19.678   5.303  0.00  0.00    +0.063 A 
ATOM      3  C   LIG    1       27.538 -18.581   4.639  0.00  0.00    +0.073 A 
ATOM      4  C   LIG    1       28.784 -18.048   4.995  0.00  0.00    +0.028 A 
ATOM      5  C   LIG    1       29.472 -18.661   6.045  0.00  0.00    +0.002 A 
ATOM      6  C   LIG    1       28.926 -19.749   6.727  0.00  0.00    +0.001 A 
ATOM      7  N   LIG    1       26.611 -18.211   3.695  0.00  0.00    -0.256 N 
ATOM      8  C   LIG    1       27.670 -20.267   6.370  0.00  0.00    +0.015 A 
ATOM      9  N   LIG    1       25.555 -19.045   3.626  0.00  0.00    -0.132 NA
ENDROOT
BRANCH   1  10
ATOM     10  O   LIG    1       24.767 -20.769   4.956  0.00  0.00    -0.475 OA
BRANCH  10  11
ATOM     11  C   LIG    1       24.193 -20.553   6.254  0.00  0.00    +0.232 C 
BRANCH  11  12
ATOM     12  C   LIG    1       22.810 -19.935   6.102  0.00  0.00    +0.056 C 
BRANCH  12  13
ATOM     13  C   LIG    1       22.241 -20.180   4.696  0.00  0.00    +0.087 C 
BRANCH  13  15
ATOM     14  C   LIG    1       20.624 -18.836   3.488  0.00  0.00    +0.104 C 
ATOM     15  N   LIG    1       22.010 -18.929   3.948  0.00  0.00    -0.308 NA
ATOM     16  C   LIG    1       22.325 -17.770   4.791  0.00  0.00    +0.104 C 
ENDBRANCH  13  15
ENDBRANCH  12  13
ENDBRANCH  11  12
ENDBRANCH  10  11
ENDBRANCH   1  10
BRANCH   7  17
ATOM     17  C   LIG    1       26.617 -17.023   2.853  0.00  0.00    +0.179 C 
BRANCH  17  18
ATOM     18  C   LIG    1       26.308 -15.752   3.617  0.00  0.00    -0.026 A 
ATOM     19  C   LIG    1       24.997 -15.289   3.821  0.00  0.00    +0.005 A 
ATOM     20  C   LIG    1       24.751 -14.109   4.525  0.00  0.00    +0.000 A 
ATOM     21  C   LIG    1       25.813 -13.359   5.016  0.00  0.00    +0.000 A 
ATOM     22  C   LIG    1       27.122 -13.783   4.794  0.00  0.00    +0.000 A 
ATOM     23  C   LIG    1       27.369 -14.967   4.093  0.00  0.00    +0.005 A 
ENDBRANCH  17  18
ENDBRANCH   7  17
TORSDOF 7
ENDMDL
MODEL 4
REMARK VINA RESULT:      -4.3      1.941      4.584
REMARK  Name = *****
REMARK                            x       y       z     vdW  Elec       q    Type
REMARK                         _______ _______ _______ _____ _____    ______ ____
ROOT
ATOM      1  C   LIG    1       25.342 -20.179   4.672  0.00  0.00    +0.242 A 
ATOM      2  C   LIG    1       23.943 -19.969   4.621  0.00  0.00    +0.063 A 
ATOM      3  C   LIG    1       23.809 -18.760   3.927  0.00  0.00    +0.073 A 
ATOM      4  C   LIG    1       22.560 -18.186   3.654  0.00  0.00    +0.028 A 
ATOM      5  C   LIG    1       21.426 -18.860   4.113  0.00  0.00    +0.002 A 
ATOM      6  C   LIG    1       21.535 -20.071   4.799  0.00  0.00    +0.001 A 
ATOM      7  N   LIG    1       25.089 -18.381   3.604  0.00  0.00    -0.256 N 
ATOM      8  C   LIG    1       22.792 -20.643   5.056  0.00  0.00    +0.015 A 
ATOM      9  N   LIG    1       26.034 -19.188   4.127  0.00  0.00    -0.132 NA
ENDROOT
BRANCH   1  10
ATOM     10  O   LIG    1       25.999 -21.258   5.165  0.00  0.00    -0.475 OA
BRANCH  10  11
ATOM     11  C   LIG    1       26.077 -21.274   6.598  0.00  0.00    +0.232 C 
BRANCH  11  12
ATOM     12  C   LIG    1       27.236 -20.400   7.055  0.00  0.00    +0.056 C 
BRANCH  12  13
ATOM     13  C   LIG    1       28.527 -20.742   6.293  0.00  0.00    +0.087 C 
BRANCH  13  15
ATOM     14  C   LIG    1       28.700 -18.854   4.781  0.00  0.00    +0.104 C 
ATOM     15  N   LIG    1       29.305 -19.545   5.921  0.00  0.00    -0.308 NA
ATOM     16  C   LIG    1       29.392 -18.624   7.061  0.00  0.00    +0.104 C 
ENDBRANCH  13  15
ENDBRANCH  12  13
ENDBRANCH  11  12
ENDBRANCH  10  11
ENDBRANCH   1  10
BRANCH   7  17
ATOM     17  C   LIG    1       25.508 -17.293   2.731  0.00  0.00    +0.179 C 
BRANCH  17  18
ATOM     18  C   LIG    1       25.744 -15.994   3.473  0.00  0.00    -0.026 A 
ATOM     19  C   LIG    1       24.693 -15.195   3.957  0.00  0.00    +0.005 A 
ATOM     20  C   LIG    1       24.948 -14.000   4.630  0.00  0.00    +0.000 A 
ATOM     21  C   LIG    1       26.258 -13.570   4.810  0.00  0.00    +0.000 A 
ATOM     22  C   LIG    1       27.312 -14.330   4.307  0.00  0.00    +0.000 A 
ATOM     23  C   LIG    1       27.058 -15.529   3.636  0.00  0.00    +0.005 A 
ENDBRANCH  17  18
ENDBRANCH   7  17
TORSDOF 7
ENDMDL
MODEL 5
REMARK VINA RESULT:      -3.9      2.373      7.079
REMARK  Name = *****
REMARK                            x       y       z     vdW  Elec       q    Type
REMARK                         _______ _______ _______ _____ _____    ______ ____
ROOT
ATOM      1  C   LIG    1       25.861 -16.422   3.233  0.00  0.00    +0.242 A 
ATOM      2  C   LIG    1       24.595 -16.147   3.803  0.00  0.00    +0.063 A 
ATOM      3  C   LIG    1       24.026 -17.414   3.984  0.00  0.00    +0.073 A 
ATOM      4  C   LIG    1       22.751 -17.593   4.538  0.00  0.00    +0.028 A 
ATOM      5  C   LIG    1       22.040 -16.447   4.901  0.00  0.00    +0.002 A 
ATOM      6  C   LIG    1       22.590 -15.175   4.737  0.00  0.00    +0.001 A 
ATOM      7  N   LIG    1       24.980 -18.306   3.556  0.00  0.00    -0.256 N 
ATOM      8  C   LIG    1       23.874 -15.008   4.193  0.00  0.00    +0.015 A 
ATOM      9  N   LIG    1       26.062 -17.714   3.015  0.00  0.00    -0.132 NA
ENDROOT
BRANCH   1  10
ATOM     10  O   LIG    1       26.846 -15.535   2.941  0.00  0.00    -0.475 OA
BRANCH  10  11
ATOM     11  C   LIG    1       26.373 -14.352   2.280  0.00  0.00    +0.232 C 
BRANCH  11  12
ATOM     12  C   LIG    1       27.000 -13.124   2.925  0.00  0.00    +0.056 C 
BRANCH  12  13
ATOM     13  C   LIG    1       28.332 -13.471   3.609  0.00  0.00    +0.087 C 
BRANCH  13  15
ATOM     14  C   LIG    1       28.831 -11.855   5.346  0.00  0.00    +0.104 C 
ATOM     15  N   LIG    1       28.319 -13.195   5.058  0.00  0.00    -0.308 NA
ATOM     16  C   LIG    1       26.955 -13.322   5.585  0.00  0.00    +0.104 C 
ENDBRANCH  13  15
ENDBRANCH  12  13
ENDBRANCH  11  12
ENDBRANCH  10  11
ENDBRANCH   1  10
BRANCH   7  17
ATOM     17  C   LIG    1       24.973 -19.756   3.690  0.00  0.00    +0.179 C 
BRANCH  17  18
ATOM     18  C   LIG    1       25.785 -20.247   4.871  0.00  0.00    -0.026 A 
ATOM     19  C   LIG    1       25.272 -21.146   5.822  0.00  0.00    +0.005 A 
ATOM     20  C   LIG    1       26.047 -21.572   6.901  0.00  0.00    +0.000 A 
ATOM     21  C   LIG    1       27.341 -21.087   7.062  0.00  0.00    +0.000 A 
ATOM     22  C   LIG    1       27.855 -20.169   6.149  0.00  0.00    +0.000 A 
ATOM     23  C   LIG    1       27.081 -19.745   5.065  0.00  0.00    +0.005 A 
ENDBRANCH  17  18
ENDBRANCH   7  17
TORSDOF 7
ENDMDL
MODEL 6
REMARK VINA RESULT:      -3.9      2.317      7.079
REMARK  Name = *****
REMARK                            x       y       z     vdW  Elec       q    Type
REMARK                         _______ _______ _______ _____ _____    ______ ____
ROOT
ATOM      1  C   LIG    1       25.892 -16.322   3.314  0.00  0.00    +0.242 A 
ATOM      2  C   LIG    1       24.582 -16.190   3.835  0.00  0.00    +0.063 A 
ATOM      3  C   LIG    1       24.081 -17.498   3.818  0.00  0.00    +0.073 A 
ATOM      4  C   LIG    1       22.791 -17.813   4.265  0.00  0.00    +0.028 A 
ATOM      5  C   LIG    1       21.994 -16.762   4.726  0.00  0.00    +0.002 A 
ATOM      6  C   LIG    1       22.475 -15.453   4.760  0.00  0.00    +0.001 A 
ATOM      7  N   LIG    1       25.108 -18.275   3.340  0.00  0.00    -0.256 N 
ATOM      8  C   LIG    1       23.775 -15.151   4.322  0.00  0.00    +0.015 A 
ATOM      9  N   LIG    1       26.181 -17.562   2.946  0.00  0.00    -0.132 NA
ENDROOT
BRANCH   1  10
ATOM     10  O   LIG    1       26.837 -15.355   3.199  0.00  0.00    -0.475 OA
BRANCH  10  11
ATOM     11  C   LIG    1       26.465 -14.296   2.304  0.00  0.00    +0.232 C 
BRANCH  11  12
ATOM     12  C   LIG    1       26.753 -12.952   2.959  0.00  0.00    +0.056 C 
BRANCH  12  13
ATOM     13  C   LIG    1       25.717 -12.629   4.047  0.00  0.00    +0.087 C 
BRANCH  13  15
ATOM     14  C   LIG    1       24.090 -12.157   2.312  0.00  0.00    +0.104 C 
ATOM     15  N   LIG    1       24.667 -11.704   3.578  0.00  0.00    -0.308 NA
ATOM     16  C   LIG    1       23.607 -11.591   4.587  0.00  0.00    +0.104 C 
ENDBRANCH  13  15
ENDBRANCH  12  13
ENDBRANCH  11  12
ENDBRANCH  10  11
ENDBRANCH   1  10
BRANCH   7  17
ATOM     17  C   LIG    1       25.180 -19.729   3.288  0.00  0.00    +0.179 C 
BRANCH  17  18
ATOM     18  C   LIG    1       24.789 -20.391   4.594  0.00  0.00    -0.026 A 
ATOM     19  C   LIG    1       23.513 -20.935   4.816  0.00  0.00    +0.005 A 
ATOM     20  C   LIG    1       23.186 -21.531   6.034  0.00  0.00    +0.000 A 
ATOM     21  C   LIG    1       24.123 -21.572   7.061  0.00  0.00    +0.000 A 
ATOM     22  C   LIG    1       25.382 -21.006   6.872  0.00  0.00    +0.000 A 
ATOM     23  C   LIG    1       25.712 -20.413   5.651  0.00  0.00    +0.005 A 
ENDBRANCH  17  18
ENDBRANCH   7  17
TORSDOF 7
ENDMDL
MODEL 7
REMARK VINA RESULT:      -3.8      1.818      5.861
REMARK  Name = *****
REMARK                            x       y       z     vdW  Elec       q    Type
REMARK                         _______ _______ _______ _____ _____    ______ ____
ROOT
ATOM      1  C   LIG    1       26.626 -16.816   3.570  0.00  0.00    +0.242 A 
ATOM      2  C   LIG    1       26.134 -15.511   3.818  0.00  0.00    +0.063 A 
ATOM      3  C   LIG    1       24.742 -15.667   3.793  0.00  0.00    +0.073 A 
ATOM      4  C   LIG    1       23.864 -14.596   4.002  0.00  0.00    +0.028 A 
ATOM      5  C   LIG    1       24.424 -13.337   4.228  0.00  0.00    +0.002 A 
ATOM      6  C   LIG    1       25.808 -13.160   4.267  0.00  0.00    +0.001 A 
ATOM      7  N   LIG    1       24.530 -17.007   3.575  0.00  0.00    -0.256 N 
ATOM      8  C   LIG    1       26.679 -14.243   4.069  0.00  0.00    +0.015 A 
ATOM      9  N   LIG    1       25.663 -17.700   3.349  0.00  0.00    -0.132 NA
ENDROOT
BRANCH   1  10
ATOM     10  O   LIG    1       27.919 -17.226   3.575  0.00  0.00    -0.475 OA
BRANCH  10  11
ATOM     11  C   LIG    1       28.520 -17.208   4.879  0.00  0.00    +0.232 C 
BRANCH  11  12
ATOM     12  C   LIG    1       29.097 -18.581   5.192  0.00  0.00    +0.056 C 
BRANCH  12  13
ATOM     13  C   LIG    1       29.085 -18.860   6.704  0.00  0.00    +0.087 C 
BRANCH  13  15
ATOM     14  C   LIG    1       27.119 -20.172   6.162  0.00  0.00    +0.104 C 
ATOM     15  N   LIG    1       28.265 -20.033   7.062  0.00  0.00    -0.308 NA
ATOM     16  C   LIG    1       29.078 -21.253   7.011  0.00  0.00    +0.104 C 
ENDBRANCH  13  15
ENDBRANCH  12  13
ENDBRANCH  11  12
ENDBRANCH  10  11
ENDBRANCH   1  10
BRANCH   7  17
ATOM     17  C   LIG    1       23.269 -17.734   3.636  0.00  0.00    +0.179 C 
BRANCH  17  18
ATOM     18  C   LIG    1       23.393 -19.082   4.317  0.00  0.00    -0.026 A 
ATOM     19  C   LIG    1       24.111 -20.152   3.756  0.00  0.00    +0.005 A 
ATOM     20  C   LIG    1       24.198 -21.381   4.409  0.00  0.00    +0.000 A 
ATOM     21  C   LIG    1       23.549 -21.570   5.624  0.00  0.00    +0.000 A 
ATOM     22  C   LIG    1       22.803 -20.532   6.179  0.00  0.00    +0.000 A 
ATOM     23  C   LIG    1       22.719 -19.299   5.528  0.00  0.00    +0.005 A 
ENDBRANCH  17  18
ENDBRANCH   7  17
TORSDOF 7
ENDMDL
MODEL 8
REMARK VINA RESULT:      -3.8      1.953      3.754
REMARK  Name = *****
REMARK                            x       y       z     vdW  Elec       q    Type
REMARK                         _______ _______ _______ _____ _____    ______ ____
ROOT
ATOM      1  C   LIG    1       25.144 -18.737   3.551  0.00  0.00    +0.242 A 
ATOM      2  C   LIG    1       23.937 -18.136   3.984  0.00  0.00    +0.063 A 
ATOM      3  C   LIG    1       24.212 -16.763   3.946  0.00  0.00    +0.073 A 
ATOM      4  C   LIG    1       23.262 -15.797   4.302  0.00  0.00    +0.028 A 
ATOM      5  C   LIG    1       22.008 -16.249   4.719  0.00  0.00    +0.002 A 
ATOM      6  C   LIG    1       21.708 -17.611   4.757  0.00  0.00    +0.001 A 
ATOM      7  N   LIG    1       25.500 -16.663   3.477  0.00  0.00    -0.256 N 
ATOM      8  C   LIG    1       22.664 -18.571   4.384  0.00  0.00    +0.015 A 
ATOM      9  N   LIG    1       26.107 -17.856   3.319  0.00  0.00    -0.132 NA
ENDROOT
BRANCH   1  10
ATOM     10  O   LIG    1       25.378 -20.055   3.329  0.00  0.00    -0.475 OA
BRANCH  10  11
ATOM     11  C   LIG    1       24.853 -20.910   4.356  0.00  0.00    +0.232 C 
BRANCH  11  12
ATOM     12  C   LIG    1       25.421 -20.491   5.705  0.00  0.00    +0.056 C 
BRANCH  12  13
ATOM     13  C   LIG    1       26.711 -21.262   6.030  0.00  0.00    +0.087 C 
BRANCH  13  15
ATOM     14  C   LIG    1       28.907 -21.174   7.053  0.00  0.00    +0.104 C 
ATOM     15  N   LIG    1       27.784 -20.388   6.543  0.00  0.00    -0.308 NA
ATOM     16  C   LIG    1       28.255 -19.491   5.482  0.00  0.00    +0.104 C 
ENDBRANCH  13  15
ENDBRANCH  12  13
ENDBRANCH  11  12
ENDBRANCH  10  11
ENDBRANCH   1  10
BRANCH   7  17
ATOM     17  C   LIG    1       26.217 -15.459   3.080  0.00  0.00    +0.179 C 
BRANCH  17  18
ATOM     18  C   LIG    1       25.467 -14.185   3.411  0.00  0.00    -0.026 A 
ATOM     19  C   LIG    1       24.672 -13.507   2.470  0.00  0.00    +0.005 A 
ATOM     20  C   LIG    1       24.001 -12.332   2.809  0.00  0.00    +0.000 A 
ATOM     21  C   LIG    1       24.132 -11.800   4.087  0.00  0.00    +0.000 A 
ATOM     22  C   LIG    1       24.944 -12.439   5.023  0.00  0.00    +0.000 A 
ATOM     23  C   LIG    1       25.613 -13.618   4.686  0.00  0.00    +0.005 A 
ENDBRANCH  17  18
ENDBRANCH   7  17
TORSDOF 7
ENDMDL
MODEL 9
REMARK VINA RESULT:      -3.5      1.663      6.375
REMARK  Name = *****
REMARK                            x       y       z     vdW  Elec       q    Type
REMARK                         _______ _______ _______ _____ _____    ______ ____
ROOT
ATOM      1  C   LIG    1       23.738 -17.304   4.163  0.00  0.00    +0.242 A 
ATOM      2  C   LIG    1       23.194 -18.594   4.372  0.00  0.00    +0.063 A 
ATOM      3  C   LIG    1       24.242 -19.460   4.037  0.00  0.00    +0.073 A 
ATOM      4  C   LIG    1       24.117 -20.854   4.111  0.00  0.00    +0.028 A 
ATOM      5  C   LIG    1       22.887 -21.370   4.526  0.00  0.00    +0.002 A 
ATOM      6  C   LIG    1       21.831 -20.526   4.874  0.00  0.00    +0.001 A 
ATOM      7  N   LIG    1       25.295 -18.644   3.701  0.00  0.00    -0.256 N 
ATOM      8  C   LIG    1       21.972 -19.130   4.808  0.00  0.00    +0.015 A 
ATOM      9  N   LIG    1       24.976 -17.335   3.688  0.00  0.00    -0.132 NA
ENDROOT
BRANCH   1  10
ATOM     10  O   LIG    1       23.155 -16.108   4.425  0.00  0.00    -0.475 OA
BRANCH  10  11
ATOM     11  C   LIG    1       23.630 -15.044   3.586  0.00  0.00    +0.232 C 
BRANCH  11  12
ATOM     12  C   LIG    1       24.477 -14.085   4.411  0.00  0.00    +0.056 C 
BRANCH  12  13
ATOM     13  C   LIG    1       25.476 -13.322   3.527  0.00  0.00    +0.087 C 
BRANCH  13  15
ATOM     14  C   LIG    1       26.928 -13.458   5.464  0.00  0.00    +0.104 C 
ATOM     15  N   LIG    1       26.868 -13.442   4.002  0.00  0.00    -0.308 NA
ATOM     16  C   LIG    1       27.478 -14.668   3.474  0.00  0.00    +0.104 C 
ENDBRANCH  13  15
ENDBRANCH  12  13
ENDBRANCH  11  12
ENDBRANCH  10  11
ENDBRANCH   1  10
BRANCH   7  17
ATOM     17  C   LIG    1       26.677 -19.027   3.445  0.00  0.00    +0.179 C 
BRANCH  17  18
ATOM     18  C   LIG    1       27.481 -19.235   4.713  0.00  0.00    -0.026 A 
ATOM     19  C   LIG    1       27.125 -20.182   5.689  0.00  0.00    +0.005 A 
ATOM     20  C   LIG    1       27.885 -20.342   6.847  0.00  0.00    +0.000 A 
ATOM     21  C   LIG    1       29.002 -19.541   7.062  0.00  0.00    +0.000 A 
ATOM     22  C   LIG    1       29.350 -18.573   6.122  0.00  0.00    +0.000 A 
ATOM     23  C   LIG    1       28.592 -18.415   4.959  0.00  0.00    +0.005 A 
ENDBRANCH  17  18
ENDBRANCH   7  17
TORSDOF 7
ENDMDL
