MODEL 1
REMARK VINA RESULT:      -6.0      0.000      0.000
REMARK  Name = *****
REMARK                            x       y       z     vdW  Elec       q    Type
REMARK                         _______ _______ _______ _____ _____    ______ ____
ROOT
ATOM      1  C   LIG    1       25.131 -29.266   7.913  0.00  0.00    -0.002 C 
ATOM      2  C   LIG    1       24.708 -30.282   7.045  0.00  0.00    -0.016 C 
ATOM      3  C   LIG    1       24.443 -30.192   5.588  0.00  0.00    +0.015 C 
ATOM      4  C   LIG    1       24.903 -31.161   4.762  0.00  0.00    +0.078 C 
ATOM      5  C   LIG    1       25.663 -32.310   5.385  0.00  0.00    +0.203 C 
ATOM      6  N   LIG    1       26.632 -32.978   4.825  0.00  0.00    -0.229 N 
ATOM      7  C   LIG    1       25.095 -32.658   6.728  0.00  0.00    +0.078 C 
ATOM      8  C   LIG    1       24.486 -31.677   7.411  0.00  0.00    +0.015 C 
ENDROOT
BRANCH   1  12
ATOM      9  C   LIG    1       25.490 -25.157   6.195  0.00  0.00    +0.030 A 
ATOM     10  C   LIG    1       24.305 -25.901   6.229  0.00  0.00    +0.024 A 
ATOM     11  C   LIG    1       24.179 -27.219   6.692  0.00  0.00    +0.010 A 
ATOM     12  C   LIG    1       25.250 -27.893   7.248  0.00  0.00    -0.017 A 
ATOM     13  C   LIG    1       26.435 -27.165   7.198  0.00  0.00    +0.010 A 
ATOM     14  C   LIG    1       26.596 -25.898   6.575  0.00  0.00    +0.024 A 
BRANCH   9  15
ATOM     15  N   LIG    1       25.517 -23.819   5.785  0.00  0.00    -0.330 N 
BRANCH  15  17
ATOM     16  C   LIG    1       24.395 -21.771   4.651  0.00  0.00    +0.024 C 
ATOM     17  C   LIG    1       24.414 -23.258   4.948  0.00  0.00    +0.102 C 
ENDBRANCH  15  17
BRANCH  15  18
ATOM     18  C   LIG    1       26.183 -22.826   6.684  0.00  0.00    +0.102 C 
ATOM     19  C   LIG    1       25.463 -22.607   8.021  0.00  0.00    +0.024 C 
ENDBRANCH  15  18
ENDBRANCH   9  15
ENDBRANCH   1  12
BRANCH   1  20
ATOM     20  C   LIG    1       25.502 -29.519   9.482  0.00  0.00    +0.014 A 
ATOM     21  C   LIG    1       24.724 -29.883  10.633  0.00  0.00    +0.127 A 
ATOM     22  C   LIG    1       25.328 -30.033  11.915  0.00  0.00    +0.063 A 
ATOM     23  C   LIG    1       26.679 -29.853  12.155  0.00  0.00    +0.160 A 
ATOM     24  C   LIG    1       27.468 -29.493  11.105  0.00  0.00    +0.145 A 
ATOM     25  C   LIG    1       26.866 -29.303   9.854  0.00  0.00    +0.058 A 
BRANCH  21  26
ATOM     26  S   LIG    1       22.974 -30.235  10.786  0.00  0.00    +0.110 S 
ATOM     27  O   LIG    1       22.398 -30.414   9.506  0.00  0.00    -0.142 OA
ATOM     28  O   LIG    1       22.449 -29.317  11.814  0.00  0.00    -0.142 OA
BRANCH  26  29
ATOM     29  O   LIG    1       22.814 -31.661  11.520  0.00  0.00    -0.250 OA
ATOM     30  H   LIG    1       23.687 -31.876  11.912  0.00  0.00    +0.245 HD
ENDBRANCH  26  29
ENDBRANCH  21  26
BRANCH  23  31
ATOM     31  S   LIG    1       27.292 -30.046  13.794  0.00  0.00    +0.113 S 
ATOM     32  O   LIG    1       28.665 -30.394  13.797  0.00  0.00    -0.142 OA
ATOM     33  O   LIG    1       26.319 -30.850  14.523  0.00  0.00    -0.142 OA
BRANCH  31  34
ATOM     34  O   LIG    1       27.163 -28.556  14.408  0.00  0.00    -0.250 OA
ATOM     35  H   LIG    1       27.592 -28.567  15.288  0.00  0.00    +0.245 HD
ENDBRANCH  31  34
ENDBRANCH  23  31
BRANCH  24  36
ATOM     36  O   LIG    1       28.803 -29.289  11.240  0.00  0.00    -0.505 OA
ATOM     37  H   LIG    1       29.269 -30.079  11.553  0.00  0.00    +0.292 HD
ENDBRANCH  24  36
ENDBRANCH   1  20
BRANCH   6  38
ATOM     38  C   LIG    1       27.593 -33.820   5.652  0.00  0.00    +0.347 C 
ATOM     39  C   LIG    1       28.194 -33.047   6.809  0.00  0.00    +0.082 C 
ENDBRANCH   6  38
BRANCH   6  40
ATOM     40  C   LIG    1       27.029 -32.820   3.372  0.00  0.00    +0.347 C 
ATOM     41  C   LIG    1       26.282 -33.825   2.510  0.00  0.00    +0.082 C 
ENDBRANCH   6  40
TORSDOF 12
ENDMDL
MODEL 2
REMARK VINA RESULT:      -5.8      4.066      8.174
REMARK  Name = *****
REMARK                            x       y       z     vdW  Elec       q    Type
REMARK                         _______ _______ _______ _____ _____    ______ ____
ROOT
ATOM      1  C   LIG    1       23.722 -29.693  12.033  0.00  0.00    -0.002 C 
ATOM      2  C   LIG    1       24.750 -29.506  12.966  0.00  0.00    -0.016 C 
ATOM      3  C   LIG    1       26.201 -29.332  12.708  0.00  0.00    +0.015 C 
ATOM      4  C   LIG    1       26.889 -28.373  13.372  0.00  0.00    +0.078 C 
ATOM      5  C   LIG    1       26.129 -27.528  14.369  0.00  0.00    +0.203 C 
ATOM      6  N   LIG    1       26.374 -26.281  14.657  0.00  0.00    -0.229 N 
ATOM      7  C   LIG    1       25.084 -28.343  15.071  0.00  0.00    +0.078 C 
ATOM      8  C   LIG    1       24.580 -29.397  14.411  0.00  0.00    +0.015 C 
ENDROOT
BRANCH   1  12
ATOM      9  C   LIG    1       25.063 -29.773   7.772  0.00  0.00    +0.030 A 
ATOM     10  C   LIG    1       23.934 -30.441   8.260  0.00  0.00    +0.024 A 
ATOM     11  C   LIG    1       23.532 -30.496   9.602  0.00  0.00    +0.010 A 
ATOM     12  C   LIG    1       24.209 -29.799  10.586  0.00  0.00    -0.017 A 
ATOM     13  C   LIG    1       25.343 -29.150  10.109  0.00  0.00    +0.010 A 
ATOM     14  C   LIG    1       25.842 -29.234   8.781  0.00  0.00    +0.024 A 
BRANCH   9  15
ATOM     15  N   LIG    1       25.354 -29.705   6.404  0.00  0.00    -0.330 N 
BRANCH  15  17
ATOM     16  C   LIG    1       26.424 -32.051   6.105  0.00  0.00    +0.024 C 
ATOM     17  C   LIG    1       25.511 -30.953   5.597  0.00  0.00    +0.102 C 
ENDBRANCH  15  17
BRANCH  15  18
ATOM     18  C   LIG    1       24.838 -28.529   5.638  0.00  0.00    +0.102 C 
ATOM     19  C   LIG    1       25.884 -27.437   5.384  0.00  0.00    +0.024 C 
ENDBRANCH  15  18
ENDBRANCH   9  15
ENDBRANCH   1  12
BRANCH   1  20
ATOM     20  C   LIG    1       22.142 -29.756  12.436  0.00  0.00    +0.014 A 
ATOM     21  C   LIG    1       21.219 -28.790  12.962  0.00  0.00    +0.127 A 
ATOM     22  C   LIG    1       19.862 -29.134  13.231  0.00  0.00    +0.063 A 
ATOM     23  C   LIG    1       19.328 -30.392  13.007  0.00  0.00    +0.160 A 
ATOM     24  C   LIG    1       20.158 -31.356  12.521  0.00  0.00    +0.145 A 
ATOM     25  C   LIG    1       21.502 -31.029  12.299  0.00  0.00    +0.058 A 
BRANCH  21  26
ATOM     26  S   LIG    1       21.457 -27.063  13.374  0.00  0.00    +0.110 S 
ATOM     27  O   LIG    1       20.320 -26.310  12.999  0.00  0.00    -0.142 OA
ATOM     28  O   LIG    1       22.842 -26.726  12.991  0.00  0.00    -0.142 OA
BRANCH  26  29
ATOM     29  O   LIG    1       21.531 -26.937  14.979  0.00  0.00    -0.250 OA
ATOM     30  H   LIG    1       20.779 -26.371  15.252  0.00  0.00    +0.245 HD
ENDBRANCH  26  29
ENDBRANCH  21  26
BRANCH  23  31
ATOM     31  S   LIG    1       17.640 -30.690  13.407  0.00  0.00    +0.113 S 
ATOM     32  O   LIG    1       17.057 -29.577  14.060  0.00  0.00    -0.142 OA
ATOM     33  O   LIG    1       17.570 -32.021  13.998  0.00  0.00    -0.142 OA
BRANCH  31  34
ATOM     34  O   LIG    1       16.942 -30.828  11.956  0.00  0.00    -0.250 OA
ATOM     35  H   LIG    1       16.253 -31.520  12.030  0.00  0.00    +0.245 HD
ENDBRANCH  31  34
ENDBRANCH  23  31
BRANCH  24  36
ATOM     36  O   LIG    1       19.731 -32.621  12.274  0.00  0.00    -0.505 OA
ATOM     37  H   LIG    1       20.069 -32.968  11.434  0.00  0.00    +0.292 HD
ENDBRANCH  24  36
ENDBRANCH   1  20
BRANCH   6  38
ATOM     38  C   LIG    1       25.332 -25.408  15.343  0.00  0.00    +0.347 C 
ATOM     39  C   LIG    1       25.415 -23.957  14.910  0.00  0.00    +0.082 C 
ENDBRANCH   6  38
BRANCH   6  40
ATOM     40  C   LIG    1       27.593 -25.530  14.163  0.00  0.00    +0.347 C 
ATOM     41  C   LIG    1       28.697 -25.573  15.206  0.00  0.00    +0.082 C 
ENDBRANCH   6  40
TORSDOF 12
ENDMDL
MODEL 3
REMARK VINA RESULT:      -5.7      3.960      8.038
REMARK  Name = *****
REMARK                            x       y       z     vdW  Elec       q    Type
REMARK                         _______ _______ _______ _____ _____    ______ ____
ROOT
ATOM      1  C   LIG    1       23.950 -29.807  12.196  0.00  0.00    -0.002 C 
ATOM      2  C   LIG    1       25.047 -29.572  13.036  0.00  0.00    -0.016 C 
ATOM      3  C   LIG    1       26.457 -29.316  12.651  0.00  0.00    +0.015 C 
ATOM      4  C   LIG    1       27.150 -28.327  13.264  0.00  0.00    +0.078 C 
ATOM      5  C   LIG    1       26.439 -27.535  14.337  0.00  0.00    +0.203 C 
ATOM      6  N   LIG    1       26.642 -26.279  14.620  0.00  0.00    -0.229 N 
ATOM      7  C   LIG    1       25.508 -28.412  15.119  0.00  0.00    +0.078 C 
ATOM      8  C   LIG    1       25.003 -29.486  14.491  0.00  0.00    +0.015 C 
ENDROOT
BRANCH   1  12
ATOM      9  C   LIG    1       24.921 -29.764   7.835  0.00  0.00    +0.030 A 
ATOM     10  C   LIG    1       23.816 -30.415   8.395  0.00  0.00    +0.024 A 
ATOM     11  C   LIG    1       23.528 -30.509   9.764  0.00  0.00    +0.010 A 
ATOM     12  C   LIG    1       24.308 -29.871  10.711  0.00  0.00    -0.017 A 
ATOM     13  C   LIG    1       25.419 -29.240  10.161  0.00  0.00    +0.010 A 
ATOM     14  C   LIG    1       25.800 -29.288   8.793  0.00  0.00    +0.024 A 
BRANCH   9  15
ATOM     15  N   LIG    1       25.097 -29.652   6.451  0.00  0.00    -0.330 N 
BRANCH  15  17
ATOM     16  C   LIG    1       26.389 -31.897   6.278  0.00  0.00    +0.024 C 
ATOM     17  C   LIG    1       25.515 -30.836   5.640  0.00  0.00    +0.102 C 
ENDBRANCH  15  17
BRANCH  15  18
ATOM     18  C   LIG    1       24.251 -28.661   5.717  0.00  0.00    +0.102 C 
ATOM     19  C   LIG    1       24.489 -27.204   6.130  0.00  0.00    +0.024 C 
ENDBRANCH  15  18
ENDBRANCH   9  15
ENDBRANCH   1  12
BRANCH   1  20
ATOM     20  C   LIG    1       22.418 -29.960  12.739  0.00  0.00    +0.014 A 
ATOM     21  C   LIG    1       21.632 -31.082  13.169  0.00  0.00    +0.127 A 
ATOM     22  C   LIG    1       20.283 -30.919  13.598  0.00  0.00    +0.063 A 
ATOM     23  C   LIG    1       19.633 -29.697  13.643  0.00  0.00    +0.160 A 
ATOM     24  C   LIG    1       20.322 -28.596  13.234  0.00  0.00    +0.145 A 
ATOM     25  C   LIG    1       21.634 -28.765  12.771  0.00  0.00    +0.058 A 
BRANCH  21  26
ATOM     26  S   LIG    1       22.061 -32.817  13.300  0.00  0.00    +0.110 S 
ATOM     27  O   LIG    1       20.954 -33.560  13.772  0.00  0.00    -0.142 OA
ATOM     28  O   LIG    1       23.413 -32.873  13.889  0.00  0.00    -0.142 OA
BRANCH  26  29
ATOM     29  O   LIG    1       22.338 -33.377  11.815  0.00  0.00    -0.250 OA
ATOM     30  H   LIG    1       22.293 -34.355  11.869  0.00  0.00    +0.245 HD
ENDBRANCH  26  29
ENDBRANCH  21  26
BRANCH  23  31
ATOM     31  S   LIG    1       17.954 -29.638  14.171  0.00  0.00    +0.113 S 
ATOM     32  O   LIG    1       17.561 -28.319  14.503  0.00  0.00    -0.142 OA
ATOM     33  O   LIG    1       17.765 -30.732  15.116  0.00  0.00    -0.142 OA
BRANCH  31  34
ATOM     34  O   LIG    1       17.141 -30.073  12.844  0.00  0.00    -0.250 OA
ATOM     35  H   LIG    1       16.300 -30.479  13.138  0.00  0.00    +0.245 HD
ENDBRANCH  31  34
ENDBRANCH  23  31
BRANCH  24  36
ATOM     36  O   LIG    1       19.771 -27.356  13.237  0.00  0.00    -0.505 OA
ATOM     37  H   LIG    1       20.004 -26.845  12.446  0.00  0.00    +0.292 HD
ENDBRANCH  24  36
ENDBRANCH   1  20
BRANCH   6  38
ATOM     38  C   LIG    1       25.622 -25.472  15.410  0.00  0.00    +0.347 C 
ATOM     39  C   LIG    1       24.455 -25.016  14.555  0.00  0.00    +0.082 C 
ENDBRANCH   6  38
BRANCH   6  40
ATOM     40  C   LIG    1       27.769 -25.458  14.029  0.00  0.00    +0.347 C 
ATOM     41  C   LIG    1       28.148 -24.328  14.972  0.00  0.00    +0.082 C 
ENDBRANCH   6  40
TORSDOF 12
ENDMDL
MODEL 4
REMARK VINA RESULT:      -5.7      4.635      7.249
REMARK  Name = *****
REMARK                            x       y       z     vdW  Elec       q    Type
REMARK                         _______ _______ _______ _____ _____    ______ ____
ROOT
ATOM      1  C   LIG    1       23.400 -30.265  11.717  0.00  0.00    -0.002 C 
ATOM      2  C   LIG    1       24.133 -31.049  10.816  0.00  0.00    -0.016 C 
ATOM      3  C   LIG    1       23.681 -32.247  10.065  0.00  0.00    +0.015 C 
ATOM      4  C   LIG    1       23.991 -32.371   8.753  0.00  0.00    +0.078 C 
ATOM      5  C   LIG    1       24.808 -31.269   8.118  0.00  0.00    +0.203 C 
ATOM      6  N   LIG    1       24.730 -30.878   6.877  0.00  0.00    -0.229 N 
ATOM      7  C   LIG    1       25.809 -30.720   9.090  0.00  0.00    +0.078 C 
ATOM      8  C   LIG    1       25.508 -30.802  10.395  0.00  0.00    +0.015 C 
ENDROOT
BRANCH   1  12
ATOM      9  C   LIG    1       19.212 -31.564  12.573  0.00  0.00    +0.030 A 
ATOM     10  C   LIG    1       20.312 -31.850  13.388  0.00  0.00    +0.024 A 
ATOM     11  C   LIG    1       21.646 -31.521  13.107  0.00  0.00    +0.010 A 
ATOM     12  C   LIG    1       21.987 -30.787  11.987  0.00  0.00    -0.017 A 
ATOM     13  C   LIG    1       20.899 -30.518  11.163  0.00  0.00    +0.010 A 
ATOM     14  C   LIG    1       19.577 -30.997  11.364  0.00  0.00    +0.024 A 
BRANCH   9  15
ATOM     15  N   LIG    1       17.900 -31.862  12.961  0.00  0.00    -0.330 N 
BRANCH  15  17
ATOM     16  C   LIG    1       16.487 -29.852  13.797  0.00  0.00    +0.024 C 
ATOM     17  C   LIG    1       16.797 -30.881  12.729  0.00  0.00    +0.102 C 
ENDBRANCH  15  17
BRANCH  15  18
ATOM     18  C   LIG    1       17.474 -33.296  12.941  0.00  0.00    +0.102 C 
ATOM     19  C   LIG    1       15.959 -33.499  12.818  0.00  0.00    +0.024 C 
ENDBRANCH  15  18
ENDBRANCH   9  15
ENDBRANCH   1  12
BRANCH   1  20
ATOM     20  C   LIG    1       23.976 -28.896  12.393  0.00  0.00    +0.014 A 
ATOM     21  C   LIG    1       23.381 -27.871  13.204  0.00  0.00    +0.127 A 
ATOM     22  C   LIG    1       24.142 -26.756  13.662  0.00  0.00    +0.063 A 
ATOM     23  C   LIG    1       25.485 -26.573  13.379  0.00  0.00    +0.160 A 
ATOM     24  C   LIG    1       26.103 -27.505  12.602  0.00  0.00    +0.145 A 
ATOM     25  C   LIG    1       25.342 -28.578  12.116  0.00  0.00    +0.058 A 
BRANCH  21  26
ATOM     26  S   LIG    1       21.709 -27.709  13.828  0.00  0.00    +0.110 S 
ATOM     27  O   LIG    1       21.452 -28.706  14.798  0.00  0.00    -0.142 OA
ATOM     28  O   LIG    1       20.848 -27.442  12.660  0.00  0.00    -0.142 OA
BRANCH  26  29
ATOM     29  O   LIG    1       21.606 -26.313  14.626  0.00  0.00    -0.250 OA
ATOM     30  H   LIG    1       20.671 -26.217  14.907  0.00  0.00    +0.245 HD
ENDBRANCH  26  29
ENDBRANCH  21  26
BRANCH  23  31
ATOM     31  S   LIG    1       26.301 -25.136  13.986  0.00  0.00    +0.113 S 
ATOM     32  O   LIG    1       27.506 -24.888  13.284  0.00  0.00    -0.142 OA
ATOM     33  O   LIG    1       26.292 -25.223  15.442  0.00  0.00    -0.142 OA
BRANCH  31  34
ATOM     34  O   LIG    1       25.267 -23.949  13.621  0.00  0.00    -0.250 OA
ATOM     35  H   LIG    1       24.478 -24.365  13.218  0.00  0.00    +0.245 HD
ENDBRANCH  31  34
ENDBRANCH  23  31
BRANCH  24  36
ATOM     36  O   LIG    1       27.414 -27.412  12.265  0.00  0.00    -0.505 OA
ATOM     37  H   LIG    1       28.000 -27.491  13.033  0.00  0.00    +0.292 HD
ENDBRANCH  24  36
ENDBRANCH   1  20
BRANCH   6  38
ATOM     38  C   LIG    1       25.272 -29.525   6.438  0.00  0.00    +0.347 C 
ATOM     39  C   LIG    1       24.341 -28.810   5.478  0.00  0.00    +0.082 C 
ENDBRANCH   6  38
BRANCH   6  40
ATOM     40  C   LIG    1       23.926 -31.604   5.818  0.00  0.00    +0.347 C 
ATOM     41  C   LIG    1       24.792 -32.634   5.113  0.00  0.00    +0.082 C 
ENDBRANCH   6  40
TORSDOF 12
ENDMDL
MODEL 5
REMARK VINA RESULT:      -5.4      5.084      8.512
REMARK  Name = *****
REMARK                            x       y       z     vdW  Elec       q    Type
REMARK                         _______ _______ _______ _____ _____    ______ ____
ROOT
ATOM      1  C   LIG    1       23.605 -30.279  12.539  0.00  0.00    -0.002 C 
ATOM      2  C   LIG    1       22.690 -31.040  13.280  0.00  0.00    -0.016 C 
ATOM      3  C   LIG    1       22.145 -30.758  14.631  0.00  0.00    +0.015 C 
ATOM      4  C   LIG    1       20.822 -30.918  14.867  0.00  0.00    +0.078 C 
ATOM      5  C   LIG    1       19.960 -31.399  13.721  0.00  0.00    +0.203 C 
ATOM      6  N   LIG    1       18.711 -31.085  13.521  0.00  0.00    -0.229 N 
ATOM      7  C   LIG    1       20.707 -32.379  12.867  0.00  0.00    +0.078 C 
ATOM      8  C   LIG    1       22.044 -32.269  12.831  0.00  0.00    +0.015 C 
ENDROOT
BRANCH   1  12
ATOM      9  C   LIG    1       25.264 -26.624  14.502  0.00  0.00    +0.030 A 
ATOM     10  C   LIG    1       25.770 -27.917  14.679  0.00  0.00    +0.024 A 
ATOM     11  C   LIG    1       25.225 -29.090  14.136  0.00  0.00    +0.010 A 
ATOM     12  C   LIG    1       24.137 -29.053  13.283  0.00  0.00    -0.017 A 
ATOM     13  C   LIG    1       23.619 -27.772  13.121  0.00  0.00    +0.010 A 
ATOM     14  C   LIG    1       24.069 -26.610  13.804  0.00  0.00    +0.024 A 
BRANCH   9  15
ATOM     15  N   LIG    1       25.911 -25.496  15.018  0.00  0.00    -0.330 N 
BRANCH  15  17
ATOM     16  C   LIG    1       28.496 -25.631  15.216  0.00  0.00    +0.024 C 
ATOM     17  C   LIG    1       27.262 -25.098  14.516  0.00  0.00    +0.102 C 
ENDBRANCH  15  17
BRANCH  15  18
ATOM     18  C   LIG    1       25.063 -24.358  15.491  0.00  0.00    +0.102 C 
ATOM     19  C   LIG    1       25.742 -22.986  15.394  0.00  0.00    +0.024 C 
ENDBRANCH  15  18
ENDBRANCH   9  15
ENDBRANCH   1  12
BRANCH   1  20
ATOM     20  C   LIG    1       24.041 -30.637  11.008  0.00  0.00    +0.014 A 
ATOM     21  C   LIG    1       25.204 -30.343  10.219  0.00  0.00    +0.127 A 
ATOM     22  C   LIG    1       25.315 -30.790   8.871  0.00  0.00    +0.063 A 
ATOM     23  C   LIG    1       24.342 -31.532   8.223  0.00  0.00    +0.160 A 
ATOM     24  C   LIG    1       23.207 -31.831   8.915  0.00  0.00    +0.145 A 
ATOM     25  C   LIG    1       23.081 -31.353  10.226  0.00  0.00    +0.058 A 
BRANCH  21  26
ATOM     26  S   LIG    1       26.698 -29.450  10.644  0.00  0.00    +0.110 S 
ATOM     27  O   LIG    1       27.548 -30.264  11.428  0.00  0.00    -0.142 OA
ATOM     28  O   LIG    1       26.281 -28.084  11.014  0.00  0.00    -0.142 OA
BRANCH  26  29
ATOM     29  O   LIG    1       27.520 -29.175   9.285  0.00  0.00    -0.250 OA
ATOM     30  H   LIG    1       28.364 -28.749   9.548  0.00  0.00    +0.245 HD
ENDBRANCH  26  29
ENDBRANCH  21  26
BRANCH  23  31
ATOM     31  S   LIG    1       24.595 -31.999   6.545  0.00  0.00    +0.113 S 
ATOM     32  O   LIG    1       24.419 -33.393   6.363  0.00  0.00    -0.142 OA
ATOM     33  O   LIG    1       25.814 -31.338   6.096  0.00  0.00    -0.142 OA
BRANCH  31  34
ATOM     34  O   LIG    1       23.390 -31.248   5.773  0.00  0.00    -0.250 OA
ATOM     35  H   LIG    1       23.397 -31.565   4.847  0.00  0.00    +0.245 HD
ENDBRANCH  31  34
ENDBRANCH  23  31
BRANCH  24  36
ATOM     36  O   LIG    1       22.194 -32.548   8.366  0.00  0.00    -0.505 OA
ATOM     37  H   LIG    1       21.792 -33.164   8.998  0.00  0.00    +0.292 HD
ENDBRANCH  24  36
ENDBRANCH   1  20
BRANCH   6  38
ATOM     38  C   LIG    1       18.057 -31.273  12.160  0.00  0.00    +0.347 C 
ATOM     39  C   LIG    1       17.138 -32.478  12.119  0.00  0.00    +0.082 C 
ENDBRANCH   6  38
BRANCH   6  40
ATOM     40  C   LIG    1       17.867 -30.323  14.522  0.00  0.00    +0.347 C 
ATOM     41  C   LIG    1       17.213 -31.285  15.500  0.00  0.00    +0.082 C 
ENDBRANCH   6  40
TORSDOF 12
ENDMDL
MODEL 6
REMARK VINA RESULT:      -5.1      3.484      6.759
REMARK  Name = *****
REMARK                            x       y       z     vdW  Elec       q    Type
REMARK                         _______ _______ _______ _____ _____    ______ ____
ROOT
ATOM      1  C   LIG    1       24.473 -30.088  10.023  0.00  0.00    -0.002 C 
ATOM      2  C   LIG    1       24.859 -29.761   8.716  0.00  0.00    -0.016 C 
ATOM      3  C   LIG    1       24.016 -29.714   7.496  0.00  0.00    +0.015 C 
ATOM      4  C   LIG    1       24.134 -28.672   6.639  0.00  0.00    +0.078 C 
ATOM      5  C   LIG    1       25.150 -27.604   6.972  0.00  0.00    +0.203 C 
ATOM      6  N   LIG    1       25.050 -26.337   6.681  0.00  0.00    -0.229 N 
ATOM      7  C   LIG    1       26.364 -28.204   7.616  0.00  0.00    +0.078 C 
ATOM      8  C   LIG    1       26.195 -29.346   8.300  0.00  0.00    +0.015 C 
ENDROOT
BRANCH   1  12
ATOM      9  C   LIG    1       20.243 -31.392  10.625  0.00  0.00    +0.030 A 
ATOM     10  C   LIG    1       21.204 -32.122   9.916  0.00  0.00    +0.024 A 
ATOM     11  C   LIG    1       22.515 -31.703   9.647  0.00  0.00    +0.010 A 
ATOM     12  C   LIG    1       23.010 -30.514  10.149  0.00  0.00    -0.017 A 
ATOM     13  C   LIG    1       22.052 -29.776  10.838  0.00  0.00    +0.010 A 
ATOM     14  C   LIG    1       20.680 -30.124  10.964  0.00  0.00    +0.024 A 
BRANCH   9  15
ATOM     15  N   LIG    1       18.977 -31.914  10.914  0.00  0.00    -0.330 N 
BRANCH  15  17
ATOM     16  C   LIG    1       17.962 -33.143   8.865  0.00  0.00    +0.024 C 
ATOM     17  C   LIG    1       18.514 -33.184  10.276  0.00  0.00    +0.102 C 
ENDBRANCH  15  17
BRANCH  15  18
ATOM     18  C   LIG    1       18.409 -31.657  12.274  0.00  0.00    +0.102 C 
ATOM     19  C   LIG    1       16.915 -31.308  12.275  0.00  0.00    +0.024 C 
ENDBRANCH  15  18
ENDBRANCH   9  15
ENDBRANCH   1  12
BRANCH   1  20
ATOM     20  C   LIG    1       25.475 -29.990  11.307  0.00  0.00    +0.014 A 
ATOM     21  C   LIG    1       25.843 -30.913  12.344  0.00  0.00    +0.127 A 
ATOM     22  C   LIG    1       26.762 -30.546  13.369  0.00  0.00    +0.063 A 
ATOM     23  C   LIG    1       27.369 -29.304  13.449  0.00  0.00    +0.160 A 
ATOM     24  C   LIG    1       27.050 -28.379  12.502  0.00  0.00    +0.145 A 
ATOM     25  C   LIG    1       26.113 -28.727  11.520  0.00  0.00    +0.058 A 
BRANCH  21  26
ATOM     26  S   LIG    1       25.336 -32.609  12.620  0.00  0.00    +0.110 S 
ATOM     27  O   LIG    1       23.926 -32.688  12.715  0.00  0.00    -0.142 OA
ATOM     28  O   LIG    1       26.269 -33.171  13.615  0.00  0.00    -0.142 OA
BRANCH  26  29
ATOM     29  O   LIG    1       25.715 -33.465  11.308  0.00  0.00    -0.250 OA
ATOM     30  H   LIG    1       26.584 -33.883  11.486  0.00  0.00    +0.245 HD
ENDBRANCH  26  29
ENDBRANCH  21  26
BRANCH  23  31
ATOM     31  S   LIG    1       28.468 -28.971  14.784  0.00  0.00    +0.113 S 
ATOM     32  O   LIG    1       28.787 -30.151  15.500  0.00  0.00    -0.142 OA
ATOM     33  O   LIG    1       27.954 -27.796  15.477  0.00  0.00    -0.142 OA
BRANCH  31  34
ATOM     34  O   LIG    1       29.811 -28.475  14.034  0.00  0.00    -0.250 OA
ATOM     35  H   LIG    1       30.192 -29.252  13.577  0.00  0.00    +0.245 HD
ENDBRANCH  31  34
ENDBRANCH  23  31
BRANCH  24  36
ATOM     36  O   LIG    1       27.588 -27.133  12.497  0.00  0.00    -0.505 OA
ATOM     37  H   LIG    1       28.327 -27.047  13.118  0.00  0.00    +0.292 HD
ENDBRANCH  24  36
ENDBRANCH   1  20
BRANCH   6  38
ATOM     38  C   LIG    1       25.894 -25.292   7.397  0.00  0.00    +0.347 C 
ATOM     39  C   LIG    1       26.002 -23.998   6.614  0.00  0.00    +0.082 C 
ENDBRANCH   6  38
BRANCH   6  40
ATOM     40  C   LIG    1       23.966 -25.764   5.791  0.00  0.00    +0.347 C 
ATOM     41  C   LIG    1       23.242 -24.635   6.504  0.00  0.00    +0.082 C 
ENDBRANCH   6  40
TORSDOF 12
ENDMDL
MODEL 7
REMARK VINA RESULT:      -5.0      6.058     10.951
REMARK  Name = *****
REMARK                            x       y       z     vdW  Elec       q    Type
REMARK                         _______ _______ _______ _____ _____    ______ ____
ROOT
ATOM      1  C   LIG    1       25.990 -21.281   5.350  0.00  0.00    -0.002 C 
ATOM      2  C   LIG    1       25.340 -20.609   4.306  0.00  0.00    -0.016 C 
ATOM      3  C   LIG    1       24.276 -21.123   3.408  0.00  0.00    +0.015 C 
ATOM      4  C   LIG    1       23.199 -20.350   3.134  0.00  0.00    +0.078 C 
ATOM      5  C   LIG    1       23.147 -18.974   3.759  0.00  0.00    +0.203 C 
ATOM      6  N   LIG    1       22.067 -18.339   4.118  0.00  0.00    -0.229 N 
ATOM      7  C   LIG    1       24.518 -18.372   3.839  0.00  0.00    +0.078 C 
ATOM      8  C   LIG    1       25.556 -19.218   3.923  0.00  0.00    +0.015 C 
ENDROOT
BRANCH   1  12
ATOM      9  C   LIG    1       25.005 -25.623   5.715  0.00  0.00    +0.030 A 
ATOM     10  C   LIG    1       24.571 -24.797   4.672  0.00  0.00    +0.024 A 
ATOM     11  C   LIG    1       24.801 -23.417   4.571  0.00  0.00    +0.010 A 
ATOM     12  C   LIG    1       25.576 -22.746   5.499  0.00  0.00    -0.017 A 
ATOM     13  C   LIG    1       25.992 -23.559   6.548  0.00  0.00    +0.010 A 
ATOM     14  C   LIG    1       25.617 -24.917   6.735  0.00  0.00    +0.024 A 
BRANCH   9  15
ATOM     15  N   LIG    1       24.796 -27.007   5.703  0.00  0.00    -0.330 N 
BRANCH  15  17
ATOM     16  C   LIG    1       27.101 -27.457   4.596  0.00  0.00    +0.024 C 
ATOM     17  C   LIG    1       25.685 -27.904   4.903  0.00  0.00    +0.102 C 
ENDBRANCH  15  17
BRANCH  15  18
ATOM     18  C   LIG    1       24.219 -27.638   6.930  0.00  0.00    +0.102 C 
ATOM     19  C   LIG    1       24.883 -28.961   7.328  0.00  0.00    +0.024 C 
ENDBRANCH  15  18
ENDBRANCH   9  15
ENDBRANCH   1  12
BRANCH   1  20
ATOM     20  C   LIG    1       27.067 -20.566   6.347  0.00  0.00    +0.014 A 
ATOM     21  C   LIG    1       27.107 -20.356   7.767  0.00  0.00    +0.127 A 
ATOM     22  C   LIG    1       28.198 -19.677   8.383  0.00  0.00    +0.063 A 
ATOM     23  C   LIG    1       29.287 -19.181   7.687  0.00  0.00    +0.160 A 
ATOM     24  C   LIG    1       29.300 -19.336   6.334  0.00  0.00    +0.145 A 
ATOM     25  C   LIG    1       28.206 -19.965   5.726  0.00  0.00    +0.058 A 
BRANCH  21  26
ATOM     26  S   LIG    1       25.949 -20.842   9.045  0.00  0.00    +0.110 S 
ATOM     27  O   LIG    1       25.971 -19.906  10.106  0.00  0.00    -0.142 OA
ATOM     28  O   LIG    1       26.099 -22.299   9.217  0.00  0.00    -0.142 OA
BRANCH  26  29
ATOM     29  O   LIG    1       24.461 -20.744   8.434  0.00  0.00    -0.250 OA
ATOM     30  H   LIG    1       23.868 -20.492   9.174  0.00  0.00    +0.245 HD
ENDBRANCH  26  29
ENDBRANCH  21  26
BRANCH  23  31
ATOM     31  S   LIG    1       30.557 -18.338   8.569  0.00  0.00    +0.113 S 
ATOM     32  O   LIG    1       30.096 -17.104   9.089  0.00  0.00    -0.142 OA
ATOM     33  O   LIG    1       31.759 -18.397   7.746  0.00  0.00    -0.142 OA
BRANCH  31  34
ATOM     34  O   LIG    1       30.844 -19.320   9.819  0.00  0.00    -0.250 OA
ATOM     35  H   LIG    1       30.474 -18.890  10.617  0.00  0.00    +0.245 HD
ENDBRANCH  31  34
ENDBRANCH  23  31
BRANCH  24  36
ATOM     36  O   LIG    1       30.320 -18.880   5.563  0.00  0.00    -0.505 OA
ATOM     37  H   LIG    1       30.734 -18.084   5.931  0.00  0.00    +0.292 HD
ENDBRANCH  24  36
ENDBRANCH   1  20
BRANCH   6  38
ATOM     38  C   LIG    1       22.124 -17.171   5.092  0.00  0.00    +0.347 C 
ATOM     39  C   LIG    1       22.645 -15.901   4.446  0.00  0.00    +0.082 C 
ENDBRANCH   6  38
BRANCH   6  40
ATOM     40  C   LIG    1       20.666 -18.815   3.791  0.00  0.00    +0.347 C 
ATOM     41  C   LIG    1       20.049 -17.935   2.717  0.00  0.00    +0.082 C 
ENDBRANCH   6  40
TORSDOF 12
ENDMDL
MODEL 8
REMARK VINA RESULT:      -4.8      3.806      6.569
REMARK  Name = *****
REMARK                            x       y       z     vdW  Elec       q    Type
REMARK                         _______ _______ _______ _____ _____    ______ ____
ROOT
ATOM      1  C   LIG    1       24.412 -30.285  11.084  0.00  0.00    -0.002 C 
ATOM      2  C   LIG    1       24.548 -30.461   9.700  0.00  0.00    -0.016 C 
ATOM      3  C   LIG    1       23.485 -30.432   8.664  0.00  0.00    +0.015 C 
ATOM      4  C   LIG    1       23.692 -29.756   7.510  0.00  0.00    +0.078 C 
ATOM      5  C   LIG    1       25.026 -29.067   7.331  0.00  0.00    +0.203 C 
ATOM      6  N   LIG    1       25.233 -27.965   6.666  0.00  0.00    -0.229 N 
ATOM      7  C   LIG    1       26.128 -29.870   7.953  0.00  0.00    +0.078 C 
ATOM      8  C   LIG    1       25.804 -30.664   8.986  0.00  0.00    +0.015 C 
ENDROOT
BRANCH   1  12
ATOM      9  C   LIG    1       20.263 -29.827  12.674  0.00  0.00    +0.030 A 
ATOM     10  C   LIG    1       20.749 -30.982  12.051  0.00  0.00    +0.024 A 
ATOM     11  C   LIG    1       22.020 -31.128  11.476  0.00  0.00    +0.010 A 
ATOM     12  C   LIG    1       22.965 -30.120  11.549  0.00  0.00    -0.017 A 
ATOM     13  C   LIG    1       22.478 -28.964  12.150  0.00  0.00    +0.010 A 
ATOM     14  C   LIG    1       21.139 -28.760  12.580  0.00  0.00    +0.024 A 
BRANCH   9  15
ATOM     15  N   LIG    1       19.006 -29.788  13.290  0.00  0.00    -0.330 N 
BRANCH  15  17
ATOM     16  C   LIG    1       17.161 -31.281  12.239  0.00  0.00    +0.024 C 
ATOM     17  C   LIG    1       18.152 -31.013  13.354  0.00  0.00    +0.102 C 
ENDBRANCH  15  17
BRANCH  15  18
ATOM     18  C   LIG    1       18.814 -28.835  14.426  0.00  0.00    +0.102 C 
ATOM     19  C   LIG    1       17.347 -28.519  14.740  0.00  0.00    +0.024 C 
ENDBRANCH  15  18
ENDBRANCH   9  15
ENDBRANCH   1  12
BRANCH   1  20
ATOM     20  C   LIG    1       25.679 -30.221  12.110  0.00  0.00    +0.014 A 
ATOM     21  C   LIG    1       25.872 -30.652  13.467  0.00  0.00    +0.127 A 
ATOM     22  C   LIG    1       27.117 -30.458  14.133  0.00  0.00    +0.063 A 
ATOM     23  C   LIG    1       28.220 -29.861  13.547  0.00  0.00    +0.160 A 
ATOM     24  C   LIG    1       28.095 -29.419  12.265  0.00  0.00    +0.145 A 
ATOM     25  C   LIG    1       26.857 -29.570  11.625  0.00  0.00    +0.058 A 
BRANCH  21  26
ATOM     26  S   LIG    1       24.750 -31.480  14.591  0.00  0.00    +0.110 S 
ATOM     27  O   LIG    1       23.740 -30.588  15.018  0.00  0.00    -0.142 OA
ATOM     28  O   LIG    1       25.586 -32.288  15.500  0.00  0.00    -0.142 OA
BRANCH  26  29
ATOM     29  O   LIG    1       23.974 -32.627  13.768  0.00  0.00    -0.250 OA
ATOM     30  H   LIG    1       24.501 -32.799  12.959  0.00  0.00    +0.245 HD
ENDBRANCH  26  29
ENDBRANCH  21  26
BRANCH  23  31
ATOM     31  S   LIG    1       29.691 -29.660  14.493  0.00  0.00    +0.113 S 
ATOM     32  O   LIG    1       29.921 -30.774  15.337  0.00  0.00    -0.142 OA
ATOM     33  O   LIG    1       29.668 -28.307  15.035  0.00  0.00    -0.142 OA
BRANCH  31  34
ATOM     34  O   LIG    1       30.849 -29.652  13.366  0.00  0.00    -0.250 OA
ATOM     35  H   LIG    1       30.663 -30.393  12.753  0.00  0.00    +0.245 HD
ENDBRANCH  31  34
ENDBRANCH  23  31
BRANCH  24  36
ATOM     36  O   LIG    1       29.116 -28.816  11.605  0.00  0.00    -0.505 OA
ATOM     37  H   LIG    1       29.979 -29.191  11.838  0.00  0.00    +0.292 HD
ENDBRANCH  24  36
ENDBRANCH   1  20
BRANCH   6  38
ATOM     38  C   LIG    1       26.494 -27.140   6.878  0.00  0.00    +0.347 C 
ATOM     39  C   LIG    1       27.236 -26.870   5.583  0.00  0.00    +0.082 C 
ENDBRANCH   6  38
BRANCH   6  40
ATOM     40  C   LIG    1       24.183 -27.295   5.804  0.00  0.00    +0.347 C 
ATOM     41  C   LIG    1       24.074 -25.821   6.158  0.00  0.00    +0.082 C 
ENDBRANCH   6  40
TORSDOF 12
ENDMDL
MODEL 9
REMARK VINA RESULT:      -4.6      3.489      7.003
REMARK  Name = *****
REMARK                            x       y       z     vdW  Elec       q    Type
REMARK                         _______ _______ _______ _____ _____    ______ ____
ROOT
ATOM      1  C   LIG    1       24.124 -30.408  10.305  0.00  0.00    -0.002 C 
ATOM      2  C   LIG    1       25.229 -30.633  11.139  0.00  0.00    -0.016 C 
ATOM      3  C   LIG    1       26.639 -30.225  10.921  0.00  0.00    +0.015 C 
ATOM      4  C   LIG    1       27.344 -29.680  11.940  0.00  0.00    +0.078 C 
ATOM      5  C   LIG    1       26.646 -29.530  13.272  0.00  0.00    +0.203 C 
ATOM      6  N   LIG    1       26.863 -28.586  14.145  0.00  0.00    -0.229 N 
ATOM      7  C   LIG    1       25.712 -30.676  13.518  0.00  0.00    +0.078 C 
ATOM      8  C   LIG    1       25.193 -31.288  12.441  0.00  0.00    +0.015 C 
ENDROOT
BRANCH   1  12
ATOM      9  C   LIG    1       25.005 -28.212   6.515  0.00  0.00    +0.030 A 
ATOM     10  C   LIG    1       24.141 -29.309   6.613  0.00  0.00    +0.024 A 
ATOM     11  C   LIG    1       23.904 -30.063   7.771  0.00  0.00    +0.010 A 
ATOM     12  C   LIG    1       24.474 -29.721   8.984  0.00  0.00    -0.017 A 
ATOM     13  C   LIG    1       25.349 -28.644   8.887  0.00  0.00    +0.010 A 
ATOM     14  C   LIG    1       25.716 -27.988   7.682  0.00  0.00    +0.024 A 
BRANCH   9  15
ATOM     15  N   LIG    1       25.129 -27.466   5.338  0.00  0.00    -0.330 N 
BRANCH  15  17
ATOM     16  C   LIG    1       24.209 -25.236   6.296  0.00  0.00    +0.024 C 
ATOM     17  C   LIG    1       24.338 -26.213   5.144  0.00  0.00    +0.102 C 
ENDBRANCH  15  17
BRANCH  15  18
ATOM     18  C   LIG    1       26.449 -27.483   4.635  0.00  0.00    +0.102 C 
ATOM     19  C   LIG    1       27.577 -26.778   5.400  0.00  0.00    +0.024 C 
ENDBRANCH  15  18
ENDBRANCH   9  15
ENDBRANCH   1  12
BRANCH   1  20
ATOM     20  C   LIG    1       22.595 -30.806  10.712  0.00  0.00    +0.014 A 
ATOM     21  C   LIG    1       21.660 -30.280  11.668  0.00  0.00    +0.127 A 
ATOM     22  C   LIG    1       20.360 -30.843  11.816  0.00  0.00    +0.063 A 
ATOM     23  C   LIG    1       19.893 -31.911  11.068  0.00  0.00    +0.160 A 
ATOM     24  C   LIG    1       20.739 -32.463  10.154  0.00  0.00    +0.145 A 
ATOM     25  C   LIG    1       22.033 -31.936  10.041  0.00  0.00    +0.058 A 
BRANCH  21  26
ATOM     26  S   LIG    1       21.818 -28.911  12.812  0.00  0.00    +0.110 S 
ATOM     27  O   LIG    1       22.940 -28.118  12.474  0.00  0.00    -0.142 OA
ATOM     28  O   LIG    1       21.560 -29.456  14.159  0.00  0.00    -0.142 OA
BRANCH  26  29
ATOM     29  O   LIG    1       20.546 -27.942  12.611  0.00  0.00    -0.250 OA
ATOM     30  H   LIG    1       20.806 -27.270  11.946  0.00  0.00    +0.245 HD
ENDBRANCH  26  29
ENDBRANCH  21  26
BRANCH  23  31
ATOM     31  S   LIG    1       18.272 -32.526  11.370  0.00  0.00    +0.113 S 
ATOM     32  O   LIG    1       17.436 -31.531  11.933  0.00  0.00    -0.142 OA
ATOM     33  O   LIG    1       18.421 -33.825  12.015  0.00  0.00    -0.142 OA
BRANCH  31  34
ATOM     34  O   LIG    1       17.722 -32.845   9.885  0.00  0.00    -0.250 OA
ATOM     35  H   LIG    1       18.092 -32.165   9.286  0.00  0.00    +0.245 HD
ENDBRANCH  31  34
ENDBRANCH  23  31
BRANCH  24  36
ATOM     36  O   LIG    1       20.377 -33.515   9.377  0.00  0.00    -0.505 OA
ATOM     37  H   LIG    1       19.423 -33.539   9.208  0.00  0.00    +0.292 HD
ENDBRANCH  24  36
ENDBRANCH   1  20
BRANCH   6  38
ATOM     38  C   LIG    1       25.854 -28.279  15.243  0.00  0.00    +0.347 C 
ATOM     39  C   LIG    1       24.945 -27.118  14.887  0.00  0.00    +0.082 C 
ENDBRANCH   6  38
BRANCH   6  40
ATOM     40  C   LIG    1       27.994 -27.585  14.035  0.00  0.00    +0.347 C 
ATOM     41  C   LIG    1       28.363 -27.054  15.411  0.00  0.00    +0.082 C 
ENDBRANCH   6  40
TORSDOF 12
ENDMDL
