MODEL 1
REMARK VINA RESULT:      -7.0      0.000      0.000
REMARK  Name = *****
REMARK                            x       y       z     vdW  Elec       q    Type
REMARK                         _______ _______ _______ _____ _____    ______ ____
ROOT
ATOM      1  C   LIG    1       26.692 -22.091   7.701  0.00  0.00    +0.161 C 
ATOM      2  C   LIG    1       25.515 -21.524   8.547  0.00  0.00    +0.270 C 
ATOM      3  O   LIG    1       24.690 -20.691   7.731  0.00  0.00    -0.341 OA
ATOM      4  C   LIG    1       24.007 -21.409   6.685  0.00  0.00    +0.178 C 
ATOM      5  C   LIG    1       24.996 -22.188   5.793  0.00  0.00    +0.176 C 
ATOM      6  C   LIG    1       26.056 -22.973   6.596  0.00  0.00    +0.170 C 
ENDROOT
BRANCH   1  10
ATOM      7  C   LIG    1       30.917 -19.523   7.228  0.00  0.00    +0.166 C 
ATOM      8  N   LIG    1       29.581 -19.874   6.774  0.00  0.00    -0.144 N 
ATOM      9  C   LIG    1       28.855 -20.814   7.498  0.00  0.00    +0.324 C 
ATOM     10  N   LIG    1       27.565 -21.058   7.088  0.00  0.00    -0.288 N 
ATOM     11  H   LIG    1       27.310 -20.737   6.161  0.00  0.00    +0.151 HD
ATOM     12  O   LIG    1       29.314 -21.402   8.472  0.00  0.00    -0.251 OA
BRANCH   8  13
ATOM     13  N   LIG    1       28.973 -19.147   5.745  0.00  0.00    +0.052 NA
ATOM     14  O   LIG    1       29.499 -18.054   5.519  0.00  0.00    -0.126 OA
ENDBRANCH   8  13
ENDBRANCH   1  10
BRANCH   2  15
ATOM     15  O   LIG    1       25.883 -20.806   9.711  0.00  0.00    -0.365 OA
ATOM     16  H   LIG    1       26.590 -20.178   9.466  0.00  0.00    +0.212 HD
ENDBRANCH   2  15
BRANCH   5  17
ATOM     17  O   LIG    1       25.689 -21.270   4.928  0.00  0.00    -0.387 OA
ATOM     18  H   LIG    1       25.073 -20.536   4.732  0.00  0.00    +0.210 HD
ENDBRANCH   5  17
BRANCH   6  19
ATOM     19  O   LIG    1       25.475 -24.143   7.176  0.00  0.00    -0.387 OA
ATOM     20  H   LIG    1       26.181 -24.806   7.282  0.00  0.00    +0.210 HD
ENDBRANCH   6  19
BRANCH   4  21
ATOM     21  C   LIG    1       22.872 -22.272   7.254  0.00  0.00    +0.190 C 
BRANCH  21  22
ATOM     22  O   LIG    1       22.669 -23.418   6.428  0.00  0.00    -0.392 OA
ATOM     23  H   LIG    1       21.765 -23.741   6.617  0.00  0.00    +0.209 HD
ENDBRANCH  21  22
ENDBRANCH   4  21
TORSDOF 7
ENDMDL
MODEL 2
REMARK VINA RESULT:      -6.4      3.137      5.050
REMARK  Name = *****
REMARK                            x       y       z     vdW  Elec       q    Type
REMARK                         _______ _______ _______ _____ _____    ______ ____
ROOT
ATOM      1  C   LIG    1       25.304 -21.715   6.273  0.00  0.00    +0.161 C 
ATOM      2  C   LIG    1       25.163 -20.650   5.147  0.00  0.00    +0.270 C 
ATOM      3  O   LIG    1       24.001 -20.925   4.362  0.00  0.00    -0.341 OA
ATOM      4  C   LIG    1       22.768 -20.776   5.091  0.00  0.00    +0.178 C 
ATOM      5  C   LIG    1       22.751 -21.651   6.362  0.00  0.00    +0.176 C 
ATOM      6  C   LIG    1       24.056 -21.565   7.182  0.00  0.00    +0.170 C 
ENDROOT
BRANCH   1  10
ATOM      7  C   LIG    1       26.121 -26.583   6.827  0.00  0.00    +0.166 C 
ATOM      8  N   LIG    1       25.709 -25.443   6.024  0.00  0.00    -0.144 N 
ATOM      9  C   LIG    1       25.726 -24.177   6.601  0.00  0.00    +0.324 C 
ATOM     10  N   LIG    1       25.412 -23.115   5.787  0.00  0.00    -0.288 N 
ATOM     11  H   LIG    1       24.954 -23.329   4.910  0.00  0.00    +0.151 HD
ATOM     12  O   LIG    1       26.023 -23.987   7.777  0.00  0.00    -0.251 OA
BRANCH   8  13
ATOM     13  N   LIG    1       25.479 -25.594   4.652  0.00  0.00    +0.052 NA
ATOM     14  O   LIG    1       25.960 -26.622   4.170  0.00  0.00    -0.126 OA
ENDBRANCH   8  13
ENDBRANCH   1  10
BRANCH   2  15
ATOM     15  O   LIG    1       26.277 -20.513   4.286  0.00  0.00    -0.365 OA
ATOM     16  H   LIG    1       26.913 -19.905   4.711  0.00  0.00    +0.212 HD
ENDBRANCH   2  15
BRANCH   5  17
ATOM     17  O   LIG    1       22.552 -23.028   5.995  0.00  0.00    -0.387 OA
ATOM     18  H   LIG    1       23.092 -23.571   6.604  0.00  0.00    +0.210 HD
ENDBRANCH   5  17
BRANCH   6  19
ATOM     19  O   LIG    1       24.115 -20.326   7.893  0.00  0.00    -0.387 OA
ATOM     20  H   LIG    1       23.441 -19.731   7.514  0.00  0.00    +0.210 HD
ENDBRANCH   6  19
BRANCH   4  21
ATOM     21  C   LIG    1       22.452 -19.296   5.352  0.00  0.00    +0.190 C 
BRANCH  21  22
ATOM     22  O   LIG    1       21.974 -18.681   4.157  0.00  0.00    -0.392 OA
ATOM     23  H   LIG    1       22.568 -17.926   3.975  0.00  0.00    +0.209 HD
ENDBRANCH  21  22
ENDBRANCH   4  21
TORSDOF 7
ENDMDL
MODEL 3
REMARK VINA RESULT:      -6.2      3.364      5.324
REMARK  Name = *****
REMARK                            x       y       z     vdW  Elec       q    Type
REMARK                         _______ _______ _______ _____ _____    ______ ____
ROOT
ATOM      1  C   LIG    1       24.326 -21.455   5.917  0.00  0.00    +0.161 C 
ATOM      2  C   LIG    1       25.511 -20.455   5.779  0.00  0.00    +0.270 C 
ATOM      3  O   LIG    1       25.985 -20.450   4.431  0.00  0.00    -0.341 OA
ATOM      4  C   LIG    1       25.027 -19.933   3.488  0.00  0.00    +0.178 C 
ATOM      5  C   LIG    1       23.689 -20.699   3.561  0.00  0.00    +0.176 C 
ATOM      6  C   LIG    1       23.191 -20.922   5.005  0.00  0.00    +0.170 C 
ENDROOT
BRANCH   1  10
ATOM      7  C   LIG    1       26.013 -26.033   6.849  0.00  0.00    +0.166 C 
ATOM      8  N   LIG    1       25.369 -25.064   5.975  0.00  0.00    -0.144 N 
ATOM      9  C   LIG    1       25.191 -23.764   6.436  0.00  0.00    +0.324 C 
ATOM     10  N   LIG    1       24.656 -22.856   5.552  0.00  0.00    -0.288 N 
ATOM     11  H   LIG    1       24.202 -23.231   4.728  0.00  0.00    +0.151 HD
ATOM     12  O   LIG    1       25.505 -23.411   7.569  0.00  0.00    -0.251 OA
BRANCH   8  13
ATOM     13  N   LIG    1       25.105 -25.387   4.640  0.00  0.00    +0.052 NA
ATOM     14  O   LIG    1       25.777 -26.326   4.205  0.00  0.00    -0.126 OA
ENDBRANCH   8  13
ENDBRANCH   1  10
BRANCH   2  15
ATOM     15  O   LIG    1       26.605 -20.673   6.650  0.00  0.00    -0.365 OA
ATOM     16  H   LIG    1       27.029 -19.810   6.822  0.00  0.00    +0.212 HD
ENDBRANCH   2  15
BRANCH   5  17
ATOM     17  O   LIG    1       23.839 -21.989   2.942  0.00  0.00    -0.387 OA
ATOM     18  H   LIG    1       24.793 -22.117   2.767  0.00  0.00    +0.210 HD
ENDBRANCH   5  17
BRANCH   6  19
ATOM     19  O   LIG    1       22.661 -19.708   5.541  0.00  0.00    -0.387 OA
ATOM     20  H   LIG    1       23.411 -19.155   5.828  0.00  0.00    +0.210 HD
ENDBRANCH   6  19
BRANCH   4  21
ATOM     21  C   LIG    1       24.879 -18.411   3.624  0.00  0.00    +0.190 C 
BRANCH  21  22
ATOM     22  O   LIG    1       26.027 -17.759   3.082  0.00  0.00    -0.392 OA
ATOM     23  H   LIG    1       26.663 -18.464   2.847  0.00  0.00    +0.209 HD
ENDBRANCH  21  22
ENDBRANCH   4  21
TORSDOF 7
ENDMDL
MODEL 4
REMARK VINA RESULT:      -6.1      2.660      6.769
REMARK  Name = *****
REMARK                            x       y       z     vdW  Elec       q    Type
REMARK                         _______ _______ _______ _____ _____    ______ ____
ROOT
ATOM      1  C   LIG    1       30.186 -19.820   7.985  0.00  0.00    +0.161 C 
ATOM      2  C   LIG    1       30.628 -18.547   7.207  0.00  0.00    +0.270 C 
ATOM      3  O   LIG    1       30.174 -17.379   7.893  0.00  0.00    -0.341 OA
ATOM      4  C   LIG    1       30.793 -17.191   9.180  0.00  0.00    +0.178 C 
ATOM      5  C   LIG    1       30.605 -18.427  10.085  0.00  0.00    +0.176 C 
ATOM      6  C   LIG    1       30.891 -19.762   9.365  0.00  0.00    +0.170 C 
ENDROOT
BRANCH   1  10
ATOM      7  C   LIG    1       25.554 -20.734   6.439  0.00  0.00    +0.166 C 
ATOM      8  N   LIG    1       26.515 -20.460   7.497  0.00  0.00    -0.144 N 
ATOM      9  C   LIG    1       27.854 -20.292   7.156  0.00  0.00    +0.324 C 
ATOM     10  N   LIG    1       28.718 -19.951   8.170  0.00  0.00    -0.288 N 
ATOM     11  H   LIG    1       28.388 -20.085   9.118  0.00  0.00    +0.151 HD
ATOM     12  O   LIG    1       28.269 -20.420   6.008  0.00  0.00    -0.251 OA
BRANCH   8  13
ATOM     13  N   LIG    1       26.074 -20.188   8.796  0.00  0.00    +0.052 NA
ATOM     14  O   LIG    1       25.900 -21.193   9.490  0.00  0.00    -0.126 OA
ENDBRANCH   8  13
ENDBRANCH   1  10
BRANCH   2  15
ATOM     15  O   LIG    1       30.214 -18.476   5.856  0.00  0.00    -0.365 OA
ATOM     16  H   LIG    1       29.245 -18.351   5.844  0.00  0.00    +0.212 HD
ENDBRANCH   2  15
BRANCH   5  17
ATOM     17  O   LIG    1       29.250 -18.468  10.567  0.00  0.00    -0.387 OA
ATOM     18  H   LIG    1       29.117 -19.343  10.984  0.00  0.00    +0.210 HD
ENDBRANCH   5  17
BRANCH   6  19
ATOM     19  O   LIG    1       32.299 -19.948   9.203  0.00  0.00    -0.387 OA
ATOM     20  H   LIG    1       32.682 -20.110  10.085  0.00  0.00    +0.210 HD
ENDBRANCH   6  19
BRANCH   4  21
ATOM     21  C   LIG    1       32.256 -16.747   9.032  0.00  0.00    +0.190 C 
BRANCH  21  22
ATOM     22  O   LIG    1       32.992 -17.094  10.204  0.00  0.00    -0.392 OA
ATOM     23  H   LIG    1       32.748 -18.016  10.423  0.00  0.00    +0.209 HD
ENDBRANCH  21  22
ENDBRANCH   4  21
TORSDOF 7
ENDMDL
MODEL 5
REMARK VINA RESULT:      -6.0      1.436      2.930
REMARK  Name = *****
REMARK                            x       y       z     vdW  Elec       q    Type
REMARK                         _______ _______ _______ _____ _____    ______ ____
ROOT
ATOM      1  C   LIG    1       26.091 -20.298   7.089  0.00  0.00    +0.161 C 
ATOM      2  C   LIG    1       25.672 -21.031   5.782  0.00  0.00    +0.270 C 
ATOM      3  O   LIG    1       25.853 -22.440   5.936  0.00  0.00    -0.341 OA
ATOM      4  C   LIG    1       24.977 -23.026   6.918  0.00  0.00    +0.178 C 
ATOM      5  C   LIG    1       25.119 -22.334   8.290  0.00  0.00    +0.176 C 
ATOM      6  C   LIG    1       25.127 -20.793   8.200  0.00  0.00    +0.170 C 
ENDROOT
BRANCH   1  10
ATOM      7  C   LIG    1       30.987 -19.489   6.892  0.00  0.00    +0.166 C 
ATOM      8  N   LIG    1       29.821 -20.113   7.499  0.00  0.00    -0.144 N 
ATOM      9  C   LIG    1       28.567 -19.854   6.955  0.00  0.00    +0.324 C 
ATOM     10  N   LIG    1       27.499 -20.527   7.501  0.00  0.00    -0.288 N 
ATOM     11  H   LIG    1       27.645 -20.965   8.403  0.00  0.00    +0.151 HD
ATOM     12  O   LIG    1       28.395 -19.079   6.018  0.00  0.00    -0.251 OA
BRANCH   8  13
ATOM     13  N   LIG    1       29.979 -21.091   8.486  0.00  0.00    +0.052 NA
ATOM     14  O   LIG    1       30.776 -20.785   9.377  0.00  0.00    -0.126 OA
ENDBRANCH   8  13
ENDBRANCH   1  10
BRANCH   2  15
ATOM     15  O   LIG    1       26.332 -20.610   4.602  0.00  0.00    -0.365 OA
ATOM     16  H   LIG    1       27.170 -20.181   4.863  0.00  0.00    +0.212 HD
ENDBRANCH   2  15
BRANCH   5  17
ATOM     17  O   LIG    1       26.350 -22.745   8.911  0.00  0.00    -0.387 OA
ATOM     18  H   LIG    1       26.951 -21.973   8.904  0.00  0.00    +0.210 HD
ENDBRANCH   5  17
BRANCH   6  19
ATOM     19  O   LIG    1       23.807 -20.302   7.956  0.00  0.00    -0.387 OA
ATOM     20  H   LIG    1       23.450 -19.970   8.801  0.00  0.00    +0.210 HD
ENDBRANCH   6  19
BRANCH   4  21
ATOM     21  C   LIG    1       23.532 -23.094   6.403  0.00  0.00    +0.190 C 
BRANCH  21  22
ATOM     22  O   LIG    1       23.037 -24.428   6.512  0.00  0.00    -0.392 OA
ATOM     23  H   LIG    1       23.315 -24.756   7.390  0.00  0.00    +0.209 HD
ENDBRANCH  21  22
ENDBRANCH   4  21
TORSDOF 7
ENDMDL
MODEL 6
REMARK VINA RESULT:      -5.9      1.443      2.939
REMARK  Name = *****
REMARK                            x       y       z     vdW  Elec       q    Type
REMARK                         _______ _______ _______ _____ _____    ______ ____
ROOT
ATOM      1  C   LIG    1       25.866 -21.676   5.693  0.00  0.00    +0.161 C 
ATOM      2  C   LIG    1       25.145 -23.050   5.813  0.00  0.00    +0.270 C 
ATOM      3  O   LIG    1       24.652 -23.224   7.142  0.00  0.00    -0.341 OA
ATOM      4  C   LIG    1       23.612 -22.292   7.495  0.00  0.00    +0.178 C 
ATOM      5  C   LIG    1       24.070 -20.831   7.301  0.00  0.00    +0.176 C 
ATOM      6  C   LIG    1       24.793 -20.589   5.959  0.00  0.00    +0.170 C 
ENDROOT
BRANCH   1  10
ATOM      7  C   LIG    1       30.041 -19.493   7.267  0.00  0.00    +0.166 C 
ATOM      8  N   LIG    1       28.946 -20.434   7.450  0.00  0.00    -0.144 N 
ATOM      9  C   LIG    1       27.981 -20.538   6.453  0.00  0.00    +0.324 C 
ATOM     10  N   LIG    1       27.011 -21.497   6.623  0.00  0.00    -0.288 N 
ATOM     11  H   LIG    1       26.908 -21.888   7.552  0.00  0.00    +0.151 HD
ATOM     12  O   LIG    1       27.983 -19.831   5.450  0.00  0.00    -0.251 OA
BRANCH   8  13
ATOM     13  N   LIG    1       28.968 -21.340   8.515  0.00  0.00    +0.052 NA
ATOM     14  O   LIG    1       30.099 -21.602   8.933  0.00  0.00    -0.126 OA
ENDBRANCH   8  13
ENDBRANCH   1  10
BRANCH   2  15
ATOM     15  O   LIG    1       25.915 -24.183   5.457  0.00  0.00    -0.365 OA
ATOM     16  H   LIG    1       26.711 -24.195   6.023  0.00  0.00    +0.212 HD
ENDBRANCH   2  15
BRANCH   5  17
ATOM     17  O   LIG    1       24.974 -20.467   8.360  0.00  0.00    -0.387 OA
ATOM     18  H   LIG    1       25.446 -21.280   8.631  0.00  0.00    +0.210 HD
ENDBRANCH   5  17
BRANCH   6  19
ATOM     19  O   LIG    1       23.849 -20.560   4.885  0.00  0.00    -0.387 OA
ATOM     20  H   LIG    1       23.190 -19.870   5.086  0.00  0.00    +0.210 HD
ENDBRANCH   6  19
BRANCH   4  21
ATOM     21  C   LIG    1       22.297 -22.631   6.778  0.00  0.00    +0.190 C 
BRANCH  21  22
ATOM     22  O   LIG    1       22.132 -24.046   6.704  0.00  0.00    -0.392 OA
ATOM     23  H   LIG    1       22.109 -24.274   5.753  0.00  0.00    +0.209 HD
ENDBRANCH  21  22
ENDBRANCH   4  21
TORSDOF 7
ENDMDL
MODEL 7
REMARK VINA RESULT:      -5.4      6.879      8.969
REMARK  Name = *****
REMARK                            x       y       z     vdW  Elec       q    Type
REMARK                         _______ _______ _______ _____ _____    ______ ____
ROOT
ATOM      1  C   LIG    1       24.500 -29.647   6.583  0.00  0.00    +0.161 C 
ATOM      2  C   LIG    1       24.941 -31.041   6.051  0.00  0.00    +0.270 C 
ATOM      3  O   LIG    1       26.233 -31.369   6.563  0.00  0.00    -0.341 OA
ATOM      4  C   LIG    1       26.255 -31.557   7.991  0.00  0.00    +0.178 C 
ATOM      5  C   LIG    1       25.703 -30.322   8.734  0.00  0.00    +0.176 C 
ATOM      6  C   LIG    1       24.394 -29.776   8.125  0.00  0.00    +0.170 C 
ENDROOT
BRANCH   1  10
ATOM      7  C   LIG    1       25.614 -24.887   5.704  0.00  0.00    +0.166 C 
ATOM      8  N   LIG    1       26.007 -26.275   5.887  0.00  0.00    -0.144 N 
ATOM      9  C   LIG    1       25.019 -27.220   6.147  0.00  0.00    +0.324 C 
ATOM     10  N   LIG    1       25.418 -28.534   6.229  0.00  0.00    -0.288 N 
ATOM     11  H   LIG    1       26.409 -28.706   6.345  0.00  0.00    +0.151 HD
ATOM     12  O   LIG    1       23.835 -26.924   6.283  0.00  0.00    -0.251 OA
BRANCH   8  13
ATOM     13  N   LIG    1       27.321 -26.676   5.625  0.00  0.00    +0.052 NA
ATOM     14  O   LIG    1       27.472 -27.225   4.530  0.00  0.00    -0.126 OA
ENDBRANCH   8  13
ENDBRANCH   1  10
BRANCH   2  15
ATOM     15  O   LIG    1       24.953 -31.187   4.643  0.00  0.00    -0.365 OA
ATOM     16  H   LIG    1       25.876 -31.346   4.366  0.00  0.00    +0.212 HD
ENDBRANCH   2  15
BRANCH   5  17
ATOM     17  O   LIG    1       26.679 -29.265   8.699  0.00  0.00    -0.387 OA
ATOM     18  H   LIG    1       26.221 -28.457   8.393  0.00  0.00    +0.210 HD
ENDBRANCH   5  17
BRANCH   6  19
ATOM     19  O   LIG    1       23.295 -30.622   8.471  0.00  0.00    -0.387 OA
ATOM     20  H   LIG    1       22.477 -30.095   8.396  0.00  0.00    +0.210 HD
ENDBRANCH   6  19
BRANCH   4  21
ATOM     21  C   LIG    1       25.574 -32.875   8.387  0.00  0.00    +0.190 C 
BRANCH  21  22
ATOM     22  O   LIG    1       25.053 -32.776   9.711  0.00  0.00    -0.392 OA
ATOM     23  H   LIG    1       25.820 -32.822  10.316  0.00  0.00    +0.209 HD
ENDBRANCH  21  22
ENDBRANCH   4  21
TORSDOF 7
ENDMDL
MODEL 8
REMARK VINA RESULT:      -5.2      6.742      9.065
REMARK  Name = *****
REMARK                            x       y       z     vdW  Elec       q    Type
REMARK                         _______ _______ _______ _____ _____    ______ ____
ROOT
ATOM      1  C   LIG    1       25.506 -28.956   5.321  0.00  0.00    +0.161 C 
ATOM      2  C   LIG    1       24.047 -28.420   5.385  0.00  0.00    +0.270 C 
ATOM      3  O   LIG    1       23.844 -27.712   6.609  0.00  0.00    -0.341 OA
ATOM      4  C   LIG    1       24.626 -26.506   6.711  0.00  0.00    +0.178 C 
ATOM      5  C   LIG    1       26.131 -26.790   6.521  0.00  0.00    +0.176 C 
ATOM      6  C   LIG    1       26.434 -27.714   5.323  0.00  0.00    +0.170 C 
ENDROOT
BRANCH   1  10
ATOM      7  C   LIG    1       25.838 -33.389   7.538  0.00  0.00    +0.166 C 
ATOM      8  N   LIG    1       26.131 -31.965   7.484  0.00  0.00    -0.144 N 
ATOM      9  C   LIG    1       25.654 -31.225   6.407  0.00  0.00    +0.324 C 
ATOM     10  N   LIG    1       25.877 -29.868   6.433  0.00  0.00    -0.288 N 
ATOM     11  H   LIG    1       26.573 -29.530   7.087  0.00  0.00    +0.151 HD
ATOM     12  O   LIG    1       25.043 -31.733   5.470  0.00  0.00    -0.251 OA
BRANCH   8  13
ATOM     13  N   LIG    1       26.716 -31.324   8.581  0.00  0.00    +0.052 NA
ATOM     14  O   LIG    1       25.925 -30.668   9.264  0.00  0.00    -0.126 OA
ENDBRANCH   8  13
ENDBRANCH   1  10
BRANCH   2  15
ATOM     15  O   LIG    1       23.027 -29.391   5.241  0.00  0.00    -0.365 OA
ATOM     16  H   LIG    1       22.454 -29.117   4.498  0.00  0.00    +0.212 HD
ENDBRANCH   2  15
BRANCH   5  17
ATOM     17  O   LIG    1       26.655 -27.418   7.705  0.00  0.00    -0.387 OA
ATOM     18  H   LIG    1       27.330 -28.065   7.416  0.00  0.00    +0.210 HD
ENDBRANCH   5  17
BRANCH   6  19
ATOM     19  O   LIG    1       26.293 -26.996   4.094  0.00  0.00    -0.387 OA
ATOM     20  H   LIG    1       26.628 -26.091   4.237  0.00  0.00    +0.210 HD
ENDBRANCH   6  19
BRANCH   4  21
ATOM     21  C   LIG    1       24.079 -25.410   5.786  0.00  0.00    +0.190 C 
BRANCH  21  22
ATOM     22  O   LIG    1       23.106 -24.628   6.478  0.00  0.00    -0.392 OA
ATOM     23  H   LIG    1       22.502 -24.270   5.797  0.00  0.00    +0.209 HD
ENDBRANCH  21  22
ENDBRANCH   4  21
TORSDOF 7
ENDMDL
MODEL 9
REMARK VINA RESULT:      -5.2      6.303      8.118
REMARK  Name = *****
REMARK                            x       y       z     vdW  Elec       q    Type
REMARK                         _______ _______ _______ _____ _____    ______ ____
ROOT
ATOM      1  C   LIG    1       25.804 -28.820   6.818  0.00  0.00    +0.161 C 
ATOM      2  C   LIG    1       25.550 -29.544   8.171  0.00  0.00    +0.270 C 
ATOM      3  O   LIG    1       24.164 -29.870   8.293  0.00  0.00    -0.341 OA
ATOM      4  C   LIG    1       23.716 -30.841   7.329  0.00  0.00    +0.178 C 
ATOM      5  C   LIG    1       24.014 -30.386   5.885  0.00  0.00    +0.176 C 
ATOM      6  C   LIG    1       25.443 -29.833   5.700  0.00  0.00    +0.170 C 
ENDROOT
BRANCH   1  10
ATOM      7  C   LIG    1       25.185 -24.143   5.263  0.00  0.00    +0.166 C 
ATOM      8  N   LIG    1       24.667 -25.375   5.838  0.00  0.00    -0.144 N 
ATOM      9  C   LIG    1       25.536 -26.448   6.012  0.00  0.00    +0.324 C 
ATOM     10  N   LIG    1       25.031 -27.565   6.635  0.00  0.00    -0.288 N 
ATOM     11  H   LIG    1       24.023 -27.637   6.701  0.00  0.00    +0.151 HD
ATOM     12  O   LIG    1       26.709 -26.419   5.650  0.00  0.00    -0.251 OA
BRANCH   8  13
ATOM     13  N   LIG    1       23.375 -25.415   6.372  0.00  0.00    +0.052 NA
ATOM     14  O   LIG    1       22.949 -24.318   6.746  0.00  0.00    -0.126 OA
ENDBRANCH   8  13
ENDBRANCH   1  10
BRANCH   2  15
ATOM     15  O   LIG    1       25.961 -28.845   9.331  0.00  0.00    -0.365 OA
ATOM     16  H   LIG    1       26.265 -27.958   9.055  0.00  0.00    +0.212 HD
ENDBRANCH   2  15
BRANCH   5  17
ATOM     17  O   LIG    1       23.089 -29.350   5.507  0.00  0.00    -0.387 OA
ATOM     18  H   LIG    1       22.215 -29.773   5.382  0.00  0.00    +0.210 HD
ENDBRANCH   5  17
BRANCH   6  19
ATOM     19  O   LIG    1       26.391 -30.903   5.684  0.00  0.00    -0.387 OA
ATOM     20  H   LIG    1       27.124 -30.662   6.281  0.00  0.00    +0.210 HD
ENDBRANCH   6  19
BRANCH   4  21
ATOM     21  C   LIG    1       24.252 -32.242   7.661  0.00  0.00    +0.190 C 
BRANCH  21  22
ATOM     22  O   LIG    1       24.368 -33.015   6.467  0.00  0.00    -0.392 OA
ATOM     23  H   LIG    1       24.236 -33.949   6.727  0.00  0.00    +0.209 HD
ENDBRANCH  21  22
ENDBRANCH   4  21
TORSDOF 7
ENDMDL
