MODEL 1
REMARK VINA RESULT:      -9.9      0.000      0.000
REMARK  Name = *****
REMARK                            x       y       z     vdW  Elec       q    Type
REMARK                         _______ _______ _______ _____ _____    ______ ____
ROOT
ATOM      1  C   LIG    1       26.458 -21.480   7.942  0.00  0.00    -0.021 C 
ATOM      2  C   LIG    1       25.700 -22.585   7.423  0.00  0.00    +0.003 C 
ATOM      3  C   LIG    1       24.360 -22.195   7.387  0.00  0.00    +0.047 C 
ATOM      4  C   LIG    1       23.334 -23.039   6.949  0.00  0.00    +0.026 C 
ATOM      5  C   LIG    1       23.683 -24.317   6.501  0.00  0.00    +0.006 C 
ATOM      6  C   LIG    1       25.015 -24.745   6.491  0.00  0.00    -0.045 C 
ATOM      7  N   LIG    1       24.304 -20.900   7.844  0.00  0.00    -0.360 NA
ATOM      8  H   LIG    1       23.455 -20.358   7.922  0.00  0.00    +0.165 HD
ATOM      9  C   LIG    1       26.022 -23.886   6.978  0.00  0.00    +0.014 C 
ATOM     10  C   LIG    1       25.559 -20.452   8.156  0.00  0.00    +0.087 C 
ENDROOT
BRANCH   1  11
ATOM     11  C   LIG    1       27.945 -21.426   8.189  0.00  0.00    +0.056 C 
BRANCH  11  14
ATOM     12  C   LIG    1       30.832 -20.676   8.293  0.00  0.00    +0.105 C 
ATOM     13  N   LIG    1       30.043 -20.349   7.123  0.00  0.00    -0.302 NA
ATOM     14  C   LIG    1       28.779 -21.088   6.925  0.00  0.00    +0.061 C 
ATOM     15  C   LIG    1       28.002 -20.183   5.945  0.00  0.00    +0.020 C 
ATOM     16  C   LIG    1       28.860 -18.937   5.767  0.00  0.00    +0.017 C 
ATOM     17  C   LIG    1       29.736 -18.929   7.002  0.00  0.00    +0.084 C 
ENDBRANCH  11  14
ENDBRANCH   1  11
BRANCH   6  18
ATOM     18  C   LIG    1       25.368 -26.118   5.959  0.00  0.00    +0.058 C 
BRANCH  18  19
ATOM     19  C   LIG    1       24.188 -27.080   6.046  0.00  0.00    +0.176 C 
BRANCH  19  20
ATOM     20  S   LIG    1       24.739 -28.768   6.148  0.00  0.00    -0.003 S 
ATOM     21  O   LIG    1       25.972 -28.892   5.390  0.00  0.00    -0.169 OA
ATOM     22  O   LIG    1       23.612 -29.637   5.879  0.00  0.00    -0.169 OA
BRANCH  20  23
ATOM     23  C   LIG    1       25.150 -28.962   7.871  0.00  0.00    +0.088 C 
ATOM     24  C   LIG    1       26.253 -28.287   8.402  0.00  0.00    +0.027 C 
ATOM     25  C   LIG    1       26.598 -28.487   9.740  0.00  0.00    +0.002 C 
ATOM     26  C   LIG    1       25.853 -29.360  10.533  0.00  0.00    +0.000 C 
ATOM     27  C   LIG    1       24.755 -30.035   9.996  0.00  0.00    +0.002 C 
ATOM     28  C   LIG    1       24.401 -29.840   8.660  0.00  0.00    +0.027 C 
ENDBRANCH  20  23
ENDBRANCH  19  20
ENDBRANCH  18  19
ENDBRANCH   6  18
TORSDOF 6
ENDMDL
MODEL 2
REMARK VINA RESULT:      -9.8      4.313      8.735
REMARK  Name = *****
REMARK                            x       y       z     vdW  Elec       q    Type
REMARK                         _______ _______ _______ _____ _____    ______ ____
ROOT
ATOM      1  C   LIG    1       24.871 -29.251   7.170  0.00  0.00    -0.021 C 
ATOM      2  C   LIG    1       25.113 -27.930   6.660  0.00  0.00    +0.003 C 
ATOM      3  C   LIG    1       24.982 -27.985   5.271  0.00  0.00    +0.047 C 
ATOM      4  C   LIG    1       25.171 -26.872   4.445  0.00  0.00    +0.026 C 
ATOM      5  C   LIG    1       25.473 -25.649   5.053  0.00  0.00    +0.006 C 
ATOM      6  C   LIG    1       25.587 -25.536   6.442  0.00  0.00    -0.045 C 
ATOM      7  N   LIG    1       24.653 -29.279   4.947  0.00  0.00    -0.360 NA
ATOM      8  H   LIG    1       24.492 -29.609   4.006  0.00  0.00    +0.165 HD
ATOM      9  C   LIG    1       25.433 -26.684   7.245  0.00  0.00    +0.014 C 
ATOM     10  C   LIG    1       24.559 -30.042   6.079  0.00  0.00    +0.087 C 
ENDROOT
BRANCH   1  11
ATOM     11  C   LIG    1       24.920 -29.701   8.608  0.00  0.00    +0.056 C 
BRANCH  11  14
ATOM     12  C   LIG    1       25.937 -32.192   9.902  0.00  0.00    +0.105 C 
ATOM     13  N   LIG    1       26.612 -30.931  10.134  0.00  0.00    -0.302 NA
ATOM     14  C   LIG    1       26.359 -29.836   9.174  0.00  0.00    +0.061 C 
ATOM     15  C   LIG    1       26.789 -28.582   9.963  0.00  0.00    +0.020 C 
ATOM     16  C   LIG    1       27.140 -29.075  11.361  0.00  0.00    +0.017 C 
ATOM     17  C   LIG    1       26.398 -30.390  11.470  0.00  0.00    +0.084 C 
ENDBRANCH  11  14
ENDBRANCH   1  11
BRANCH   6  18
ATOM     18  C   LIG    1       25.872 -24.190   7.075  0.00  0.00    +0.058 C 
BRANCH  18  19
ATOM     19  C   LIG    1       25.475 -23.037   6.159  0.00  0.00    +0.176 C 
BRANCH  19  20
ATOM     20  S   LIG    1       24.070 -22.158   6.802  0.00  0.00    -0.003 S 
ATOM     21  O   LIG    1       24.462 -21.519   8.048  0.00  0.00    -0.169 OA
ATOM     22  O   LIG    1       22.916 -23.032   6.748  0.00  0.00    -0.169 OA
BRANCH  20  23
ATOM     23  C   LIG    1       23.807 -20.869   5.602  0.00  0.00    +0.088 C 
ATOM     24  C   LIG    1       24.794 -20.591   4.652  0.00  0.00    +0.027 C 
ATOM     25  C   LIG    1       24.601 -19.545   3.749  0.00  0.00    +0.002 C 
ATOM     26  C   LIG    1       23.436 -18.778   3.803  0.00  0.00    +0.000 C 
ATOM     27  C   LIG    1       22.455 -19.057   4.757  0.00  0.00    +0.002 C 
ATOM     28  C   LIG    1       22.638 -20.103   5.662  0.00  0.00    +0.027 C 
ENDBRANCH  20  23
ENDBRANCH  19  20
ENDBRANCH  18  19
ENDBRANCH   6  18
TORSDOF 6
ENDMDL
MODEL 3
REMARK VINA RESULT:      -9.7      4.496      9.116
REMARK  Name = *****
REMARK                            x       y       z     vdW  Elec       q    Type
REMARK                         _______ _______ _______ _____ _____    ______ ____
ROOT
ATOM      1  C   LIG    1       24.906 -24.313   6.650  0.00  0.00    -0.021 C 
ATOM      2  C   LIG    1       25.565 -23.102   7.058  0.00  0.00    +0.003 C 
ATOM      3  C   LIG    1       24.577 -22.147   7.299  0.00  0.00    +0.047 C 
ATOM      4  C   LIG    1       24.866 -20.837   7.698  0.00  0.00    +0.026 C 
ATOM      5  C   LIG    1       26.208 -20.493   7.890  0.00  0.00    +0.006 C 
ATOM      6  C   LIG    1       27.234 -21.423   7.690  0.00  0.00    -0.045 C 
ATOM      7  N   LIG    1       23.364 -22.752   7.070  0.00  0.00    -0.360 NA
ATOM      8  H   LIG    1       22.469 -22.295   7.171  0.00  0.00    +0.165 HD
ATOM      9  C   LIG    1       26.912 -22.723   7.246  0.00  0.00    +0.014 C 
ATOM     10  C   LIG    1       23.548 -24.058   6.704  0.00  0.00    +0.087 C 
ENDROOT
BRANCH   1  11
ATOM     11  C   LIG    1       25.549 -25.619   6.260  0.00  0.00    +0.056 C 
BRANCH  11  14
ATOM     12  C   LIG    1       26.184 -27.857   8.130  0.00  0.00    +0.105 C 
ATOM     13  N   LIG    1       25.223 -28.057   7.065  0.00  0.00    -0.302 NA
ATOM     14  C   LIG    1       24.628 -26.853   6.449  0.00  0.00    +0.061 C 
ATOM     15  C   LIG    1       24.093 -27.386   5.103  0.00  0.00    +0.020 C 
ATOM     16  C   LIG    1       24.544 -28.838   5.025  0.00  0.00    +0.017 C 
ATOM     17  C   LIG    1       25.717 -28.897   5.981  0.00  0.00    +0.084 C 
ENDBRANCH  11  14
ENDBRANCH   1  11
BRANCH   6  18
ATOM     18  C   LIG    1       28.674 -21.035   7.948  0.00  0.00    +0.058 C 
BRANCH  18  19
ATOM     19  C   LIG    1       28.858 -19.521   7.969  0.00  0.00    +0.176 C 
BRANCH  19  20
ATOM     20  S   LIG    1       30.529 -19.069   7.564  0.00  0.00    -0.003 S 
ATOM     21  O   LIG    1       30.509 -18.303   6.329  0.00  0.00    -0.169 OA
ATOM     22  O   LIG    1       31.368 -20.242   7.696  0.00  0.00    -0.169 OA
BRANCH  20  23
ATOM     23  C   LIG    1       30.982 -17.952   8.876  0.00  0.00    +0.088 C 
ATOM     24  C   LIG    1       32.192 -17.255   8.809  0.00  0.00    +0.027 C 
ATOM     25  C   LIG    1       32.561 -16.422   9.867  0.00  0.00    +0.002 C 
ATOM     26  C   LIG    1       31.732 -16.296  10.983  0.00  0.00    +0.000 C 
ATOM     27  C   LIG    1       30.527 -16.998  11.045  0.00  0.00    +0.002 C 
ATOM     28  C   LIG    1       30.148 -17.832   9.992  0.00  0.00    +0.027 C 
ENDBRANCH  20  23
ENDBRANCH  19  20
ENDBRANCH  18  19
ENDBRANCH   6  18
TORSDOF 6
ENDMDL
MODEL 4
REMARK VINA RESULT:      -9.4      2.002      2.479
REMARK  Name = *****
REMARK                            x       y       z     vdW  Elec       q    Type
REMARK                         _______ _______ _______ _____ _____    ______ ____
ROOT
ATOM      1  C   LIG    1       25.819 -21.763   7.653  0.00  0.00    -0.021 C 
ATOM      2  C   LIG    1       25.382 -23.067   7.237  0.00  0.00    +0.003 C 
ATOM      3  C   LIG    1       24.012 -22.989   6.980  0.00  0.00    +0.047 C 
ATOM      4  C   LIG    1       23.251 -24.089   6.570  0.00  0.00    +0.026 C 
ATOM      5  C   LIG    1       23.912 -25.308   6.380  0.00  0.00    +0.006 C 
ATOM      6  C   LIG    1       25.288 -25.430   6.596  0.00  0.00    -0.045 C 
ATOM      7  N   LIG    1       23.631 -21.689   7.210  0.00  0.00    -0.360 NA
ATOM      8  H   LIG    1       22.689 -21.342   7.099  0.00  0.00    +0.165 HD
ATOM      9  C   LIG    1       26.020 -24.314   7.051  0.00  0.00    +0.014 C 
ATOM     10  C   LIG    1       24.710 -20.939   7.590  0.00  0.00    +0.087 C 
ENDROOT
BRANCH   1  11
ATOM     11  C   LIG    1       27.210 -21.351   8.061  0.00  0.00    +0.056 C 
BRANCH  11  14
ATOM     12  C   LIG    1       30.177 -21.270   8.383  0.00  0.00    +0.105 C 
ATOM     13  N   LIG    1       29.568 -20.747   7.178  0.00  0.00    -0.302 NA
ATOM     14  C   LIG    1       28.188 -21.179   6.869  0.00  0.00    +0.061 C 
ATOM     15  C   LIG    1       27.705 -20.100   5.877  0.00  0.00    +0.020 C 
ATOM     16  C   LIG    1       28.829 -19.075   5.804  0.00  0.00    +0.017 C 
ATOM     17  C   LIG    1       29.593 -19.292   7.093  0.00  0.00    +0.084 C 
ENDBRANCH  11  14
ENDBRANCH   1  11
BRANCH   6  18
ATOM     18  C   LIG    1       25.984 -26.751   6.342  0.00  0.00    +0.058 C 
BRANCH  18  19
ATOM     19  C   LIG    1       24.988 -27.868   6.045  0.00  0.00    +0.176 C 
BRANCH  19  20
ATOM     20  S   LIG    1       24.975 -29.082   7.343  0.00  0.00    -0.003 S 
ATOM     21  O   LIG    1       23.592 -29.379   7.676  0.00  0.00    -0.169 OA
ATOM     22  O   LIG    1       25.913 -28.671   8.367  0.00  0.00    -0.169 OA
BRANCH  20  23
ATOM     23  C   LIG    1       25.657 -30.529   6.559  0.00  0.00    +0.088 C 
ATOM     24  C   LIG    1       25.520 -30.702   5.179  0.00  0.00    +0.027 C 
ATOM     25  C   LIG    1       26.012 -31.864   4.582  0.00  0.00    +0.002 C 
ATOM     26  C   LIG    1       26.626 -32.846   5.361  0.00  0.00    +0.000 C 
ATOM     27  C   LIG    1       26.756 -32.670   6.740  0.00  0.00    +0.002 C 
ATOM     28  C   LIG    1       26.269 -31.510   7.345  0.00  0.00    +0.027 C 
ENDBRANCH  20  23
ENDBRANCH  19  20
ENDBRANCH  18  19
ENDBRANCH   6  18
TORSDOF 6
ENDMDL
MODEL 5
REMARK VINA RESULT:      -9.2      4.380      8.850
REMARK  Name = *****
REMARK                            x       y       z     vdW  Elec       q    Type
REMARK                         _______ _______ _______ _____ _____    ______ ____
ROOT
ATOM      1  C   LIG    1       25.032 -28.937   7.219  0.00  0.00    -0.021 C 
ATOM      2  C   LIG    1       25.128 -27.594   6.719  0.00  0.00    +0.003 C 
ATOM      3  C   LIG    1       24.411 -27.538   5.523  0.00  0.00    +0.047 C 
ATOM      4  C   LIG    1       24.308 -26.376   4.751  0.00  0.00    +0.026 C 
ATOM      5  C   LIG    1       24.931 -25.217   5.226  0.00  0.00    +0.006 C 
ATOM      6  C   LIG    1       25.638 -25.214   6.433  0.00  0.00    -0.045 C 
ATOM      7  N   LIG    1       23.880 -28.788   5.311  0.00  0.00    -0.360 NA
ATOM      8  H   LIG    1       23.307 -29.039   4.518  0.00  0.00    +0.165 HD
ATOM      9  C   LIG    1       25.760 -26.412   7.167  0.00  0.00    +0.014 C 
ATOM     10  C   LIG    1       24.226 -29.629   6.334  0.00  0.00    +0.087 C 
ENDROOT
BRANCH   1  11
ATOM     11  C   LIG    1       25.661 -29.496   8.471  0.00  0.00    +0.056 C 
BRANCH  11  14
ATOM     12  C   LIG    1       26.158 -28.548  11.258  0.00  0.00    +0.105 C 
ATOM     13  N   LIG    1       25.171 -29.579  11.011  0.00  0.00    -0.302 NA
ATOM     14  C   LIG    1       24.656 -29.715   9.633  0.00  0.00    +0.061 C 
ATOM     15  C   LIG    1       24.066 -31.141   9.625  0.00  0.00    +0.020 C 
ATOM     16  C   LIG    1       24.411 -31.737  10.984  0.00  0.00    +0.017 C 
ATOM     17  C   LIG    1       25.589 -30.906  11.447  0.00  0.00    +0.084 C 
ENDBRANCH  11  14
ENDBRANCH   1  11
BRANCH   6  18
ATOM     18  C   LIG    1       26.266 -23.934   6.943  0.00  0.00    +0.058 C 
BRANCH  18  19
ATOM     19  C   LIG    1       25.228 -22.999   7.556  0.00  0.00    +0.176 C 
BRANCH  19  20
ATOM     20  S   LIG    1       25.779 -21.309   7.514  0.00  0.00    -0.003 S 
ATOM     21  O   LIG    1       27.168 -21.292   7.087  0.00  0.00    -0.169 OA
ATOM     22  O   LIG    1       25.373 -20.663   8.746  0.00  0.00    -0.169 OA
BRANCH  20  23
ATOM     23  C   LIG    1       24.809 -20.593   6.203  0.00  0.00    +0.088 C 
ATOM     24  C   LIG    1       23.437 -20.393   6.382  0.00  0.00    +0.027 C 
ATOM     25  C   LIG    1       22.676 -19.881   5.331  0.00  0.00    +0.002 C 
ATOM     26  C   LIG    1       23.282 -19.579   4.109  0.00  0.00    +0.000 C 
ATOM     27  C   LIG    1       24.652 -19.785   3.935  0.00  0.00    +0.002 C 
ATOM     28  C   LIG    1       25.421 -20.295   4.982  0.00  0.00    +0.027 C 
ENDBRANCH  20  23
ENDBRANCH  19  20
ENDBRANCH  18  19
ENDBRANCH   6  18
TORSDOF 6
ENDMDL
MODEL 6
REMARK VINA RESULT:      -9.1      4.694      7.361
REMARK  Name = *****
REMARK                            x       y       z     vdW  Elec       q    Type
REMARK                         _______ _______ _______ _____ _____    ______ ____
ROOT
ATOM      1  C   LIG    1       30.544 -18.654   8.576  0.00  0.00    -0.021 C 
ATOM      2  C   LIG    1       29.411 -19.334   8.012  0.00  0.00    +0.003 C 
ATOM      3  C   LIG    1       29.746 -19.700   6.708  0.00  0.00    +0.047 C 
ATOM      4  C   LIG    1       28.861 -20.369   5.855  0.00  0.00    +0.026 C 
ATOM      5  C   LIG    1       27.600 -20.708   6.355  0.00  0.00    +0.006 C 
ATOM      6  C   LIG    1       27.227 -20.389   7.664  0.00  0.00    -0.045 C 
ATOM      7  N   LIG    1       31.036 -19.281   6.489  0.00  0.00    -0.360 NA
ATOM      8  H   LIG    1       31.542 -19.417   5.625  0.00  0.00    +0.165 HD
ATOM      9  C   LIG    1       28.124 -19.677   8.486  0.00  0.00    +0.014 C 
ATOM     10  C   LIG    1       31.534 -18.674   7.610  0.00  0.00    +0.087 C 
ENDROOT
BRANCH   1  11
ATOM     11  C   LIG    1       30.659 -18.051   9.953  0.00  0.00    +0.056 C 
BRANCH  11  14
ATOM     12  C   LIG    1       31.555 -17.722  12.781  0.00  0.00    +0.105 C 
ATOM     13  N   LIG    1       32.322 -17.126  11.708  0.00  0.00    -0.302 NA
ATOM     14  C   LIG    1       32.107 -17.649  10.343  0.00  0.00    +0.061 C 
ATOM     15  C   LIG    1       32.652 -16.515   9.449  0.00  0.00    +0.020 C 
ATOM     16  C   LIG    1       33.024 -15.385  10.400  0.00  0.00    +0.017 C 
ATOM     17  C   LIG    1       32.199 -15.675  11.636  0.00  0.00    +0.084 C 
ENDBRANCH  11  14
ENDBRANCH   1  11
BRANCH   6  18
ATOM     18  C   LIG    1       25.870 -20.807   8.192  0.00  0.00    +0.058 C 
BRANCH  18  19
ATOM     19  C   LIG    1       25.390 -22.106   7.555  0.00  0.00    +0.176 C 
BRANCH  19  20
ATOM     20  S   LIG    1       23.674 -22.005   7.100  0.00  0.00    -0.003 S 
ATOM     21  O   LIG    1       22.946 -21.391   8.198  0.00  0.00    -0.169 OA
ATOM     22  O   LIG    1       23.264 -23.286   6.563  0.00  0.00    -0.169 OA
BRANCH  20  23
ATOM     23  C   LIG    1       23.675 -20.846   5.747  0.00  0.00    +0.088 C 
ATOM     24  C   LIG    1       22.616 -19.944   5.603  0.00  0.00    +0.027 C 
ATOM     25  C   LIG    1       22.600 -19.076   4.511  0.00  0.00    +0.002 C 
ATOM     26  C   LIG    1       23.629 -19.116   3.568  0.00  0.00    +0.000 C 
ATOM     27  C   LIG    1       24.681 -20.022   3.715  0.00  0.00    +0.002 C 
ATOM     28  C   LIG    1       24.707 -20.892   4.805  0.00  0.00    +0.027 C 
ENDBRANCH  20  23
ENDBRANCH  19  20
ENDBRANCH  18  19
ENDBRANCH   6  18
TORSDOF 6
ENDMDL
MODEL 7
REMARK VINA RESULT:      -9.1      1.979      2.943
REMARK  Name = *****
REMARK                            x       y       z     vdW  Elec       q    Type
REMARK                         _______ _______ _______ _____ _____    ______ ____
ROOT
ATOM      1  C   LIG    1       27.780 -20.374   6.494  0.00  0.00    -0.021 C 
ATOM      2  C   LIG    1       26.551 -21.073   6.238  0.00  0.00    +0.003 C 
ATOM      3  C   LIG    1       25.996 -20.536   5.075  0.00  0.00    +0.047 C 
ATOM      4  C   LIG    1       24.779 -20.973   4.541  0.00  0.00    +0.026 C 
ATOM      5  C   LIG    1       24.114 -22.016   5.195  0.00  0.00    +0.006 C 
ATOM      6  C   LIG    1       24.642 -22.606   6.347  0.00  0.00    -0.045 C 
ATOM      7  N   LIG    1       26.859 -19.565   4.627  0.00  0.00    -0.360 NA
ATOM      8  H   LIG    1       26.712 -19.010   3.796  0.00  0.00    +0.165 HD
ATOM      9  C   LIG    1       25.850 -22.115   6.885  0.00  0.00    +0.014 C 
ATOM     10  C   LIG    1       27.944 -19.475   5.456  0.00  0.00    +0.087 C 
ENDROOT
BRANCH   1  11
ATOM     11  C   LIG    1       28.727 -20.580   7.649  0.00  0.00    +0.056 C 
BRANCH  11  14
ATOM     12  C   LIG    1       31.136 -21.805   8.917  0.00  0.00    +0.105 C 
ATOM     13  N   LIG    1       31.222 -20.482   8.334  0.00  0.00    -0.302 NA
ATOM     14  C   LIG    1       30.174 -20.094   7.367  0.00  0.00    +0.061 C 
ATOM     15  C   LIG    1       30.273 -18.554   7.352  0.00  0.00    +0.020 C 
ATOM     16  C   LIG    1       31.303 -18.198   8.417  0.00  0.00    +0.017 C 
ATOM     17  C   LIG    1       31.315 -19.413   9.320  0.00  0.00    +0.084 C 
ENDBRANCH  11  14
ENDBRANCH   1  11
BRANCH   6  18
ATOM     18  C   LIG    1       23.922 -23.762   7.008  0.00  0.00    +0.058 C 
BRANCH  18  19
ATOM     19  C   LIG    1       23.827 -24.973   6.086  0.00  0.00    +0.176 C 
BRANCH  19  20
ATOM     20  S   LIG    1       25.392 -25.806   5.953  0.00  0.00    -0.003 S 
ATOM     21  O   LIG    1       26.289 -25.254   6.955  0.00  0.00    -0.169 OA
ATOM     22  O   LIG    1       25.774 -25.848   4.557  0.00  0.00    -0.169 OA
BRANCH  20  23
ATOM     23  C   LIG    1       25.011 -27.476   6.442  0.00  0.00    +0.088 C 
ATOM     24  C   LIG    1       25.554 -27.997   7.620  0.00  0.00    +0.027 C 
ATOM     25  C   LIG    1       25.292 -29.323   7.968  0.00  0.00    +0.002 C 
ATOM     26  C   LIG    1       24.502 -30.122   7.139  0.00  0.00    +0.000 C 
ATOM     27  C   LIG    1       23.965 -29.597   5.961  0.00  0.00    +0.002 C 
ATOM     28  C   LIG    1       24.220 -28.272   5.607  0.00  0.00    +0.027 C 
ENDBRANCH  20  23
ENDBRANCH  19  20
ENDBRANCH  18  19
ENDBRANCH   6  18
TORSDOF 6
ENDMDL
MODEL 8
REMARK VINA RESULT:      -9.0      4.882      7.193
REMARK  Name = *****
REMARK                            x       y       z     vdW  Elec       q    Type
REMARK                         _______ _______ _______ _____ _____    ______ ____
ROOT
ATOM      1  C   LIG    1       30.686 -18.677   8.368  0.00  0.00    -0.021 C 
ATOM      2  C   LIG    1       29.600 -19.584   8.117  0.00  0.00    +0.003 C 
ATOM      3  C   LIG    1       30.122 -20.878   8.132  0.00  0.00    +0.047 C 
ATOM      4  C   LIG    1       29.341 -22.016   7.903  0.00  0.00    +0.026 C 
ATOM      5  C   LIG    1       27.971 -21.836   7.681  0.00  0.00    +0.006 C 
ATOM      6  C   LIG    1       27.395 -20.561   7.684  0.00  0.00    -0.045 C 
ATOM      7  N   LIG    1       31.465 -20.770   8.402  0.00  0.00    -0.360 NA
ATOM      8  H   LIG    1       32.098 -21.553   8.478  0.00  0.00    +0.165 HD
ATOM      9  C   LIG    1       28.217 -19.431   7.876  0.00  0.00    +0.014 C 
ATOM     10  C   LIG    1       31.810 -19.456   8.570  0.00  0.00    +0.087 C 
ENDROOT
BRANCH   1  11
ATOM     11  C   LIG    1       30.627 -17.171   8.426  0.00  0.00    +0.056 C 
BRANCH  11  14
ATOM     12  C   LIG    1       32.697 -15.344   9.562  0.00  0.00    +0.105 C 
ATOM     13  N   LIG    1       31.804 -16.063  10.448  0.00  0.00    -0.302 NA
ATOM     14  C   LIG    1       30.556 -16.601   9.868  0.00  0.00    +0.061 C 
ATOM     15  C   LIG    1       30.137 -17.676  10.893  0.00  0.00    +0.020 C 
ATOM     16  C   LIG    1       31.264 -17.732  11.916  0.00  0.00    +0.017 C 
ATOM     17  C   LIG    1       32.448 -17.152  11.171  0.00  0.00    +0.084 C 
ENDBRANCH  11  14
ENDBRANCH   1  11
BRANCH   6  18
ATOM     18  C   LIG    1       25.903 -20.400   7.484  0.00  0.00    +0.058 C 
BRANCH  18  19
ATOM     19  C   LIG    1       25.135 -21.642   7.926  0.00  0.00    +0.176 C 
BRANCH  19  20
ATOM     20  S   LIG    1       24.354 -22.442   6.544  0.00  0.00    -0.003 S 
ATOM     21  O   LIG    1       23.120 -23.054   7.008  0.00  0.00    -0.169 OA
ATOM     22  O   LIG    1       25.351 -23.223   5.841  0.00  0.00    -0.169 OA
BRANCH  20  23
ATOM     23  C   LIG    1       23.908 -21.084   5.481  0.00  0.00    +0.088 C 
ATOM     24  C   LIG    1       24.703 -20.778   4.372  0.00  0.00    +0.027 C 
ATOM     25  C   LIG    1       24.375 -19.680   3.576  0.00  0.00    +0.002 C 
ATOM     26  C   LIG    1       23.267 -18.891   3.892  0.00  0.00    +0.000 C 
ATOM     27  C   LIG    1       22.479 -19.199   5.003  0.00  0.00    +0.002 C 
ATOM     28  C   LIG    1       22.798 -20.297   5.803  0.00  0.00    +0.027 C 
ENDBRANCH  20  23
ENDBRANCH  19  20
ENDBRANCH  18  19
ENDBRANCH   6  18
TORSDOF 6
ENDMDL
MODEL 9
REMARK VINA RESULT:      -8.7      1.628      2.414
REMARK  Name = *****
REMARK                            x       y       z     vdW  Elec       q    Type
REMARK                         _______ _______ _______ _____ _____    ______ ____
ROOT
ATOM      1  C   LIG    1       26.858 -21.202   7.622  0.00  0.00    -0.021 C 
ATOM      2  C   LIG    1       25.879 -22.111   7.091  0.00  0.00    +0.003 C 
ATOM      3  C   LIG    1       24.649 -21.785   7.663  0.00  0.00    +0.047 C 
ATOM      4  C   LIG    1       23.470 -22.484   7.382  0.00  0.00    +0.026 C 
ATOM      5  C   LIG    1       23.536 -23.534   6.460  0.00  0.00    +0.006 C 
ATOM      6  C   LIG    1       24.740 -23.882   5.838  0.00  0.00    -0.045 C 
ATOM      7  N   LIG    1       24.860 -20.710   8.492  0.00  0.00    -0.360 NA
ATOM      8  H   LIG    1       24.140 -20.257   9.037  0.00  0.00    +0.165 HD
ATOM      9  C   LIG    1       25.919 -23.185   6.174  0.00  0.00    +0.014 C 
ATOM     10  C   LIG    1       26.177 -20.335   8.457  0.00  0.00    +0.087 C 
ENDROOT
BRANCH   1  11
ATOM     11  C   LIG    1       28.335 -21.169   7.322  0.00  0.00    +0.056 C 
BRANCH  11  14
ATOM     12  C   LIG    1       28.792 -18.810   5.551  0.00  0.00    +0.105 C 
ATOM     13  N   LIG    1       29.571 -18.965   6.762  0.00  0.00    -0.302 NA
ATOM     14  C   LIG    1       29.043 -19.874   7.801  0.00  0.00    +0.061 C 
ATOM     15  C   LIG    1       30.291 -20.181   8.655  0.00  0.00    +0.020 C 
ATOM     16  C   LIG    1       31.454 -19.502   7.944  0.00  0.00    +0.017 C 
ATOM     17  C   LIG    1       30.958 -19.344   6.522  0.00  0.00    +0.084 C 
ENDBRANCH  11  14
ENDBRANCH   1  11
BRANCH   6  18
ATOM     18  C   LIG    1       24.772 -24.995   4.812  0.00  0.00    +0.058 C 
BRANCH  18  19
ATOM     19  C   LIG    1       24.403 -26.341   5.425  0.00  0.00    +0.176 C 
BRANCH  19  20
ATOM     20  S   LIG    1       25.839 -27.174   6.063  0.00  0.00    -0.003 S 
ATOM     21  O   LIG    1       26.159 -26.603   7.361  0.00  0.00    -0.169 OA
ATOM     22  O   LIG    1       26.837 -27.239   5.015  0.00  0.00    -0.169 OA
BRANCH  20  23
ATOM     23  C   LIG    1       25.261 -28.836   6.340  0.00  0.00    +0.088 C 
ATOM     24  C   LIG    1       25.349 -29.783   5.315  0.00  0.00    +0.027 C 
ATOM     25  C   LIG    1       24.846 -31.067   5.524  0.00  0.00    +0.002 C 
ATOM     26  C   LIG    1       24.252 -31.398   6.744  0.00  0.00    +0.000 C 
ATOM     27  C   LIG    1       24.164 -30.447   7.762  0.00  0.00    +0.002 C 
ATOM     28  C   LIG    1       24.666 -29.160   7.563  0.00  0.00    +0.027 C 
ENDBRANCH  20  23
ENDBRANCH  19  20
ENDBRANCH  18  19
ENDBRANCH   6  18
TORSDOF 6
ENDMDL
