MODEL 1
REMARK VINA RESULT:      -7.1      0.000      0.000
REMARK  Name = *****
REMARK                            x       y       z     vdW  Elec       q    Type
REMARK                         _______ _______ _______ _____ _____    ______ ____
ROOT
ATOM      1  C   LIG    1       24.697 -26.757   6.642  0.00  0.00    +0.105 C 
ATOM      2  N   LIG    1       25.357 -25.950   5.617  0.00  0.00    -0.305 NA
ATOM      3  C   LIG    1       24.410 -25.088   4.897  0.00  0.00    +0.088 C 
ATOM      4  C   LIG    1       23.858 -23.913   5.720  0.00  0.00    +0.047 C 
ATOM      5  C   LIG    1       24.961 -23.063   6.344  0.00  0.00    -0.059 C 
ATOM      6  C   LIG    1       25.020 -21.701   6.265  0.00  0.00    -0.010 C 
ATOM      7  C   LIG    1       26.202 -21.004   6.859  0.00  0.00    -0.014 A 
ATOM      8  C   LIG    1       27.110 -20.332   6.018  0.00  0.00    -0.032 A 
ATOM      9  C   LIG    1       28.236 -19.709   6.577  0.00  0.00    +0.005 A 
ATOM     10  C   LIG    1       28.457 -19.749   7.954  0.00  0.00    +0.000 A 
ATOM     11  C   LIG    1       27.544 -20.386   8.789  0.00  0.00    +0.001 A 
ATOM     12  C   LIG    1       26.878 -20.277   4.528  0.00  0.00    +0.115 C 
ATOM     13  C   LIG    1       25.648 -19.474   4.134  0.00  0.00    +0.174 C 
ATOM     14  O   LIG    1       25.789 -18.504   3.385  0.00  0.00    -0.291 OA
ATOM     15  C   LIG    1       24.348 -19.934   4.622  0.00  0.00    +0.063 A 
ATOM     16  S   LIG    1       22.930 -19.217   3.962  0.00  0.00    -0.093 S 
ATOM     17  C   LIG    1       21.904 -20.157   4.945  0.00  0.00    +0.046 A 
ATOM     18  C   LIG    1       22.614 -20.981   5.786  0.00  0.00    +0.017 A 
ATOM     19  C   LIG    1       26.412 -20.998   8.248  0.00  0.00    +0.009 A 
ATOM     20  C   LIG    1       24.029 -20.906   5.561  0.00  0.00    +0.000 A 
ATOM     21  C   LIG    1       25.997 -23.948   7.038  0.00  0.00    +0.047 C 
ATOM     22  C   LIG    1       26.449 -25.136   6.170  0.00  0.00    +0.088 C 
ENDROOT
TORSDOF 0
ENDMDL
MODEL 2
REMARK VINA RESULT:      -6.9      2.169      4.783
REMARK  Name = *****
REMARK                            x       y       z     vdW  Elec       q    Type
REMARK                         _______ _______ _______ _____ _____    ______ ____
ROOT
ATOM      1  C   LIG    1       30.298 -20.836   7.957  0.00  0.00    +0.105 C 
ATOM      2  N   LIG    1       28.982 -20.389   8.408  0.00  0.00    -0.305 NA
ATOM      3  C   LIG    1       28.395 -19.393   7.501  0.00  0.00    +0.088 C 
ATOM      4  C   LIG    1       27.936 -19.952   6.145  0.00  0.00    +0.047 C 
ATOM      5  C   LIG    1       26.992 -21.142   6.288  0.00  0.00    -0.059 C 
ATOM      6  C   LIG    1       25.801 -21.263   5.633  0.00  0.00    -0.010 C 
ATOM      7  C   LIG    1       24.940 -22.449   5.929  0.00  0.00    -0.014 A 
ATOM      8  C   LIG    1       23.701 -22.269   6.572  0.00  0.00    -0.032 A 
ATOM      9  C   LIG    1       22.913 -23.389   6.879  0.00  0.00    +0.005 A 
ATOM     10  C   LIG    1       23.349 -24.673   6.550  0.00  0.00    +0.000 A 
ATOM     11  C   LIG    1       24.561 -24.850   5.888  0.00  0.00    +0.001 A 
ATOM     12  C   LIG    1       23.215 -20.884   6.927  0.00  0.00    +0.115 C 
ATOM     13  C   LIG    1       22.912 -20.017   5.715  0.00  0.00    +0.174 C 
ATOM     14  O   LIG    1       21.774 -19.561   5.583  0.00  0.00    -0.291 OA
ATOM     15  C   LIG    1       24.012 -19.723   4.795  0.00  0.00    +0.063 A 
ATOM     16  S   LIG    1       23.763 -18.523   3.587  0.00  0.00    -0.093 S 
ATOM     17  C   LIG    1       25.327 -18.734   2.946  0.00  0.00    +0.046 A 
ATOM     18  C   LIG    1       26.023 -19.717   3.608  0.00  0.00    +0.017 A 
ATOM     19  C   LIG    1       25.347 -23.743   5.563  0.00  0.00    +0.009 A 
ATOM     20  C   LIG    1       25.293 -20.250   4.722  0.00  0.00    +0.000 A 
ATOM     21  C   LIG    1       27.552 -22.158   7.286  0.00  0.00    +0.047 C 
ATOM     22  C   LIG    1       28.046 -21.508   8.589  0.00  0.00    +0.088 C 
ENDROOT
TORSDOF 0
ENDMDL
MODEL 3
REMARK VINA RESULT:      -6.2      6.998      9.841
REMARK  Name = *****
REMARK                            x       y       z     vdW  Elec       q    Type
REMARK                         _______ _______ _______ _____ _____    ______ ____
ROOT
ATOM      1  C   LIG    1       25.539 -26.365   4.401  0.00  0.00    +0.105 C 
ATOM      2  N   LIG    1       24.421 -26.859   5.204  0.00  0.00    -0.305 NA
ATOM      3  C   LIG    1       24.201 -28.300   5.019  0.00  0.00    +0.088 C 
ATOM      4  C   LIG    1       25.279 -29.199   5.645  0.00  0.00    +0.047 C 
ATOM      5  C   LIG    1       25.514 -28.896   7.122  0.00  0.00    -0.059 C 
ATOM      6  C   LIG    1       25.548 -29.842   8.105  0.00  0.00    -0.010 C 
ATOM      7  C   LIG    1       25.710 -29.393   9.522  0.00  0.00    -0.014 A 
ATOM      8  C   LIG    1       24.654 -29.573  10.436  0.00  0.00    -0.032 A 
ATOM      9  C   LIG    1       24.798 -29.117  11.755  0.00  0.00    +0.005 A 
ATOM     10  C   LIG    1       25.977 -28.492  12.164  0.00  0.00    +0.000 A 
ATOM     11  C   LIG    1       27.032 -28.341  11.269  0.00  0.00    +0.001 A 
ATOM     12  C   LIG    1       23.377 -30.254  10.008  0.00  0.00    +0.115 C 
ATOM     13  C   LIG    1       23.559 -31.722   9.657  0.00  0.00    +0.174 C 
ATOM     14  O   LIG    1       22.908 -32.565  10.280  0.00  0.00    -0.291 OA
ATOM     15  C   LIG    1       24.460 -32.053   8.553  0.00  0.00    +0.063 A 
ATOM     16  S   LIG    1       24.460 -33.668   7.959  0.00  0.00    -0.093 S 
ATOM     17  C   LIG    1       25.666 -33.326   6.805  0.00  0.00    +0.046 A 
ATOM     18  C   LIG    1       26.091 -32.020   6.881  0.00  0.00    +0.017 A 
ATOM     19  C   LIG    1       26.907 -28.802   9.958  0.00  0.00    +0.009 A 
ATOM     20  C   LIG    1       25.352 -31.258   7.847  0.00  0.00    +0.000 A 
ATOM     21  C   LIG    1       25.674 -27.391   7.345  0.00  0.00    +0.047 C 
ATOM     22  C   LIG    1       24.591 -26.561   6.634  0.00  0.00    +0.088 C 
ENDROOT
TORSDOF 0
ENDMDL
MODEL 4
REMARK VINA RESULT:      -6.0      8.603     10.730
REMARK  Name = *****
REMARK                            x       y       z     vdW  Elec       q    Type
REMARK                         _______ _______ _______ _____ _____    ______ ____
ROOT
ATOM      1  C   LIG    1       27.599 -28.495  12.931  0.00  0.00    +0.105 C 
ATOM      2  N   LIG    1       27.495 -29.810  12.301  0.00  0.00    -0.305 NA
ATOM      3  C   LIG    1       26.224 -30.476  12.616  0.00  0.00    +0.088 C 
ATOM      4  C   LIG    1       24.991 -29.858  11.938  0.00  0.00    +0.047 C 
ATOM      5  C   LIG    1       25.150 -29.734  10.426  0.00  0.00    -0.059 C 
ATOM      6  C   LIG    1       24.221 -30.152   9.518  0.00  0.00    -0.010 C 
ATOM      7  C   LIG    1       24.544 -30.039   8.063  0.00  0.00    -0.014 A 
ATOM      8  C   LIG    1       24.709 -31.206   7.292  0.00  0.00    -0.032 A 
ATOM      9  C   LIG    1       25.048 -31.095   5.935  0.00  0.00    +0.005 A 
ATOM     10  C   LIG    1       25.217 -29.840   5.348  0.00  0.00    +0.000 A 
ATOM     11  C   LIG    1       25.024 -28.686   6.101  0.00  0.00    +0.001 A 
ATOM     12  C   LIG    1       24.522 -32.569   7.914  0.00  0.00    +0.115 C 
ATOM     13  C   LIG    1       23.091 -32.847   8.349  0.00  0.00    +0.174 C 
ATOM     14  O   LIG    1       22.505 -33.820   7.869  0.00  0.00    -0.291 OA
ATOM     15  C   LIG    1       22.504 -31.970   9.364  0.00  0.00    +0.063 A 
ATOM     16  S   LIG    1       21.006 -32.434  10.072  0.00  0.00    -0.093 S 
ATOM     17  C   LIG    1       20.949 -31.041  11.050  0.00  0.00    +0.046 A 
ATOM     18  C   LIG    1       22.026 -30.216  10.829  0.00  0.00    +0.017 A 
ATOM     19  C   LIG    1       24.674 -28.783   7.449  0.00  0.00    +0.009 A 
ATOM     20  C   LIG    1       22.966 -30.777   9.901  0.00  0.00    +0.000 A 
ATOM     21  C   LIG    1       26.501 -29.108  10.075  0.00  0.00    +0.047 C 
ATOM     22  C   LIG    1       27.673 -29.743  10.843  0.00  0.00    +0.088 C 
ENDROOT
TORSDOF 0
ENDMDL
MODEL 5
REMARK VINA RESULT:      -5.8      9.769     11.314
REMARK  Name = *****
REMARK                            x       y       z     vdW  Elec       q    Type
REMARK                         _______ _______ _______ _____ _____    ______ ____
ROOT
ATOM      1  C   LIG    1       22.981 -32.715   9.551  0.00  0.00    +0.105 C 
ATOM      2  N   LIG    1       22.214 -31.472   9.488  0.00  0.00    -0.305 NA
ATOM      3  C   LIG    1       21.000 -31.529  10.314  0.00  0.00    +0.088 C 
ATOM      4  C   LIG    1       21.252 -31.505  11.829  0.00  0.00    +0.047 C 
ATOM      5  C   LIG    1       22.118 -30.326  12.264  0.00  0.00    -0.059 C 
ATOM      6  C   LIG    1       21.811 -29.484  13.292  0.00  0.00    -0.010 C 
ATOM      7  C   LIG    1       22.713 -28.323  13.557  0.00  0.00    -0.014 A 
ATOM      8  C   LIG    1       22.243 -27.012  13.349  0.00  0.00    -0.032 A 
ATOM      9  C   LIG    1       23.106 -25.926  13.565  0.00  0.00    +0.005 A 
ATOM     10  C   LIG    1       24.420 -26.139  13.986  0.00  0.00    +0.000 A 
ATOM     11  C   LIG    1       24.876 -27.433  14.221  0.00  0.00    +0.001 A 
ATOM     12  C   LIG    1       20.823 -26.769  12.900  0.00  0.00    +0.115 C 
ATOM     13  C   LIG    1       19.782 -27.166  13.935  0.00  0.00    +0.174 C 
ATOM     14  O   LIG    1       18.998 -26.307  14.347  0.00  0.00    -0.291 OA
ATOM     15  C   LIG    1       19.731 -28.569  14.347  0.00  0.00    +0.063 A 
ATOM     16  S   LIG    1       18.390 -29.092  15.292  0.00  0.00    -0.093 S 
ATOM     17  C   LIG    1       18.986 -30.685  15.396  0.00  0.00    +0.046 A 
ATOM     18  C   LIG    1       20.195 -30.822  14.756  0.00  0.00    +0.017 A 
ATOM     19  C   LIG    1       24.023 -28.520  14.024  0.00  0.00    +0.009 A 
ATOM     20  C   LIG    1       20.603 -29.618  14.090  0.00  0.00    +0.000 A 
ATOM     21  C   LIG    1       23.353 -30.206  11.369  0.00  0.00    +0.047 C 
ATOM     22  C   LIG    1       23.020 -30.303   9.870  0.00  0.00    +0.088 C 
ENDROOT
TORSDOF 0
ENDMDL
MODEL 6
REMARK VINA RESULT:      -5.7      9.491     11.038
REMARK  Name = *****
REMARK                            x       y       z     vdW  Elec       q    Type
REMARK                         _______ _______ _______ _____ _____    ______ ____
ROOT
ATOM      1  C   LIG    1       19.516 -26.432  13.590  0.00  0.00    +0.105 C 
ATOM      2  N   LIG    1       20.306 -27.333  14.427  0.00  0.00    -0.305 NA
ATOM      3  C   LIG    1       20.616 -28.596  13.743  0.00  0.00    +0.088 C 
ATOM      4  C   LIG    1       21.638 -28.474  12.602  0.00  0.00    +0.047 C 
ATOM      5  C   LIG    1       22.931 -27.792  13.040  0.00  0.00    -0.059 C 
ATOM      6  C   LIG    1       24.181 -28.280  12.791  0.00  0.00    -0.010 C 
ATOM      7  C   LIG    1       25.357 -27.545  13.348  0.00  0.00    -0.014 A 
ATOM      8  C   LIG    1       26.148 -28.148  14.345  0.00  0.00    -0.032 A 
ATOM      9  C   LIG    1       27.230 -27.440  14.890  0.00  0.00    +0.005 A 
ATOM     10  C   LIG    1       27.526 -26.150  14.448  0.00  0.00    +0.000 A 
ATOM     11  C   LIG    1       26.764 -25.565  13.441  0.00  0.00    +0.001 A 
ATOM     12  C   LIG    1       25.841 -29.545  14.827  0.00  0.00    +0.115 C 
ATOM     13  C   LIG    1       26.053 -30.614  13.765  0.00  0.00    +0.174 C 
ATOM     14  O   LIG    1       26.853 -31.524  13.993  0.00  0.00    -0.291 OA
ATOM     15  C   LIG    1       25.248 -30.533  12.546  0.00  0.00    +0.063 A 
ATOM     16  S   LIG    1       25.264 -31.875  11.469  0.00  0.00    -0.093 S 
ATOM     17  C   LIG    1       24.212 -31.106  10.372  0.00  0.00    +0.046 A 
ATOM     18  C   LIG    1       23.873 -29.841  10.789  0.00  0.00    +0.017 A 
ATOM     19  C   LIG    1       25.694 -26.264  12.881  0.00  0.00    +0.009 A 
ATOM     20  C   LIG    1       24.416 -29.524  12.079  0.00  0.00    +0.000 A 
ATOM     21  C   LIG    1       22.628 -26.510  13.818  0.00  0.00    +0.047 C 
ATOM     22  C   LIG    1       21.549 -26.705  14.898  0.00  0.00    +0.088 C 
ENDROOT
TORSDOF 0
ENDMDL
MODEL 7
REMARK VINA RESULT:      -5.7      9.651     12.017
REMARK  Name = *****
REMARK                            x       y       z     vdW  Elec       q    Type
REMARK                         _______ _______ _______ _____ _____    ______ ____
ROOT
ATOM      1  C   LIG    1       26.135 -26.038  13.221  0.00  0.00    +0.105 C 
ATOM      2  N   LIG    1       25.468 -26.892  14.202  0.00  0.00    -0.305 NA
ATOM      3  C   LIG    1       24.201 -26.313  14.669  0.00  0.00    +0.088 C 
ATOM      4  C   LIG    1       23.069 -26.322  13.630  0.00  0.00    +0.047 C 
ATOM      5  C   LIG    1       22.820 -27.709  13.044  0.00  0.00    -0.059 C 
ATOM      6  C   LIG    1       21.590 -28.292  12.943  0.00  0.00    -0.010 C 
ATOM      7  C   LIG    1       21.504 -29.689  12.418  0.00  0.00    -0.014 A 
ATOM      8  C   LIG    1       21.087 -30.730  13.269  0.00  0.00    -0.032 A 
ATOM      9  C   LIG    1       21.042 -32.045  12.781  0.00  0.00    +0.005 A 
ATOM     10  C   LIG    1       21.403 -32.323  11.463  0.00  0.00    +0.000 A 
ATOM     11  C   LIG    1       21.787 -31.291  10.611  0.00  0.00    +0.001 A 
ATOM     12  C   LIG    1       20.687 -30.440  14.696  0.00  0.00    +0.115 C 
ATOM     13  C   LIG    1       19.424 -29.600  14.814  0.00  0.00    +0.174 C 
ATOM     14  O   LIG    1       18.463 -30.059  15.435  0.00  0.00    -0.291 OA
ATOM     15  C   LIG    1       19.440 -28.259  14.228  0.00  0.00    +0.063 A 
ATOM     16  S   LIG    1       18.139 -27.194  14.595  0.00  0.00    -0.093 S 
ATOM     17  C   LIG    1       18.781 -25.950  13.625  0.00  0.00    +0.046 A 
ATOM     18  C   LIG    1       19.946 -26.335  13.004  0.00  0.00    +0.017 A 
ATOM     19  C   LIG    1       21.822 -29.977  11.080  0.00  0.00    +0.009 A 
ATOM     20  C   LIG    1       20.370 -27.647  13.398  0.00  0.00    +0.000 A 
ATOM     21  C   LIG    1       24.138 -28.359  12.617  0.00  0.00    +0.047 C 
ATOM     22  C   LIG    1       25.235 -28.250  13.690  0.00  0.00    +0.088 C 
ENDROOT
TORSDOF 0
ENDMDL
MODEL 8
REMARK VINA RESULT:      -5.7      6.613     10.608
REMARK  Name = *****
REMARK                            x       y       z     vdW  Elec       q    Type
REMARK                         _______ _______ _______ _____ _____    ______ ____
ROOT
ATOM      1  C   LIG    1       25.029 -25.774   5.020  0.00  0.00    +0.105 C 
ATOM      2  N   LIG    1       26.135 -26.676   5.336  0.00  0.00    -0.305 NA
ATOM      3  C   LIG    1       26.274 -26.895   6.782  0.00  0.00    +0.088 C 
ATOM      4  C   LIG    1       25.163 -27.750   7.412  0.00  0.00    +0.047 C 
ATOM      5  C   LIG    1       24.975 -29.087   6.701  0.00  0.00    -0.059 C 
ATOM      6  C   LIG    1       24.911 -30.294   7.336  0.00  0.00    -0.010 C 
ATOM      7  C   LIG    1       24.802 -31.532   6.506  0.00  0.00    -0.014 A 
ATOM      8  C   LIG    1       25.866 -32.455   6.487  0.00  0.00    -0.032 A 
ATOM      9  C   LIG    1       25.773 -33.598   5.678  0.00  0.00    +0.005 A 
ATOM     10  C   LIG    1       24.638 -33.824   4.899  0.00  0.00    +0.000 A 
ATOM     11  C   LIG    1       23.574 -32.928   4.940  0.00  0.00    +0.001 A 
ATOM     12  C   LIG    1       27.096 -32.225   7.331  0.00  0.00    +0.115 C 
ATOM     13  C   LIG    1       26.829 -32.294   8.826  0.00  0.00    +0.174 C 
ATOM     14  O   LIG    1       27.446 -33.123   9.500  0.00  0.00    -0.291 OA
ATOM     15  C   LIG    1       25.888 -31.329   9.397  0.00  0.00    +0.063 A 
ATOM     16  S   LIG    1       25.790 -31.204  11.110  0.00  0.00    -0.093 S 
ATOM     17  C   LIG    1       24.580 -30.007  11.030  0.00  0.00    +0.046 A 
ATOM     18  C   LIG    1       24.227 -29.722   9.733  0.00  0.00    +0.017 A 
ATOM     19  C   LIG    1       23.647 -31.794   5.751  0.00  0.00    +0.009 A 
ATOM     20  C   LIG    1       25.025 -30.435   8.778  0.00  0.00    +0.000 A 
ATOM     21  C   LIG    1       24.900 -28.887   5.186  0.00  0.00    +0.047 C 
ATOM     22  C   LIG    1       26.011 -27.969   4.647  0.00  0.00    +0.088 C 
ENDROOT
TORSDOF 0
ENDMDL
MODEL 9
REMARK VINA RESULT:      -5.6      9.710     11.434
REMARK  Name = *****
REMARK                            x       y       z     vdW  Elec       q    Type
REMARK                         _______ _______ _______ _____ _____    ______ ____
ROOT
ATOM      1  C   LIG    1       24.399 -32.307   8.581  0.00  0.00    +0.105 C 
ATOM      2  N   LIG    1       23.245 -31.426   8.749  0.00  0.00    -0.305 NA
ATOM      3  C   LIG    1       22.256 -31.983   9.683  0.00  0.00    +0.088 C 
ATOM      4  C   LIG    1       22.694 -31.983  11.156  0.00  0.00    +0.047 C 
ATOM      5  C   LIG    1       23.143 -30.607  11.637  0.00  0.00    -0.059 C 
ATOM      6  C   LIG    1       22.708 -30.014  12.787  0.00  0.00    -0.010 C 
ATOM      7  C   LIG    1       23.174 -28.628  13.095  0.00  0.00    -0.014 A 
ATOM      8  C   LIG    1       22.250 -27.565  13.096  0.00  0.00    -0.032 A 
ATOM      9  C   LIG    1       22.700 -26.260  13.351  0.00  0.00    +0.005 A 
ATOM     10  C   LIG    1       24.049 -26.013  13.605  0.00  0.00    +0.000 A 
ATOM     11  C   LIG    1       24.958 -27.066  13.634  0.00  0.00    +0.001 A 
ATOM     12  C   LIG    1       20.787 -27.821  12.830  0.00  0.00    +0.115 C 
ATOM     13  C   LIG    1       20.107 -28.646  13.912  0.00  0.00    +0.174 C 
ATOM     14  O   LIG    1       19.139 -28.163  14.504  0.00  0.00    -0.291 OA
ATOM     15  C   LIG    1       20.610 -29.999  14.155  0.00  0.00    +0.063 A 
ATOM     16  S   LIG    1       19.684 -31.042  15.163  0.00  0.00    -0.093 S 
ATOM     17  C   LIG    1       20.808 -32.313  15.011  0.00  0.00    +0.046 A 
ATOM     18  C   LIG    1       21.886 -31.953  14.238  0.00  0.00    +0.017 A 
ATOM     19  C   LIG    1       24.522 -28.371  13.396  0.00  0.00    +0.009 A 
ATOM     20  C   LIG    1       21.749 -30.637  13.684  0.00  0.00    +0.000 A 
ATOM     21  C   LIG    1       24.120 -29.979  10.641  0.00  0.00    +0.047 C 
ATOM     22  C   LIG    1       23.634 -30.077   9.184  0.00  0.00    +0.088 C 
ENDROOT
TORSDOF 0
ENDMDL
