MODEL 1
REMARK VINA RESULT:       3.2      0.000      0.000
REMARK  Name = *****
REMARK                            x       y       z     vdW  Elec       q    Type
REMARK                         _______ _______ _______ _____ _____    ______ ____
ROOT
ATOM      1  N   LIG    1       25.542 -17.716   3.842  0.00  0.00    -0.212 N 
ATOM      2  C   LIG    1       26.812 -17.704   4.430  0.00  0.00    +0.168 A 
ATOM      3  N   LIG    1       27.308 -16.480   4.277  0.00  0.00    -0.206 NA
ATOM      4  C   LIG    1       26.418 -15.818   3.470  0.00  0.00    +0.186 A 
ATOM      5  N   LIG    1       25.358 -16.565   3.134  0.00  0.00    -0.144 NA
ENDROOT
BRANCH   1   9
ATOM      6  C   LIG    1       22.184 -20.271   4.273  0.00  0.00    +0.059 A 
ATOM      7  C   LIG    1       22.071 -18.901   4.536  0.00  0.00    +0.017 A 
ATOM      8  C   LIG    1       23.188 -18.073   4.382  0.00  0.00    +0.028 A 
ATOM      9  C   LIG    1       24.425 -18.598   3.957  0.00  0.00    +0.068 A 
ATOM     10  C   LIG    1       24.533 -19.971   3.711  0.00  0.00    +0.028 A 
ATOM     11  C   LIG    1       23.406 -20.794   3.829  0.00  0.00    +0.017 A 
BRANCH   6  13
ATOM     12  O   LIG    1       20.674 -21.567   5.586  0.00  0.00    -0.245 OA
ATOM     13  C   LIG    1       21.055 -21.208   4.475  0.00  0.00    +0.337 C 
BRANCH  13  14
ATOM     14  O   LIG    1       20.439 -21.572   3.332  0.00  0.00    -0.477 OA
ATOM     15  H   LIG    1       20.523 -20.928   2.603  0.00  0.00    +0.295 HD
ENDBRANCH  13  14
ENDBRANCH   6  13
ENDBRANCH   1   9
BRANCH   2  16
ATOM     16  C   LIG    1       27.569 -18.803   5.079  0.00  0.00    +0.061 A 
ATOM     17  C   LIG    1       28.836 -18.670   5.670  0.00  0.00    +0.128 A 
ATOM     18  C   LIG    1       29.471 -19.748   6.308  0.00  0.00    +0.046 A 
ATOM     19  C   LIG    1       28.817 -20.971   6.433  0.00  0.00    +0.004 A 
ATOM     20  C   LIG    1       27.547 -21.125   5.889  0.00  0.00    +0.001 A 
ATOM     21  C   LIG    1       26.943 -20.060   5.202  0.00  0.00    +0.015 A 
BRANCH  17  22
ATOM     22  O   LIG    1       29.475 -17.460   5.667  0.00  0.00    -0.506 OA
ATOM     23  H   LIG    1       30.228 -17.510   5.054  0.00  0.00    +0.292 HD
ENDBRANCH  17  22
ENDBRANCH   2  16
BRANCH   4  24
ATOM     24  C   LIG    1       26.554 -14.413   3.057  0.00  0.00    +0.062 A 
ATOM     25  C   LIG    1       27.679 -13.627   3.349  0.00  0.00    +0.128 A 
ATOM     26  C   LIG    1       27.765 -12.294   2.916  0.00  0.00    +0.046 A 
ATOM     27  C   LIG    1       26.725 -11.723   2.186  0.00  0.00    +0.004 A 
ATOM     28  C   LIG    1       25.597 -12.479   1.889  0.00  0.00    +0.001 A 
ATOM     29  C   LIG    1       25.514 -13.810   2.319  0.00  0.00    +0.015 A 
BRANCH  25  30
ATOM     30  O   LIG    1       28.739 -14.149   4.040  0.00  0.00    -0.506 OA
ATOM     31  H   LIG    1       28.940 -13.577   4.798  0.00  0.00    +0.292 HD
ENDBRANCH  25  30
ENDBRANCH   4  24
TORSDOF 7
ENDMDL
MODEL 2
REMARK VINA RESULT:       3.8      2.537      7.410
REMARK  Name = *****
REMARK                            x       y       z     vdW  Elec       q    Type
REMARK                         _______ _______ _______ _____ _____    ______ ____
ROOT
ATOM      1  N   LIG    1       24.375 -17.620   4.211  0.00  0.00    -0.212 N 
ATOM      2  C   LIG    1       23.548 -18.738   4.366  0.00  0.00    +0.168 A 
ATOM      3  N   LIG    1       24.276 -19.693   4.938  0.00  0.00    -0.206 NA
ATOM      4  C   LIG    1       25.558 -19.208   4.976  0.00  0.00    +0.186 A 
ATOM      5  N   LIG    1       25.665 -17.968   4.480  0.00  0.00    -0.144 NA
ENDROOT
BRANCH   1   9
ATOM      6  C   LIG    1       23.694 -13.499   3.473  0.00  0.00    +0.059 A 
ATOM      7  C   LIG    1       24.687 -14.191   2.770  0.00  0.00    +0.017 A 
ATOM      8  C   LIG    1       24.893 -15.551   3.022  0.00  0.00    +0.028 A 
ATOM      9  C   LIG    1       24.107 -16.238   3.969  0.00  0.00    +0.068 A 
ATOM     10  C   LIG    1       23.127 -15.536   4.679  0.00  0.00    +0.028 A 
ATOM     11  C   LIG    1       22.896 -14.182   4.400  0.00  0.00    +0.017 A 
BRANCH   6  13
ATOM     12  O   LIG    1       23.716 -11.454   2.247  0.00  0.00    -0.245 OA
ATOM     13  C   LIG    1       23.470 -12.046   3.294  0.00  0.00    +0.337 C 
BRANCH  13  14
ATOM     14  O   LIG    1       22.903 -11.449   4.362  0.00  0.00    -0.477 OA
ATOM     15  H   LIG    1       21.979 -11.716   4.534  0.00  0.00    +0.295 HD
ENDBRANCH  13  14
ENDBRANCH   6  13
ENDBRANCH   1   9
BRANCH   2  16
ATOM     16  C   LIG    1       22.135 -18.940   3.960  0.00  0.00    +0.061 A 
ATOM     17  C   LIG    1       21.369 -20.081   4.247  0.00  0.00    +0.128 A 
ATOM     18  C   LIG    1       20.019 -20.179   3.869  0.00  0.00    +0.046 A 
ATOM     19  C   LIG    1       19.384 -19.102   3.256  0.00  0.00    +0.004 A 
ATOM     20  C   LIG    1       20.107 -17.944   2.990  0.00  0.00    +0.001 A 
ATOM     21  C   LIG    1       21.469 -17.876   3.318  0.00  0.00    +0.015 A 
BRANCH  17  22
ATOM     22  O   LIG    1       21.917 -21.124   4.941  0.00  0.00    -0.506 OA
ATOM     23  H   LIG    1       22.835 -21.244   4.645  0.00  0.00    +0.292 HD
ENDBRANCH  17  22
ENDBRANCH   2  16
BRANCH   4  24
ATOM     24  C   LIG    1       26.703 -19.927   5.554  0.00  0.00    +0.062 A 
ATOM     25  C   LIG    1       26.579 -20.901   6.556  0.00  0.00    +0.128 A 
ATOM     26  C   LIG    1       27.705 -21.569   7.062  0.00  0.00    +0.046 A 
ATOM     27  C   LIG    1       28.978 -21.271   6.578  0.00  0.00    +0.004 A 
ATOM     28  C   LIG    1       29.128 -20.305   5.589  0.00  0.00    +0.001 A 
ATOM     29  C   LIG    1       28.003 -19.642   5.083  0.00  0.00    +0.015 A 
BRANCH  25  30
ATOM     30  O   LIG    1       25.350 -21.249   7.046  0.00  0.00    -0.506 OA
ATOM     31  H   LIG    1       25.464 -21.783   7.848  0.00  0.00    +0.292 HD
ENDBRANCH  25  30
ENDBRANCH   4  24
TORSDOF 7
ENDMDL
MODEL 3
REMARK VINA RESULT:       4.5      1.708      6.899
REMARK  Name = *****
REMARK                            x       y       z     vdW  Elec       q    Type
REMARK                         _______ _______ _______ _____ _____    ______ ____
ROOT
ATOM      1  N   LIG    1       25.137 -17.514   4.286  0.00  0.00    -0.212 N 
ATOM      2  C   LIG    1       25.508 -18.800   4.691  0.00  0.00    +0.168 A 
ATOM      3  N   LIG    1       24.442 -19.582   4.556  0.00  0.00    -0.206 NA
ATOM      4  C   LIG    1       23.407 -18.743   4.227  0.00  0.00    +0.186 A 
ATOM      5  N   LIG    1       23.784 -17.463   4.117  0.00  0.00    -0.144 NA
ENDROOT
BRANCH   1   9
ATOM      6  C   LIG    1       27.422 -14.089   3.267  0.00  0.00    +0.059 A 
ATOM      7  C   LIG    1       27.993 -15.125   4.014  0.00  0.00    +0.017 A 
ATOM      8  C   LIG    1       27.226 -16.250   4.335  0.00  0.00    +0.028 A 
ATOM      9  C   LIG    1       25.886 -16.357   3.908  0.00  0.00    +0.068 A 
ATOM     10  C   LIG    1       25.319 -15.310   3.176  0.00  0.00    +0.028 A 
ATOM     11  C   LIG    1       26.098 -14.200   2.823  0.00  0.00    +0.017 A 
BRANCH   6  13
ATOM     12  O   LIG    1       27.621 -11.837   2.508  0.00  0.00    -0.245 OA
ATOM     13  C   LIG    1       28.163 -12.846   2.948  0.00  0.00    +0.337 C 
BRANCH  13  14
ATOM     14  O   LIG    1       29.475 -12.903   3.255  0.00  0.00    -0.477 OA
ATOM     15  H   LIG    1       29.720 -13.626   3.863  0.00  0.00    +0.295 HD
ENDBRANCH  13  14
ENDBRANCH   6  13
ENDBRANCH   1   9
BRANCH   2  16
ATOM     16  C   LIG    1       26.800 -19.290   5.232  0.00  0.00    +0.061 A 
ATOM     17  C   LIG    1       26.950 -20.397   6.084  0.00  0.00    +0.128 A 
ATOM     18  C   LIG    1       28.214 -20.830   6.517  0.00  0.00    +0.046 A 
ATOM     19  C   LIG    1       29.367 -20.207   6.047  0.00  0.00    +0.004 A 
ATOM     20  C   LIG    1       29.253 -19.130   5.174  0.00  0.00    +0.001 A 
ATOM     21  C   LIG    1       27.985 -18.667   4.792  0.00  0.00    +0.015 A 
BRANCH  17  22
ATOM     22  O   LIG    1       25.855 -21.109   6.489  0.00  0.00    -0.506 OA
ATOM     23  H   LIG    1       25.686 -20.909   7.426  0.00  0.00    +0.292 HD
ENDBRANCH  17  22
ENDBRANCH   2  16
BRANCH   4  24
ATOM     24  C   LIG    1       22.031 -19.185   3.955  0.00  0.00    +0.062 A 
ATOM     25  C   LIG    1       21.544 -20.454   4.302  0.00  0.00    +0.128 A 
ATOM     26  C   LIG    1       20.215 -20.819   4.033  0.00  0.00    +0.046 A 
ATOM     27  C   LIG    1       19.351 -19.922   3.408  0.00  0.00    +0.004 A 
ATOM     28  C   LIG    1       19.811 -18.660   3.050  0.00  0.00    +0.001 A 
ATOM     29  C   LIG    1       21.137 -18.296   3.322  0.00  0.00    +0.015 A 
BRANCH  25  30
ATOM     30  O   LIG    1       22.344 -21.362   4.940  0.00  0.00    -0.506 OA
ATOM     31  H   LIG    1       23.243 -21.005   5.008  0.00  0.00    +0.292 HD
ENDBRANCH  25  30
ENDBRANCH   4  24
TORSDOF 7
ENDMDL
