MODEL 1
REMARK VINA RESULT:      -3.7      0.000      0.000
REMARK  Name = *****
REMARK                            x       y       z     vdW  Elec       q    Type
REMARK                         _______ _______ _______ _____ _____    ______ ____
ROOT
ATOM      1  C   LIG    1       23.126 -14.995   3.789  0.00  0.00    +0.039 C 
ENDROOT
BRANCH   1   5
ATOM      2  C   LIG    1       23.144 -19.273   4.721  0.00  0.00    -0.042 A 
ATOM      3  C   LIG    1       22.087 -18.430   5.114  0.00  0.00    +0.004 A 
ATOM      4  C   LIG    1       22.098 -17.061   4.815  0.00  0.00    +0.004 A 
ATOM      5  C   LIG    1       23.143 -16.476   4.103  0.00  0.00    -0.047 A 
ATOM      6  C   LIG    1       24.214 -17.296   3.722  0.00  0.00    +0.004 A 
ATOM      7  C   LIG    1       24.210 -18.666   4.037  0.00  0.00    +0.004 A 
BRANCH   2   8
ATOM      8  C   LIG    1       23.143 -20.776   5.097  0.00  0.00    -0.010 C 
ATOM      9  C   LIG    1       21.778 -21.446   4.796  0.00  0.00    +0.016 C 
ATOM     10  C   LIG    1       24.192 -21.567   4.278  0.00  0.00    +0.016 C 
BRANCH   8  12
ATOM     11  C   LIG    1       24.930 -20.795   7.005  0.00  0.00    +0.004 C 
ATOM     12  C   LIG    1       23.454 -20.883   6.621  0.00  0.00    +0.007 C 
ENDBRANCH   8  12
ENDBRANCH   2   8
ENDBRANCH   1   5
BRANCH   1  13
ATOM     13  C   LIG    1       24.412 -14.175   4.086  0.00  0.00    +0.004 C 
ATOM     14  C   LIG    1       24.276 -13.407   5.406  0.00  0.00    +0.009 C 
BRANCH  13  15
ATOM     15  C   LIG    1       24.828 -13.244   2.917  0.00  0.00    +0.088 C 
BRANCH  15  16
ATOM     16  N   LIG    1       26.169 -13.497   2.343  0.00  0.00    -0.297 NA
ATOM     17  C   LIG    1       27.272 -12.666   2.884  0.00  0.00    +0.115 C 
ATOM     18  C   LIG    1       27.712 -13.056   4.314  0.00  0.00    +0.130 C 
ATOM     19  C   LIG    1       28.869 -12.191   4.806  0.00  0.00    +0.039 C 
ATOM     20  O   LIG    1       28.138 -14.428   4.339  0.00  0.00    -0.371 OA
ATOM     21  C   LIG    1       27.069 -15.292   3.917  0.00  0.00    +0.130 C 
ATOM     22  C   LIG    1       27.592 -16.723   3.951  0.00  0.00    +0.039 C 
ATOM     23  C   LIG    1       26.569 -14.919   2.499  0.00  0.00    +0.115 C 
ENDBRANCH  15  16
ENDBRANCH  13  15
ENDBRANCH   1  13
TORSDOF 6
ENDMDL
MODEL 2
REMARK VINA RESULT:      -3.3      2.565      6.732
REMARK  Name = *****
REMARK                            x       y       z     vdW  Elec       q    Type
REMARK                         _______ _______ _______ _____ _____    ______ ____
ROOT
ATOM      1  C   LIG    1       21.673 -18.321   5.049  0.00  0.00    +0.039 C 
ENDROOT
BRANCH   1   5
ATOM      2  C   LIG    1       24.380 -15.067   3.930  0.00  0.00    -0.042 A 
ATOM      3  C   LIG    1       24.604 -16.396   3.522  0.00  0.00    +0.004 A 
ATOM      4  C   LIG    1       23.733 -17.428   3.893  0.00  0.00    +0.004 A 
ATOM      5  C   LIG    1       22.600 -17.186   4.667  0.00  0.00    -0.047 A 
ATOM      6  C   LIG    1       22.372 -15.873   5.101  0.00  0.00    +0.004 A 
ATOM      7  C   LIG    1       23.256 -14.841   4.742  0.00  0.00    +0.004 A 
BRANCH   2   8
ATOM      8  C   LIG    1       25.375 -13.941   3.552  0.00  0.00    -0.010 C 
ATOM      9  C   LIG    1       25.845 -13.142   4.795  0.00  0.00    +0.016 C 
ATOM     10  C   LIG    1       26.660 -14.513   2.906  0.00  0.00    +0.016 C 
BRANCH   8  12
ATOM     11  C   LIG    1       24.003 -11.747   3.179  0.00  0.00    +0.004 C 
ATOM     12  C   LIG    1       24.650 -12.983   2.558  0.00  0.00    +0.007 C 
ENDBRANCH   8  12
ENDBRANCH   2   8
ENDBRANCH   1   5
BRANCH   1  13
ATOM     13  C   LIG    1       22.141 -19.772   4.750  0.00  0.00    +0.004 C 
ATOM     14  C   LIG    1       20.947 -20.671   4.409  0.00  0.00    +0.009 C 
BRANCH  13  15
ATOM     15  C   LIG    1       23.014 -20.379   5.880  0.00  0.00    +0.088 C 
BRANCH  15  16
ATOM     16  N   LIG    1       24.041 -21.354   5.443  0.00  0.00    -0.297 NA
ATOM     17  C   LIG    1       24.570 -21.164   4.070  0.00  0.00    +0.115 C 
ATOM     18  C   LIG    1       25.525 -19.957   3.924  0.00  0.00    +0.130 C 
ATOM     19  C   LIG    1       26.063 -19.830   2.502  0.00  0.00    +0.039 C 
ATOM     20  O   LIG    1       26.644 -20.105   4.814  0.00  0.00    -0.371 OA
ATOM     21  C   LIG    1       26.192 -20.194   6.176  0.00  0.00    +0.130 C 
ATOM     22  C   LIG    1       27.422 -20.366   7.059  0.00  0.00    +0.039 C 
ATOM     23  C   LIG    1       25.204 -21.371   6.367  0.00  0.00    +0.115 C 
ENDBRANCH  15  16
ENDBRANCH  13  15
ENDBRANCH   1  13
TORSDOF 6
ENDMDL
MODEL 3
REMARK VINA RESULT:      -3.2      2.364      6.218
REMARK  Name = *****
REMARK                            x       y       z     vdW  Elec       q    Type
REMARK                         _______ _______ _______ _____ _____    ______ ____
ROOT
ATOM      1  C   LIG    1       22.198 -18.380   4.638  0.00  0.00    +0.039 C 
ENDROOT
BRANCH   1   5
ATOM      2  C   LIG    1       24.518 -14.762   3.803  0.00  0.00    -0.042 A 
ATOM      3  C   LIG    1       23.237 -14.708   4.387  0.00  0.00    +0.004 A 
ATOM      4  C   LIG    1       22.503 -15.873   4.642  0.00  0.00    +0.004 A 
ATOM      5  C   LIG    1       23.011 -17.137   4.346  0.00  0.00    -0.047 A 
ATOM      6  C   LIG    1       24.275 -17.210   3.745  0.00  0.00    +0.004 A 
ATOM      7  C   LIG    1       25.004 -16.038   3.474  0.00  0.00    +0.004 A 
BRANCH   2   8
ATOM      8  C   LIG    1       25.301 -13.464   3.483  0.00  0.00    -0.010 C 
ATOM      9  C   LIG    1       26.441 -13.713   2.463  0.00  0.00    +0.016 C 
ATOM     10  C   LIG    1       24.385 -12.392   2.841  0.00  0.00    +0.016 C 
BRANCH   8  12
ATOM     11  C   LIG    1       27.315 -13.406   5.148  0.00  0.00    +0.004 C 
ATOM     12  C   LIG    1       25.901 -12.932   4.820  0.00  0.00    +0.007 C 
ENDBRANCH   8  12
ENDBRANCH   2   8
ENDBRANCH   1   5
BRANCH   1  13
ATOM     13  C   LIG    1       22.880 -19.760   4.424  0.00  0.00    +0.004 C 
ATOM     14  C   LIG    1       21.891 -20.903   4.678  0.00  0.00    +0.009 C 
BRANCH  13  15
ATOM     15  C   LIG    1       24.184 -19.933   5.248  0.00  0.00    +0.088 C 
BRANCH  15  16
ATOM     16  N   LIG    1       25.351 -20.452   4.498  0.00  0.00    -0.297 NA
ATOM     17  C   LIG    1       26.249 -19.429   3.909  0.00  0.00    +0.115 C 
ATOM     18  C   LIG    1       27.128 -18.690   4.943  0.00  0.00    +0.130 C 
ATOM     19  C   LIG    1       28.053 -17.675   4.278  0.00  0.00    +0.039 C 
ATOM     20  O   LIG    1       27.943 -19.635   5.658  0.00  0.00    -0.371 OA
ATOM     21  C   LIG    1       27.116 -20.596   6.335  0.00  0.00    +0.130 C 
ATOM     22  C   LIG    1       28.039 -21.572   7.056  0.00  0.00    +0.039 C 
ATOM     23  C   LIG    1       26.189 -21.342   5.343  0.00  0.00    +0.115 C 
ENDBRANCH  15  16
ENDBRANCH  13  15
ENDBRANCH   1  13
TORSDOF 6
ENDMDL
MODEL 4
REMARK VINA RESULT:      -1.5      2.810      7.435
REMARK  Name = *****
REMARK                            x       y       z     vdW  Elec       q    Type
REMARK                         _______ _______ _______ _____ _____    ______ ____
ROOT
ATOM      1  C   LIG    1       26.565 -19.508   4.109  0.00  0.00    +0.039 C 
ENDROOT
BRANCH   1   5
ATOM      2  C   LIG    1       26.835 -15.159   3.682  0.00  0.00    -0.042 A 
ATOM      3  C   LIG    1       27.835 -15.907   4.333  0.00  0.00    +0.004 A 
ATOM      4  C   LIG    1       27.732 -17.298   4.468  0.00  0.00    +0.004 A 
ATOM      5  C   LIG    1       26.647 -18.004   3.953  0.00  0.00    -0.047 A 
ATOM      6  C   LIG    1       25.631 -17.274   3.321  0.00  0.00    +0.004 A 
ATOM      7  C   LIG    1       25.728 -15.877   3.201  0.00  0.00    +0.004 A 
BRANCH   2   8
ATOM      8  C   LIG    1       26.937 -13.616   3.579  0.00  0.00    -0.010 C 
ATOM      9  C   LIG    1       28.402 -13.125   3.705  0.00  0.00    +0.016 C 
ATOM     10  C   LIG    1       26.435 -13.105   2.207  0.00  0.00    +0.016 C 
BRANCH   8  12
ATOM     11  C   LIG    1       24.579 -12.921   4.466  0.00  0.00    +0.004 C 
ATOM     12  C   LIG    1       26.081 -13.007   4.730  0.00  0.00    +0.007 C 
ENDBRANCH   8  12
ENDBRANCH   2   8
ENDBRANCH   1   5
BRANCH   1  13
ATOM     13  C   LIG    1       26.093 -20.071   5.478  0.00  0.00    +0.004 C 
ATOM     14  C   LIG    1       27.263 -20.703   6.240  0.00  0.00    +0.009 C 
BRANCH  13  15
ATOM     15  C   LIG    1       24.890 -21.044   5.359  0.00  0.00    +0.088 C 
BRANCH  15  16
ATOM     16  N   LIG    1       23.686 -20.674   6.138  0.00  0.00    -0.297 NA
ATOM     17  C   LIG    1       23.342 -19.231   6.151  0.00  0.00    +0.115 C 
ATOM     18  C   LIG    1       22.748 -18.714   4.820  0.00  0.00    +0.130 C 
ATOM     19  C   LIG    1       22.384 -17.234   4.901  0.00  0.00    +0.039 C 
ATOM     20  O   LIG    1       21.559 -19.450   4.494  0.00  0.00    -0.371 OA
ATOM     21  C   LIG    1       21.856 -20.852   4.370  0.00  0.00    +0.130 C 
ATOM     22  C   LIG    1       20.553 -21.572   4.041  0.00  0.00    +0.039 C 
ATOM     23  C   LIG    1       22.485 -21.412   5.670  0.00  0.00    +0.115 C 
ENDBRANCH  15  16
ENDBRANCH  13  15
ENDBRANCH   1  13
TORSDOF 6
ENDMDL
MODEL 5
REMARK VINA RESULT:      -1.5      2.483      6.778
REMARK  Name = *****
REMARK                            x       y       z     vdW  Elec       q    Type
REMARK                         _______ _______ _______ _____ _____    ______ ____
ROOT
ATOM      1  C   LIG    1       21.969 -17.110   4.817  0.00  0.00    +0.039 C 
ENDROOT
BRANCH   1   5
ATOM      2  C   LIG    1       25.251 -14.409   3.771  0.00  0.00    -0.042 A 
ATOM      3  C   LIG    1       25.277 -15.777   3.437  0.00  0.00    +0.004 A 
ATOM      4  C   LIG    1       24.223 -16.631   3.784  0.00  0.00    +0.004 A 
ATOM      5  C   LIG    1       23.096 -16.165   4.459  0.00  0.00    -0.047 A 
ATOM      6  C   LIG    1       23.062 -14.811   4.820  0.00  0.00    +0.004 A 
ATOM      7  C   LIG    1       24.129 -13.958   4.485  0.00  0.00    +0.004 A 
BRANCH   2   8
ATOM      8  C   LIG    1       26.444 -13.483   3.422  0.00  0.00    -0.010 C 
ATOM      9  C   LIG    1       27.552 -14.237   2.642  0.00  0.00    +0.016 C 
ATOM     10  C   LIG    1       26.006 -12.312   2.510  0.00  0.00    +0.016 C 
BRANCH   8  12
ATOM     11  C   LIG    1       28.512 -12.579   4.742  0.00  0.00    +0.004 C 
ATOM     12  C   LIG    1       27.027 -12.937   4.761  0.00  0.00    +0.007 C 
ENDBRANCH   8  12
ENDBRANCH   2   8
ENDBRANCH   1   5
BRANCH   1  13
ATOM     13  C   LIG    1       22.014 -18.549   4.232  0.00  0.00    +0.004 C 
ATOM     14  C   LIG    1       20.702 -18.890   3.518  0.00  0.00    +0.009 C 
BRANCH  13  15
ATOM     15  C   LIG    1       22.395 -19.625   5.284  0.00  0.00    +0.088 C 
BRANCH  15  16
ATOM     16  N   LIG    1       23.150 -20.789   4.765  0.00  0.00    -0.297 NA
ATOM     17  C   LIG    1       24.006 -20.530   3.582  0.00  0.00    +0.115 C 
ATOM     18  C   LIG    1       25.288 -19.724   3.896  0.00  0.00    +0.130 C 
ATOM     19  C   LIG    1       26.144 -19.515   2.651  0.00  0.00    +0.039 C 
ATOM     20  O   LIG    1       26.080 -20.422   4.871  0.00  0.00    -0.371 OA
ATOM     21  C   LIG    1       25.328 -20.613   6.082  0.00  0.00    +0.130 C 
ATOM     22  C   LIG    1       26.218 -21.370   7.062  0.00  0.00    +0.039 C 
ATOM     23  C   LIG    1       24.014 -21.389   5.814  0.00  0.00    +0.115 C 
ENDBRANCH  15  16
ENDBRANCH  13  15
ENDBRANCH   1  13
TORSDOF 6
ENDMDL
MODEL 6
REMARK VINA RESULT:      -1.5      3.028      7.466
REMARK  Name = *****
REMARK                            x       y       z     vdW  Elec       q    Type
REMARK                         _______ _______ _______ _____ _____    ______ ____
ROOT
ATOM      1  C   LIG    1       27.773 -18.862   4.401  0.00  0.00    +0.039 C 
ENDROOT
BRANCH   1   5
ATOM      2  C   LIG    1       26.320 -14.811   3.597  0.00  0.00    -0.042 A 
ATOM      3  C   LIG    1       25.591 -15.954   3.213  0.00  0.00    +0.004 A 
ATOM      4  C   LIG    1       26.071 -17.244   3.470  0.00  0.00    +0.004 A 
ATOM      5  C   LIG    1       27.280 -17.456   4.131  0.00  0.00    -0.047 A 
ATOM      6  C   LIG    1       28.030 -16.332   4.501  0.00  0.00    +0.004 A 
ATOM      7  C   LIG    1       27.554 -15.037   4.228  0.00  0.00    +0.004 A 
BRANCH   2   8
ATOM      8  C   LIG    1       25.800 -13.390   3.266  0.00  0.00    -0.010 C 
ATOM      9  C   LIG    1       26.939 -12.456   2.781  0.00  0.00    +0.016 C 
ATOM     10  C   LIG    1       24.759 -13.419   2.120  0.00  0.00    +0.016 C 
BRANCH   8  12
ATOM     11  C   LIG    1       23.861 -12.027   4.370  0.00  0.00    +0.004 C 
ATOM     12  C   LIG    1       25.161 -12.806   4.563  0.00  0.00    +0.007 C 
ENDBRANCH   8  12
ENDBRANCH   2   8
ENDBRANCH   1   5
BRANCH   1  13
ATOM     13  C   LIG    1       28.021 -19.273   5.879  0.00  0.00    +0.004 C 
ATOM     14  C   LIG    1       29.191 -20.259   5.982  0.00  0.00    +0.009 C 
BRANCH  13  15
ATOM     15  C   LIG    1       26.749 -19.812   6.586  0.00  0.00    +0.088 C 
BRANCH  15  16
ATOM     16  N   LIG    1       26.183 -21.060   6.024  0.00  0.00    -0.297 NA
ATOM     17  C   LIG    1       24.959 -21.571   6.687  0.00  0.00    +0.115 C 
ATOM     18  C   LIG    1       23.686 -20.749   6.379  0.00  0.00    +0.130 C 
ATOM     19  C   LIG    1       22.454 -21.338   7.060  0.00  0.00    +0.039 C 
ATOM     20  O   LIG    1       23.446 -20.727   4.962  0.00  0.00    -0.371 OA
ATOM     21  C   LIG    1       24.567 -20.145   4.274  0.00  0.00    +0.130 C 
ATOM     22  C   LIG    1       24.255 -20.168   2.783  0.00  0.00    +0.039 C 
ATOM     23  C   LIG    1       25.877 -20.916   4.578  0.00  0.00    +0.115 C 
ENDBRANCH  15  16
ENDBRANCH  13  15
ENDBRANCH   1  13
TORSDOF 6
ENDMDL
MODEL 7
REMARK VINA RESULT:      -1.2      2.675      7.561
REMARK  Name = *****
REMARK                            x       y       z     vdW  Elec       q    Type
REMARK                         _______ _______ _______ _____ _____    ______ ____
ROOT
ATOM      1  C   LIG    1       26.884 -19.277   4.044  0.00  0.00    +0.039 C 
ENDROOT
BRANCH   1   5
ATOM      2  C   LIG    1       26.933 -14.909   3.757  0.00  0.00    -0.042 A 
ATOM      3  C   LIG    1       25.879 -15.679   3.227  0.00  0.00    +0.004 A 
ATOM      4  C   LIG    1       25.880 -17.076   3.320  0.00  0.00    +0.004 A 
ATOM      5  C   LIG    1       26.912 -17.766   3.954  0.00  0.00    -0.047 A 
ATOM      6  C   LIG    1       27.980 -17.019   4.468  0.00  0.00    +0.004 A 
ATOM      7  C   LIG    1       27.986 -15.617   4.360  0.00  0.00    +0.004 A 
BRANCH   2   8
ATOM      8  C   LIG    1       26.943 -13.367   3.608  0.00  0.00    -0.010 C 
ATOM      9  C   LIG    1       26.207 -12.668   4.780  0.00  0.00    +0.016 C 
ATOM     10  C   LIG    1       28.386 -12.805   3.618  0.00  0.00    +0.016 C 
BRANCH   8  12
ATOM     11  C   LIG    1       24.778 -12.575   2.375  0.00  0.00    +0.004 C 
ATOM     12  C   LIG    1       26.236 -13.017   2.264  0.00  0.00    +0.007 C 
ENDBRANCH   8  12
ENDBRANCH   2   8
ENDBRANCH   1   5
BRANCH   1  13
ATOM     13  C   LIG    1       26.364 -19.916   5.362  0.00  0.00    +0.004 C 
ATOM     14  C   LIG    1       27.509 -20.580   6.136  0.00  0.00    +0.009 C 
BRANCH  13  15
ATOM     15  C   LIG    1       25.176 -20.890   5.143  0.00  0.00    +0.088 C 
BRANCH  15  16
ATOM     16  N   LIG    1       24.348 -20.631   3.942  0.00  0.00    -0.297 NA
ATOM     17  C   LIG    1       23.055 -21.354   3.879  0.00  0.00    +0.115 C 
ATOM     18  C   LIG    1       21.980 -20.811   4.848  0.00  0.00    +0.130 C 
ATOM     19  C   LIG    1       20.664 -21.572   4.716  0.00  0.00    +0.039 C 
ATOM     20  O   LIG    1       21.725 -19.424   4.569  0.00  0.00    -0.371 OA
ATOM     21  C   LIG    1       22.931 -18.655   4.715  0.00  0.00    +0.130 C 
ATOM     22  C   LIG    1       22.593 -17.204   4.391  0.00  0.00    +0.039 C 
ATOM     23  C   LIG    1       24.053 -19.183   3.787  0.00  0.00    +0.115 C 
ENDBRANCH  15  16
ENDBRANCH  13  15
ENDBRANCH   1  13
TORSDOF 6
ENDMDL
MODEL 8
REMARK VINA RESULT:      -1.0      2.584      6.974
REMARK  Name = *****
REMARK                            x       y       z     vdW  Elec       q    Type
REMARK                         _______ _______ _______ _____ _____    ______ ____
ROOT
ATOM      1  C   LIG    1       23.379 -18.510   3.688  0.00  0.00    +0.039 C 
ENDROOT
BRANCH   1   5
ATOM      2  C   LIG    1       25.821 -14.877   3.753  0.00  0.00    -0.042 A 
ATOM      3  C   LIG    1       24.458 -14.865   4.109  0.00  0.00    +0.004 A 
ATOM      4  C   LIG    1       23.687 -16.034   4.077  0.00  0.00    +0.004 A 
ATOM      5  C   LIG    1       24.235 -17.261   3.708  0.00  0.00    -0.047 A 
ATOM      6  C   LIG    1       25.584 -17.289   3.330  0.00  0.00    +0.004 A 
ATOM      7  C   LIG    1       26.353 -16.112   3.347  0.00  0.00    +0.004 A 
BRANCH   2   8
ATOM      8  C   LIG    1       26.652 -13.569   3.748  0.00  0.00    -0.010 C 
ATOM      9  C   LIG    1       26.403 -12.721   5.022  0.00  0.00    +0.016 C 
ATOM     10  C   LIG    1       28.172 -13.862   3.725  0.00  0.00    +0.016 C 
BRANCH   8  12
ATOM     11  C   LIG    1       24.738 -12.613   2.246  0.00  0.00    +0.004 C 
ATOM     12  C   LIG    1       26.240 -12.751   2.487  0.00  0.00    +0.007 C 
ENDBRANCH   8  12
ENDBRANCH   2   8
ENDBRANCH   1   5
BRANCH   1  13
ATOM     13  C   LIG    1       22.226 -18.617   4.724  0.00  0.00    +0.004 C 
ATOM     14  C   LIG    1       21.496 -17.276   4.868  0.00  0.00    +0.009 C 
BRANCH  13  15
ATOM     15  C   LIG    1       22.686 -19.173   6.098  0.00  0.00    +0.088 C 
BRANCH  15  16
ATOM     16  N   LIG    1       23.048 -20.609   6.118  0.00  0.00    -0.297 NA
ATOM     17  C   LIG    1       23.201 -21.257   4.793  0.00  0.00    +0.115 C 
ATOM     18  C   LIG    1       24.487 -20.851   4.037  0.00  0.00    +0.130 C 
ATOM     19  C   LIG    1       24.606 -21.571   2.697  0.00  0.00    +0.039 C 
ATOM     20  O   LIG    1       25.643 -21.177   4.824  0.00  0.00    -0.371 OA
ATOM     21  C   LIG    1       25.597 -20.493   6.088  0.00  0.00    +0.130 C 
ATOM     22  C   LIG    1       26.839 -20.895   6.875  0.00  0.00    +0.039 C 
ATOM     23  C   LIG    1       24.307 -20.842   6.872  0.00  0.00    +0.115 C 
ENDBRANCH  15  16
ENDBRANCH  13  15
ENDBRANCH   1  13
TORSDOF 6
ENDMDL
