MODEL 1
REMARK VINA RESULT:      -5.5      0.000      0.000
REMARK  Name = *****
REMARK                            x       y       z     vdW  Elec       q    Type
REMARK                         _______ _______ _______ _____ _____    ______ ____
ROOT
ATOM      1  C   LIG    1       28.195 -21.004   6.833  0.00  0.00    +0.044 C 
ATOM      2  C   LIG    1       26.843 -20.649   6.292  0.00  0.00    -0.047 A 
ATOM      3  C   LIG    1       26.727 -19.760   5.214  0.00  0.00    +0.049 A 
ATOM      4  C   LIG    1       25.484 -19.483   4.625  0.00  0.00    +0.125 A 
ATOM      5  C   LIG    1       24.320 -20.106   5.130  0.00  0.00    -0.003 A 
ATOM      6  C   LIG    1       24.452 -20.984   6.222  0.00  0.00    +0.008 A 
ATOM      7  C   LIG    1       25.694 -21.254   6.795  0.00  0.00    +0.004 A 
ENDROOT
BRANCH   5   8
ATOM      8  C   LIG    1       22.961 -19.907   4.463  0.00  0.00    +0.016 C 
ATOM      9  C   LIG    1       22.338 -18.520   4.688  0.00  0.00    +0.012 C 
ATOM     10  C   LIG    1       21.989 -20.990   4.942  0.00  0.00    +0.012 C 
ENDBRANCH   5   8
BRANCH   4  11
ATOM     11  O   LIG    1       25.323 -18.650   3.541  0.00  0.00    -0.480 OA
BRANCH  11  12
ATOM     12  C   LIG    1       26.399 -17.765   3.240  0.00  0.00    +0.356 C 
BRANCH  12  13
ATOM     13  C   LIG    1       25.986 -16.314   3.419  0.00  0.00    +0.319 C 
ATOM     14  N   LIG    1       26.877 -15.274   3.341  0.00  0.00    -0.231 N 
ATOM     15  H   LIG    1       27.850 -15.474   3.555  0.00  0.00    +0.291 HD
ATOM     16  C   LIG    1       26.255 -14.100   3.900  0.00  0.00    +0.273 C 
ATOM     17  C   LIG    1       24.780 -14.514   3.891  0.00  0.00    +0.333 C 
ATOM     18  N   LIG    1       24.752 -15.999   3.752  0.00  0.00    -0.081 NA
ENDBRANCH  12  13
ENDBRANCH  11  12
ENDBRANCH   4  11
TORSDOF 4
ENDMDL
MODEL 2
REMARK VINA RESULT:      -5.4      1.385      1.648
REMARK  Name = *****
REMARK                            x       y       z     vdW  Elec       q    Type
REMARK                         _______ _______ _______ _____ _____    ______ ____
ROOT
ATOM      1  C   LIG    1       29.273 -19.864   6.538  0.00  0.00    +0.044 C 
ATOM      2  C   LIG    1       27.925 -19.772   5.889  0.00  0.00    -0.047 A 
ATOM      3  C   LIG    1       27.700 -18.844   4.863  0.00  0.00    +0.049 A 
ATOM      4  C   LIG    1       26.479 -18.801   4.172  0.00  0.00    +0.125 A 
ATOM      5  C   LIG    1       25.450 -19.705   4.519  0.00  0.00    -0.003 A 
ATOM      6  C   LIG    1       25.687 -20.620   5.562  0.00  0.00    +0.008 A 
ATOM      7  C   LIG    1       26.907 -20.656   6.237  0.00  0.00    +0.004 A 
ENDROOT
BRANCH   5   8
ATOM      8  C   LIG    1       24.140 -19.757   3.735  0.00  0.00    +0.016 C 
ATOM      9  C   LIG    1       22.922 -19.212   4.495  0.00  0.00    +0.012 C 
ATOM     10  C   LIG    1       23.865 -21.196   3.287  0.00  0.00    +0.012 C 
ENDBRANCH   5   8
BRANCH   4  11
ATOM     11  O   LIG    1       26.222 -17.936   3.132  0.00  0.00    -0.480 OA
BRANCH  11  12
ATOM     12  C   LIG    1       25.550 -16.721   3.452  0.00  0.00    +0.356 C 
BRANCH  12  13
ATOM     13  C   LIG    1       26.469 -15.522   3.284  0.00  0.00    +0.319 C 
ATOM     14  N   LIG    1       27.614 -15.356   4.021  0.00  0.00    -0.231 N 
ATOM     15  H   LIG    1       27.654 -15.804   4.931  0.00  0.00    +0.291 HD
ATOM     16  C   LIG    1       28.048 -13.989   3.883  0.00  0.00    +0.273 C 
ATOM     17  C   LIG    1       27.256 -13.549   2.647  0.00  0.00    +0.333 C 
ATOM     18  N   LIG    1       26.149 -14.535   2.474  0.00  0.00    -0.081 NA
ENDBRANCH  12  13
ENDBRANCH  11  12
ENDBRANCH   4  11
TORSDOF 4
ENDMDL
MODEL 3
REMARK VINA RESULT:      -4.7      1.207      3.385
REMARK  Name = *****
REMARK                            x       y       z     vdW  Elec       q    Type
REMARK                         _______ _______ _______ _____ _____    ______ ____
ROOT
ATOM      1  C   LIG    1       22.182 -21.086   4.866  0.00  0.00    +0.044 C 
ATOM      2  C   LIG    1       23.626 -20.887   5.214  0.00  0.00    -0.047 A 
ATOM      3  C   LIG    1       24.400 -19.960   4.502  0.00  0.00    +0.049 A 
ATOM      4  C   LIG    1       25.726 -19.681   4.867  0.00  0.00    +0.125 A 
ATOM      5  C   LIG    1       26.301 -20.354   5.970  0.00  0.00    -0.003 A 
ATOM      6  C   LIG    1       25.515 -21.294   6.663  0.00  0.00    +0.008 A 
ATOM      7  C   LIG    1       24.196 -21.556   6.294  0.00  0.00    +0.004 A 
ENDROOT
BRANCH   5   8
ATOM      8  C   LIG    1       27.708 -20.017   6.460  0.00  0.00    +0.016 C 
ATOM      9  C   LIG    1       28.630 -19.423   5.384  0.00  0.00    +0.012 C 
ATOM     10  C   LIG    1       28.357 -21.268   7.061  0.00  0.00    +0.012 C 
ENDBRANCH   5   8
BRANCH   4  11
ATOM     11  O   LIG    1       26.514 -18.752   4.227  0.00  0.00    -0.480 OA
BRANCH  11  12
ATOM     12  C   LIG    1       25.859 -17.853   3.336  0.00  0.00    +0.356 C 
BRANCH  12  13
ATOM     13  C   LIG    1       26.528 -16.488   3.340  0.00  0.00    +0.319 C 
ATOM     14  N   LIG    1       27.624 -16.200   4.114  0.00  0.00    -0.231 N 
ATOM     15  H   LIG    1       27.755 -16.746   4.959  0.00  0.00    +0.291 HD
ATOM     16  C   LIG    1       27.784 -14.769   4.160  0.00  0.00    +0.273 C 
ATOM     17  C   LIG    1       26.913 -14.334   2.977  0.00  0.00    +0.333 C 
ATOM     18  N   LIG    1       26.017 -15.484   2.658  0.00  0.00    -0.081 NA
ENDBRANCH  12  13
ENDBRANCH  11  12
ENDBRANCH   4  11
TORSDOF 4
ENDMDL
MODEL 4
REMARK VINA RESULT:      -4.2      2.239      4.859
REMARK  Name = *****
REMARK                            x       y       z     vdW  Elec       q    Type
REMARK                         _______ _______ _______ _____ _____    ______ ____
ROOT
ATOM      1  C   LIG    1       23.629 -14.812   4.051  0.00  0.00    +0.044 C 
ATOM      2  C   LIG    1       23.376 -16.286   4.156  0.00  0.00    -0.047 A 
ATOM      3  C   LIG    1       24.398 -17.198   3.861  0.00  0.00    +0.049 A 
ATOM      4  C   LIG    1       24.222 -18.579   4.042  0.00  0.00    +0.125 A 
ATOM      5  C   LIG    1       22.985 -19.065   4.525  0.00  0.00    -0.003 A 
ATOM      6  C   LIG    1       21.964 -18.136   4.802  0.00  0.00    +0.008 A 
ATOM      7  C   LIG    1       22.155 -16.767   4.623  0.00  0.00    +0.004 A 
ENDROOT
BRANCH   5   8
ATOM      8  C   LIG    1       22.778 -20.548   4.826  0.00  0.00    +0.016 C 
ATOM      9  C   LIG    1       21.374 -21.074   4.491  0.00  0.00    +0.012 C 
ATOM     10  C   LIG    1       23.092 -20.823   6.300  0.00  0.00    +0.012 C 
ENDBRANCH   5   8
BRANCH   4  11
ATOM     11  O   LIG    1       25.206 -19.511   3.806  0.00  0.00    -0.480 OA
BRANCH  11  12
ATOM     12  C   LIG    1       26.547 -19.123   4.092  0.00  0.00    +0.356 C 
BRANCH  12  13
ATOM     13  C   LIG    1       27.142 -19.972   5.203  0.00  0.00    +0.319 C 
ATOM     14  N   LIG    1       26.425 -20.936   5.865  0.00  0.00    -0.231 N 
ATOM     15  H   LIG    1       25.416 -20.827   5.900  0.00  0.00    +0.291 HD
ATOM     16  C   LIG    1       27.142 -21.294   7.062  0.00  0.00    +0.273 C 
ATOM     17  C   LIG    1       28.534 -20.731   6.753  0.00  0.00    +0.333 C 
ATOM     18  N   LIG    1       28.363 -19.751   5.642  0.00  0.00    -0.081 NA
ENDBRANCH  12  13
ENDBRANCH  11  12
ENDBRANCH   4  11
TORSDOF 4
ENDMDL
MODEL 5
REMARK VINA RESULT:      -4.2      2.080      4.741
REMARK  Name = *****
REMARK                            x       y       z     vdW  Elec       q    Type
REMARK                         _______ _______ _______ _____ _____    ______ ____
ROOT
ATOM      1  C   LIG    1       26.659 -14.820   3.238  0.00  0.00    +0.044 C 
ATOM      2  C   LIG    1       25.442 -15.649   3.518  0.00  0.00    -0.047 A 
ATOM      3  C   LIG    1       25.488 -17.042   3.366  0.00  0.00    +0.049 A 
ATOM      4  C   LIG    1       24.397 -17.852   3.713  0.00  0.00    +0.125 A 
ATOM      5  C   LIG    1       23.219 -17.256   4.219  0.00  0.00    -0.003 A 
ATOM      6  C   LIG    1       23.184 -15.854   4.351  0.00  0.00    +0.008 A 
ATOM      7  C   LIG    1       24.278 -15.061   4.008  0.00  0.00    +0.004 A 
ENDROOT
BRANCH   5   8
ATOM      8  C   LIG    1       22.041 -18.103   4.696  0.00  0.00    +0.016 C 
ATOM      9  C   LIG    1       22.441 -19.418   5.382  0.00  0.00    +0.012 C 
ATOM     10  C   LIG    1       21.111 -18.401   3.517  0.00  0.00    +0.012 C 
ENDBRANCH   5   8
BRANCH   4  11
ATOM     11  O   LIG    1       24.406 -19.226   3.620  0.00  0.00    -0.480 OA
BRANCH  11  12
ATOM     12  C   LIG    1       25.680 -19.859   3.532  0.00  0.00    +0.356 C 
BRANCH  12  13
ATOM     13  C   LIG    1       26.298 -20.046   4.908  0.00  0.00    +0.319 C 
ATOM     14  N   LIG    1       27.620 -19.790   5.169  0.00  0.00    -0.231 N 
ATOM     15  H   LIG    1       28.271 -19.855   4.392  0.00  0.00    +0.291 HD
ATOM     16  C   LIG    1       27.959 -20.395   6.432  0.00  0.00    +0.273 C 
ATOM     17  C   LIG    1       26.568 -20.635   7.029  0.00  0.00    +0.333 C 
ATOM     18  N   LIG    1       25.598 -20.557   5.899  0.00  0.00    -0.081 NA
ENDBRANCH  12  13
ENDBRANCH  11  12
ENDBRANCH   4  11
TORSDOF 4
ENDMDL
MODEL 6
REMARK VINA RESULT:      -4.0      0.953      3.515
REMARK  Name = *****
REMARK                            x       y       z     vdW  Elec       q    Type
REMARK                         _______ _______ _______ _____ _____    ______ ____
ROOT
ATOM      1  C   LIG    1       21.024 -18.597   3.919  0.00  0.00    +0.044 C 
ATOM      2  C   LIG    1       22.323 -19.251   4.279  0.00  0.00    -0.047 A 
ATOM      3  C   LIG    1       23.537 -18.673   3.880  0.00  0.00    +0.049 A 
ATOM      4  C   LIG    1       24.770 -19.208   4.283  0.00  0.00    +0.125 A 
ATOM      5  C   LIG    1       24.794 -20.359   5.103  0.00  0.00    -0.003 A 
ATOM      6  C   LIG    1       23.567 -20.936   5.482  0.00  0.00    +0.008 A 
ATOM      7  C   LIG    1       22.349 -20.390   5.079  0.00  0.00    +0.004 A 
ENDROOT
BRANCH   5   8
ATOM      8  C   LIG    1       26.107 -20.922   5.642  0.00  0.00    +0.016 C 
ATOM      9  C   LIG    1       26.014 -21.504   7.061  0.00  0.00    +0.012 C 
ATOM     10  C   LIG    1       27.188 -19.837   5.602  0.00  0.00    +0.012 C 
ENDBRANCH   5   8
BRANCH   4  11
ATOM     11  O   LIG    1       25.986 -18.655   3.951  0.00  0.00    -0.480 OA
BRANCH  11  12
ATOM     12  C   LIG    1       25.985 -17.648   2.943  0.00  0.00    +0.356 C 
BRANCH  12  13
ATOM     13  C   LIG    1       26.318 -16.285   3.526  0.00  0.00    +0.319 C 
ATOM     14  N   LIG    1       25.419 -15.249   3.551  0.00  0.00    -0.231 N 
ATOM     15  H   LIG    1       24.686 -15.249   2.849  0.00  0.00    +0.291 HD
ATOM     16  C   LIG    1       26.138 -14.031   3.826  0.00  0.00    +0.273 C 
ATOM     17  C   LIG    1       27.458 -14.583   4.375  0.00  0.00    +0.333 C 
ATOM     18  N   LIG    1       27.532 -16.012   3.955  0.00  0.00    -0.081 NA
ENDBRANCH  12  13
ENDBRANCH  11  12
ENDBRANCH   4  11
TORSDOF 4
ENDMDL
MODEL 7
REMARK VINA RESULT:      -3.9      3.159      5.112
REMARK  Name = *****
REMARK                            x       y       z     vdW  Elec       q    Type
REMARK                         _______ _______ _______ _____ _____    ______ ____
ROOT
ATOM      1  C   LIG    1       22.483 -18.789   4.431  0.00  0.00    +0.044 C 
ATOM      2  C   LIG    1       23.074 -17.414   4.347  0.00  0.00    -0.047 A 
ATOM      3  C   LIG    1       24.328 -17.222   3.751  0.00  0.00    +0.049 A 
ATOM      4  C   LIG    1       24.864 -15.937   3.571  0.00  0.00    +0.125 A 
ATOM      5  C   LIG    1       24.131 -14.810   4.007  0.00  0.00    -0.003 A 
ATOM      6  C   LIG    1       22.880 -15.022   4.617  0.00  0.00    +0.008 A 
ATOM      7  C   LIG    1       22.357 -16.304   4.784  0.00  0.00    +0.004 A 
ENDROOT
BRANCH   5   8
ATOM      8  C   LIG    1       24.630 -13.390   3.749  0.00  0.00    +0.016 C 
ATOM      9  C   LIG    1       24.116 -12.344   4.751  0.00  0.00    +0.012 C 
ATOM     10  C   LIG    1       24.259 -12.963   2.326  0.00  0.00    +0.012 C 
ENDBRANCH   5   8
BRANCH   4  11
ATOM     11  O   LIG    1       26.071 -15.693   2.957  0.00  0.00    -0.480 OA
BRANCH  11  12
ATOM     12  C   LIG    1       27.236 -15.740   3.777  0.00  0.00    +0.356 C 
BRANCH  12  13
ATOM     13  C   LIG    1       27.744 -14.342   4.091  0.00  0.00    +0.319 C 
ATOM     14  N   LIG    1       28.510 -13.617   3.215  0.00  0.00    -0.231 N 
ATOM     15  H   LIG    1       29.064 -14.134   2.539  0.00  0.00    +0.291 HD
ATOM     16  C   LIG    1       29.110 -12.522   3.935  0.00  0.00    +0.273 C 
ATOM     17  C   LIG    1       28.241 -12.485   5.197  0.00  0.00    +0.333 C 
ATOM     18  N   LIG    1       27.541 -13.800   5.274  0.00  0.00    -0.081 NA
ENDBRANCH  12  13
ENDBRANCH  11  12
ENDBRANCH   4  11
TORSDOF 4
ENDMDL
MODEL 8
REMARK VINA RESULT:      -3.6      2.240      3.232
REMARK  Name = *****
REMARK                            x       y       z     vdW  Elec       q    Type
REMARK                         _______ _______ _______ _____ _____    ______ ____
ROOT
ATOM      1  C   LIG    1       24.287 -21.535   3.844  0.00  0.00    +0.044 C 
ATOM      2  C   LIG    1       23.891 -20.112   4.098  0.00  0.00    -0.047 A 
ATOM      3  C   LIG    1       24.686 -19.063   3.616  0.00  0.00    +0.049 A 
ATOM      4  C   LIG    1       24.291 -17.723   3.753  0.00  0.00    +0.125 A 
ATOM      5  C   LIG    1       23.070 -17.420   4.398  0.00  0.00    -0.003 A 
ATOM      6  C   LIG    1       22.291 -18.484   4.890  0.00  0.00    +0.008 A 
ATOM      7  C   LIG    1       22.693 -19.811   4.741  0.00  0.00    +0.004 A 
ENDROOT
BRANCH   5   8
ATOM      8  C   LIG    1       22.556 -15.985   4.489  0.00  0.00    +0.016 C 
ATOM      9  C   LIG    1       23.633 -14.909   4.280  0.00  0.00    +0.012 C 
ATOM     10  C   LIG    1       21.868 -15.768   5.840  0.00  0.00    +0.012 C 
ENDBRANCH   5   8
BRANCH   4  11
ATOM     11  O   LIG    1       25.016 -16.660   3.263  0.00  0.00    -0.480 OA
BRANCH  11  12
ATOM     12  C   LIG    1       26.430 -16.711   3.430  0.00  0.00    +0.356 C 
BRANCH  12  13
ATOM     13  C   LIG    1       27.044 -15.322   3.359  0.00  0.00    +0.319 C 
ATOM     14  N   LIG    1       27.977 -14.876   4.260  0.00  0.00    -0.231 N 
ATOM     15  H   LIG    1       27.974 -15.299   5.183  0.00  0.00    +0.291 HD
ATOM     16  C   LIG    1       28.080 -13.444   4.135  0.00  0.00    +0.273 C 
ATOM     17  C   LIG    1       27.418 -13.217   2.772  0.00  0.00    +0.333 C 
ATOM     18  N   LIG    1       26.630 -14.446   2.468  0.00  0.00    -0.081 NA
ENDBRANCH  12  13
ENDBRANCH  11  12
ENDBRANCH   4  11
TORSDOF 4
ENDMDL
MODEL 9
REMARK VINA RESULT:      -3.3      2.296      5.751
REMARK  Name = *****
REMARK                            x       y       z     vdW  Elec       q    Type
REMARK                         _______ _______ _______ _____ _____    ______ ____
ROOT
ATOM      1  C   LIG    1       21.525 -17.081   4.707  0.00  0.00    +0.044 C 
ATOM      2  C   LIG    1       22.890 -16.549   4.391  0.00  0.00    -0.047 A 
ATOM      3  C   LIG    1       23.906 -17.421   3.975  0.00  0.00    +0.049 A 
ATOM      4  C   LIG    1       25.164 -16.942   3.580  0.00  0.00    +0.125 A 
ATOM      5  C   LIG    1       25.420 -15.552   3.608  0.00  0.00    -0.003 A 
ATOM      6  C   LIG    1       24.394 -14.692   4.043  0.00  0.00    +0.008 A 
ATOM      7  C   LIG    1       23.146 -15.181   4.427  0.00  0.00    +0.004 A 
ENDROOT
BRANCH   5   8
ATOM      8  C   LIG    1       26.741 -14.978   3.100  0.00  0.00    +0.016 C 
ATOM      9  C   LIG    1       27.757 -14.648   4.204  0.00  0.00    +0.012 C 
ATOM     10  C   LIG    1       26.470 -13.725   2.262  0.00  0.00    +0.012 C 
ENDBRANCH   5   8
BRANCH   4  11
ATOM     11  O   LIG    1       26.181 -17.752   3.126  0.00  0.00    -0.480 OA
BRANCH  11  12
ATOM     12  C   LIG    1       25.996 -19.158   3.261  0.00  0.00    +0.356 C 
BRANCH  12  13
ATOM     13  C   LIG    1       26.485 -19.651   4.613  0.00  0.00    +0.319 C 
ATOM     14  N   LIG    1       27.786 -19.516   5.026  0.00  0.00    -0.231 N 
ATOM     15  H   LIG    1       28.501 -19.451   4.307  0.00  0.00    +0.291 HD
ATOM     16  C   LIG    1       27.995 -20.380   6.159  0.00  0.00    +0.273 C 
ATOM     17  C   LIG    1       26.551 -20.672   6.581  0.00  0.00    +0.333 C 
ATOM     18  N   LIG    1       25.686 -20.320   5.417  0.00  0.00    -0.081 NA
ENDBRANCH  12  13
ENDBRANCH  11  12
ENDBRANCH   4  11
TORSDOF 4
ENDMDL
