MODEL 1
REMARK VINA RESULT:      -5.5      0.000      0.000
REMARK  Name = *****
REMARK                            x       y       z     vdW  Elec       q    Type
REMARK                         _______ _______ _______ _____ _____    ______ ____
ROOT
ATOM      1  N   LIG    1       23.204 -15.164   3.894  0.00  0.00    -0.311 N 
ATOM      2  H   LIG    1       22.660 -15.167   3.042  0.00  0.00    +0.149 HD
ATOM      3  C   LIG    1       24.090 -14.128   4.090  0.00  0.00    +0.230 C 
ATOM      4  O   LIG    1       24.657 -13.917   5.166  0.00  0.00    -0.274 OA
ENDROOT
BRANCH   1   6
ATOM      5  C   LIG    1       21.900 -15.416   5.952  0.00  0.00    +0.028 C 
ATOM      6  C   LIG    1       22.817 -16.113   4.943  0.00  0.00    +0.074 C 
BRANCH   6   7
ATOM      7  C   LIG    1       22.094 -17.341   4.347  0.00  0.00    +0.057 C 
BRANCH   7   8
ATOM      8  C   LIG    1       22.901 -18.616   4.446  0.00  0.00    -0.046 A 
ATOM      9  C   LIG    1       22.512 -19.634   5.329  0.00  0.00    +0.003 A 
ATOM     10  C   LIG    1       23.236 -20.823   5.405  0.00  0.00    +0.000 A 
ATOM     11  C   LIG    1       24.362 -21.003   4.605  0.00  0.00    +0.000 A 
ATOM     12  C   LIG    1       24.759 -20.000   3.724  0.00  0.00    +0.000 A 
ATOM     13  C   LIG    1       24.030 -18.812   3.641  0.00  0.00    +0.003 A 
ENDBRANCH   7   8
ENDBRANCH   6   7
ENDBRANCH   1   6
BRANCH   3  14
ATOM     14  C   LIG    1       24.296 -13.217   2.853  0.00  0.00    +0.138 C 
BRANCH  14  15
ATOM     15  N   LIG    1       23.655 -11.908   3.088  0.00  0.00    -0.320 NA
ATOM     16  H   LIG    1       22.652 -12.015   2.927  0.00  0.00    +0.119 HD
ATOM     17  H   LIG    1       23.717 -11.716   4.092  0.00  0.00    +0.119 HD
ENDBRANCH  14  15
BRANCH  14  18
ATOM     18  C   LIG    1       25.787 -13.034   2.523  0.00  0.00    +0.028 C 
BRANCH  18  19
ATOM     19  C   LIG    1       26.578 -14.352   2.428  0.00  0.00    +0.003 C 
BRANCH  19  20
ATOM     20  C   LIG    1       27.599 -14.497   3.560  0.00  0.00    +0.015 C 
BRANCH  20  21
ATOM     21  C   LIG    1       27.958 -13.153   4.184  0.00  0.00    +0.077 C 
BRANCH  21  22
ATOM     22  N   LIG    1       27.470 -13.101   5.559  0.00  0.00    -0.330 NA
ATOM     23  H   LIG    1       28.005 -13.753   6.130  0.00  0.00    +0.118 HD
ATOM     24  H   LIG    1       27.633 -12.174   5.951  0.00  0.00    +0.118 HD
ENDBRANCH  21  22
ENDBRANCH  20  21
ENDBRANCH  19  20
ENDBRANCH  18  19
ENDBRANCH  14  18
ENDBRANCH   3  14
TORSDOF 10
ENDMDL
MODEL 2
REMARK VINA RESULT:      -5.5      0.048      1.109
REMARK  Name = *****
REMARK                            x       y       z     vdW  Elec       q    Type
REMARK                         _______ _______ _______ _____ _____    ______ ____
ROOT
ATOM      1  N   LIG    1       23.206 -15.190   3.878  0.00  0.00    -0.311 N 
ATOM      2  H   LIG    1       22.679 -15.207   3.015  0.00  0.00    +0.149 HD
ATOM      3  C   LIG    1       24.072 -14.140   4.084  0.00  0.00    +0.230 C 
ATOM      4  O   LIG    1       24.616 -13.913   5.168  0.00  0.00    -0.274 OA
ENDROOT
BRANCH   1   6
ATOM      5  C   LIG    1       21.896 -15.440   5.931  0.00  0.00    +0.028 C 
ATOM      6  C   LIG    1       22.814 -16.139   4.925  0.00  0.00    +0.074 C 
BRANCH   6   7
ATOM      7  C   LIG    1       22.091 -17.366   4.327  0.00  0.00    +0.057 C 
BRANCH   7   8
ATOM      8  C   LIG    1       22.897 -18.641   4.423  0.00  0.00    -0.046 A 
ATOM      9  C   LIG    1       24.043 -18.817   3.633  0.00  0.00    +0.003 A 
ATOM     10  C   LIG    1       24.806 -19.979   3.738  0.00  0.00    +0.000 A 
ATOM     11  C   LIG    1       24.427 -20.981   4.628  0.00  0.00    +0.000 A 
ATOM     12  C   LIG    1       23.292 -20.818   5.419  0.00  0.00    +0.000 A 
ATOM     13  C   LIG    1       22.531 -19.652   5.321  0.00  0.00    +0.003 A 
ENDBRANCH   7   8
ENDBRANCH   6   7
ENDBRANCH   1   6
BRANCH   3  14
ATOM     14  C   LIG    1       24.288 -13.234   2.845  0.00  0.00    +0.138 C 
BRANCH  14  15
ATOM     15  N   LIG    1       23.654 -11.920   3.075  0.00  0.00    -0.320 NA
ATOM     16  H   LIG    1       24.391 -11.212   3.077  0.00  0.00    +0.119 HD
ATOM     17  H   LIG    1       23.109 -11.696   2.237  0.00  0.00    +0.119 HD
ENDBRANCH  14  15
BRANCH  14  18
ATOM     18  C   LIG    1       25.781 -13.061   2.518  0.00  0.00    +0.028 C 
BRANCH  18  19
ATOM     19  C   LIG    1       26.568 -14.383   2.449  0.00  0.00    +0.003 C 
BRANCH  19  20
ATOM     20  C   LIG    1       27.569 -14.521   3.599  0.00  0.00    +0.015 C 
BRANCH  20  21
ATOM     21  C   LIG    1       27.902 -13.175   4.235  0.00  0.00    +0.077 C 
BRANCH  21  22
ATOM     22  N   LIG    1       27.377 -13.129   5.596  0.00  0.00    -0.330 NA
ATOM     23  H   LIG    1       26.423 -12.772   5.576  0.00  0.00    +0.118 HD
ATOM     24  H   LIG    1       27.324 -14.071   5.981  0.00  0.00    +0.118 HD
ENDBRANCH  21  22
ENDBRANCH  20  21
ENDBRANCH  19  20
ENDBRANCH  18  19
ENDBRANCH  14  18
ENDBRANCH   3  14
TORSDOF 10
ENDMDL
MODEL 3
REMARK VINA RESULT:      -5.0      1.515      2.357
REMARK  Name = *****
REMARK                            x       y       z     vdW  Elec       q    Type
REMARK                         _______ _______ _______ _____ _____    ______ ____
ROOT
ATOM      1  N   LIG    1       23.319 -16.877   3.921  0.00  0.00    -0.311 N 
ATOM      2  H   LIG    1       23.818 -16.885   3.042  0.00  0.00    +0.149 HD
ATOM      3  C   LIG    1       23.106 -15.661   4.532  0.00  0.00    +0.230 C 
ATOM      4  O   LIG    1       22.351 -15.511   5.496  0.00  0.00    -0.274 OA
ENDROOT
BRANCH   1   6
ATOM      5  C   LIG    1       21.234 -18.151   3.766  0.00  0.00    +0.028 C 
ATOM      6  C   LIG    1       22.657 -18.120   4.331  0.00  0.00    +0.074 C 
BRANCH   6   7
ATOM      7  C   LIG    1       23.438 -19.358   3.839  0.00  0.00    +0.057 C 
BRANCH   7   8
ATOM      8  C   LIG    1       24.078 -20.145   4.960  0.00  0.00    -0.046 A 
ATOM      9  C   LIG    1       25.475 -20.219   5.066  0.00  0.00    +0.003 A 
ATOM     10  C   LIG    1       26.071 -20.920   6.114  0.00  0.00    +0.000 A 
ATOM     11  C   LIG    1       25.277 -21.561   7.062  0.00  0.00    +0.000 A 
ATOM     12  C   LIG    1       23.888 -21.495   6.968  0.00  0.00    +0.000 A 
ATOM     13  C   LIG    1       23.290 -20.786   5.924  0.00  0.00    +0.003 A 
ENDBRANCH   7   8
ENDBRANCH   6   7
ENDBRANCH   1   6
BRANCH   3  14
ATOM     14  C   LIG    1       23.869 -14.477   3.886  0.00  0.00    +0.138 C 
BRANCH  14  15
ATOM     15  N   LIG    1       23.965 -13.362   4.850  0.00  0.00    -0.320 NA
ATOM     16  H   LIG    1       24.778 -12.798   4.599  0.00  0.00    +0.119 HD
ATOM     17  H   LIG    1       23.174 -12.737   4.670  0.00  0.00    +0.119 HD
ENDBRANCH  14  15
BRANCH  14  18
ATOM     18  C   LIG    1       25.271 -14.895   3.408  0.00  0.00    +0.028 C 
BRANCH  18  19
ATOM     19  C   LIG    1       26.005 -13.817   2.589  0.00  0.00    +0.003 C 
BRANCH  19  20
ATOM     20  C   LIG    1       27.379 -13.481   3.175  0.00  0.00    +0.015 C 
BRANCH  20  21
ATOM     21  C   LIG    1       27.550 -14.031   4.587  0.00  0.00    +0.077 C 
BRANCH  21  22
ATOM     22  N   LIG    1       27.106 -13.039   5.561  0.00  0.00    -0.330 NA
ATOM     23  H   LIG    1       26.140 -12.784   5.363  0.00  0.00    +0.118 HD
ATOM     24  H   LIG    1       27.112 -13.443   6.496  0.00  0.00    +0.118 HD
ENDBRANCH  21  22
ENDBRANCH  20  21
ENDBRANCH  19  20
ENDBRANCH  18  19
ENDBRANCH  14  18
ENDBRANCH   3  14
TORSDOF 10
ENDMDL
MODEL 4
REMARK VINA RESULT:      -4.7      1.987      2.870
REMARK  Name = *****
REMARK                            x       y       z     vdW  Elec       q    Type
REMARK                         _______ _______ _______ _____ _____    ______ ____
ROOT
ATOM      1  N   LIG    1       25.424 -16.471   3.515  0.00  0.00    -0.311 N 
ATOM      2  H   LIG    1       24.737 -16.592   4.248  0.00  0.00    +0.149 HD
ATOM      3  C   LIG    1       25.705 -15.189   3.099  0.00  0.00    +0.230 C 
ATOM      4  O   LIG    1       26.652 -14.909   2.360  0.00  0.00    -0.274 OA
ENDROOT
BRANCH   1   6
ATOM      5  C   LIG    1       27.154 -18.010   4.312  0.00  0.00    +0.028 C 
ATOM      6  C   LIG    1       26.229 -17.640   3.148  0.00  0.00    +0.074 C 
BRANCH   6   7
ATOM      7  C   LIG    1       25.335 -18.847   2.792  0.00  0.00    +0.057 C 
BRANCH   7   8
ATOM      8  C   LIG    1       24.534 -19.365   3.965  0.00  0.00    -0.046 A 
ATOM      9  C   LIG    1       23.204 -18.957   4.151  0.00  0.00    +0.003 A 
ATOM     10  C   LIG    1       22.452 -19.452   5.215  0.00  0.00    +0.000 A 
ATOM     11  C   LIG    1       23.023 -20.354   6.110  0.00  0.00    +0.000 A 
ATOM     12  C   LIG    1       24.342 -20.767   5.936  0.00  0.00    +0.000 A 
ATOM     13  C   LIG    1       25.095 -20.278   4.866  0.00  0.00    +0.003 A 
ENDBRANCH   7   8
ENDBRANCH   6   7
ENDBRANCH   1   6
BRANCH   3  14
ATOM     14  C   LIG    1       24.749 -14.108   3.665  0.00  0.00    +0.138 C 
BRANCH  14  15
ATOM     15  N   LIG    1       23.674 -14.753   4.445  0.00  0.00    -0.320 NA
ATOM     16  H   LIG    1       24.106 -15.436   5.070  0.00  0.00    +0.119 HD
ATOM     17  H   LIG    1       23.298 -14.048   5.085  0.00  0.00    +0.119 HD
ENDBRANCH  14  15
BRANCH  14  18
ATOM     18  C   LIG    1       25.500 -13.081   4.532  0.00  0.00    +0.028 C 
BRANCH  18  19
ATOM     19  C   LIG    1       26.501 -13.704   5.522  0.00  0.00    +0.003 C 
BRANCH  19  20
ATOM     20  C   LIG    1       27.897 -13.086   5.400  0.00  0.00    +0.015 C 
BRANCH  20  21
ATOM     21  C   LIG    1       28.167 -12.553   3.997  0.00  0.00    +0.077 C 
BRANCH  21  22
ATOM     22  N   LIG    1       29.188 -13.369   3.347  0.00  0.00    -0.330 NA
ATOM     23  H   LIG    1       28.874 -14.338   3.314  0.00  0.00    +0.118 HD
ATOM     24  H   LIG    1       29.306 -13.072   2.379  0.00  0.00    +0.118 HD
ENDBRANCH  21  22
ENDBRANCH  20  21
ENDBRANCH  19  20
ENDBRANCH  18  19
ENDBRANCH  14  18
ENDBRANCH   3  14
TORSDOF 10
ENDMDL
MODEL 5
REMARK VINA RESULT:      -4.7      2.576      5.958
REMARK  Name = *****
REMARK                            x       y       z     vdW  Elec       q    Type
REMARK                         _______ _______ _______ _____ _____    ______ ____
ROOT
ATOM      1  N   LIG    1       23.447 -16.872   4.195  0.00  0.00    -0.311 N 
ATOM      2  H   LIG    1       24.446 -16.863   4.347  0.00  0.00    +0.149 HD
ATOM      3  C   LIG    1       22.826 -18.094   4.062  0.00  0.00    +0.230 C 
ATOM      4  O   LIG    1       21.600 -18.235   4.067  0.00  0.00    -0.274 OA
ENDROOT
BRANCH   1   6
ATOM      5  C   LIG    1       22.592 -15.313   5.878  0.00  0.00    +0.028 C 
ATOM      6  C   LIG    1       22.725 -15.609   4.381  0.00  0.00    +0.074 C 
BRANCH   6   7
ATOM      7  C   LIG    1       23.454 -14.440   3.683  0.00  0.00    +0.057 C 
BRANCH   7   8
ATOM      8  C   LIG    1       24.935 -14.395   3.982  0.00  0.00    -0.046 A 
ATOM      9  C   LIG    1       25.820 -15.253   3.312  0.00  0.00    +0.003 A 
ATOM     10  C   LIG    1       27.190 -15.197   3.562  0.00  0.00    +0.000 A 
ATOM     11  C   LIG    1       27.690 -14.288   4.492  0.00  0.00    +0.000 A 
ATOM     12  C   LIG    1       26.822 -13.430   5.164  0.00  0.00    +0.000 A 
ATOM     13  C   LIG    1       25.450 -13.479   4.908  0.00  0.00    +0.003 A 
ENDBRANCH   7   8
ENDBRANCH   6   7
ENDBRANCH   1   6
BRANCH   3  14
ATOM     14  C   LIG    1       23.796 -19.296   3.938  0.00  0.00    +0.138 C 
BRANCH  14  15
ATOM     15  N   LIG    1       25.161 -18.807   3.660  0.00  0.00    -0.320 NA
ATOM     16  H   LIG    1       25.389 -19.044   2.693  0.00  0.00    +0.119 HD
ATOM     17  H   LIG    1       25.120 -17.784   3.653  0.00  0.00    +0.119 HD
ENDBRANCH  14  15
BRANCH  14  18
ATOM     18  C   LIG    1       23.786 -20.169   5.205  0.00  0.00    +0.028 C 
BRANCH  18  19
ATOM     19  C   LIG    1       25.041 -21.046   5.376  0.00  0.00    +0.003 C 
BRANCH  19  20
ATOM     20  C   LIG    1       25.724 -20.822   6.728  0.00  0.00    +0.015 C 
BRANCH  20  21
ATOM     21  C   LIG    1       27.194 -20.447   6.572  0.00  0.00    +0.077 C 
BRANCH  21  22
ATOM     22  N   LIG    1       27.464 -20.072   5.187  0.00  0.00    -0.330 NA
ATOM     23  H   LIG    1       26.970 -19.206   4.972  0.00  0.00    +0.118 HD
ATOM     24  H   LIG    1       28.456 -19.874   5.067  0.00  0.00    +0.118 HD
ENDBRANCH  21  22
ENDBRANCH  20  21
ENDBRANCH  19  20
ENDBRANCH  18  19
ENDBRANCH  14  18
ENDBRANCH   3  14
TORSDOF 10
ENDMDL
MODEL 6
REMARK VINA RESULT:      -4.5      3.003      4.603
REMARK  Name = *****
REMARK                            x       y       z     vdW  Elec       q    Type
REMARK                         _______ _______ _______ _____ _____    ______ ____
ROOT
ATOM      1  N   LIG    1       27.484 -19.133   4.812  0.00  0.00    -0.311 N 
ATOM      2  H   LIG    1       26.578 -19.247   4.378  0.00  0.00    +0.149 HD
ATOM      3  C   LIG    1       28.126 -17.925   4.659  0.00  0.00    +0.230 C 
ATOM      4  O   LIG    1       29.133 -17.607   5.297  0.00  0.00    -0.274 OA
ENDROOT
BRANCH   1   6
ATOM      5  C   LIG    1       29.204 -19.725   6.451  0.00  0.00    +0.028 C 
ATOM      6  C   LIG    1       27.909 -20.166   5.763  0.00  0.00    +0.074 C 
BRANCH   6   7
ATOM      7  C   LIG    1       26.820 -20.430   6.826  0.00  0.00    +0.057 C 
BRANCH   7   8
ATOM      8  C   LIG    1       25.449 -20.660   6.232  0.00  0.00    -0.046 A 
ATOM      9  C   LIG    1       24.320 -20.734   7.062  0.00  0.00    +0.003 A 
ATOM     10  C   LIG    1       23.050 -20.917   6.518  0.00  0.00    +0.000 A 
ATOM     11  C   LIG    1       22.895 -21.038   5.139  0.00  0.00    +0.000 A 
ATOM     12  C   LIG    1       24.008 -20.966   4.303  0.00  0.00    +0.000 A 
ATOM     13  C   LIG    1       25.280 -20.774   4.846  0.00  0.00    +0.003 A 
ENDBRANCH   7   8
ENDBRANCH   6   7
ENDBRANCH   1   6
BRANCH   3  14
ATOM     14  C   LIG    1       27.458 -16.969   3.639  0.00  0.00    +0.138 C 
BRANCH  14  15
ATOM     15  N   LIG    1       26.118 -17.478   3.283  0.00  0.00    -0.320 NA
ATOM     16  H   LIG    1       25.480 -17.242   4.044  0.00  0.00    +0.119 HD
ATOM     17  H   LIG    1       25.777 -16.914   2.500  0.00  0.00    +0.119 HD
ENDBRANCH  14  15
BRANCH  14  18
ATOM     18  C   LIG    1       27.359 -15.533   4.182  0.00  0.00    +0.028 C 
BRANCH  18  19
ATOM     19  C   LIG    1       26.496 -14.591   3.323  0.00  0.00    +0.003 C 
BRANCH  19  20
ATOM     20  C   LIG    1       25.562 -13.724   4.172  0.00  0.00    +0.015 C 
BRANCH  20  21
ATOM     21  C   LIG    1       24.117 -13.795   3.689  0.00  0.00    +0.077 C 
BRANCH  21  22
ATOM     22  N   LIG    1       23.880 -12.759   2.688  0.00  0.00    -0.330 NA
ATOM     23  H   LIG    1       23.385 -13.165   1.896  0.00  0.00    +0.118 HD
ATOM     24  H   LIG    1       23.269 -12.039   3.071  0.00  0.00    +0.118 HD
ENDBRANCH  21  22
ENDBRANCH  20  21
ENDBRANCH  19  20
ENDBRANCH  18  19
ENDBRANCH  14  18
ENDBRANCH   3  14
TORSDOF 10
ENDMDL
MODEL 7
REMARK VINA RESULT:      -4.5      2.712      7.031
REMARK  Name = *****
REMARK                            x       y       z     vdW  Elec       q    Type
REMARK                         _______ _______ _______ _____ _____    ______ ____
ROOT
ATOM      1  N   LIG    1       25.077 -16.994   3.456  0.00  0.00    -0.311 N 
ATOM      2  H   LIG    1       24.292 -16.657   2.916  0.00  0.00    +0.149 HD
ATOM      3  C   LIG    1       25.165 -18.348   3.692  0.00  0.00    +0.230 C 
ATOM      4  O   LIG    1       26.168 -18.889   4.164  0.00  0.00    -0.274 OA
ENDROOT
BRANCH   1   6
ATOM      5  C   LIG    1       27.502 -16.805   3.744  0.00  0.00    +0.028 C 
ATOM      6  C   LIG    1       26.170 -16.050   3.716  0.00  0.00    +0.074 C 
BRANCH   6   7
ATOM      7  C   LIG    1       26.222 -14.944   2.640  0.00  0.00    +0.057 C 
BRANCH   7   8
ATOM      8  C   LIG    1       25.368 -13.743   2.976  0.00  0.00    -0.046 A 
ATOM      9  C   LIG    1       24.996 -12.835   1.973  0.00  0.00    +0.003 A 
ATOM     10  C   LIG    1       24.185 -11.741   2.272  0.00  0.00    +0.000 A 
ATOM     11  C   LIG    1       23.745 -11.538   3.577  0.00  0.00    +0.000 A 
ATOM     12  C   LIG    1       24.107 -12.432   4.582  0.00  0.00    +0.000 A 
ATOM     13  C   LIG    1       24.912 -13.533   4.283  0.00  0.00    +0.003 A 
ENDBRANCH   7   8
ENDBRANCH   6   7
ENDBRANCH   1   6
BRANCH   3  14
ATOM     14  C   LIG    1       23.906 -19.153   3.280  0.00  0.00    +0.138 C 
BRANCH  14  15
ATOM     15  N   LIG    1       24.268 -20.569   3.071  0.00  0.00    -0.320 NA
ATOM     16  H   LIG    1       24.515 -20.967   3.979  0.00  0.00    +0.119 HD
ATOM     17  H   LIG    1       23.410 -21.066   2.816  0.00  0.00    +0.119 HD
ENDBRANCH  14  15
BRANCH  14  18
ATOM     18  C   LIG    1       22.786 -19.034   4.328  0.00  0.00    +0.028 C 
BRANCH  18  19
ATOM     19  C   LIG    1       22.465 -20.350   5.060  0.00  0.00    +0.003 C 
BRANCH  19  20
ATOM     20  C   LIG    1       23.141 -20.429   6.432  0.00  0.00    +0.015 C 
BRANCH  20  21
ATOM     21  C   LIG    1       24.160 -21.562   6.504  0.00  0.00    +0.077 C 
BRANCH  21  22
ATOM     22  N   LIG    1       25.452 -21.095   6.011  0.00  0.00    -0.330 NA
ATOM     23  H   LIG    1       25.357 -20.140   5.671  0.00  0.00    +0.118 HD
ATOM     24  H   LIG    1       26.125 -21.063   6.776  0.00  0.00    +0.118 HD
ENDBRANCH  21  22
ENDBRANCH  20  21
ENDBRANCH  19  20
ENDBRANCH  18  19
ENDBRANCH  14  18
ENDBRANCH   3  14
TORSDOF 10
ENDMDL
MODEL 8
REMARK VINA RESULT:      -4.4      2.257      3.714
REMARK  Name = *****
REMARK                            x       y       z     vdW  Elec       q    Type
REMARK                         _______ _______ _______ _____ _____    ______ ____
ROOT
ATOM      1  N   LIG    1       25.943 -17.528   3.337  0.00  0.00    -0.311 N 
ATOM      2  H   LIG    1       24.960 -17.333   3.203  0.00  0.00    +0.149 HD
ATOM      3  C   LIG    1       26.779 -16.467   3.606  0.00  0.00    +0.230 C 
ATOM      4  O   LIG    1       27.948 -16.604   3.976  0.00  0.00    -0.274 OA
ENDROOT
BRANCH   1   6
ATOM      5  C   LIG    1       26.937 -19.154   4.874  0.00  0.00    +0.028 C 
ATOM      6  C   LIG    1       26.338 -18.933   3.483  0.00  0.00    +0.074 C 
BRANCH   6   7
ATOM      7  C   LIG    1       25.132 -19.877   3.280  0.00  0.00    +0.057 C 
BRANCH   7   8
ATOM      8  C   LIG    1       24.463 -20.277   4.575  0.00  0.00    -0.046 A 
ATOM      9  C   LIG    1       25.065 -21.218   5.423  0.00  0.00    +0.003 A 
ATOM     10  C   LIG    1       24.466 -21.571   6.632  0.00  0.00    +0.000 A 
ATOM     11  C   LIG    1       23.254 -20.993   7.001  0.00  0.00    +0.000 A 
ATOM     12  C   LIG    1       22.645 -20.057   6.168  0.00  0.00    +0.000 A 
ATOM     13  C   LIG    1       23.248 -19.696   4.961  0.00  0.00    +0.003 A 
ENDBRANCH   7   8
ENDBRANCH   6   7
ENDBRANCH   1   6
BRANCH   3  14
ATOM     14  C   LIG    1       26.122 -15.074   3.440  0.00  0.00    +0.138 C 
BRANCH  14  15
ATOM     15  N   LIG    1       26.486 -14.505   2.127  0.00  0.00    -0.320 NA
ATOM     16  H   LIG    1       26.391 -15.244   1.428  0.00  0.00    +0.119 HD
ATOM     17  H   LIG    1       25.753 -13.838   1.872  0.00  0.00    +0.119 HD
ENDBRANCH  14  15
BRANCH  14  18
ATOM     18  C   LIG    1       24.592 -15.144   3.590  0.00  0.00    +0.028 C 
BRANCH  18  19
ATOM     19  C   LIG    1       23.989 -14.010   4.439  0.00  0.00    +0.003 C 
BRANCH  19  20
ATOM     20  C   LIG    1       24.660 -12.661   4.164  0.00  0.00    +0.015 C 
BRANCH  20  21
ATOM     21  C   LIG    1       23.858 -11.811   3.184  0.00  0.00    +0.077 C 
BRANCH  21  22
ATOM     22  N   LIG    1       24.213 -12.170   1.814  0.00  0.00    -0.330 NA
ATOM     23  H   LIG    1       24.721 -11.398   1.385  0.00  0.00    +0.118 HD
ATOM     24  H   LIG    1       24.849 -12.966   1.816  0.00  0.00    +0.118 HD
ENDBRANCH  21  22
ENDBRANCH  20  21
ENDBRANCH  19  20
ENDBRANCH  18  19
ENDBRANCH  14  18
ENDBRANCH   3  14
TORSDOF 10
ENDMDL
MODEL 9
REMARK VINA RESULT:      -4.4      2.312      6.336
REMARK  Name = *****
REMARK                            x       y       z     vdW  Elec       q    Type
REMARK                         _______ _______ _______ _____ _____    ______ ____
ROOT
ATOM      1  N   LIG    1       24.196 -16.520   3.795  0.00  0.00    -0.311 N 
ATOM      2  H   LIG    1       25.141 -16.160   3.811  0.00  0.00    +0.149 HD
ATOM      3  C   LIG    1       24.026 -17.885   3.751  0.00  0.00    +0.230 C 
ATOM      4  O   LIG    1       22.936 -18.438   3.922  0.00  0.00    -0.274 OA
ENDROOT
BRANCH   1   6
ATOM      5  C   LIG    1       22.579 -15.808   5.491  0.00  0.00    +0.028 C 
ATOM      6  C   LIG    1       23.111 -15.573   4.074  0.00  0.00    +0.074 C 
BRANCH   6   7
ATOM      7  C   LIG    1       23.592 -14.113   3.935  0.00  0.00    +0.057 C 
BRANCH   7   8
ATOM      8  C   LIG    1       25.097 -13.984   3.863  0.00  0.00    -0.046 A 
ATOM      9  C   LIG    1       25.841 -13.710   5.020  0.00  0.00    +0.003 A 
ATOM     10  C   LIG    1       27.231 -13.618   4.965  0.00  0.00    +0.000 A 
ATOM     11  C   LIG    1       27.891 -13.790   3.751  0.00  0.00    +0.000 A 
ATOM     12  C   LIG    1       27.164 -14.062   2.594  0.00  0.00    +0.000 A 
ATOM     13  C   LIG    1       25.772 -14.163   2.649  0.00  0.00    +0.003 A 
ENDBRANCH   7   8
ENDBRANCH   6   7
ENDBRANCH   1   6
BRANCH   3  14
ATOM     14  C   LIG    1       25.329 -18.686   3.500  0.00  0.00    +0.138 C 
BRANCH  14  15
ATOM     15  N   LIG    1       26.453 -17.752   3.291  0.00  0.00    -0.320 NA
ATOM     16  H   LIG    1       26.108 -16.962   2.743  0.00  0.00    +0.119 HD
ATOM     17  H   LIG    1       26.675 -17.335   4.199  0.00  0.00    +0.119 HD
ENDBRANCH  14  15
BRANCH  14  18
ATOM     18  C   LIG    1       25.639 -19.648   4.661  0.00  0.00    +0.028 C 
BRANCH  18  19
ATOM     19  C   LIG    1       24.792 -20.934   4.656  0.00  0.00    +0.003 C 
BRANCH  19  20
ATOM     20  C   LIG    1       24.316 -21.319   6.060  0.00  0.00    +0.015 C 
BRANCH  20  21
ATOM     21  C   LIG    1       22.812 -21.571   6.105  0.00  0.00    +0.077 C 
BRANCH  21  22
ATOM     22  N   LIG    1       22.210 -21.200   4.829  0.00  0.00    -0.330 NA
ATOM     23  H   LIG    1       22.421 -20.224   4.629  0.00  0.00    +0.118 HD
ATOM     24  H   LIG    1       22.628 -21.744   4.075  0.00  0.00    +0.118 HD
ENDBRANCH  21  22
ENDBRANCH  20  21
ENDBRANCH  19  20
ENDBRANCH  18  19
ENDBRANCH  14  18
ENDBRANCH   3  14
TORSDOF 10
ENDMDL
