MODEL 1
REMARK VINA RESULT:      -2.5      0.000      0.000
REMARK  Name = *****
REMARK                            x       y       z     vdW  Elec       q    Type
REMARK                         _______ _______ _______ _____ _____    ______ ____
ROOT
ATOM      1  S   LIG    1       25.938 -17.908   3.452  0.00  0.00    +0.074 S 
ATOM      2  O   LIG    1       27.003 -18.066   4.424  0.00  0.00    -0.150 OA
ATOM      3  O   LIG    1       26.150 -18.092   2.036  0.00  0.00    -0.150 OA
ENDROOT
BRANCH   1   4
ATOM      4  C   LIG    1       24.636 -19.011   3.951  0.00  0.00    +0.109 A 
ATOM      5  C   LIG    1       24.923 -20.343   4.252  0.00  0.00    +0.030 A 
ATOM      6  C   LIG    1       23.894 -21.184   4.691  0.00  0.00    +0.024 A 
ATOM      7  C   LIG    1       22.595 -20.696   4.863  0.00  0.00    +0.025 A 
ATOM      8  C   LIG    1       22.315 -19.377   4.486  0.00  0.00    +0.024 A 
ATOM      9  C   LIG    1       23.334 -18.523   4.059  0.00  0.00    +0.030 A 
BRANCH   7  10
ATOM     10  N   LIG    1       21.552 -21.572   5.186  0.00  0.00    -0.358 N 
ATOM     11  H   LIG    1       21.797 -22.255   5.897  0.00  0.00    +0.142 HD
ATOM     12  H   LIG    1       20.674 -21.106   5.397  0.00  0.00    +0.142 HD
ENDBRANCH   7  10
ENDBRANCH   1   4
BRANCH   1  13
ATOM     13  N   LIG    1       25.185 -16.390   3.634  0.00  0.00    -0.192 N 
ATOM     14  H   LIG    1       24.545 -16.332   2.839  0.00  0.00    +0.176 HD
BRANCH  13  18
ATOM     15  C   LIG    1       28.897 -12.725   3.688  0.00  0.00    +0.075 C 
ATOM     16  C   LIG    1       27.806 -13.688   3.390  0.00  0.00    +0.101 A 
ATOM     17  S   LIG    1       27.193 -14.743   4.605  0.00  0.00    -0.035 S 
ATOM     18  C   LIG    1       26.154 -15.374   3.405  0.00  0.00    +0.201 A 
ATOM     19  N   LIG    1       26.215 -14.768   2.245  0.00  0.00    -0.124 NA
ATOM     20  N   LIG    1       27.209 -13.810   2.222  0.00  0.00    -0.145 NA
ENDBRANCH  13  18
ENDBRANCH   1  13
TORSDOF 4
ENDMDL
MODEL 2
REMARK VINA RESULT:      -2.2      3.570      4.678
REMARK  Name = *****
REMARK                            x       y       z     vdW  Elec       q    Type
REMARK                         _______ _______ _______ _____ _____    ______ ____
ROOT
ATOM      1  S   LIG    1       23.266 -20.229   5.007  0.00  0.00    +0.074 S 
ATOM      2  O   LIG    1       22.783 -21.563   4.709  0.00  0.00    -0.150 OA
ATOM      3  O   LIG    1       22.603 -19.360   5.951  0.00  0.00    -0.150 OA
ENDROOT
BRANCH   1   4
ATOM      4  C   LIG    1       24.953 -20.411   5.534  0.00  0.00    +0.109 A 
ATOM      5  C   LIG    1       25.253 -21.135   6.690  0.00  0.00    +0.030 A 
ATOM      6  C   LIG    1       26.589 -21.310   7.062  0.00  0.00    +0.024 A 
ATOM      7  C   LIG    1       27.625 -20.800   6.273  0.00  0.00    +0.025 A 
ATOM      8  C   LIG    1       27.301 -20.016   5.160  0.00  0.00    +0.024 A 
ATOM      9  C   LIG    1       25.972 -19.843   4.769  0.00  0.00    +0.030 A 
BRANCH   7  10
ATOM     10  N   LIG    1       28.950 -20.877   6.717  0.00  0.00    -0.358 N 
ATOM     11  H   LIG    1       29.594 -21.246   6.023  0.00  0.00    +0.142 HD
ATOM     12  H   LIG    1       29.296 -20.016   7.133  0.00  0.00    +0.142 HD
ENDBRANCH   7  10
ENDBRANCH   1   4
BRANCH   1  13
ATOM     13  N   LIG    1       23.454 -19.329   3.573  0.00  0.00    -0.192 N 
ATOM     14  H   LIG    1       24.438 -19.457   3.324  0.00  0.00    +0.176 HD
BRANCH  13  18
ATOM     15  C   LIG    1       23.872 -14.211   4.488  0.00  0.00    +0.075 C 
ATOM     16  C   LIG    1       23.483 -15.636   4.342  0.00  0.00    +0.101 A 
ATOM     17  S   LIG    1       24.577 -16.797   3.695  0.00  0.00    -0.035 S 
ATOM     18  C   LIG    1       23.328 -17.947   3.886  0.00  0.00    +0.201 A 
ATOM     19  N   LIG    1       22.245 -17.496   4.469  0.00  0.00    -0.124 NA
ATOM     20  N   LIG    1       22.317 -16.136   4.698  0.00  0.00    -0.145 NA
ENDBRANCH  13  18
ENDBRANCH   1  13
TORSDOF 4
ENDMDL
MODEL 3
REMARK VINA RESULT:      -1.8      2.583      7.077
REMARK  Name = *****
REMARK                            x       y       z     vdW  Elec       q    Type
REMARK                         _______ _______ _______ _____ _____    ______ ____
ROOT
ATOM      1  S   LIG    1       24.284 -14.738   3.931  0.00  0.00    +0.074 S 
ATOM      2  O   LIG    1       23.679 -14.873   5.242  0.00  0.00    -0.150 OA
ATOM      3  O   LIG    1       23.598 -14.113   2.824  0.00  0.00    -0.150 OA
ENDROOT
BRANCH   1   4
ATOM      4  C   LIG    1       25.818 -13.875   4.172  0.00  0.00    +0.109 A 
ATOM      5  C   LIG    1       26.240 -13.541   5.461  0.00  0.00    +0.030 A 
ATOM      6  C   LIG    1       27.474 -12.906   5.635  0.00  0.00    +0.024 A 
ATOM      7  C   LIG    1       28.300 -12.634   4.541  0.00  0.00    +0.025 A 
ATOM      8  C   LIG    1       27.826 -12.910   3.253  0.00  0.00    +0.024 A 
ATOM      9  C   LIG    1       26.602 -13.555   3.064  0.00  0.00    +0.030 A 
BRANCH   7  10
ATOM     10  N   LIG    1       29.475 -11.892   4.714  0.00  0.00    -0.358 N 
ATOM     11  H   LIG    1       29.512 -11.047   4.153  0.00  0.00    +0.142 HD
ATOM     12  H   LIG    1       29.706 -11.710   5.687  0.00  0.00    +0.142 HD
ENDBRANCH   7  10
ENDBRANCH   1   4
BRANCH   1  13
ATOM     13  N   LIG    1       24.830 -16.250   3.368  0.00  0.00    -0.192 N 
ATOM     14  H   LIG    1       24.654 -16.220   2.360  0.00  0.00    +0.176 HD
BRANCH  13  18
ATOM     15  C   LIG    1       22.293 -20.532   4.931  0.00  0.00    +0.075 C 
ATOM     16  C   LIG    1       22.765 -19.174   4.559  0.00  0.00    +0.101 A 
ATOM     17  S   LIG    1       24.339 -18.925   3.906  0.00  0.00    -0.035 S 
ATOM     18  C   LIG    1       23.960 -17.260   3.866  0.00  0.00    +0.201 A 
ATOM     19  N   LIG    1       22.735 -16.962   4.220  0.00  0.00    -0.124 NA
ATOM     20  N   LIG    1       22.048 -18.074   4.665  0.00  0.00    -0.145 NA
ENDBRANCH  13  18
ENDBRANCH   1  13
TORSDOF 4
ENDMDL
MODEL 4
REMARK VINA RESULT:      -1.6      2.997      3.750
REMARK  Name = *****
REMARK                            x       y       z     vdW  Elec       q    Type
REMARK                         _______ _______ _______ _____ _____    ______ ____
ROOT
ATOM      1  S   LIG    1       26.060 -17.467   3.435  0.00  0.00    +0.074 S 
ATOM      2  O   LIG    1       26.094 -18.071   2.117  0.00  0.00    -0.150 OA
ATOM      3  O   LIG    1       24.826 -17.073   4.073  0.00  0.00    -0.150 OA
ENDROOT
BRANCH   1   4
ATOM      4  C   LIG    1       26.895 -18.595   4.525  0.00  0.00    +0.109 A 
ATOM      5  C   LIG    1       26.233 -19.725   5.007  0.00  0.00    +0.030 A 
ATOM      6  C   LIG    1       26.921 -20.627   5.824  0.00  0.00    +0.024 A 
ATOM      7  C   LIG    1       28.271 -20.429   6.132  0.00  0.00    +0.025 A 
ATOM      8  C   LIG    1       28.895 -19.253   5.699  0.00  0.00    +0.024 A 
ATOM      9  C   LIG    1       28.224 -18.349   4.873  0.00  0.00    +0.030 A 
BRANCH   7  10
ATOM     10  N   LIG    1       28.915 -21.272   7.045  0.00  0.00    -0.358 N 
ATOM     11  H   LIG    1       28.658 -21.100   8.012  0.00  0.00    +0.142 HD
ATOM     12  H   LIG    1       28.855 -22.258   6.807  0.00  0.00    +0.142 HD
ENDBRANCH   7  10
ENDBRANCH   1   4
BRANCH   1  13
ATOM     13  N   LIG    1       27.090 -16.111   3.496  0.00  0.00    -0.192 N 
ATOM     14  H   LIG    1       27.337 -16.029   4.485  0.00  0.00    +0.176 HD
BRANCH  13  18
ATOM     15  C   LIG    1       23.954 -11.948   3.282  0.00  0.00    +0.075 C 
ATOM     16  C   LIG    1       24.895 -13.074   3.057  0.00  0.00    +0.101 A 
ATOM     17  S   LIG    1       25.285 -14.175   4.322  0.00  0.00    -0.035 S 
ATOM     18  C   LIG    1       26.324 -14.947   3.207  0.00  0.00    +0.201 A 
ATOM     19  N   LIG    1       26.286 -14.465   1.990  0.00  0.00    -0.124 NA
ATOM     20  N   LIG    1       25.484 -13.344   1.910  0.00  0.00    -0.145 NA
ENDBRANCH  13  18
ENDBRANCH   1  13
TORSDOF 4
ENDMDL
MODEL 5
REMARK VINA RESULT:      -0.9      1.860      1.990
REMARK  Name = *****
REMARK                            x       y       z     vdW  Elec       q    Type
REMARK                         _______ _______ _______ _____ _____    ______ ____
ROOT
ATOM      1  S   LIG    1       26.269 -16.919   3.572  0.00  0.00    +0.074 S 
ATOM      2  O   LIG    1       27.589 -17.266   4.064  0.00  0.00    -0.150 OA
ATOM      3  O   LIG    1       26.034 -16.526   2.202  0.00  0.00    -0.150 OA
ENDROOT
BRANCH   1   4
ATOM      4  C   LIG    1       25.221 -18.310   3.923  0.00  0.00    +0.109 A 
ATOM      5  C   LIG    1       25.780 -19.566   4.166  0.00  0.00    +0.030 A 
ATOM      6  C   LIG    1       24.942 -20.638   4.489  0.00  0.00    +0.024 A 
ATOM      7  C   LIG    1       23.560 -20.458   4.605  0.00  0.00    +0.025 A 
ATOM      8  C   LIG    1       23.014 -19.210   4.285  0.00  0.00    +0.024 A 
ATOM      9  C   LIG    1       23.839 -18.127   3.973  0.00  0.00    +0.030 A 
BRANCH   7  10
ATOM     10  N   LIG    1       22.723 -21.561   4.810  0.00  0.00    -0.358 N 
ATOM     11  H   LIG    1       21.774 -21.422   4.474  0.00  0.00    +0.142 HD
ATOM     12  H   LIG    1       23.114 -22.441   4.485  0.00  0.00    +0.142 HD
ENDBRANCH   7  10
ENDBRANCH   1   4
BRANCH   1  13
ATOM     13  N   LIG    1       25.568 -15.711   4.548  0.00  0.00    -0.192 N 
ATOM     14  H   LIG    1       24.602 -16.022   4.675  0.00  0.00    +0.176 HD
BRANCH  13  18
ATOM     15  C   LIG    1       24.323 -11.447   1.813  0.00  0.00    +0.075 C 
ATOM     16  C   LIG    1       24.955 -12.591   2.518  0.00  0.00    +0.101 A 
ATOM     17  S   LIG    1       24.004 -13.758   3.353  0.00  0.00    -0.035 S 
ATOM     18  C   LIG    1       25.474 -14.512   3.787  0.00  0.00    +0.201 A 
ATOM     19  N   LIG    1       26.548 -13.976   3.262  0.00  0.00    -0.124 NA
ATOM     20  N   LIG    1       26.251 -12.828   2.554  0.00  0.00    -0.145 NA
ENDBRANCH  13  18
ENDBRANCH   1  13
TORSDOF 4
ENDMDL
MODEL 6
REMARK VINA RESULT:      -0.6      3.312      4.284
REMARK  Name = *****
REMARK                            x       y       z     vdW  Elec       q    Type
REMARK                         _______ _______ _______ _____ _____    ______ ____
ROOT
ATOM      1  S   LIG    1       27.669 -14.189   3.701  0.00  0.00    +0.074 S 
ATOM      2  O   LIG    1       27.259 -13.601   4.962  0.00  0.00    -0.150 OA
ATOM      3  O   LIG    1       29.021 -14.087   3.204  0.00  0.00    -0.150 OA
ENDROOT
BRANCH   1   4
ATOM      4  C   LIG    1       27.258 -15.915   3.796  0.00  0.00    +0.109 A 
ATOM      5  C   LIG    1       28.116 -16.806   4.444  0.00  0.00    +0.030 A 
ATOM      6  C   LIG    1       27.752 -18.152   4.552  0.00  0.00    +0.024 A 
ATOM      7  C   LIG    1       26.528 -18.606   4.051  0.00  0.00    +0.025 A 
ATOM      8  C   LIG    1       25.717 -17.712   3.342  0.00  0.00    +0.024 A 
ATOM      9  C   LIG    1       26.061 -16.363   3.236  0.00  0.00    +0.030 A 
BRANCH   7  10
ATOM     10  N   LIG    1       26.229 -19.973   4.058  0.00  0.00    -0.358 N 
ATOM     11  H   LIG    1       26.573 -20.463   4.878  0.00  0.00    +0.142 HD
ATOM     12  H   LIG    1       25.250 -20.181   3.877  0.00  0.00    +0.142 HD
ENDBRANCH   7  10
ENDBRANCH   1   4
BRANCH   1  13
ATOM     13  N   LIG    1       26.650 -13.666   2.440  0.00  0.00    -0.192 N 
ATOM     14  H   LIG    1       27.214 -12.979   1.932  0.00  0.00    +0.176 HD
BRANCH  13  18
ATOM     15  C   LIG    1       22.851 -11.452   5.246  0.00  0.00    +0.075 C 
ATOM     16  C   LIG    1       23.828 -11.914   4.228  0.00  0.00    +0.101 A 
ATOM     17  S   LIG    1       25.016 -13.101   4.607  0.00  0.00    -0.035 S 
ATOM     18  C   LIG    1       25.577 -12.922   3.004  0.00  0.00    +0.201 A 
ATOM     19  N   LIG    1       24.864 -12.118   2.254  0.00  0.00    -0.124 NA
ATOM     20  N   LIG    1       23.867 -11.496   2.979  0.00  0.00    -0.145 NA
ENDBRANCH  13  18
ENDBRANCH   1  13
TORSDOF 4
ENDMDL
MODEL 7
REMARK VINA RESULT:      -0.5      2.315      6.316
REMARK  Name = *****
REMARK                            x       y       z     vdW  Elec       q    Type
REMARK                         _______ _______ _______ _____ _____    ______ ____
ROOT
ATOM      1  S   LIG    1       25.808 -17.853   3.320  0.00  0.00    +0.074 S 
ATOM      2  O   LIG    1       26.628 -17.843   2.124  0.00  0.00    -0.150 OA
ATOM      3  O   LIG    1       26.287 -18.371   4.581  0.00  0.00    -0.150 OA
ENDROOT
BRANCH   1   4
ATOM      4  C   LIG    1       25.290 -16.175   3.588  0.00  0.00    +0.109 A 
ATOM      5  C   LIG    1       26.161 -15.119   3.314  0.00  0.00    +0.030 A 
ATOM      6  C   LIG    1       25.719 -13.803   3.483  0.00  0.00    +0.024 A 
ATOM      7  C   LIG    1       24.408 -13.535   3.889  0.00  0.00    +0.025 A 
ATOM      8  C   LIG    1       23.575 -14.608   4.229  0.00  0.00    +0.024 A 
ATOM      9  C   LIG    1       23.998 -15.926   4.053  0.00  0.00    +0.030 A 
BRANCH   7  10
ATOM     10  N   LIG    1       24.014 -12.222   4.171  0.00  0.00    -0.358 N 
ATOM     11  H   LIG    1       24.707 -11.524   3.920  0.00  0.00    +0.142 HD
ATOM     12  H   LIG    1       23.092 -11.984   3.815  0.00  0.00    +0.142 HD
ENDBRANCH   7  10
ENDBRANCH   1   4
BRANCH   1  13
ATOM     13  N   LIG    1       24.320 -18.624   3.016  0.00  0.00    -0.192 N 
ATOM     14  H   LIG    1       23.622 -17.893   3.178  0.00  0.00    +0.176 HD
BRANCH  13  18
ATOM     15  C   LIG    1       22.853 -21.572   7.062  0.00  0.00    +0.075 C 
ATOM     16  C   LIG    1       23.480 -20.938   5.874  0.00  0.00    +0.101 A 
ATOM     17  S   LIG    1       22.888 -19.450   5.241  0.00  0.00    -0.035 S 
ATOM     18  C   LIG    1       24.092 -19.588   4.037  0.00  0.00    +0.201 A 
ATOM     19  N   LIG    1       24.903 -20.606   4.179  0.00  0.00    -0.124 NA
ATOM     20  N   LIG    1       24.522 -21.420   5.228  0.00  0.00    -0.145 NA
ENDBRANCH  13  18
ENDBRANCH   1  13
TORSDOF 4
ENDMDL
MODEL 8
REMARK VINA RESULT:      -0.5      2.923      3.655
REMARK  Name = *****
REMARK                            x       y       z     vdW  Elec       q    Type
REMARK                         _______ _______ _______ _____ _____    ______ ____
ROOT
ATOM      1  S   LIG    1       22.421 -19.155   4.074  0.00  0.00    +0.074 S 
ATOM      2  O   LIG    1       22.839 -19.036   2.690  0.00  0.00    -0.150 OA
ATOM      3  O   LIG    1       21.220 -19.857   4.461  0.00  0.00    -0.150 OA
ENDROOT
BRANCH   1   4
ATOM      4  C   LIG    1       23.782 -19.890   4.948  0.00  0.00    +0.109 A 
ATOM      5  C   LIG    1       25.027 -20.016   4.330  0.00  0.00    +0.030 A 
ATOM      6  C   LIG    1       26.099 -20.551   5.051  0.00  0.00    +0.024 A 
ATOM      7  C   LIG    1       25.946 -20.928   6.389  0.00  0.00    +0.025 A 
ATOM      8  C   LIG    1       24.673 -20.861   6.966  0.00  0.00    +0.024 A 
ATOM      9  C   LIG    1       23.596 -20.317   6.263  0.00  0.00    +0.030 A 
BRANCH   7  10
ATOM     10  N   LIG    1       26.991 -21.572   7.062  0.00  0.00    -0.358 N 
ATOM     11  H   LIG    1       26.918 -21.523   8.073  0.00  0.00    +0.142 HD
ATOM     12  H   LIG    1       27.163 -22.520   6.741  0.00  0.00    +0.142 HD
ENDBRANCH   7  10
ENDBRANCH   1   4
BRANCH   1  13
ATOM     13  N   LIG    1       22.337 -17.618   4.805  0.00  0.00    -0.192 N 
ATOM     14  H   LIG    1       21.495 -17.197   4.405  0.00  0.00    +0.176 HD
BRANCH  13  18
ATOM     15  C   LIG    1       25.762 -14.005   3.247  0.00  0.00    +0.075 C 
ATOM     16  C   LIG    1       24.979 -15.224   3.572  0.00  0.00    +0.101 A 
ATOM     17  S   LIG    1       23.454 -15.119   4.364  0.00  0.00    -0.035 S 
ATOM     18  C   LIG    1       23.414 -16.826   4.318  0.00  0.00    +0.201 A 
ATOM     19  N   LIG    1       24.412 -17.387   3.681  0.00  0.00    -0.124 NA
ATOM     20  N   LIG    1       25.349 -16.454   3.280  0.00  0.00    -0.145 NA
ENDBRANCH  13  18
ENDBRANCH   1  13
TORSDOF 4
ENDMDL
MODEL 9
REMARK VINA RESULT:      -0.4      2.908      6.389
REMARK  Name = *****
REMARK                            x       y       z     vdW  Elec       q    Type
REMARK                         _______ _______ _______ _____ _____    ______ ____
ROOT
ATOM      1  S   LIG    1       25.132 -20.832   4.885  0.00  0.00    +0.074 S 
ATOM      2  O   LIG    1       24.560 -21.382   3.672  0.00  0.00    -0.150 OA
ATOM      3  O   LIG    1       26.063 -21.572   5.706  0.00  0.00    -0.150 OA
ENDROOT
BRANCH   1   4
ATOM      4  C   LIG    1       25.915 -19.305   4.423  0.00  0.00    +0.109 A 
ATOM      5  C   LIG    1       25.256 -18.404   3.586  0.00  0.00    +0.030 A 
ATOM      6  C   LIG    1       25.867 -17.186   3.273  0.00  0.00    +0.024 A 
ATOM      7  C   LIG    1       27.111 -16.848   3.815  0.00  0.00    +0.025 A 
ATOM      8  C   LIG    1       27.787 -17.796   4.592  0.00  0.00    +0.024 A 
ATOM      9  C   LIG    1       27.184 -19.011   4.924  0.00  0.00    +0.030 A 
BRANCH   7  10
ATOM     10  N   LIG    1       27.766 -15.682   3.401  0.00  0.00    -0.358 N 
ATOM     11  H   LIG    1       27.677 -14.909   4.054  0.00  0.00    +0.142 HD
ATOM     12  H   LIG    1       28.731 -15.830   3.120  0.00  0.00    +0.142 HD
ENDBRANCH   7  10
ENDBRANCH   1   4
BRANCH   1  13
ATOM     13  N   LIG    1       23.902 -20.281   5.928  0.00  0.00    -0.192 N 
ATOM     14  H   LIG    1       23.685 -21.094   6.509  0.00  0.00    +0.176 HD
BRANCH  13  18
ATOM     15  C   LIG    1       19.837 -18.556   3.151  0.00  0.00    +0.075 C 
ATOM     16  C   LIG    1       20.857 -19.308   3.926  0.00  0.00    +0.101 A 
ATOM     17  S   LIG    1       22.245 -18.520   4.572  0.00  0.00    -0.035 S 
ATOM     18  C   LIG    1       22.728 -20.049   5.159  0.00  0.00    +0.201 A 
ATOM     19  N   LIG    1       21.866 -21.017   4.960  0.00  0.00    -0.124 NA
ATOM     20  N   LIG    1       20.791 -20.594   4.203  0.00  0.00    -0.145 NA
ENDBRANCH  13  18
ENDBRANCH   1  13
TORSDOF 4
ENDMDL
