MODEL 1
REMARK VINA RESULT:      11.4      0.000      0.000
REMARK  Name = *****
REMARK                            x       y       z     vdW  Elec       q    Type
REMARK                         _______ _______ _______ _____ _____    ______ ____
ROOT
ATOM      1  C   LIG    1       22.729 -18.797   4.387  0.00  0.00    +0.064 A 
ATOM      2  C   LIG    1       23.900 -19.579   4.214  0.00  0.00    +0.049 A 
ATOM      3  I   LIG    1       23.759 -21.568   3.354  0.00  0.00    -0.041 I 
ATOM      4  C   LIG    1       25.179 -18.975   4.314  0.00  0.00    +0.065 A 
ATOM      5  C   LIG    1       25.257 -17.577   4.151  0.00  0.00    +0.040 A 
ATOM      6  I   LIG    1       27.067 -16.818   3.286  0.00  0.00    -0.042 I 
ATOM      7  C   LIG    1       24.118 -16.768   4.329  0.00  0.00    +0.065 A 
ATOM      8  C   LIG    1       22.904 -17.413   4.636  0.00  0.00    +0.049 A 
ATOM      9  I   LIG    1       21.387 -16.324   5.740  0.00  0.00    -0.041 I 
ENDROOT
BRANCH   4  10
ATOM     10  C   LIG    1       26.396 -19.767   4.746  0.00  0.00    +0.246 C 
ATOM     11  N   LIG    1       26.565 -19.940   6.120  0.00  0.00    -0.309 N 
ATOM     12  H   LIG    1       25.954 -19.492   6.791  0.00  0.00    +0.149 HD
ATOM     13  O   LIG    1       27.152 -20.282   3.964  0.00  0.00    -0.270 OA
BRANCH  11  14
ATOM     14  C   LIG    1       27.651 -20.755   6.664  0.00  0.00    +0.138 C 
BRANCH  14  15
ATOM     15  C   LIG    1       29.025 -20.103   6.449  0.00  0.00    +0.157 C 
BRANCH  15  16
ATOM     16  O   LIG    1       29.475 -20.328   5.096  0.00  0.00    -0.388 OA
ATOM     17  H   LIG    1       28.687 -20.476   4.541  0.00  0.00    +0.210 HD
ENDBRANCH  15  16
BRANCH  15  18
ATOM     18  C   LIG    1       29.010 -18.592   6.722  0.00  0.00    +0.188 C 
BRANCH  18  19
ATOM     19  O   LIG    1       29.475 -17.892   5.567  0.00  0.00    -0.392 OA
ATOM     20  H   LIG    1       28.992 -18.263   4.803  0.00  0.00    +0.209 HD
ENDBRANCH  18  19
ENDBRANCH  15  18
ENDBRANCH  14  15
ENDBRANCH  11  14
ENDBRANCH   4  10
BRANCH   7  21
ATOM     21  C   LIG    1       24.109 -15.279   4.146  0.00  0.00    +0.246 C 
ATOM     22  N   LIG    1       25.223 -14.597   4.571  0.00  0.00    -0.309 N 
ATOM     23  H   LIG    1       26.079 -15.133   4.565  0.00  0.00    +0.149 HD
ATOM     24  O   LIG    1       23.138 -14.718   3.637  0.00  0.00    -0.270 OA
BRANCH  22  25
ATOM     25  C   LIG    1       25.343 -13.147   4.414  0.00  0.00    +0.138 C 
BRANCH  25  26
ATOM     26  C   LIG    1       26.786 -12.665   4.655  0.00  0.00    +0.157 C 
BRANCH  26  27
ATOM     27  O   LIG    1       27.278 -13.158   5.914  0.00  0.00    -0.388 OA
ATOM     28  H   LIG    1       26.637 -12.902   6.599  0.00  0.00    +0.210 HD
ENDBRANCH  26  27
BRANCH  26  29
ATOM     29  C   LIG    1       27.752 -13.123   3.555  0.00  0.00    +0.188 C 
BRANCH  29  30
ATOM     30  O   LIG    1       27.048 -13.436   2.356  0.00  0.00    -0.392 OA
ATOM     31  H   LIG    1       26.542 -14.250   2.545  0.00  0.00    +0.209 HD
ENDBRANCH  29  30
ENDBRANCH  26  29
ENDBRANCH  25  26
ENDBRANCH  22  25
ENDBRANCH   7  21
BRANCH   1  34
ATOM     32  O   LIG    1       19.904 -21.057   4.572  0.00  0.00    -0.273 OA
ATOM     33  C   LIG    1       21.070 -20.645   4.609  0.00  0.00    +0.245 C 
ATOM     34  N   LIG    1       21.406 -19.338   4.208  0.00  0.00    -0.265 N 
BRANCH  34  35
ATOM     35  C   LIG    1       20.336 -18.454   3.685  0.00  0.00    +0.141 C 
BRANCH  35  36
ATOM     36  C   LIG    1       20.417 -18.165   2.178  0.00  0.00    +0.175 C 
BRANCH  36  37
ATOM     37  O   LIG    1       19.866 -16.892   1.849  0.00  0.00    -0.393 OA
ATOM     38  H   LIG    1       18.898 -16.955   1.871  0.00  0.00    +0.209 HD
ENDBRANCH  36  37
ENDBRANCH  35  36
ENDBRANCH  34  35
BRANCH  33  39
ATOM     39  C   LIG    1       22.162 -21.565   5.213  0.00  0.00    +0.252 C 
BRANCH  39  40
ATOM     40  O   LIG    1       22.539 -21.222   6.534  0.00  0.00    -0.386 OA
ATOM     41  H   LIG    1       22.108 -21.869   7.119  0.00  0.00    +0.210 HD
ENDBRANCH  39  40
ENDBRANCH  33  39
ENDBRANCH   1  34
TORSDOF 18
ENDMDL
MODEL 2
REMARK VINA RESULT:      13.1      1.611      5.427
REMARK  Name = *****
REMARK                            x       y       z     vdW  Elec       q    Type
REMARK                         _______ _______ _______ _____ _____    ______ ____
ROOT
ATOM      1  C   LIG    1       23.813 -17.872   3.705  0.00  0.00    +0.064 A 
ATOM      2  C   LIG    1       24.399 -16.582   3.622  0.00  0.00    +0.049 A 
ATOM      3  I   LIG    1       23.175 -14.813   3.915  0.00  0.00    -0.041 I 
ATOM      4  C   LIG    1       25.809 -16.440   3.649  0.00  0.00    +0.065 A 
ATOM      5  C   LIG    1       26.565 -17.505   4.182  0.00  0.00    +0.040 A 
ATOM      6  I   LIG    1       28.397 -16.975   5.162  0.00  0.00    -0.042 I 
ATOM      7  C   LIG    1       26.019 -18.800   4.266  0.00  0.00    +0.065 A 
ATOM      8  C   LIG    1       24.690 -18.976   3.835  0.00  0.00    +0.049 A 
ATOM      9  I   LIG    1       24.070 -20.926   3.116  0.00  0.00    -0.041 I 
ENDROOT
BRANCH   4  10
ATOM     10  C   LIG    1       26.499 -15.268   2.980  0.00  0.00    +0.246 C 
ATOM     11  N   LIG    1       27.733 -14.892   3.512  0.00  0.00    -0.309 N 
ATOM     12  H   LIG    1       28.105 -15.326   4.347  0.00  0.00    +0.149 HD
ATOM     13  O   LIG    1       26.057 -14.720   2.004  0.00  0.00    -0.270 OA
BRANCH  11  14
ATOM     14  C   LIG    1       28.540 -13.833   2.907  0.00  0.00    +0.138 C 
BRANCH  14  15
ATOM     15  C   LIG    1       28.281 -12.467   3.559  0.00  0.00    +0.157 C 
BRANCH  15  16
ATOM     16  O   LIG    1       27.013 -12.477   4.247  0.00  0.00    -0.388 OA
ATOM     17  H   LIG    1       26.425 -13.100   3.781  0.00  0.00    +0.210 HD
ENDBRANCH  15  16
BRANCH  15  18
ATOM     18  C   LIG    1       29.382 -12.070   4.553  0.00  0.00    +0.188 C 
BRANCH  18  19
ATOM     19  O   LIG    1       28.813 -11.892   5.851  0.00  0.00    -0.392 OA
ATOM     20  H   LIG    1       28.870 -10.938   6.052  0.00  0.00    +0.209 HD
ENDBRANCH  18  19
ENDBRANCH  15  18
ENDBRANCH  14  15
ENDBRANCH  11  14
ENDBRANCH   4  10
BRANCH   7  21
ATOM     21  C   LIG    1       26.744 -19.979   4.846  0.00  0.00    +0.246 C 
ATOM     22  N   LIG    1       26.784 -20.066   6.216  0.00  0.00    -0.309 N 
ATOM     23  H   LIG    1       26.015 -19.622   6.696  0.00  0.00    +0.149 HD
ATOM     24  O   LIG    1       27.269 -20.814   4.110  0.00  0.00    -0.270 OA
BRANCH  22  25
ATOM     25  C   LIG    1       27.434 -21.188   6.896  0.00  0.00    +0.138 C 
BRANCH  25  26
ATOM     26  C   LIG    1       28.969 -21.069   6.853  0.00  0.00    +0.157 C 
BRANCH  26  27
ATOM     27  O   LIG    1       29.475 -21.531   5.587  0.00  0.00    -0.388 OA
ATOM     28  H   LIG    1       29.635 -22.488   5.668  0.00  0.00    +0.210 HD
ENDBRANCH  26  27
BRANCH  26  29
ATOM     29  C   LIG    1       29.455 -19.629   7.061  0.00  0.00    +0.188 C 
BRANCH  29  30
ATOM     30  O   LIG    1       29.131 -18.814   5.939  0.00  0.00    -0.392 OA
ATOM     31  H   LIG    1       28.805 -17.969   6.304  0.00  0.00    +0.209 HD
ENDBRANCH  29  30
ENDBRANCH  26  29
ENDBRANCH  25  26
ENDBRANCH  22  25
ENDBRANCH   7  21
BRANCH   1  34
ATOM     32  O   LIG    1       20.577 -19.117   4.757  0.00  0.00    -0.273 OA
ATOM     33  C   LIG    1       21.803 -19.041   4.607  0.00  0.00    +0.245 C 
ATOM     34  N   LIG    1       22.387 -18.069   3.772  0.00  0.00    -0.265 N 
BRANCH  34  35
ATOM     35  C   LIG    1       21.501 -17.148   3.020  0.00  0.00    +0.141 C 
BRANCH  35  36
ATOM     36  C   LIG    1       20.004 -17.481   3.102  0.00  0.00    +0.175 C 
BRANCH  36  37
ATOM     37  O   LIG    1       19.631 -18.494   2.171  0.00  0.00    -0.393 OA
ATOM     38  H   LIG    1       18.676 -18.430   2.005  0.00  0.00    +0.209 HD
ENDBRANCH  36  37
ENDBRANCH  35  36
ENDBRANCH  34  35
BRANCH  33  39
ATOM     39  C   LIG    1       22.712 -19.976   5.446  0.00  0.00    +0.252 C 
BRANCH  39  40
ATOM     40  O   LIG    1       22.137 -21.238   5.727  0.00  0.00    -0.386 OA
ATOM     41  H   LIG    1       22.835 -21.770   6.148  0.00  0.00    +0.210 HD
ENDBRANCH  39  40
ENDBRANCH  33  39
ENDBRANCH   1  34
TORSDOF 18
ENDMDL
