MODEL 1
REMARK VINA RESULT:      -8.1      0.000      0.000
REMARK  Name = *****
REMARK                            x       y       z     vdW  Elec       q    Type
REMARK                         _______ _______ _______ _____ _____    ______ ____
ROOT
ATOM      1  C   LIG    1       25.093 -22.954   6.164  0.00  0.00    +0.062 A 
ATOM      2  C   LIG    1       23.702 -22.924   6.439  0.00  0.00    +0.131 A 
ATOM      3  C   LIG    1       23.023 -24.149   6.637  0.00  0.00    +0.048 A 
ATOM      4  C   LIG    1       23.690 -25.367   6.640  0.00  0.00    +0.032 A 
ATOM      5  C   LIG    1       25.048 -25.397   6.385  0.00  0.00    +0.106 A 
ATOM      6  C   LIG    1       25.743 -24.213   6.113  0.00  0.00    +0.043 A 
ENDROOT
BRANCH   1  13
ATOM      7  C   LIG    1       28.941 -20.115   7.191  0.00  0.00    +0.132 A 
ATOM      8  N   LIG    1       27.803 -20.511   6.514  0.00  0.00    -0.210 N 
ATOM      9  C   LIG    1       27.577 -19.591   5.532  0.00  0.00    +0.152 A 
ATOM     10  C   LIG    1       26.453 -19.739   4.673  0.00  0.00    +0.278 C 
ATOM     11  N   LIG    1       25.719 -20.882   4.933  0.00  0.00    -0.304 N 
ATOM     12  H   LIG    1       24.911 -21.031   4.341  0.00  0.00    +0.171 HD
ATOM     13  C   LIG    1       26.010 -21.764   5.955  0.00  0.00    +0.165 C 
ATOM     14  O   LIG    1       26.131 -18.955   3.789  0.00  0.00    -0.266 OA
ATOM     15  C   LIG    1       28.599 -18.671   5.629  0.00  0.00    +0.071 A 
ATOM     16  C   LIG    1       28.891 -17.458   4.834  0.00  0.00    +0.068 C 
ATOM     17  N   LIG    1       27.030 -21.601   6.752  0.00  0.00    -0.146 NA
ATOM     18  N   LIG    1       29.448 -19.024   6.647  0.00  0.00    -0.235 NA
BRANCH   7  19
ATOM     19  C   LIG    1       29.491 -20.842   8.377  0.00  0.00    +0.076 C 
BRANCH  19  21
ATOM     20  C   LIG    1       31.582 -22.137   9.116  0.00  0.00    +0.004 C 
ATOM     21  C   LIG    1       31.026 -20.915   8.391  0.00  0.00    +0.004 C 
ENDBRANCH  19  21
ENDBRANCH   7  19
ENDBRANCH   1  13
BRANCH   5  22
ATOM     22  S   LIG    1       25.880 -26.971   6.433  0.00  0.00    +0.061 S 
ATOM     23  O   LIG    1       26.446 -27.113   7.758  0.00  0.00    -0.153 OA
ATOM     24  O   LIG    1       26.688 -27.065   5.259  0.00  0.00    -0.153 OA
BRANCH  22  25
ATOM     25  N   LIG    1       24.583 -28.074   6.318  0.00  0.00    -0.174 NA
ATOM     26  C   LIG    1       24.572 -28.859   5.034  0.00  0.00    +0.124 C 
ATOM     27  C   LIG    1       25.400 -30.157   5.120  0.00  0.00    +0.101 C 
ATOM     28  N   LIG    1       25.054 -31.043   6.254  0.00  0.00    -0.300 NA
ATOM     29  C   LIG    1       25.142 -30.247   7.499  0.00  0.00    +0.101 C 
ATOM     30  C   LIG    1       24.290 -28.961   7.488  0.00  0.00    +0.124 C 
BRANCH  28  31
ATOM     31  C   LIG    1       23.742 -31.697   6.140  0.00  0.00    +0.081 C 
ATOM     32  C   LIG    1       23.779 -33.065   5.472  0.00  0.00    +0.020 C 
ENDBRANCH  28  31
ENDBRANCH  22  25
ENDBRANCH   5  22
BRANCH   2  33
ATOM     33  O   LIG    1       23.054 -21.710   6.546  0.00  0.00    -0.491 OA
BRANCH  33  34
ATOM     34  C   LIG    1       22.374 -21.237   5.365  0.00  0.00    +0.226 C 
ATOM     35  C   LIG    1       22.520 -19.735   5.235  0.00  0.00    +0.048 C 
ENDBRANCH  33  34
ENDBRANCH   2  33
TORSDOF 8
ENDMDL
MODEL 2
REMARK VINA RESULT:      -7.4      1.688      3.017
REMARK  Name = *****
REMARK                            x       y       z     vdW  Elec       q    Type
REMARK                         _______ _______ _______ _____ _____    ______ ____
ROOT
ATOM      1  C   LIG    1       25.891 -22.714   6.743  0.00  0.00    +0.062 A 
ATOM      2  C   LIG    1       24.532 -22.483   7.074  0.00  0.00    +0.131 A 
ATOM      3  C   LIG    1       23.600 -23.530   6.886  0.00  0.00    +0.048 A 
ATOM      4  C   LIG    1       23.990 -24.793   6.457  0.00  0.00    +0.032 A 
ATOM      5  C   LIG    1       25.317 -25.023   6.146  0.00  0.00    +0.106 A 
ATOM      6  C   LIG    1       26.258 -23.992   6.250  0.00  0.00    +0.043 A 
ENDROOT
BRANCH   1  13
ATOM      7  C   LIG    1       28.518 -18.758   5.573  0.00  0.00    +0.132 A 
ATOM      8  N   LIG    1       28.198 -19.904   6.275  0.00  0.00    -0.210 N 
ATOM      9  C   LIG    1       29.164 -20.080   7.222  0.00  0.00    +0.152 A 
ATOM     10  C   LIG    1       29.098 -21.200   8.096  0.00  0.00    +0.278 C 
ATOM     11  N   LIG    1       27.979 -21.985   7.887  0.00  0.00    -0.304 N 
ATOM     12  H   LIG    1       27.888 -22.793   8.492  0.00  0.00    +0.171 HD
ATOM     13  C   LIG    1       27.048 -21.744   6.898  0.00  0.00    +0.165 C 
ATOM     14  O   LIG    1       29.929 -21.478   8.952  0.00  0.00    -0.266 OA
ATOM     15  C   LIG    1       30.034 -19.019   7.080  0.00  0.00    +0.071 A 
ATOM     16  C   LIG    1       31.262 -18.667   7.826  0.00  0.00    +0.068 C 
ATOM     17  N   LIG    1       27.135 -20.726   6.086  0.00  0.00    -0.146 NA
ATOM     18  N   LIG    1       29.606 -18.198   6.070  0.00  0.00    -0.235 NA
BRANCH   7  19
ATOM     19  C   LIG    1       27.723 -18.252   4.411  0.00  0.00    +0.076 C 
BRANCH  19  21
ATOM     20  C   LIG    1       26.633 -16.133   3.451  0.00  0.00    +0.004 C 
ATOM     21  C   LIG    1       27.801 -16.728   4.233  0.00  0.00    +0.004 C 
ENDBRANCH  19  21
ENDBRANCH   7  19
ENDBRANCH   1  13
BRANCH   5  22
ATOM     22  S   LIG    1       25.790 -26.662   5.635  0.00  0.00    +0.061 S 
ATOM     23  O   LIG    1       27.090 -26.929   6.212  0.00  0.00    -0.153 OA
ATOM     24  O   LIG    1       25.561 -26.756   4.228  0.00  0.00    -0.153 OA
BRANCH  22  25
ATOM     25  N   LIG    1       24.662 -27.642   6.459  0.00  0.00    -0.174 NA
ATOM     26  C   LIG    1       24.015 -28.682   5.585  0.00  0.00    +0.124 C 
ATOM     27  C   LIG    1       24.814 -30.000   5.533  0.00  0.00    +0.101 C 
ATOM     28  N   LIG    1       25.139 -30.585   6.853  0.00  0.00    -0.300 NA
ATOM     29  C   LIG    1       25.831 -29.549   7.654  0.00  0.00    +0.101 C 
ATOM     30  C   LIG    1       25.051 -28.224   7.783  0.00  0.00    +0.124 C 
BRANCH  28  31
ATOM     31  C   LIG    1       23.982 -31.126   7.583  0.00  0.00    +0.081 C 
ATOM     32  C   LIG    1       23.601 -32.547   7.188  0.00  0.00    +0.020 C 
ENDBRANCH  28  31
ENDBRANCH  22  25
ENDBRANCH   5  22
BRANCH   2  33
ATOM     33  O   LIG    1       24.156 -21.265   7.603  0.00  0.00    -0.491 OA
BRANCH  33  34
ATOM     34  C   LIG    1       23.111 -20.555   6.909  0.00  0.00    +0.226 C 
ATOM     35  C   LIG    1       23.546 -20.217   5.498  0.00  0.00    +0.048 C 
ENDBRANCH  33  34
ENDBRANCH   2  33
TORSDOF 8
ENDMDL
MODEL 3
REMARK VINA RESULT:      -7.3      3.820      9.682
REMARK  Name = *****
REMARK                            x       y       z     vdW  Elec       q    Type
REMARK                         _______ _______ _______ _____ _____    ______ ____
ROOT
ATOM      1  C   LIG    1       25.170 -29.238   8.085  0.00  0.00    +0.062 A 
ATOM      2  C   LIG    1       24.522 -30.155   7.220  0.00  0.00    +0.131 A 
ATOM      3  C   LIG    1       24.209 -29.741   5.904  0.00  0.00    +0.048 A 
ATOM      4  C   LIG    1       24.581 -28.494   5.417  0.00  0.00    +0.032 A 
ATOM      5  C   LIG    1       25.224 -27.604   6.256  0.00  0.00    +0.106 A 
ATOM      6  C   LIG    1       25.487 -27.949   7.586  0.00  0.00    +0.043 A 
ENDROOT
BRANCH   1  13
ATOM      7  C   LIG    1       24.466 -29.959  12.871  0.00  0.00    +0.132 A 
ATOM      8  N   LIG    1       25.194 -29.802  11.707  0.00  0.00    -0.210 N 
ATOM      9  C   LIG    1       26.514 -29.902  12.039  0.00  0.00    +0.152 A 
ATOM     10  C   LIG    1       27.506 -29.769  11.029  0.00  0.00    +0.278 C 
ATOM     11  N   LIG    1       26.974 -29.587   9.766  0.00  0.00    -0.304 N 
ATOM     12  H   LIG    1       27.645 -29.493   9.014  0.00  0.00    +0.171 HD
ATOM     13  C   LIG    1       25.621 -29.489   9.512  0.00  0.00    +0.165 C 
ATOM     14  O   LIG    1       28.716 -29.800  11.219  0.00  0.00    -0.266 OA
ATOM     15  C   LIG    1       26.548 -30.138  13.397  0.00  0.00    +0.071 A 
ATOM     16  C   LIG    1       27.688 -30.341  14.317  0.00  0.00    +0.068 C 
ATOM     17  N   LIG    1       24.722 -29.587  10.452  0.00  0.00    -0.146 NA
ATOM     18  N   LIG    1       25.270 -30.193  13.892  0.00  0.00    -0.235 NA
BRANCH   7  19
ATOM     19  C   LIG    1       22.975 -29.863  12.931  0.00  0.00    +0.076 C 
BRANCH  19  21
ATOM     20  C   LIG    1       23.205 -27.343  13.371  0.00  0.00    +0.004 C 
ATOM     21  C   LIG    1       22.441 -28.449  12.651  0.00  0.00    +0.004 C 
ENDBRANCH  19  21
ENDBRANCH   7  19
ENDBRANCH   1  13
BRANCH   5  22
ATOM     22  S   LIG    1       25.720 -26.028   5.590  0.00  0.00    +0.061 S 
ATOM     23  O   LIG    1       25.103 -25.903   4.287  0.00  0.00    -0.153 OA
ATOM     24  O   LIG    1       27.134 -25.916   5.763  0.00  0.00    -0.153 OA
BRANCH  22  25
ATOM     25  N   LIG    1       24.933 -24.928   6.629  0.00  0.00    -0.174 NA
ATOM     26  C   LIG    1       25.874 -24.149   7.507  0.00  0.00    +0.124 C 
ATOM     27  C   LIG    1       26.373 -22.849   6.844  0.00  0.00    +0.101 C 
ATOM     28  N   LIG    1       25.306 -21.958   6.337  0.00  0.00    -0.300 NA
ATOM     29  C   LIG    1       24.445 -22.748   5.428  0.00  0.00    +0.101 C 
ATOM     30  C   LIG    1       23.874 -24.036   6.058  0.00  0.00    +0.124 C 
BRANCH  28  31
ATOM     31  C   LIG    1       24.505 -21.307   7.384  0.00  0.00    +0.081 C 
ATOM     32  C   LIG    1       23.301 -20.533   6.862  0.00  0.00    +0.020 C 
ENDBRANCH  28  31
ENDBRANCH  22  25
ENDBRANCH   5  22
BRANCH   2  33
ATOM     33  O   LIG    1       24.248 -31.433   7.662  0.00  0.00    -0.491 OA
BRANCH  33  34
ATOM     34  C   LIG    1       24.898 -32.512   6.960  0.00  0.00    +0.226 C 
ATOM     35  C   LIG    1       26.387 -32.505   7.239  0.00  0.00    +0.048 C 
ENDBRANCH  33  34
ENDBRANCH   2  33
TORSDOF 8
ENDMDL
MODEL 4
REMARK VINA RESULT:      -7.0      4.003     10.062
REMARK  Name = *****
REMARK                            x       y       z     vdW  Elec       q    Type
REMARK                         _______ _______ _______ _____ _____    ______ ____
ROOT
ATOM      1  C   LIG    1       27.851 -19.897   6.420  0.00  0.00    +0.062 A 
ATOM      2  C   LIG    1       28.164 -18.995   5.371  0.00  0.00    +0.131 A 
ATOM      3  C   LIG    1       29.304 -18.169   5.503  0.00  0.00    +0.048 A 
ATOM      4  C   LIG    1       30.160 -18.267   6.592  0.00  0.00    +0.032 A 
ATOM      5  C   LIG    1       29.864 -19.154   7.609  0.00  0.00    +0.106 A 
ATOM      6  C   LIG    1       28.706 -19.938   7.551  0.00  0.00    +0.043 A 
ENDROOT
BRANCH   1  13
ATOM      7  C   LIG    1       23.145 -21.206   6.175  0.00  0.00    +0.132 A 
ATOM      8  N   LIG    1       24.504 -21.390   6.344  0.00  0.00    -0.210 N 
ATOM      9  C   LIG    1       24.705 -22.716   6.592  0.00  0.00    +0.152 A 
ATOM     10  C   LIG    1       26.023 -23.199   6.818  0.00  0.00    +0.278 C 
ATOM     11  N   LIG    1       26.988 -22.214   6.710  0.00  0.00    -0.304 N 
ATOM     12  H   LIG    1       27.943 -22.514   6.859  0.00  0.00    +0.171 HD
ATOM     13  C   LIG    1       26.702 -20.886   6.463  0.00  0.00    +0.165 C 
ATOM     14  O   LIG    1       26.314 -24.358   7.089  0.00  0.00    -0.266 OA
ATOM     15  C   LIG    1       23.458 -23.305   6.546  0.00  0.00    +0.071 A 
ATOM     16  C   LIG    1       23.045 -24.713   6.729  0.00  0.00    +0.068 C 
ATOM     17  N   LIG    1       25.485 -20.453   6.283  0.00  0.00    -0.146 NA
ATOM     18  N   LIG    1       22.507 -22.359   6.264  0.00  0.00    -0.235 NA
BRANCH   7  19
ATOM     19  C   LIG    1       22.516 -19.870   5.934  0.00  0.00    +0.076 C 
BRANCH  19  21
ATOM     20  C   LIG    1       21.989 -18.036   4.216  0.00  0.00    +0.004 C 
ATOM     21  C   LIG    1       22.609 -19.406   4.472  0.00  0.00    +0.004 C 
ENDBRANCH  19  21
ENDBRANCH   7  19
ENDBRANCH   1  13
BRANCH   5  22
ATOM     22  S   LIG    1       31.002 -19.282   8.974  0.00  0.00    +0.061 S 
ATOM     23  O   LIG    1       32.337 -19.292   8.415  0.00  0.00    -0.153 OA
ATOM     24  O   LIG    1       30.537 -20.333   9.823  0.00  0.00    -0.153 OA
BRANCH  22  25
ATOM     25  N   LIG    1       30.797 -17.783   9.763  0.00  0.00    -0.174 NA
ATOM     26  C   LIG    1       30.412 -17.913  11.212  0.00  0.00    +0.124 C 
ATOM     27  C   LIG    1       31.634 -18.007  12.149  0.00  0.00    +0.101 C 
ATOM     28  N   LIG    1       32.627 -16.923  11.988  0.00  0.00    -0.300 NA
ATOM     29  C   LIG    1       33.025 -16.875  10.562  0.00  0.00    +0.101 C 
ATOM     30  C   LIG    1       31.843 -16.728   9.582  0.00  0.00    +0.124 C 
BRANCH  28  31
ATOM     31  C   LIG    1       32.171 -15.603  12.450  0.00  0.00    +0.081 C 
ATOM     32  C   LIG    1       32.322 -15.378  13.949  0.00  0.00    +0.020 C 
ENDBRANCH  28  31
ENDBRANCH  22  25
ENDBRANCH   5  22
BRANCH   2  33
ATOM     33  O   LIG    1       27.378 -18.970   4.236  0.00  0.00    -0.491 OA
BRANCH  33  34
ATOM     34  C   LIG    1       26.889 -17.679   3.819  0.00  0.00    +0.226 C 
ATOM     35  C   LIG    1       25.537 -17.815   3.151  0.00  0.00    +0.048 C 
ENDBRANCH  33  34
ENDBRANCH   2  33
TORSDOF 8
ENDMDL
MODEL 5
REMARK VINA RESULT:      -6.8      3.654      9.601
REMARK  Name = *****
REMARK                            x       y       z     vdW  Elec       q    Type
REMARK                         _______ _______ _______ _____ _____    ______ ____
ROOT
ATOM      1  C   LIG    1       27.418 -19.886   6.067  0.00  0.00    +0.062 A 
ATOM      2  C   LIG    1       27.705 -19.055   4.954  0.00  0.00    +0.131 A 
ATOM      3  C   LIG    1       28.896 -18.293   4.966  0.00  0.00    +0.048 A 
ATOM      4  C   LIG    1       29.820 -18.390   5.998  0.00  0.00    +0.032 A 
ATOM      5  C   LIG    1       29.548 -19.208   7.077  0.00  0.00    +0.106 A 
ATOM      6  C   LIG    1       28.347 -19.924   7.138  0.00  0.00    +0.043 A 
ENDROOT
BRANCH   1  13
ATOM      7  C   LIG    1       25.223 -24.227   6.575  0.00  0.00    +0.132 A 
ATOM      8  N   LIG    1       25.300 -22.852   6.457  0.00  0.00    -0.210 N 
ATOM      9  C   LIG    1       24.025 -22.370   6.511  0.00  0.00    +0.152 A 
ATOM     10  C   LIG    1       23.796 -20.971   6.404  0.00  0.00    +0.278 C 
ATOM     11  N   LIG    1       24.963 -20.237   6.295  0.00  0.00    -0.304 N 
ATOM     12  H   LIG    1       24.848 -19.234   6.221  0.00  0.00    +0.171 HD
ATOM     13  C   LIG    1       26.221 -20.802   6.239  0.00  0.00    +0.165 C 
ATOM     14  O   LIG    1       22.695 -20.434   6.399  0.00  0.00    -0.266 OA
ATOM     15  C   LIG    1       23.209 -23.469   6.681  0.00  0.00    +0.071 A 
ATOM     16  C   LIG    1       21.740 -23.574   6.815  0.00  0.00    +0.068 C 
ATOM     17  N   LIG    1       26.414 -22.091   6.312  0.00  0.00    -0.146 NA
ATOM     18  N   LIG    1       23.970 -24.608   6.742  0.00  0.00    -0.235 NA
BRANCH   7  19
ATOM     19  C   LIG    1       26.414 -25.129   6.510  0.00  0.00    +0.076 C 
BRANCH  19  21
ATOM     20  C   LIG    1       25.920 -27.036   4.860  0.00  0.00    +0.004 C 
ATOM     21  C   LIG    1       26.050 -26.610   6.320  0.00  0.00    +0.004 C 
ENDBRANCH  19  21
ENDBRANCH   7  19
ENDBRANCH   1  13
BRANCH   5  22
ATOM     22  S   LIG    1       30.771 -19.339   8.366  0.00  0.00    +0.061 S 
ATOM     23  O   LIG    1       32.068 -19.324   7.725  0.00  0.00    -0.153 OA
ATOM     24  O   LIG    1       30.373 -20.406   9.228  0.00  0.00    -0.153 OA
BRANCH  22  25
ATOM     25  N   LIG    1       30.597 -17.853   9.187  0.00  0.00    -0.174 NA
ATOM     26  C   LIG    1       30.009 -17.992  10.565  0.00  0.00    +0.124 C 
ATOM     27  C   LIG    1       31.078 -18.231  11.650  0.00  0.00    +0.101 C 
ATOM     28  N   LIG    1       32.179 -17.243  11.670  0.00  0.00    -0.300 NA
ATOM     29  C   LIG    1       32.769 -17.188  10.313  0.00  0.00    +0.101 C 
ATOM     30  C   LIG    1       31.750 -16.898   9.192  0.00  0.00    +0.124 C 
BRANCH  28  31
ATOM     31  C   LIG    1       31.786 -15.900  12.125  0.00  0.00    +0.081 C 
ATOM     32  C   LIG    1       32.172 -15.590  13.567  0.00  0.00    +0.020 C 
ENDBRANCH  28  31
ENDBRANCH  22  25
ENDBRANCH   5  22
BRANCH   2  33
ATOM     33  O   LIG    1       26.844 -19.038   3.876  0.00  0.00    -0.491 OA
BRANCH  33  34
ATOM     34  C   LIG    1       26.179 -17.787   3.602  0.00  0.00    +0.226 C 
ATOM     35  C   LIG    1       24.680 -17.989   3.528  0.00  0.00    +0.048 C 
ENDBRANCH  33  34
ENDBRANCH   2  33
TORSDOF 8
ENDMDL
MODEL 6
REMARK VINA RESULT:      -6.7      3.786      9.582
REMARK  Name = *****
REMARK                            x       y       z     vdW  Elec       q    Type
REMARK                         _______ _______ _______ _____ _____    ______ ____
ROOT
ATOM      1  C   LIG    1       24.658 -29.750   7.690  0.00  0.00    +0.062 A 
ATOM      2  C   LIG    1       24.726 -30.790   6.729  0.00  0.00    +0.131 A 
ATOM      3  C   LIG    1       25.065 -30.462   5.396  0.00  0.00    +0.048 A 
ATOM      4  C   LIG    1       25.402 -29.168   5.021  0.00  0.00    +0.032 A 
ATOM      5  C   LIG    1       25.349 -28.155   5.959  0.00  0.00    +0.106 A 
ATOM      6  C   LIG    1       24.948 -28.426   7.272  0.00  0.00    +0.043 A 
ENDROOT
BRANCH   1  13
ATOM      7  C   LIG    1       25.593 -29.230  12.462  0.00  0.00    +0.132 A 
ATOM      8  N   LIG    1       24.874 -29.614  11.347  0.00  0.00    -0.210 N 
ATOM      9  C   LIG    1       23.729 -30.210  11.790  0.00  0.00    +0.152 A 
ATOM     10  C   LIG    1       22.791 -30.719  10.850  0.00  0.00    +0.278 C 
ATOM     11  N   LIG    1       23.163 -30.495   9.536  0.00  0.00    -0.304 N 
ATOM     12  H   LIG    1       22.521 -30.837   8.832  0.00  0.00    +0.171 HD
ATOM     13  C   LIG    1       24.347 -29.889   9.168  0.00  0.00    +0.165 C 
ATOM     14  O   LIG    1       21.755 -31.306  11.134  0.00  0.00    -0.266 OA
ATOM     15  C   LIG    1       23.777 -30.150  13.166  0.00  0.00    +0.071 A 
ATOM     16  C   LIG    1       22.820 -30.623  14.190  0.00  0.00    +0.068 C 
ATOM     17  N   LIG    1       25.211 -29.450  10.042  0.00  0.00    -0.146 NA
ATOM     18  N   LIG    1       24.927 -29.519  13.565  0.00  0.00    -0.235 NA
BRANCH   7  19
ATOM     19  C   LIG    1       26.940 -28.583  12.394  0.00  0.00    +0.076 C 
BRANCH  19  21
ATOM     20  C   LIG    1       26.168 -26.267  13.192  0.00  0.00    +0.004 C 
ATOM     21  C   LIG    1       26.880 -27.074  12.111  0.00  0.00    +0.004 C 
ENDBRANCH  19  21
ENDBRANCH   7  19
ENDBRANCH   1  13
BRANCH   5  22
ATOM     22  S   LIG    1       25.823 -26.513   5.455  0.00  0.00    +0.061 S 
ATOM     23  O   LIG    1       25.260 -26.292   4.140  0.00  0.00    -0.153 OA
ATOM     24  O   LIG    1       27.224 -26.377   5.702  0.00  0.00    -0.153 OA
BRANCH  22  25
ATOM     25  N   LIG    1       24.957 -25.530   6.548  0.00  0.00    -0.174 NA
ATOM     26  C   LIG    1       25.838 -24.753   7.487  0.00  0.00    +0.124 C 
ATOM     27  C   LIG    1       26.264 -23.386   6.914  0.00  0.00    +0.101 C 
ATOM     28  N   LIG    1       25.150 -22.532   6.446  0.00  0.00    -0.300 NA
ATOM     29  C   LIG    1       24.349 -23.314   5.477  0.00  0.00    +0.101 C 
ATOM     30  C   LIG    1       23.852 -24.671   6.017  0.00  0.00    +0.124 C 
BRANCH  28  31
ATOM     31  C   LIG    1       24.297 -21.997   7.519  0.00  0.00    +0.081 C 
ATOM     32  C   LIG    1       23.366 -20.875   7.079  0.00  0.00    +0.020 C 
ENDBRANCH  28  31
ENDBRANCH  22  25
ENDBRANCH   5  22
BRANCH   2  33
ATOM     33  O   LIG    1       24.498 -32.095   7.119  0.00  0.00    -0.491 OA
BRANCH  33  34
ATOM     34  C   LIG    1       23.780 -32.930   6.188  0.00  0.00    +0.226 C 
ATOM     35  C   LIG    1       22.645 -33.648   6.888  0.00  0.00    +0.048 C 
ENDBRANCH  33  34
ENDBRANCH   2  33
TORSDOF 8
ENDMDL
MODEL 7
REMARK VINA RESULT:      -6.6      3.209      9.247
REMARK  Name = *****
REMARK                            x       y       z     vdW  Elec       q    Type
REMARK                         _______ _______ _______ _____ _____    ______ ____
ROOT
ATOM      1  C   LIG    1       26.126 -22.726   7.430  0.00  0.00    +0.062 A 
ATOM      2  C   LIG    1       25.186 -21.733   7.805  0.00  0.00    +0.131 A 
ATOM      3  C   LIG    1       25.664 -20.495   8.293  0.00  0.00    +0.048 A 
ATOM      4  C   LIG    1       27.021 -20.200   8.345  0.00  0.00    +0.032 A 
ATOM      5  C   LIG    1       27.938 -21.162   7.967  0.00  0.00    +0.106 A 
ATOM      6  C   LIG    1       27.507 -22.425   7.548  0.00  0.00    +0.043 A 
ENDROOT
BRANCH   1  13
ATOM      7  C   LIG    1       25.870 -27.608   7.578  0.00  0.00    +0.132 A 
ATOM      8  N   LIG    1       25.756 -26.349   7.018  0.00  0.00    -0.210 N 
ATOM      9  C   LIG    1       25.301 -26.515   5.743  0.00  0.00    +0.152 A 
ATOM     10  C   LIG    1       25.096 -25.376   4.915  0.00  0.00    +0.278 C 
ATOM     11  N   LIG    1       25.360 -24.182   5.560  0.00  0.00    -0.304 N 
ATOM     12  H   LIG    1       25.223 -23.343   5.010  0.00  0.00    +0.171 HD
ATOM     13  C   LIG    1       25.827 -24.098   6.857  0.00  0.00    +0.165 C 
ATOM     14  O   LIG    1       24.732 -25.409   3.746  0.00  0.00    -0.266 OA
ATOM     15  C   LIG    1       25.132 -27.872   5.572  0.00  0.00    +0.071 A 
ATOM     16  C   LIG    1       24.658 -28.651   4.406  0.00  0.00    +0.068 C 
ATOM     17  N   LIG    1       26.036 -25.153   7.596  0.00  0.00    -0.146 NA
ATOM     18  N   LIG    1       25.467 -28.532   6.726  0.00  0.00    -0.235 NA
BRANCH   7  19
ATOM     19  C   LIG    1       26.389 -27.853   8.959  0.00  0.00    +0.076 C 
BRANCH  19  21
ATOM     20  C   LIG    1       27.335 -29.805  10.335  0.00  0.00    +0.004 C 
ATOM     21  C   LIG    1       26.213 -29.306   9.430  0.00  0.00    +0.004 C 
ENDBRANCH  19  21
ENDBRANCH   7  19
ENDBRANCH   1  13
BRANCH   5  22
ATOM     22  S   LIG    1       29.668 -20.739   8.010  0.00  0.00    +0.061 S 
ATOM     23  O   LIG    1       30.150 -20.779   6.646  0.00  0.00    -0.153 OA
ATOM     24  O   LIG    1       30.274 -21.519   9.043  0.00  0.00    -0.153 OA
BRANCH  22  25
ATOM     25  N   LIG    1       29.632 -19.100   8.485  0.00  0.00    -0.174 NA
ATOM     26  C   LIG    1       29.950 -18.888   9.940  0.00  0.00    +0.124 C 
ATOM     27  C   LIG    1       31.460 -18.718  10.203  0.00  0.00    +0.101 C 
ATOM     28  N   LIG    1       32.123 -17.678   9.387  0.00  0.00    -0.300 NA
ATOM     29  C   LIG    1       31.838 -17.964   7.962  0.00  0.00    +0.101 C 
ATOM     30  C   LIG    1       30.336 -18.092   7.632  0.00  0.00    +0.124 C 
BRANCH  28  31
ATOM     31  C   LIG    1       31.744 -16.299   9.730  0.00  0.00    +0.081 C 
ATOM     32  C   LIG    1       32.924 -15.380  10.026  0.00  0.00    +0.020 C 
ENDBRANCH  28  31
ENDBRANCH  22  25
ENDBRANCH   5  22
BRANCH   2  33
ATOM     33  O   LIG    1       23.836 -21.980   7.653  0.00  0.00    -0.491 OA
BRANCH  33  34
ATOM     34  C   LIG    1       23.087 -21.016   6.885  0.00  0.00    +0.226 C 
ATOM     35  C   LIG    1       23.442 -21.117   5.416  0.00  0.00    +0.048 C 
ENDBRANCH  33  34
ENDBRANCH   2  33
TORSDOF 8
ENDMDL
MODEL 8
REMARK VINA RESULT:      -6.5      5.138     10.133
REMARK  Name = *****
REMARK                            x       y       z     vdW  Elec       q    Type
REMARK                         _______ _______ _______ _____ _____    ______ ____
ROOT
ATOM      1  C   LIG    1       24.219 -30.455  10.337  0.00  0.00    +0.062 A 
ATOM      2  C   LIG    1       25.559 -30.683  10.740  0.00  0.00    +0.131 A 
ATOM      3  C   LIG    1       26.545 -30.866   9.744  0.00  0.00    +0.048 A 
ATOM      4  C   LIG    1       26.252 -30.758   8.390  0.00  0.00    +0.032 A 
ATOM      5  C   LIG    1       24.949 -30.524   7.996  0.00  0.00    +0.106 A 
ATOM      6  C   LIG    1       23.930 -30.409   8.950  0.00  0.00    +0.043 A 
ENDROOT
BRANCH   1  13
ATOM      7  C   LIG    1       21.372 -27.727  13.231  0.00  0.00    +0.132 A 
ATOM      8  N   LIG    1       21.779 -28.868  12.566  0.00  0.00    -0.210 N 
ATOM      9  C   LIG    1       20.880 -29.850  12.860  0.00  0.00    +0.152 A 
ATOM     10  C   LIG    1       21.055 -31.152  12.316  0.00  0.00    +0.278 C 
ATOM     11  N   LIG    1       22.152 -31.247  11.479  0.00  0.00    -0.304 N 
ATOM     12  H   LIG    1       22.313 -32.156  11.064  0.00  0.00    +0.171 HD
ATOM     13  C   LIG    1       23.023 -30.204  11.237  0.00  0.00    +0.165 C 
ATOM     14  O   LIG    1       20.335 -32.116  12.545  0.00  0.00    -0.266 OA
ATOM     15  C   LIG    1       19.937 -29.269  13.682  0.00  0.00    +0.071 A 
ATOM     16  C   LIG    1       18.723 -29.831  14.313  0.00  0.00    +0.068 C 
ATOM     17  N   LIG    1       22.865 -29.021  11.765  0.00  0.00    -0.146 NA
ATOM     18  N   LIG    1       20.244 -27.948  13.881  0.00  0.00    -0.235 NA
BRANCH   7  19
ATOM     19  C   LIG    1       22.130 -26.438  13.201  0.00  0.00    +0.076 C 
BRANCH  19  21
ATOM     20  C   LIG    1       24.441 -25.509  13.828  0.00  0.00    +0.004 C 
ATOM     21  C   LIG    1       23.250 -26.363  14.251  0.00  0.00    +0.004 C 
ENDBRANCH  19  21
ENDBRANCH   7  19
ENDBRANCH   1  13
BRANCH   5  22
ATOM     22  S   LIG    1       24.612 -30.354   6.255  0.00  0.00    +0.061 S 
ATOM     23  O   LIG    1       23.422 -31.127   5.974  0.00  0.00    -0.153 OA
ATOM     24  O   LIG    1       25.838 -30.584   5.557  0.00  0.00    -0.153 OA
BRANCH  22  25
ATOM     25  N   LIG    1       24.187 -28.706   6.125  0.00  0.00    -0.174 NA
ATOM     26  C   LIG    1       24.656 -27.869   7.284  0.00  0.00    +0.124 C 
ATOM     27  C   LIG    1       26.077 -27.307   7.077  0.00  0.00    +0.101 C 
ATOM     28  N   LIG    1       26.279 -26.570   5.811  0.00  0.00    -0.300 NA
ATOM     29  C   LIG    1       25.866 -27.454   4.697  0.00  0.00    +0.101 C 
ATOM     30  C   LIG    1       24.431 -28.004   4.825  0.00  0.00    +0.124 C 
BRANCH  28  31
ATOM     31  C   LIG    1       25.582 -25.276   5.739  0.00  0.00    +0.081 C 
ATOM     32  C   LIG    1       25.887 -24.336   6.899  0.00  0.00    +0.020 C 
ENDBRANCH  28  31
ENDBRANCH  22  25
ENDBRANCH   5  22
BRANCH   2  33
ATOM     33  O   LIG    1       25.877 -30.682  12.084  0.00  0.00    -0.491 OA
BRANCH  33  34
ATOM     34  C   LIG    1       26.883 -29.741  12.508  0.00  0.00    +0.226 C 
ATOM     35  C   LIG    1       26.388 -28.320  12.332  0.00  0.00    +0.048 C 
ENDBRANCH  33  34
ENDBRANCH   2  33
TORSDOF 8
ENDMDL
MODEL 9
REMARK VINA RESULT:      -6.5      6.639     10.569
REMARK  Name = *****
REMARK                            x       y       z     vdW  Elec       q    Type
REMARK                         _______ _______ _______ _____ _____    ______ ____
ROOT
ATOM      1  C   LIG    1       22.620 -30.639  10.514  0.00  0.00    +0.062 A 
ATOM      2  C   LIG    1       21.245 -30.777  10.832  0.00  0.00    +0.131 A 
ATOM      3  C   LIG    1       20.817 -30.461  12.142  0.00  0.00    +0.048 A 
ATOM      4  C   LIG    1       21.688 -29.953  13.098  0.00  0.00    +0.032 A 
ATOM      5  C   LIG    1       23.025 -29.806  12.785  0.00  0.00    +0.106 A 
ATOM      6  C   LIG    1       23.503 -30.176  11.523  0.00  0.00    +0.043 A 
ENDROOT
BRANCH   1  13
ATOM      7  C   LIG    1       25.020 -29.325   6.460  0.00  0.00    +0.132 A 
ATOM      8  N   LIG    1       24.377 -30.186   7.329  0.00  0.00    -0.210 N 
ATOM      9  C   LIG    1       24.401 -31.426   6.760  0.00  0.00    +0.152 A 
ATOM     10  C   LIG    1       23.796 -32.522   7.435  0.00  0.00    +0.278 C 
ATOM     11  N   LIG    1       23.269 -32.177   8.666  0.00  0.00    -0.304 N 
ATOM     12  H   LIG    1       22.832 -32.929   9.185  0.00  0.00    +0.171 HD
ATOM     13  C   LIG    1       23.278 -30.892   9.170  0.00  0.00    +0.165 C 
ATOM     14  O   LIG    1       23.722 -33.665   7.001  0.00  0.00    -0.266 OA
ATOM     15  C   LIG    1       25.079 -31.285   5.568  0.00  0.00    +0.071 A 
ATOM     16  C   LIG    1       25.424 -32.277   4.526  0.00  0.00    +0.068 C 
ATOM     17  N   LIG    1       23.814 -29.891   8.528  0.00  0.00    -0.146 NA
ATOM     18  N   LIG    1       25.475 -29.982   5.409  0.00  0.00    -0.235 NA
BRANCH   7  19
ATOM     19  C   LIG    1       25.158 -27.856   6.705  0.00  0.00    +0.076 C 
BRANCH  19  21
ATOM     20  C   LIG    1       24.170 -25.554   6.137  0.00  0.00    +0.004 C 
ATOM     21  C   LIG    1       24.399 -26.992   5.684  0.00  0.00    +0.004 C 
ENDBRANCH  19  21
ENDBRANCH   7  19
ENDBRANCH   1  13
BRANCH   5  22
ATOM     22  S   LIG    1       24.108 -29.118  14.021  0.00  0.00    +0.061 S 
ATOM     23  O   LIG    1       25.394 -29.766  13.870  0.00  0.00    -0.153 OA
ATOM     24  O   LIG    1       23.404 -29.130  15.264  0.00  0.00    -0.153 OA
BRANCH  22  25
ATOM     25  N   LIG    1       24.291 -27.506  13.489  0.00  0.00    -0.174 NA
ATOM     26  C   LIG    1       23.424 -26.526  14.232  0.00  0.00    +0.124 C 
ATOM     27  C   LIG    1       24.102 -25.968  15.499  0.00  0.00    +0.101 C 
ATOM     28  N   LIG    1       25.446 -25.388  15.284  0.00  0.00    -0.300 NA
ATOM     29  C   LIG    1       26.282 -26.409  14.612  0.00  0.00    +0.101 C 
ATOM     30  C   LIG    1       25.674 -26.964  13.307  0.00  0.00    +0.124 C 
BRANCH  28  31
ATOM     31  C   LIG    1       25.453 -24.126  14.530  0.00  0.00    +0.081 C 
ATOM     32  C   LIG    1       25.846 -22.906  15.354  0.00  0.00    +0.020 C 
ENDBRANCH  28  31
ENDBRANCH  22  25
ENDBRANCH   5  22
BRANCH   2  33
ATOM     33  O   LIG    1       20.356 -31.178   9.855  0.00  0.00    -0.491 OA
BRANCH  33  34
ATOM     34  C   LIG    1       19.132 -31.791  10.309  0.00  0.00    +0.226 C 
ATOM     35  C   LIG    1       17.932 -31.070   9.733  0.00  0.00    +0.048 C 
ENDBRANCH  33  34
ENDBRANCH   2  33
TORSDOF 8
ENDMDL
