MODEL 1
REMARK VINA RESULT:      19.6      0.000      0.000
REMARK  Name = *****
REMARK                            x       y       z     vdW  Elec       q    Type
REMARK                         _______ _______ _______ _____ _____    ______ ____
ROOT
ATOM      1  O   LIG    1       24.634 -16.996   3.296  0.00  0.00    -0.340 OA
ENDROOT
BRANCH   1   5
ATOM      2  C   LIG    1       23.010 -20.372   5.280  0.00  0.00    +0.181 C 
ATOM      3  C   LIG    1       24.497 -19.950   5.494  0.00  0.00    +0.178 C 
ATOM      4  O   LIG    1       24.786 -18.592   5.091  0.00  0.00    -0.341 OA
ATOM      5  C   LIG    1       24.551 -18.383   3.684  0.00  0.00    +0.282 C 
ATOM      6  C   LIG    1       23.070 -18.714   3.361  0.00  0.00    +0.205 C 
ATOM      7  C   LIG    1       22.350 -19.162   4.673  0.00  0.00    +0.183 C 
BRANCH   2   8
ATOM      8  O   LIG    1       22.777 -21.440   4.313  0.00  0.00    -0.369 OA
BRANCH   8   9
ATOM      9  C   LIG    1       21.387 -21.556   3.883  0.00  0.00    +0.191 C 
BRANCH   9  11
ATOM     10  C   LIG    1       20.926 -20.286   6.074  0.00  0.00    +0.040 C 
ATOM     11  C   LIG    1       20.421 -20.618   4.666  0.00  0.00    +0.137 C 
BRANCH  11  12
ATOM     12  O   LIG    1       20.191 -19.362   4.012  0.00  0.00    -0.390 OA
ATOM     13  H   LIG    1       19.707 -19.526   3.183  0.00  0.00    +0.210 HD
ENDBRANCH  11  12
ENDBRANCH   9  11
ENDBRANCH   8   9
ENDBRANCH   2   8
BRANCH   3  14
ATOM     14  C   LIG    1       25.106 -20.319   6.876  0.00  0.00    +0.194 C 
BRANCH  14  15
ATOM     15  O   LIG    1       25.808 -21.563   6.916  0.00  0.00    -0.375 OA
BRANCH  15  16
ATOM     16  C   LIG    1       27.128 -21.567   6.345  0.00  0.00    +0.190 C 
BRANCH  16  17
ATOM     17  C   LIG    1       28.144 -20.664   7.057  0.00  0.00    +0.137 C 
ATOM     18  C   LIG    1       27.813 -19.183   6.926  0.00  0.00    +0.040 C 
BRANCH  17  19
ATOM     19  O   LIG    1       29.467 -21.083   6.802  0.00  0.00    -0.390 OA
ATOM     20  H   LIG    1       29.723 -21.777   7.443  0.00  0.00    +0.210 HD
ENDBRANCH  17  19
ENDBRANCH  16  17
ENDBRANCH  15  16
ENDBRANCH  14  15
ENDBRANCH   3  14
BRANCH   7  21
ATOM     21  O   LIG    1       22.304 -18.186   5.712  0.00  0.00    -0.369 OA
BRANCH  21  22
ATOM     22  C   LIG    1       22.576 -16.901   5.225  0.00  0.00    +0.191 C 
BRANCH  22  23
ATOM     23  C   LIG    1       21.460 -16.302   4.352  0.00  0.00    +0.137 C 
ATOM     24  C   LIG    1       20.266 -16.258   5.294  0.00  0.00    +0.040 C 
BRANCH  23  25
ATOM     25  O   LIG    1       21.195 -17.059   3.180  0.00  0.00    -0.390 OA
ATOM     26  H   LIG    1       21.794 -17.818   3.173  0.00  0.00    +0.210 HD
ENDBRANCH  23  25
ENDBRANCH  22  23
ENDBRANCH  21  22
ENDBRANCH   7  21
BRANCH   6  27
ATOM     27  O   LIG    1       22.946 -19.504   2.171  0.00  0.00    -0.366 OA
BRANCH  27  28
ATOM     28  C   LIG    1       23.890 -20.567   1.990  0.00  0.00    +0.191 C 
BRANCH  28  29
ATOM     29  C   LIG    1       25.377 -20.494   2.373  0.00  0.00    +0.137 C 
ATOM     30  C   LIG    1       25.739 -20.609   3.832  0.00  0.00    +0.040 C 
BRANCH  29  31
ATOM     31  O   LIG    1       26.004 -19.356   1.837  0.00  0.00    -0.390 OA
ATOM     32  H   LIG    1       26.405 -18.833   2.548  0.00  0.00    +0.210 HD
ENDBRANCH  29  31
ENDBRANCH  28  29
ENDBRANCH  27  28
ENDBRANCH   6  27
ENDBRANCH   1   5
BRANCH   1  33
ATOM     33  C   LIG    1       25.432 -16.083   4.021  0.00  0.00    +0.184 C 
ATOM     34  C   LIG    1       25.098 -14.608   3.831  0.00  0.00    +0.178 C 
ATOM     35  O   LIG    1       25.803 -13.801   4.870  0.00  0.00    -0.341 OA
ATOM     36  C   LIG    1       27.190 -14.124   5.274  0.00  0.00    +0.282 C 
ATOM     37  C   LIG    1       27.575 -15.815   5.110  0.00  0.00    +0.205 C 
ATOM     38  C   LIG    1       26.922 -16.219   3.856  0.00  0.00    +0.183 C 
BRANCH  38  39
ATOM     39  O   LIG    1       27.353 -15.535   2.669  0.00  0.00    -0.369 OA
BRANCH  39  40
ATOM     40  C   LIG    1       27.503 -14.127   2.269  0.00  0.00    +0.191 C 
BRANCH  40  41
ATOM     41  C   LIG    1       26.915 -12.737   2.800  0.00  0.00    +0.137 C 
ATOM     42  C   LIG    1       26.152 -11.614   2.070  0.00  0.00    +0.040 C 
BRANCH  41  43
ATOM     43  O   LIG    1       28.011 -12.033   3.316  0.00  0.00    -0.390 OA
ATOM     44  H   LIG    1       27.631 -11.601   4.059  0.00  0.00    +0.210 HD
ENDBRANCH  41  43
ENDBRANCH  40  41
ENDBRANCH  39  40
ENDBRANCH  38  39
BRANCH  34  45
ATOM     45  C   LIG    1       24.849 -14.131   2.270  0.00  0.00    +0.194 C 
BRANCH  45  46
ATOM     46  O   LIG    1       23.879 -13.138   1.911  0.00  0.00    -0.375 OA
BRANCH  46  47
ATOM     47  C   LIG    1       23.260 -12.344   2.925  0.00  0.00    +0.190 C 
BRANCH  47  48
ATOM     48  C   LIG    1       24.029 -12.334   4.292  0.00  0.00    +0.137 C 
ATOM     49  C   LIG    1       24.037 -13.738   4.896  0.00  0.00    +0.040 C 
BRANCH  48  50
ATOM     50  O   LIG    1       23.459 -11.468   5.264  0.00  0.00    -0.390 OA
ATOM     51  H   LIG    1       22.610 -11.871   5.502  0.00  0.00    +0.210 HD
ENDBRANCH  48  50
ENDBRANCH  47  48
ENDBRANCH  46  47
ENDBRANCH  45  46
ENDBRANCH  34  45
BRANCH  37  52
ATOM     52  O   LIG    1       28.835 -16.640   5.215  0.00  0.00    -0.366 OA
BRANCH  52  53
ATOM     53  C   LIG    1       29.214 -18.033   4.839  0.00  0.00    +0.191 C 
BRANCH  53  54
ATOM     54  C   LIG    1       28.104 -19.081   4.737  0.00  0.00    +0.137 C 
ATOM     55  C   LIG    1       28.636 -20.281   4.048  0.00  0.00    +0.040 C 
BRANCH  54  56
ATOM     56  O   LIG    1       27.059 -18.450   4.035  0.00  0.00    -0.390 OA
ATOM     57  H   LIG    1       26.985 -18.953   3.200  0.00  0.00    +0.210 HD
ENDBRANCH  54  56
ENDBRANCH  53  54
ENDBRANCH  52  53
ENDBRANCH  37  52
BRANCH  36  58
ATOM     58  O   LIG    1       27.672 -13.490   6.611  0.00  0.00    -0.346 OA
BRANCH  58  59
ATOM     59  C   LIG    1       28.343 -12.059   6.743  0.00  0.00    +0.194 C 
BRANCH  59  60
ATOM     60  C   LIG    1       29.359 -11.942   5.648  0.00  0.00    +0.137 C 
ATOM     61  C   LIG    1       29.455 -11.701   4.124  0.00  0.00    +0.040 C 
BRANCH  60  62
ATOM     62  O   LIG    1       29.127 -13.318   5.482  0.00  0.00    -0.390 OA
ATOM     63  H   LIG    1       29.878 -13.542   5.146  0.00  0.00    +0.210 HD
ENDBRANCH  60  62
ENDBRANCH  59  60
ENDBRANCH  58  59
ENDBRANCH  36  58
ENDBRANCH   1  33
TORSDOF 36
ENDMDL
