MODEL 1
REMARK VINA RESULT:      -6.1      0.000      0.000
REMARK  Name = *****
REMARK                            x       y       z     vdW  Elec       q    Type
REMARK                         _______ _______ _______ _____ _____    ______ ____
ROOT
ATOM      1  C   LIG    1       24.544 -15.598   3.884  0.00  0.00    +0.086 C 
ATOM      2  C   LIG    1       25.678 -16.359   3.293  0.00  0.00    +0.345 C 
ATOM      3  O   LIG    1       26.644 -15.815   2.764  0.00  0.00    -0.245 OA
ATOM      4  O   LIG    1       25.622 -17.741   3.333  0.00  0.00    -0.422 OA
ATOM      5  C   LIG    1       24.488 -18.434   3.789  0.00  0.00    +0.143 A 
ATOM      6  C   LIG    1       23.387 -17.744   4.285  0.00  0.00    +0.059 A 
ATOM      7  C   LIG    1       22.280 -18.509   4.684  0.00  0.00    +0.015 A 
ATOM      8  C   LIG    1       22.304 -19.911   4.599  0.00  0.00    +0.001 A 
ATOM      9  C   LIG    1       23.425 -20.569   4.098  0.00  0.00    +0.004 A 
ATOM     10  C   LIG    1       24.526 -19.826   3.686  0.00  0.00    +0.047 A 
ATOM     11  C   LIG    1       23.468 -16.275   4.336  0.00  0.00    +0.138 C 
ENDROOT
BRANCH  11  12
ATOM     12  O   LIG    1       22.390 -15.595   4.872  0.00  0.00    -0.505 OA
ATOM     13  H   LIG    1       22.666 -15.186   5.709  0.00  0.00    +0.292 HD
ENDBRANCH  11  12
BRANCH   1  14
ATOM     14  C   LIG    1       24.644 -14.066   3.928  0.00  0.00    +0.059 C 
BRANCH  14  15
ATOM     15  C   LIG    1       26.087 -13.557   4.120  0.00  0.00    -0.040 A 
ATOM     16  C   LIG    1       26.654 -13.460   5.404  0.00  0.00    +0.004 A 
ATOM     17  C   LIG    1       27.979 -13.034   5.577  0.00  0.00    +0.000 A 
ATOM     18  C   LIG    1       28.753 -12.676   4.476  0.00  0.00    +0.000 A 
ATOM     19  C   LIG    1       28.200 -12.733   3.203  0.00  0.00    +0.000 A 
ATOM     20  C   LIG    1       26.886 -13.172   3.029  0.00  0.00    +0.004 A 
ENDBRANCH  14  15
BRANCH  14  22
ATOM     21  C   LIG    1       23.886 -11.831   2.839  0.00  0.00    +0.005 C 
ATOM     22  C   LIG    1       23.930 -13.351   2.746  0.00  0.00    +0.010 C 
ENDBRANCH  14  22
ENDBRANCH   1  14
TORSDOF 4
ENDMDL
MODEL 2
REMARK VINA RESULT:      -6.0      2.045      6.248
REMARK  Name = *****
REMARK                            x       y       z     vdW  Elec       q    Type
REMARK                         _______ _______ _______ _____ _____    ______ ____
ROOT
ATOM      1  C   LIG    1       24.689 -17.753   3.741  0.00  0.00    +0.086 C 
ATOM      2  C   LIG    1       23.360 -17.256   4.188  0.00  0.00    +0.345 C 
ATOM      3  O   LIG    1       22.414 -18.002   4.431  0.00  0.00    -0.245 OA
ATOM      4  O   LIG    1       23.189 -15.889   4.316  0.00  0.00    -0.422 OA
ATOM      5  C   LIG    1       24.173 -14.968   3.918  0.00  0.00    +0.143 A 
ATOM      6  C   LIG    1       25.401 -15.408   3.434  0.00  0.00    +0.059 A 
ATOM      7  C   LIG    1       26.315 -14.425   3.022  0.00  0.00    +0.015 A 
ATOM      8  C   LIG    1       25.997 -13.059   3.119  0.00  0.00    +0.001 A 
ATOM      9  C   LIG    1       24.758 -12.656   3.611  0.00  0.00    +0.004 A 
ATOM     10  C   LIG    1       23.835 -13.617   4.011  0.00  0.00    +0.047 A 
ATOM     11  C   LIG    1       25.633 -16.860   3.379  0.00  0.00    +0.138 C 
ENDROOT
BRANCH  11  12
ATOM     12  O   LIG    1       26.872 -17.292   2.940  0.00  0.00    -0.505 OA
ATOM     13  H   LIG    1       27.212 -16.652   2.294  0.00  0.00    +0.292 HD
ENDBRANCH  11  12
BRANCH   1  14
ATOM     14  C   LIG    1       24.914 -19.272   3.688  0.00  0.00    +0.059 C 
BRANCH  14  15
ATOM     15  C   LIG    1       25.723 -19.809   4.886  0.00  0.00    -0.040 A 
ATOM     16  C   LIG    1       25.081 -20.445   5.965  0.00  0.00    +0.004 A 
ATOM     17  C   LIG    1       25.819 -20.968   7.036  0.00  0.00    +0.000 A 
ATOM     18  C   LIG    1       27.207 -20.847   7.062  0.00  0.00    +0.000 A 
ATOM     19  C   LIG    1       27.856 -20.193   6.021  0.00  0.00    +0.000 A 
ATOM     20  C   LIG    1       27.122 -19.685   4.947  0.00  0.00    +0.004 A 
ENDBRANCH  14  15
BRANCH  14  22
ATOM     21  C   LIG    1       23.833 -21.572   3.140  0.00  0.00    +0.005 C 
ATOM     22  C   LIG    1       23.616 -20.096   3.449  0.00  0.00    +0.010 C 
ENDBRANCH  14  22
ENDBRANCH   1  14
TORSDOF 4
ENDMDL
MODEL 3
REMARK VINA RESULT:      -5.5      1.558      6.147
REMARK  Name = *****
REMARK                            x       y       z     vdW  Elec       q    Type
REMARK                         _______ _______ _______ _____ _____    ______ ____
ROOT
ATOM      1  C   LIG    1       24.028 -17.571   3.852  0.00  0.00    +0.086 C 
ATOM      2  C   LIG    1       25.359 -17.826   3.237  0.00  0.00    +0.345 C 
ATOM      3  O   LIG    1       25.772 -18.956   2.981  0.00  0.00    -0.245 OA
ATOM      4  O   LIG    1       26.165 -16.736   2.959  0.00  0.00    -0.422 OA
ATOM      5  C   LIG    1       25.825 -15.432   3.355  0.00  0.00    +0.143 A 
ATOM      6  C   LIG    1       24.616 -15.176   3.992  0.00  0.00    +0.059 A 
ATOM      7  C   LIG    1       24.370 -13.852   4.388  0.00  0.00    +0.015 A 
ATOM      8  C   LIG    1       25.305 -12.836   4.128  0.00  0.00    +0.001 A 
ATOM      9  C   LIG    1       26.506 -13.129   3.486  0.00  0.00    +0.004 A 
ATOM     10  C   LIG    1       26.772 -14.438   3.098  0.00  0.00    +0.047 A 
ATOM     11  C   LIG    1       23.706 -16.311   4.211  0.00  0.00    +0.138 C 
ENDROOT
BRANCH  11  12
ATOM     12  O   LIG    1       22.484 -16.045   4.803  0.00  0.00    -0.505 OA
ATOM     13  H   LIG    1       22.015 -16.884   4.936  0.00  0.00    +0.292 HD
ENDBRANCH  11  12
BRANCH   1  14
ATOM     14  C   LIG    1       23.091 -18.768   4.075  0.00  0.00    +0.059 C 
BRANCH  14  15
ATOM     15  C   LIG    1       23.624 -19.772   5.117  0.00  0.00    -0.040 A 
ATOM     16  C   LIG    1       24.979 -20.152   5.127  0.00  0.00    +0.004 A 
ATOM     17  C   LIG    1       25.474 -21.035   6.099  0.00  0.00    +0.000 A 
ATOM     18  C   LIG    1       24.622 -21.570   7.062  0.00  0.00    +0.000 A 
ATOM     19  C   LIG    1       23.274 -21.232   7.048  0.00  0.00    +0.000 A 
ATOM     20  C   LIG    1       22.785 -20.342   6.089  0.00  0.00    +0.004 A 
ENDBRANCH  14  15
BRANCH  14  22
ATOM     21  C   LIG    1       20.644 -18.638   3.210  0.00  0.00    +0.005 C 
ATOM     22  C   LIG    1       21.614 -18.372   4.354  0.00  0.00    +0.010 C 
ENDBRANCH  14  22
ENDBRANCH   1  14
TORSDOF 4
ENDMDL
MODEL 4
REMARK VINA RESULT:      -5.4      1.205      3.309
REMARK  Name = *****
REMARK                            x       y       z     vdW  Elec       q    Type
REMARK                         _______ _______ _______ _____ _____    ______ ____
ROOT
ATOM      1  C   LIG    1       24.834 -16.481   3.667  0.00  0.00    +0.086 C 
ATOM      2  C   LIG    1       23.484 -16.189   4.219  0.00  0.00    +0.345 C 
ATOM      3  O   LIG    1       23.094 -15.049   4.465  0.00  0.00    -0.245 OA
ATOM      4  O   LIG    1       22.644 -17.258   4.479  0.00  0.00    -0.422 OA
ATOM      5  C   LIG    1       23.069 -18.592   4.362  0.00  0.00    +0.143 A 
ATOM      6  C   LIG    1       24.350 -18.891   3.910  0.00  0.00    +0.059 A 
ATOM      7  C   LIG    1       24.709 -20.247   3.859  0.00  0.00    +0.015 A 
ATOM      8  C   LIG    1       23.797 -21.249   4.231  0.00  0.00    +0.001 A 
ATOM      9  C   LIG    1       22.521 -20.912   4.677  0.00  0.00    +0.004 A 
ATOM     10  C   LIG    1       22.153 -19.573   4.747  0.00  0.00    +0.047 A 
ATOM     11  C   LIG    1       25.225 -17.766   3.541  0.00  0.00    +0.138 C 
ENDROOT
BRANCH  11  12
ATOM     12  O   LIG    1       26.481 -18.070   3.049  0.00  0.00    -0.505 OA
ATOM     13  H   LIG    1       27.138 -17.886   3.740  0.00  0.00    +0.292 HD
ENDBRANCH  11  12
BRANCH   1  14
ATOM     14  C   LIG    1       25.734 -15.295   3.288  0.00  0.00    +0.059 C 
BRANCH  14  15
ATOM     15  C   LIG    1       25.036 -13.929   3.443  0.00  0.00    -0.040 A 
ATOM     16  C   LIG    1       24.540 -13.239   2.321  0.00  0.00    +0.004 A 
ATOM     17  C   LIG    1       23.870 -12.015   2.464  0.00  0.00    +0.000 A 
ATOM     18  C   LIG    1       23.704 -11.447   3.725  0.00  0.00    +0.000 A 
ATOM     19  C   LIG    1       24.216 -12.097   4.842  0.00  0.00    +0.000 A 
ATOM     20  C   LIG    1       24.870 -13.323   4.700  0.00  0.00    +0.004 A 
ENDBRANCH  14  15
BRANCH  14  22
ATOM     21  C   LIG    1       27.987 -14.078   3.734  0.00  0.00    +0.005 C 
ATOM     22  C   LIG    1       27.129 -15.314   3.974  0.00  0.00    +0.010 C 
ENDBRANCH  14  22
ENDBRANCH   1  14
TORSDOF 4
ENDMDL
MODEL 5
REMARK VINA RESULT:      -5.3      1.648      6.407
REMARK  Name = *****
REMARK                            x       y       z     vdW  Elec       q    Type
REMARK                         _______ _______ _______ _____ _____    ______ ____
ROOT
ATOM      1  C   LIG    1       23.992 -17.575   3.933  0.00  0.00    +0.086 C 
ATOM      2  C   LIG    1       23.002 -16.593   4.452  0.00  0.00    +0.345 C 
ATOM      3  O   LIG    1       21.870 -16.912   4.813  0.00  0.00    -0.245 OA
ATOM      4  O   LIG    1       23.376 -15.263   4.509  0.00  0.00    -0.422 OA
ATOM      5  C   LIG    1       24.594 -14.802   3.980  0.00  0.00    +0.143 A 
ATOM      6  C   LIG    1       25.509 -15.692   3.429  0.00  0.00    +0.059 A 
ATOM      7  C   LIG    1       26.685 -15.147   2.888  0.00  0.00    +0.015 A 
ATOM      8  C   LIG    1       26.921 -13.762   2.926  0.00  0.00    +0.001 A 
ATOM      9  C   LIG    1       25.981 -12.901   3.488  0.00  0.00    +0.004 A 
ATOM     10  C   LIG    1       24.806 -13.422   4.017  0.00  0.00    +0.047 A 
ATOM     11  C   LIG    1       25.165 -17.123   3.444  0.00  0.00    +0.138 C 
ENDROOT
BRANCH  11  12
ATOM     12  O   LIG    1       26.099 -18.009   2.938  0.00  0.00    -0.505 OA
ATOM     13  H   LIG    1       26.986 -17.647   3.092  0.00  0.00    +0.292 HD
ENDBRANCH  11  12
BRANCH   1  14
ATOM     14  C   LIG    1       23.616 -19.064   3.955  0.00  0.00    +0.059 C 
BRANCH  14  15
ATOM     15  C   LIG    1       24.395 -19.872   5.012  0.00  0.00    -0.040 A 
ATOM     16  C   LIG    1       23.737 -20.437   6.121  0.00  0.00    +0.004 A 
ATOM     17  C   LIG    1       24.437 -21.205   7.062  0.00  0.00    +0.000 A 
ATOM     18  C   LIG    1       25.809 -21.404   6.927  0.00  0.00    +0.000 A 
ATOM     19  C   LIG    1       26.483 -20.827   5.857  0.00  0.00    +0.000 A 
ATOM     20  C   LIG    1       25.783 -20.074   4.912  0.00  0.00    +0.004 A 
ENDBRANCH  14  15
BRANCH  14  22
ATOM     21  C   LIG    1       21.693 -20.753   4.411  0.00  0.00    +0.005 C 
ATOM     22  C   LIG    1       22.085 -19.329   4.036  0.00  0.00    +0.010 C 
ENDBRANCH  14  22
ENDBRANCH   1  14
TORSDOF 4
ENDMDL
MODEL 6
REMARK VINA RESULT:      -5.1      0.676      2.405
REMARK  Name = *****
REMARK                            x       y       z     vdW  Elec       q    Type
REMARK                         _______ _______ _______ _____ _____    ______ ____
ROOT
ATOM      1  C   LIG    1       24.103 -15.416   4.066  0.00  0.00    +0.086 C 
ATOM      2  C   LIG    1       22.852 -15.794   4.777  0.00  0.00    +0.345 C 
ATOM      3  O   LIG    1       22.128 -14.974   5.339  0.00  0.00    -0.245 OA
ATOM      4  O   LIG    1       22.506 -17.133   4.814  0.00  0.00    -0.422 OA
ATOM      5  C   LIG    1       23.354 -18.141   4.324  0.00  0.00    +0.143 A 
ATOM      6  C   LIG    1       24.561 -17.817   3.713  0.00  0.00    +0.059 A 
ATOM      7  C   LIG    1       25.366 -18.885   3.284  0.00  0.00    +0.015 A 
ATOM      8  C   LIG    1       24.949 -20.216   3.453  0.00  0.00    +0.001 A 
ATOM      9  C   LIG    1       23.732 -20.502   4.067  0.00  0.00    +0.004 A 
ATOM     10  C   LIG    1       22.928 -19.458   4.510  0.00  0.00    +0.047 A 
ATOM     11  C   LIG    1       24.900 -16.391   3.582  0.00  0.00    +0.138 C 
ENDROOT
BRANCH  11  12
ATOM     12  O   LIG    1       26.079 -16.073   2.934  0.00  0.00    -0.505 OA
ATOM     13  H   LIG    1       25.887 -15.931   1.993  0.00  0.00    +0.292 HD
ENDBRANCH  11  12
BRANCH   1  14
ATOM     14  C   LIG    1       24.442 -13.923   3.940  0.00  0.00    +0.059 C 
BRANCH  14  15
ATOM     15  C   LIG    1       25.946 -13.625   4.098  0.00  0.00    -0.040 A 
ATOM     16  C   LIG    1       26.769 -13.442   2.970  0.00  0.00    +0.004 A 
ATOM     17  C   LIG    1       28.129 -13.132   3.113  0.00  0.00    +0.000 A 
ATOM     18  C   LIG    1       28.698 -13.023   4.380  0.00  0.00    +0.000 A 
ATOM     19  C   LIG    1       27.909 -13.232   5.505  0.00  0.00    +0.000 A 
ATOM     20  C   LIG    1       26.551 -13.526   5.363  0.00  0.00    +0.004 A 
ENDBRANCH  14  15
BRANCH  14  22
ATOM     21  C   LIG    1       23.896 -11.721   2.671  0.00  0.00    +0.005 C 
ATOM     22  C   LIG    1       23.846 -13.244   2.674  0.00  0.00    +0.010 C 
ENDBRANCH  14  22
ENDBRANCH   1  14
TORSDOF 4
ENDMDL
MODEL 7
REMARK VINA RESULT:      -4.3      1.501      6.475
REMARK  Name = *****
REMARK                            x       y       z     vdW  Elec       q    Type
REMARK                         _______ _______ _______ _____ _____    ______ ____
ROOT
ATOM      1  C   LIG    1       24.035 -17.197   3.889  0.00  0.00    +0.086 C 
ATOM      2  C   LIG    1       23.156 -16.161   4.495  0.00  0.00    +0.345 C 
ATOM      3  O   LIG    1       21.968 -16.355   4.746  0.00  0.00    -0.245 OA
ATOM      4  O   LIG    1       23.707 -14.922   4.769  0.00  0.00    -0.422 OA
ATOM      5  C   LIG    1       25.012 -14.578   4.378  0.00  0.00    +0.143 A 
ATOM      6  C   LIG    1       25.832 -15.509   3.751  0.00  0.00    +0.059 A 
ATOM      7  C   LIG    1       27.109 -15.074   3.358  0.00  0.00    +0.015 A 
ATOM      8  C   LIG    1       27.532 -13.759   3.614  0.00  0.00    +0.001 A 
ATOM      9  C   LIG    1       26.683 -12.854   4.247  0.00  0.00    +0.004 A 
ATOM     10  C   LIG    1       25.411 -13.264   4.631  0.00  0.00    +0.047 A 
ATOM     11  C   LIG    1       25.293 -16.860   3.535  0.00  0.00    +0.138 C 
ENDROOT
BRANCH  11  12
ATOM     12  O   LIG    1       26.128 -17.796   2.952  0.00  0.00    -0.505 OA
ATOM     13  H   LIG    1       26.762 -18.104   3.620  0.00  0.00    +0.292 HD
ENDBRANCH  11  12
BRANCH   1  14
ATOM     14  C   LIG    1       23.454 -18.603   3.671  0.00  0.00    +0.059 C 
BRANCH  14  15
ATOM     15  C   LIG    1       23.883 -19.612   4.754  0.00  0.00    -0.040 A 
ATOM     16  C   LIG    1       24.862 -20.588   4.487  0.00  0.00    +0.004 A 
ATOM     17  C   LIG    1       25.281 -21.481   5.483  0.00  0.00    +0.000 A 
ATOM     18  C   LIG    1       24.716 -21.433   6.755  0.00  0.00    +0.000 A 
ATOM     19  C   LIG    1       23.725 -20.499   7.029  0.00  0.00    +0.000 A 
ATOM     20  C   LIG    1       23.318 -19.599   6.041  0.00  0.00    +0.004 A 
ENDBRANCH  14  15
BRANCH  14  22
ATOM     21  C   LIG    1       21.184 -19.812   4.043  0.00  0.00    +0.005 C 
ATOM     22  C   LIG    1       21.917 -18.623   3.436  0.00  0.00    +0.010 C 
ENDBRANCH  14  22
ENDBRANCH   1  14
TORSDOF 4
ENDMDL
MODEL 8
REMARK VINA RESULT:      -4.2      1.627      6.696
REMARK  Name = *****
REMARK                            x       y       z     vdW  Elec       q    Type
REMARK                         _______ _______ _______ _____ _____    ______ ____
ROOT
ATOM      1  C   LIG    1       24.720 -17.769   3.739  0.00  0.00    +0.086 C 
ATOM      2  C   LIG    1       23.377 -17.283   4.157  0.00  0.00    +0.345 C 
ATOM      3  O   LIG    1       22.418 -18.034   4.326  0.00  0.00    -0.245 OA
ATOM      4  O   LIG    1       23.208 -15.923   4.343  0.00  0.00    -0.422 OA
ATOM      5  C   LIG    1       24.212 -14.992   4.029  0.00  0.00    +0.143 A 
ATOM      6  C   LIG    1       25.455 -15.416   3.573  0.00  0.00    +0.059 A 
ATOM      7  C   LIG    1       26.390 -14.421   3.246  0.00  0.00    +0.015 A 
ATOM      8  C   LIG    1       26.075 -13.060   3.395  0.00  0.00    +0.001 A 
ATOM      9  C   LIG    1       24.820 -12.671   3.856  0.00  0.00    +0.004 A 
ATOM     10  C   LIG    1       23.877 -13.644   4.173  0.00  0.00    +0.047 A 
ATOM     11  C   LIG    1       25.682 -16.866   3.458  0.00  0.00    +0.138 C 
ENDROOT
BRANCH  11  12
ATOM     12  O   LIG    1       26.935 -17.285   3.049  0.00  0.00    -0.505 OA
ATOM     13  H   LIG    1       27.440 -17.562   3.831  0.00  0.00    +0.292 HD
ENDBRANCH  11  12
BRANCH   1  14
ATOM     14  C   LIG    1       24.939 -19.285   3.623  0.00  0.00    +0.059 C 
BRANCH  14  15
ATOM     15  C   LIG    1       24.421 -20.069   4.845  0.00  0.00    -0.040 A 
ATOM     16  C   LIG    1       23.099 -20.551   4.889  0.00  0.00    +0.004 A 
ATOM     17  C   LIG    1       22.639 -21.297   5.983  0.00  0.00    +0.000 A 
ATOM     18  C   LIG    1       23.481 -21.558   7.062  0.00  0.00    +0.000 A 
ATOM     19  C   LIG    1       24.779 -21.063   7.052  0.00  0.00    +0.000 A 
ATOM     20  C   LIG    1       25.242 -20.332   5.956  0.00  0.00    +0.004 A 
ENDBRANCH  14  15
BRANCH  14  22
ATOM     21  C   LIG    1       23.825 -21.289   2.399  0.00  0.00    +0.005 C 
ATOM     22  C   LIG    1       24.433 -19.897   2.286  0.00  0.00    +0.010 C 
ENDBRANCH  14  22
ENDBRANCH   1  14
TORSDOF 4
ENDMDL
MODEL 9
REMARK VINA RESULT:      -3.8      1.170      2.713
REMARK  Name = *****
REMARK                            x       y       z     vdW  Elec       q    Type
REMARK                         _______ _______ _______ _____ _____    ______ ____
ROOT
ATOM      1  C   LIG    1       25.564 -16.196   3.590  0.00  0.00    +0.086 C 
ATOM      2  C   LIG    1       26.398 -17.428   3.553  0.00  0.00    +0.345 C 
ATOM      3  O   LIG    1       27.584 -17.423   3.229  0.00  0.00    -0.245 OA
ATOM      4  O   LIG    1       25.796 -18.628   3.884  0.00  0.00    -0.422 OA
ATOM      5  C   LIG    1       24.415 -18.735   4.122  0.00  0.00    +0.143 A 
ATOM      6  C   LIG    1       23.602 -17.608   4.097  0.00  0.00    +0.059 A 
ATOM      7  C   LIG    1       22.228 -17.806   4.308  0.00  0.00    +0.015 A 
ATOM      8  C   LIG    1       21.714 -19.090   4.551  0.00  0.00    +0.001 A 
ATOM      9  C   LIG    1       22.559 -20.197   4.571  0.00  0.00    +0.004 A 
ATOM     10  C   LIG    1       23.921 -20.021   4.351  0.00  0.00    +0.047 A 
ATOM     11  C   LIG    1       24.243 -16.309   3.838  0.00  0.00    +0.138 C 
ENDROOT
BRANCH  11  12
ATOM     12  O   LIG    1       23.438 -15.184   3.860  0.00  0.00    -0.505 OA
ATOM     13  H   LIG    1       23.747 -14.595   4.568  0.00  0.00    +0.292 HD
ENDBRANCH  11  12
BRANCH   1  14
ATOM     14  C   LIG    1       26.250 -14.848   3.316  0.00  0.00    +0.059 C 
BRANCH  14  15
ATOM     15  C   LIG    1       25.326 -13.637   3.551  0.00  0.00    -0.040 A 
ATOM     16  C   LIG    1       24.757 -12.941   2.469  0.00  0.00    +0.004 A 
ATOM     17  C   LIG    1       23.885 -11.863   2.682  0.00  0.00    +0.000 A 
ATOM     18  C   LIG    1       23.584 -11.447   3.977  0.00  0.00    +0.000 A 
ATOM     19  C   LIG    1       24.162 -12.101   5.058  0.00  0.00    +0.000 A 
ATOM     20  C   LIG    1       25.018 -13.184   4.846  0.00  0.00    +0.004 A 
ENDBRANCH  14  15
BRANCH  14  22
ATOM     21  C   LIG    1       28.398 -13.424   3.653  0.00  0.00    +0.005 C 
ATOM     22  C   LIG    1       27.621 -14.679   4.030  0.00  0.00    +0.010 C 
ENDBRANCH  14  22
ENDBRANCH   1  14
TORSDOF 4
ENDMDL
