MODEL 1
REMARK VINA RESULT:      -5.4      0.000      0.000
REMARK  Name = *****
REMARK                            x       y       z     vdW  Elec       q    Type
REMARK                         _______ _______ _______ _____ _____    ______ ____
ROOT
ATOM      1  C   LIG    1       25.412 -19.331   4.055  0.00  0.00    +0.180 C 
ATOM      2  O   LIG    1       25.702 -18.299   3.453  0.00  0.00    -0.290 OA
ENDROOT
BRANCH   1   3
ATOM      3  C   LIG    1       26.380 -19.868   5.085  0.00  0.00    +0.019 A 
ATOM      4  C   LIG    1       26.015 -20.744   6.103  0.00  0.00    +0.011 A 
ATOM      5  C   LIG    1       26.952 -21.152   7.062  0.00  0.00    +0.001 A 
ATOM      6  C   LIG    1       28.260 -20.676   7.005  0.00  0.00    +0.000 A 
ATOM      7  C   LIG    1       28.638 -19.809   5.987  0.00  0.00    +0.001 A 
ATOM      8  C   LIG    1       27.710 -19.398   5.024  0.00  0.00    +0.011 A 
ENDBRANCH   1   3
BRANCH   1   9
ATOM      9  C   LIG    1       24.060 -20.072   3.854  0.00  0.00    +0.125 C 
ATOM     10  C   LIG    1       24.440 -21.553   3.692  0.00  0.00    +0.032 C 
BRANCH   9  11
ATOM     11  N   LIG    1       23.107 -19.816   4.986  0.00  0.00    -0.293 NA
BRANCH  11  13
ATOM     12  C   LIG    1       23.063 -21.311   7.062  0.00  0.00    +0.020 C 
ATOM     13  C   LIG    1       22.617 -21.057   5.622  0.00  0.00    +0.082 C 
ENDBRANCH  11  13
BRANCH  11  14
ATOM     14  C   LIG    1       22.020 -18.909   4.571  0.00  0.00    +0.082 C 
ATOM     15  C   LIG    1       22.331 -17.415   4.637  0.00  0.00    +0.020 C 
ENDBRANCH  11  14
ENDBRANCH   9  11
ENDBRANCH   1   9
TORSDOF 5
ENDMDL
MODEL 2
REMARK VINA RESULT:      -5.0      1.709      2.459
REMARK  Name = *****
REMARK                            x       y       z     vdW  Elec       q    Type
REMARK                         _______ _______ _______ _____ _____    ______ ____
ROOT
ATOM      1  C   LIG    1       25.258 -20.941   6.028  0.00  0.00    +0.180 C 
ATOM      2  O   LIG    1       24.665 -21.461   6.971  0.00  0.00    -0.290 OA
ENDROOT
BRANCH   1   3
ATOM      3  C   LIG    1       26.748 -20.713   6.145  0.00  0.00    +0.019 A 
ATOM      4  C   LIG    1       27.584 -21.479   6.953  0.00  0.00    +0.011 A 
ATOM      5  C   LIG    1       28.947 -21.170   7.062  0.00  0.00    +0.001 A 
ATOM      6  C   LIG    1       29.475 -20.087   6.363  0.00  0.00    +0.000 A 
ATOM      7  C   LIG    1       28.652 -19.321   5.546  0.00  0.00    +0.001 A 
ATOM      8  C   LIG    1       27.290 -19.624   5.429  0.00  0.00    +0.011 A 
ENDBRANCH   1   3
BRANCH   1   9
ATOM      9  C   LIG    1       24.556 -20.570   4.692  0.00  0.00    +0.125 C 
ATOM     10  C   LIG    1       23.395 -21.571   4.563  0.00  0.00    +0.032 C 
BRANCH   9  11
ATOM     11  N   LIG    1       24.116 -19.135   4.671  0.00  0.00    -0.293 NA
BRANCH  11  13
ATOM     12  C   LIG    1       21.778 -18.234   4.149  0.00  0.00    +0.020 C 
ATOM     13  C   LIG    1       22.719 -18.950   5.119  0.00  0.00    +0.082 C 
ENDBRANCH  11  13
BRANCH  11  14
ATOM     14  C   LIG    1       24.392 -18.513   3.362  0.00  0.00    +0.082 C 
ATOM     15  C   LIG    1       25.516 -17.480   3.333  0.00  0.00    +0.020 C 
ENDBRANCH  11  14
ENDBRANCH   9  11
ENDBRANCH   1   9
TORSDOF 5
ENDMDL
MODEL 3
REMARK VINA RESULT:      -4.4      3.708      5.647
REMARK  Name = *****
REMARK                            x       y       z     vdW  Elec       q    Type
REMARK                         _______ _______ _______ _____ _____    ______ ____
ROOT
ATOM      1  C   LIG    1       25.355 -16.774   3.441  0.00  0.00    +0.180 C 
ATOM      2  O   LIG    1       26.559 -16.981   3.305  0.00  0.00    -0.290 OA
ENDROOT
BRANCH   1   3
ATOM      3  C   LIG    1       24.452 -17.939   3.779  0.00  0.00    +0.019 A 
ATOM      4  C   LIG    1       23.114 -17.799   4.134  0.00  0.00    +0.011 A 
ATOM      5  C   LIG    1       22.353 -18.918   4.498  0.00  0.00    +0.001 A 
ATOM      6  C   LIG    1       22.936 -20.184   4.511  0.00  0.00    +0.000 A 
ATOM      7  C   LIG    1       24.268 -20.336   4.149  0.00  0.00    +0.001 A 
ATOM      8  C   LIG    1       25.035 -19.225   3.782  0.00  0.00    +0.011 A 
ENDBRANCH   1   3
BRANCH   1   9
ATOM      9  C   LIG    1       24.727 -15.355   3.347  0.00  0.00    +0.125 C 
ATOM     10  C   LIG    1       23.741 -15.279   4.525  0.00  0.00    +0.032 C 
BRANCH   9  11
ATOM     11  N   LIG    1       25.773 -14.278   3.370  0.00  0.00    -0.293 NA
BRANCH  11  13
ATOM     12  C   LIG    1       27.297 -13.395   5.226  0.00  0.00    +0.020 C 
ATOM     13  C   LIG    1       25.884 -13.605   4.682  0.00  0.00    +0.082 C 
ENDBRANCH  11  13
BRANCH  11  14
ATOM     14  C   LIG    1       25.590 -13.336   2.249  0.00  0.00    +0.082 C 
ATOM     15  C   LIG    1       24.475 -12.305   2.415  0.00  0.00    +0.020 C 
ENDBRANCH  11  14
ENDBRANCH   9  11
ENDBRANCH   1   9
TORSDOF 5
ENDMDL
MODEL 4
REMARK VINA RESULT:      -4.4      2.613      4.324
REMARK  Name = *****
REMARK                            x       y       z     vdW  Elec       q    Type
REMARK                         _______ _______ _______ _____ _____    ______ ____
ROOT
ATOM      1  C   LIG    1       25.492 -17.833   3.589  0.00  0.00    +0.180 C 
ATOM      2  O   LIG    1       26.661 -18.207   3.511  0.00  0.00    -0.290 OA
ENDROOT
BRANCH   1   3
ATOM      3  C   LIG    1       25.209 -16.350   3.665  0.00  0.00    +0.019 A 
ATOM      4  C   LIG    1       23.994 -15.817   4.086  0.00  0.00    +0.011 A 
ATOM      5  C   LIG    1       23.780 -14.432   4.071  0.00  0.00    +0.001 A 
ATOM      6  C   LIG    1       24.785 -13.576   3.626  0.00  0.00    +0.000 A 
ATOM      7  C   LIG    1       26.006 -14.095   3.214  0.00  0.00    +0.001 A 
ATOM      8  C   LIG    1       26.229 -15.477   3.228  0.00  0.00    +0.011 A 
ENDBRANCH   1   3
BRANCH   1   9
ATOM      9  C   LIG    1       24.287 -18.814   3.544  0.00  0.00    +0.125 C 
ATOM     10  C   LIG    1       24.699 -19.901   2.537  0.00  0.00    +0.032 C 
BRANCH   9  11
ATOM     11  N   LIG    1       23.953 -19.352   4.905  0.00  0.00    -0.293 NA
BRANCH  11  13
ATOM     12  C   LIG    1       25.834 -20.631   6.078  0.00  0.00    +0.020 C 
ATOM     13  C   LIG    1       24.592 -20.655   5.186  0.00  0.00    +0.082 C 
ENDBRANCH  11  13
BRANCH  11  14
ATOM     14  C   LIG    1       22.494 -19.362   5.129  0.00  0.00    +0.082 C 
ATOM     15  C   LIG    1       21.663 -18.506   4.175  0.00  0.00    +0.020 C 
ENDBRANCH  11  14
ENDBRANCH   9  11
ENDBRANCH   1   9
TORSDOF 5
ENDMDL
MODEL 5
REMARK VINA RESULT:      -4.3      3.837      6.015
REMARK  Name = *****
REMARK                            x       y       z     vdW  Elec       q    Type
REMARK                         _______ _______ _______ _____ _____    ______ ____
ROOT
ATOM      1  C   LIG    1       23.378 -15.652   4.434  0.00  0.00    +0.180 C 
ATOM      2  O   LIG    1       22.584 -15.102   5.195  0.00  0.00    -0.290 OA
ENDROOT
BRANCH   1   3
ATOM      3  C   LIG    1       23.311 -17.154   4.277  0.00  0.00    +0.019 A 
ATOM      4  C   LIG    1       22.224 -17.924   4.681  0.00  0.00    +0.011 A 
ATOM      5  C   LIG    1       22.257 -19.320   4.564  0.00  0.00    +0.001 A 
ATOM      6  C   LIG    1       23.385 -19.950   4.043  0.00  0.00    +0.000 A 
ATOM      7  C   LIG    1       24.472 -19.191   3.627  0.00  0.00    +0.001 A 
ATOM      8  C   LIG    1       24.447 -17.796   3.738  0.00  0.00    +0.011 A 
ENDBRANCH   1   3
BRANCH   1   9
ATOM      9  C   LIG    1       24.403 -14.863   3.571  0.00  0.00    +0.125 C 
ATOM     10  C   LIG    1       23.726 -13.511   3.289  0.00  0.00    +0.032 C 
BRANCH   9  11
ATOM     11  N   LIG    1       25.732 -14.738   4.257  0.00  0.00    -0.293 NA
BRANCH  11  13
ATOM     12  C   LIG    1       27.068 -13.350   5.941  0.00  0.00    +0.020 C 
ATOM     13  C   LIG    1       25.906 -13.445   4.953  0.00  0.00    +0.082 C 
ENDBRANCH  11  13
BRANCH  11  14
ATOM     14  C   LIG    1       26.839 -15.053   3.333  0.00  0.00    +0.082 C 
ATOM     15  C   LIG    1       27.298 -13.914   2.425  0.00  0.00    +0.020 C 
ENDBRANCH  11  14
ENDBRANCH   9  11
ENDBRANCH   1   9
TORSDOF 5
ENDMDL
MODEL 6
REMARK VINA RESULT:      -4.0      1.903      5.307
REMARK  Name = *****
REMARK                            x       y       z     vdW  Elec       q    Type
REMARK                         _______ _______ _______ _____ _____    ______ ____
ROOT
ATOM      1  C   LIG    1       23.385 -20.720   5.859  0.00  0.00    +0.180 C 
ATOM      2  O   LIG    1       23.200 -20.897   7.062  0.00  0.00    -0.290 OA
ENDROOT
BRANCH   1   3
ATOM      3  C   LIG    1       22.324 -19.998   5.060  0.00  0.00    +0.019 A 
ATOM      4  C   LIG    1       21.221 -20.632   4.493  0.00  0.00    +0.011 A 
ATOM      5  C   LIG    1       20.309 -19.910   3.711  0.00  0.00    +0.001 A 
ATOM      6  C   LIG    1       20.505 -18.548   3.490  0.00  0.00    +0.000 A 
ATOM      7  C   LIG    1       21.596 -17.903   4.060  0.00  0.00    +0.001 A 
ATOM      8  C   LIG    1       22.510 -18.615   4.844  0.00  0.00    +0.011 A 
ENDBRANCH   1   3
BRANCH   1   9
ATOM      9  C   LIG    1       24.693 -21.146   5.136  0.00  0.00    +0.125 C 
ATOM     10  C   LIG    1       24.253 -21.526   3.712  0.00  0.00    +0.032 C 
BRANCH   9  11
ATOM     11  N   LIG    1       25.732 -20.063   5.175  0.00  0.00    -0.293 NA
BRANCH  11  13
ATOM     12  C   LIG    1       25.674 -18.191   3.431  0.00  0.00    +0.020 C 
ATOM     13  C   LIG    1       26.131 -19.594   3.830  0.00  0.00    +0.082 C 
ENDBRANCH  11  13
BRANCH  11  14
ATOM     14  C   LIG    1       26.879 -20.456   6.015  0.00  0.00    +0.082 C 
ATOM     15  C   LIG    1       28.181 -19.694   5.773  0.00  0.00    +0.020 C 
ENDBRANCH  11  14
ENDBRANCH   9  11
ENDBRANCH   1   9
TORSDOF 5
ENDMDL
MODEL 7
REMARK VINA RESULT:      -4.0      2.189      4.360
REMARK  Name = *****
REMARK                            x       y       z     vdW  Elec       q    Type
REMARK                         _______ _______ _______ _____ _____    ______ ____
ROOT
ATOM      1  C   LIG    1       23.231 -18.605   4.061  0.00  0.00    +0.180 C 
ATOM      2  O   LIG    1       22.006 -18.513   4.128  0.00  0.00    -0.290 OA
ENDROOT
BRANCH   1   3
ATOM      3  C   LIG    1       24.043 -17.346   3.859  0.00  0.00    +0.019 A 
ATOM      4  C   LIG    1       25.366 -17.344   3.424  0.00  0.00    +0.011 A 
ATOM      5  C   LIG    1       26.079 -16.142   3.320  0.00  0.00    +0.001 A 
ATOM      6  C   LIG    1       25.467 -14.937   3.658  0.00  0.00    +0.000 A 
ATOM      7  C   LIG    1       24.144 -14.926   4.083  0.00  0.00    +0.001 A 
ATOM      8  C   LIG    1       23.424 -16.121   4.187  0.00  0.00    +0.011 A 
ENDBRANCH   1   3
BRANCH   1   9
ATOM      9  C   LIG    1       23.986 -19.952   4.242  0.00  0.00    +0.125 C 
ATOM     10  C   LIG    1       24.924 -20.047   3.027  0.00  0.00    +0.032 C 
BRANCH   9  11
ATOM     11  N   LIG    1       24.701 -20.019   5.561  0.00  0.00    -0.293 NA
BRANCH  11  13
ATOM     12  C   LIG    1       26.864 -20.715   6.738  0.00  0.00    +0.020 C 
ATOM     13  C   LIG    1       26.108 -20.455   5.435  0.00  0.00    +0.082 C 
ENDBRANCH  11  13
BRANCH  11  14
ATOM     14  C   LIG    1       23.934 -20.811   6.541  0.00  0.00    +0.082 C 
ATOM     15  C   LIG    1       22.728 -21.572   5.994  0.00  0.00    +0.020 C 
ENDBRANCH  11  14
ENDBRANCH   9  11
ENDBRANCH   1   9
TORSDOF 5
ENDMDL
MODEL 8
REMARK VINA RESULT:      -3.9      1.648      2.720
REMARK  Name = *****
REMARK                            x       y       z     vdW  Elec       q    Type
REMARK                         _______ _______ _______ _____ _____    ______ ____
ROOT
ATOM      1  C   LIG    1       25.230 -20.632   5.055  0.00  0.00    +0.180 C 
ATOM      2  O   LIG    1       24.457 -21.306   5.732  0.00  0.00    -0.290 OA
ENDROOT
BRANCH   1   3
ATOM      3  C   LIG    1       26.619 -20.365   5.589  0.00  0.00    +0.019 A 
ATOM      4  C   LIG    1       27.439 -19.340   5.126  0.00  0.00    +0.011 A 
ATOM      5  C   LIG    1       28.741 -19.190   5.623  0.00  0.00    +0.001 A 
ATOM      6  C   LIG    1       29.227 -20.073   6.584  0.00  0.00    +0.000 A 
ATOM      7  C   LIG    1       28.413 -21.094   7.061  0.00  0.00    +0.001 A 
ATOM      8  C   LIG    1       27.111 -21.250   6.573  0.00  0.00    +0.011 A 
ENDBRANCH   1   3
BRANCH   1   9
ATOM      9  C   LIG    1       24.866 -20.098   3.641  0.00  0.00    +0.125 C 
ATOM     10  C   LIG    1       24.171 -21.276   2.939  0.00  0.00    +0.032 C 
BRANCH   9  11
ATOM     11  N   LIG    1       24.023 -18.858   3.711  0.00  0.00    -0.293 NA
BRANCH  11  13
ATOM     12  C   LIG    1       25.811 -17.172   2.997  0.00  0.00    +0.020 C 
ATOM     13  C   LIG    1       24.802 -17.645   4.043  0.00  0.00    +0.082 C 
ENDBRANCH  11  13
BRANCH  11  14
ATOM     14  C   LIG    1       22.857 -19.057   4.593  0.00  0.00    +0.082 C 
ATOM     15  C   LIG    1       21.567 -18.357   4.169  0.00  0.00    +0.020 C 
ENDBRANCH  11  14
ENDBRANCH   9  11
ENDBRANCH   1   9
TORSDOF 5
ENDMDL
MODEL 9
REMARK VINA RESULT:      -3.9      3.074      5.154
REMARK  Name = *****
REMARK                            x       y       z     vdW  Elec       q    Type
REMARK                         _______ _______ _______ _____ _____    ______ ____
ROOT
ATOM      1  C   LIG    1       25.535 -17.963   3.273  0.00  0.00    +0.180 C 
ATOM      2  O   LIG    1       25.941 -18.363   2.183  0.00  0.00    -0.290 OA
ENDROOT
BRANCH   1   3
ATOM      3  C   LIG    1       24.563 -18.826   4.046  0.00  0.00    +0.019 A 
ATOM      4  C   LIG    1       24.933 -19.979   4.732  0.00  0.00    +0.011 A 
ATOM      5  C   LIG    1       23.967 -20.766   5.375  0.00  0.00    +0.001 A 
ATOM      6  C   LIG    1       22.624 -20.399   5.326  0.00  0.00    +0.000 A 
ATOM      7  C   LIG    1       22.245 -19.244   4.653  0.00  0.00    +0.001 A 
ATOM      8  C   LIG    1       23.202 -18.451   4.011  0.00  0.00    +0.011 A 
ENDBRANCH   1   3
BRANCH   1   9
ATOM      9  C   LIG    1       26.031 -16.642   3.924  0.00  0.00    +0.125 C 
ATOM     10  C   LIG    1       27.562 -16.779   3.985  0.00  0.00    +0.032 C 
BRANCH   9  11
ATOM     11  N   LIG    1       25.565 -15.434   3.163  0.00  0.00    -0.293 NA
BRANCH  11  13
ATOM     12  C   LIG    1       26.871 -13.252   2.876  0.00  0.00    +0.020 C 
ATOM     13  C   LIG    1       26.666 -14.716   2.486  0.00  0.00    +0.082 C 
ENDBRANCH  11  13
BRANCH  11  14
ATOM     14  C   LIG    1       24.737 -14.557   4.013  0.00  0.00    +0.082 C 
ATOM     15  C   LIG    1       23.345 -15.080   4.362  0.00  0.00    +0.020 C 
ENDBRANCH  11  14
ENDBRANCH   9  11
ENDBRANCH   1   9
TORSDOF 5
ENDMDL
