MODEL 1
REMARK VINA RESULT:       1.1      0.000      0.000
REMARK  Name = *****
REMARK                            x       y       z     vdW  Elec       q    Type
REMARK                         _______ _______ _______ _____ _____    ______ ____
ROOT
ATOM      1  C   LIG    1       24.772 -15.313   3.782  0.00  0.00    +0.322 C 
ATOM      2  C   LIG    1       24.210 -13.989   4.188  0.00  0.00    +0.079 A 
ATOM      3  C   LIG    1       24.307 -12.858   3.371  0.00  0.00    +0.028 A 
ATOM      4  C   LIG    1       23.663 -11.672   3.743  0.00  0.00    +0.016 A 
ATOM      5  C   LIG    1       22.984 -11.598   4.967  0.00  0.00    +0.001 A 
ATOM      6  C   LIG    1       22.969 -12.698   5.825  0.00  0.00    +0.001 A 
ATOM      7  S   LIG    1       25.373 -12.832   1.935  0.00  0.00    -0.084 S 
ATOM      8  C   LIG    1       26.878 -13.266   2.811  0.00  0.00    +0.063 A 
ATOM      9  C   LIG    1       26.994 -14.486   3.508  0.00  0.00    +0.190 A 
ATOM     10  C   LIG    1       28.172 -14.745   4.214  0.00  0.00    +0.056 A 
ATOM     11  C   LIG    1       29.204 -13.813   4.272  0.00  0.00    +0.004 A 
ATOM     12  C   LIG    1       29.077 -12.596   3.601  0.00  0.00    +0.001 A 
ATOM     13  C   LIG    1       27.917 -12.327   2.869  0.00  0.00    +0.019 A 
ATOM     14  C   LIG    1       23.567 -13.897   5.440  0.00  0.00    +0.017 A 
ATOM     15  N   LIG    1       26.033 -15.505   3.490  0.00  0.00    -0.040 NA
ENDROOT
BRANCH   1  19
ATOM     16  N   LIG    1       22.315 -18.851   4.456  0.00  0.00    -0.293 NA
ATOM     17  C   LIG    1       21.736 -17.489   4.388  0.00  0.00    +0.128 C 
ATOM     18  C   LIG    1       22.734 -16.350   4.653  0.00  0.00    +0.241 C 
ATOM     19  N   LIG    1       23.904 -16.408   3.744  0.00  0.00    -0.218 N 
ATOM     20  C   LIG    1       24.527 -17.772   3.729  0.00  0.00    +0.241 C 
ATOM     21  C   LIG    1       23.462 -18.878   3.513  0.00  0.00    +0.128 C 
BRANCH  16  22
ATOM     22  C   LIG    1       22.733 -19.231   5.821  0.00  0.00    +0.112 C 
BRANCH  22  23
ATOM     23  C   LIG    1       23.090 -20.720   5.980  0.00  0.00    +0.175 C 
BRANCH  23  24
ATOM     24  O   LIG    1       24.288 -20.847   6.751  0.00  0.00    -0.376 OA
BRANCH  24  25
ATOM     25  C   LIG    1       25.358 -21.348   5.948  0.00  0.00    +0.187 C 
BRANCH  25  26
ATOM     26  C   LIG    1       26.551 -20.409   6.053  0.00  0.00    +0.184 C 
BRANCH  26  27
ATOM     27  O   LIG    1       27.026 -20.074   4.756  0.00  0.00    -0.393 OA
ATOM     28  H   LIG    1       26.358 -20.391   4.123  0.00  0.00    +0.209 HD
ENDBRANCH  26  27
ENDBRANCH  25  26
ENDBRANCH  24  25
ENDBRANCH  23  24
ENDBRANCH  22  23
ENDBRANCH  16  22
ENDBRANCH   1  19
TORSDOF 7
ENDMDL
MODEL 2
REMARK VINA RESULT:       2.4      1.991      4.337
REMARK  Name = *****
REMARK                            x       y       z     vdW  Elec       q    Type
REMARK                         _______ _______ _______ _____ _____    ______ ____
ROOT
ATOM      1  C   LIG    1       26.428 -15.338   3.715  0.00  0.00    +0.322 C 
ATOM      2  C   LIG    1       27.348 -14.217   4.081  0.00  0.00    +0.079 A 
ATOM      3  C   LIG    1       27.040 -13.303   5.093  0.00  0.00    +0.028 A 
ATOM      4  C   LIG    1       27.984 -12.343   5.477  0.00  0.00    +0.016 A 
ATOM      5  C   LIG    1       29.208 -12.255   4.799  0.00  0.00    +0.001 A 
ATOM      6  C   LIG    1       29.475 -13.106   3.726  0.00  0.00    +0.001 A 
ATOM      7  S   LIG    1       25.401 -13.215   5.806  0.00  0.00    -0.084 S 
ATOM      8  C   LIG    1       24.537 -12.950   4.255  0.00  0.00    +0.063 A 
ATOM      9  C   LIG    1       24.589 -13.901   3.216  0.00  0.00    +0.190 A 
ATOM     10  C   LIG    1       23.937 -13.616   2.013  0.00  0.00    +0.056 A 
ATOM     11  C   LIG    1       23.279 -12.406   1.813  0.00  0.00    +0.004 A 
ATOM     12  C   LIG    1       23.250 -11.455   2.834  0.00  0.00    +0.001 A 
ATOM     13  C   LIG    1       23.874 -11.731   4.054  0.00  0.00    +0.019 A 
ATOM     14  C   LIG    1       28.559 -14.095   3.369  0.00  0.00    +0.017 A 
ATOM     15  N   LIG    1       25.192 -15.161   3.322  0.00  0.00    -0.040 NA
ENDROOT
BRANCH   1  19
ATOM     16  N   LIG    1       27.560 -19.453   4.601  0.00  0.00    -0.293 NA
ATOM     17  C   LIG    1       26.598 -19.114   3.529  0.00  0.00    +0.128 C 
ATOM     18  C   LIG    1       25.934 -17.734   3.670  0.00  0.00    +0.241 C 
ATOM     19  N   LIG    1       26.931 -16.640   3.770  0.00  0.00    -0.218 N 
ATOM     20  C   LIG    1       27.966 -16.929   4.815  0.00  0.00    +0.241 C 
ATOM     21  C   LIG    1       28.556 -18.353   4.651  0.00  0.00    +0.128 C 
BRANCH  16  22
ATOM     22  C   LIG    1       26.912 -19.649   5.915  0.00  0.00    +0.112 C 
BRANCH  22  23
ATOM     23  C   LIG    1       26.087 -20.944   6.025  0.00  0.00    +0.175 C 
BRANCH  23  24
ATOM     24  O   LIG    1       24.696 -20.620   6.120  0.00  0.00    -0.376 OA
BRANCH  24  25
ATOM     25  C   LIG    1       23.967 -21.194   5.033  0.00  0.00    +0.187 C 
BRANCH  25  26
ATOM     26  C   LIG    1       22.698 -20.388   4.795  0.00  0.00    +0.184 C 
BRANCH  26  27
ATOM     27  O   LIG    1       21.568 -21.249   4.775  0.00  0.00    -0.393 OA
ATOM     28  H   LIG    1       21.692 -21.890   5.496  0.00  0.00    +0.209 HD
ENDBRANCH  26  27
ENDBRANCH  25  26
ENDBRANCH  24  25
ENDBRANCH  23  24
ENDBRANCH  22  23
ENDBRANCH  16  22
ENDBRANCH   1  19
TORSDOF 7
ENDMDL
