MODEL 1
REMARK VINA RESULT:      -3.6      0.000      0.000
REMARK  Name = *****
REMARK                            x       y       z     vdW  Elec       q    Type
REMARK                         _______ _______ _______ _____ _____    ______ ____
ROOT
ATOM      1  C   LIG    1       25.442 -14.614   3.724  0.00  0.00    +0.049 C 
ATOM      2  C   LIG    1       26.878 -14.578   3.235  0.00  0.00    +0.219 C 
ENDROOT
BRANCH   2   3
ATOM      3  C   LIG    1       27.704 -13.581   4.048  0.00  0.00    +0.333 C 
ATOM      4  O   LIG    1       27.460 -13.229   5.191  0.00  0.00    -0.248 OA
BRANCH   3   5
ATOM      5  O   LIG    1       28.765 -13.123   3.334  0.00  0.00    -0.479 OA
ATOM      6  H   LIG    1       29.486 -13.792   3.437  0.00  0.00    +0.295 HD
ENDBRANCH   3   5
ENDBRANCH   2   3
BRANCH   2   7
ATOM      7  O   LIG    1       26.903 -14.169   1.855  0.00  0.00    -0.381 OA
ATOM      8  H   LIG    1       27.827 -14.259   1.555  0.00  0.00    +0.210 HD
ENDBRANCH   2   7
TORSDOF 3
ENDMDL
MODEL 2
REMARK VINA RESULT:      -3.6      0.857      2.257
REMARK  Name = *****
REMARK                            x       y       z     vdW  Elec       q    Type
REMARK                         _______ _______ _______ _____ _____    ______ ____
ROOT
ATOM      1  C   LIG    1       24.810 -14.383   4.005  0.00  0.00    +0.049 C 
ATOM      2  C   LIG    1       26.015 -13.462   4.030  0.00  0.00    +0.219 C 
ENDROOT
BRANCH   2   3
ATOM      3  C   LIG    1       26.971 -13.787   2.881  0.00  0.00    +0.333 C 
ATOM      4  O   LIG    1       26.659 -14.346   1.841  0.00  0.00    -0.248 OA
BRANCH   3   5
ATOM      5  O   LIG    1       28.234 -13.372   3.159  0.00  0.00    -0.479 OA
ATOM      6  H   LIG    1       28.718 -14.156   3.517  0.00  0.00    +0.295 HD
ENDBRANCH   3   5
ENDBRANCH   2   3
BRANCH   2   7
ATOM      7  O   LIG    1       26.723 -13.632   5.271  0.00  0.00    -0.381 OA
ATOM      8  H   LIG    1       26.150 -13.266   5.971  0.00  0.00    +0.210 HD
ENDBRANCH   2   7
TORSDOF 3
ENDMDL
MODEL 3
REMARK VINA RESULT:      -3.6      1.409      3.004
REMARK  Name = *****
REMARK                            x       y       z     vdW  Elec       q    Type
REMARK                         _______ _______ _______ _____ _____    ______ ____
ROOT
ATOM      1  C   LIG    1       28.516 -13.183   3.789  0.00  0.00    +0.049 C 
ATOM      2  C   LIG    1       27.496 -14.226   4.203  0.00  0.00    +0.219 C 
ENDROOT
BRANCH   2   3
ATOM      3  C   LIG    1       26.769 -14.790   2.982  0.00  0.00    +0.333 C 
ATOM      4  O   LIG    1       26.608 -14.203   1.924  0.00  0.00    -0.248 OA
BRANCH   3   5
ATOM      5  O   LIG    1       26.317 -16.049   3.216  0.00  0.00    -0.479 OA
ATOM      6  H   LIG    1       26.387 -16.200   4.190  0.00  0.00    +0.295 HD
ENDBRANCH   3   5
ENDBRANCH   2   3
BRANCH   2   7
ATOM      7  O   LIG    1       26.520 -13.622   5.072  0.00  0.00    -0.381 OA
ATOM      8  H   LIG    1       25.956 -13.058   4.510  0.00  0.00    +0.210 HD
ENDBRANCH   2   7
TORSDOF 3
ENDMDL
MODEL 4
REMARK VINA RESULT:      -3.6      0.273      1.326
REMARK  Name = *****
REMARK                            x       y       z     vdW  Elec       q    Type
REMARK                         _______ _______ _______ _____ _____    ______ ____
ROOT
ATOM      1  C   LIG    1       25.401 -14.496   3.773  0.00  0.00    +0.049 C 
ATOM      2  C   LIG    1       26.853 -14.544   3.339  0.00  0.00    +0.219 C 
ENDROOT
BRANCH   2   3
ATOM      3  C   LIG    1       27.700 -13.578   4.168  0.00  0.00    +0.333 C 
ATOM      4  O   LIG    1       28.763 -13.090   3.816  0.00  0.00    -0.248 OA
BRANCH   3   5
ATOM      5  O   LIG    1       27.119 -13.318   5.368  0.00  0.00    -0.479 OA
ATOM      6  H   LIG    1       26.906 -12.353   5.377  0.00  0.00    +0.295 HD
ENDBRANCH   3   5
ENDBRANCH   2   3
BRANCH   2   7
ATOM      7  O   LIG    1       26.952 -14.159   1.955  0.00  0.00    -0.381 OA
ATOM      8  H   LIG    1       26.431 -14.809   1.448  0.00  0.00    +0.210 HD
ENDBRANCH   2   7
TORSDOF 3
ENDMDL
MODEL 5
REMARK VINA RESULT:      -3.5      1.175      2.521
REMARK  Name = *****
REMARK                            x       y       z     vdW  Elec       q    Type
REMARK                         _______ _______ _______ _____ _____    ______ ____
ROOT
ATOM      1  C   LIG    1       27.216 -13.469   5.224  0.00  0.00    +0.049 C 
ATOM      2  C   LIG    1       27.461 -13.330   3.733  0.00  0.00    +0.219 C 
ENDROOT
BRANCH   2   3
ATOM      3  C   LIG    1       26.830 -14.493   2.968  0.00  0.00    +0.333 C 
ATOM      4  O   LIG    1       26.830 -15.659   3.331  0.00  0.00    -0.248 OA
BRANCH   3   5
ATOM      5  O   LIG    1       26.256 -14.070   1.812  0.00  0.00    -0.479 OA
ATOM      6  H   LIG    1       25.919 -13.156   1.981  0.00  0.00    +0.295 HD
ENDBRANCH   3   5
ENDBRANCH   2   3
BRANCH   2   7
ATOM      7  O   LIG    1       28.878 -13.335   3.479  0.00  0.00    -0.381 OA
ATOM      8  H   LIG    1       29.309 -13.604   4.311  0.00  0.00    +0.210 HD
ENDBRANCH   2   7
TORSDOF 3
ENDMDL
MODEL 6
REMARK VINA RESULT:      -3.4      7.321      8.054
REMARK  Name = *****
REMARK                            x       y       z     vdW  Elec       q    Type
REMARK                         _______ _______ _______ _____ _____    ______ ____
ROOT
ATOM      1  C   LIG    1       22.300 -18.993   4.672  0.00  0.00    +0.049 C 
ATOM      2  C   LIG    1       22.694 -20.326   5.279  0.00  0.00    +0.219 C 
ENDROOT
BRANCH   2   3
ATOM      3  C   LIG    1       24.071 -20.765   4.781  0.00  0.00    +0.333 C 
ATOM      4  O   LIG    1       25.138 -20.446   5.284  0.00  0.00    -0.248 OA
BRANCH   3   5
ATOM      5  O   LIG    1       23.969 -21.569   3.691  0.00  0.00    -0.479 OA
ATOM      6  H   LIG    1       23.556 -22.413   3.999  0.00  0.00    +0.295 HD
ENDBRANCH   3   5
ENDBRANCH   2   3
BRANCH   2   7
ATOM      7  O   LIG    1       21.733 -21.328   4.897  0.00  0.00    -0.381 OA
ATOM      8  H   LIG    1       20.936 -21.170   5.436  0.00  0.00    +0.210 HD
ENDBRANCH   2   7
TORSDOF 3
ENDMDL
MODEL 7
REMARK VINA RESULT:      -3.4      1.689      2.282
REMARK  Name = *****
REMARK                            x       y       z     vdW  Elec       q    Type
REMARK                         _______ _______ _______ _____ _____    ______ ____
ROOT
ATOM      1  C   LIG    1       25.430 -13.293   2.580  0.00  0.00    +0.049 C 
ATOM      2  C   LIG    1       26.802 -13.929   2.462  0.00  0.00    +0.219 C 
ENDROOT
BRANCH   2   3
ATOM      3  C   LIG    1       26.879 -15.212   3.292  0.00  0.00    +0.333 C 
ATOM      4  O   LIG    1       26.103 -16.152   3.211  0.00  0.00    -0.248 OA
BRANCH   3   5
ATOM      5  O   LIG    1       27.934 -15.184   4.147  0.00  0.00    -0.479 OA
ATOM      6  H   LIG    1       27.809 -14.393   4.726  0.00  0.00    +0.295 HD
ENDBRANCH   3   5
ENDBRANCH   2   3
BRANCH   2   7
ATOM      7  O   LIG    1       27.798 -13.013   2.952  0.00  0.00    -0.381 OA
ATOM      8  H   LIG    1       28.436 -13.543   3.465  0.00  0.00    +0.210 HD
ENDBRANCH   2   7
TORSDOF 3
ENDMDL
MODEL 8
REMARK VINA RESULT:      -3.4      6.432      7.045
REMARK  Name = *****
REMARK                            x       y       z     vdW  Elec       q    Type
REMARK                         _______ _______ _______ _____ _____    ______ ____
ROOT
ATOM      1  C   LIG    1       23.121 -20.080   5.529  0.00  0.00    +0.049 C 
ATOM      2  C   LIG    1       24.228 -20.818   4.802  0.00  0.00    +0.219 C 
ENDROOT
BRANCH   2   3
ATOM      3  C   LIG    1       25.252 -19.837   4.232  0.00  0.00    +0.333 C 
ATOM      4  O   LIG    1       24.989 -18.865   3.541  0.00  0.00    -0.248 OA
BRANCH   3   5
ATOM      5  O   LIG    1       26.517 -20.177   4.594  0.00  0.00    -0.479 OA
ATOM      6  H   LIG    1       26.791 -19.541   5.298  0.00  0.00    +0.295 HD
ENDBRANCH   3   5
ENDBRANCH   2   3
BRANCH   2   7
ATOM      7  O   LIG    1       23.666 -21.571   3.712  0.00  0.00    -0.381 OA
ATOM      8  H   LIG    1       23.367 -20.921   3.049  0.00  0.00    +0.210 HD
ENDBRANCH   2   7
TORSDOF 3
ENDMDL
MODEL 9
REMARK VINA RESULT:      -3.3      2.189      2.989
REMARK  Name = *****
REMARK                            x       y       z     vdW  Elec       q    Type
REMARK                         _______ _______ _______ _____ _____    ______ ____
ROOT
ATOM      1  C   LIG    1       26.907 -13.787   4.242  0.00  0.00    +0.049 C 
ATOM      2  C   LIG    1       26.115 -13.407   3.005  0.00  0.00    +0.219 C 
ENDROOT
BRANCH   2   3
ATOM      3  C   LIG    1       24.615 -13.585   3.244  0.00  0.00    +0.333 C 
ATOM      4  O   LIG    1       24.118 -14.225   4.157  0.00  0.00    -0.248 OA
BRANCH   3   5
ATOM      5  O   LIG    1       23.885 -12.932   2.303  0.00  0.00    -0.479 OA
ATOM      6  H   LIG    1       23.605 -13.610   1.640  0.00  0.00    +0.295 HD
ENDBRANCH   3   5
ENDBRANCH   2   3
BRANCH   2   7
ATOM      7  O   LIG    1       26.503 -14.255   1.908  0.00  0.00    -0.381 OA
ATOM      8  H   LIG    1       25.718 -14.349   1.338  0.00  0.00    +0.210 HD
ENDBRANCH   2   7
TORSDOF 3
ENDMDL
