MODEL 1
REMARK VINA RESULT:      -8.2      0.000      0.000
REMARK  Name = *****
REMARK                            x       y       z     vdW  Elec       q    Type
REMARK                         _______ _______ _______ _____ _____    ______ ____
ROOT
ATOM      1  C   LIG    1       24.503 -22.380   6.383  0.00  0.00    +0.047 C 
ATOM      2  C   LIG    1       25.906 -21.918   5.962  0.00  0.00    +0.046 C 
ATOM      3  C   LIG    1       26.771 -22.193   7.185  0.00  0.00    +0.179 C 
ATOM      4  O   LIG    1       27.796 -21.205   7.253  0.00  0.00    -0.493 OA
ATOM      5  C   LIG    1       27.485 -20.264   6.286  0.00  0.00    +0.095 C 
ATOM      6  C   LIG    1       28.414 -19.406   5.844  0.00  0.00    +0.014 C 
ATOM      7  C   LIG    1       25.858 -22.131   8.413  0.00  0.00    +0.076 C 
ATOM      8  C   LIG    1       26.111 -20.429   5.727  0.00  0.00    +0.081 C 
ATOM      9  C   LIG    1       24.434 -21.956   7.869  0.00  0.00    +0.125 C 
ENDROOT
BRANCH   1  11
ATOM     10  C   LIG    1       25.106 -24.626   5.319  0.00  0.00    -0.000 C 
ATOM     11  C   LIG    1       24.355 -23.888   6.157  0.00  0.00    -0.022 C 
BRANCH  10  12
ATOM     12  C   LIG    1       24.984 -26.087   5.009  0.00  0.00    +0.137 C 
BRANCH  12  13
ATOM     13  O   LIG    1       26.318 -26.597   4.882  0.00  0.00    -0.388 OA
ATOM     14  H   LIG    1       26.369 -27.469   5.310  0.00  0.00    +0.210 HD
ENDBRANCH  12  13
BRANCH  12  15
ATOM     15  C   LIG    1       24.287 -26.885   6.129  0.00  0.00    +0.035 C 
BRANCH  15  16
ATOM     16  C   LIG    1       24.634 -28.386   6.172  0.00  0.00    +0.003 C 
BRANCH  16  17
ATOM     17  C   LIG    1       25.059 -28.845   7.579  0.00  0.00    -0.000 C 
BRANCH  17  19
ATOM     18  C   LIG    1       26.616 -28.559   9.548  0.00  0.00    +0.004 C 
ATOM     19  C   LIG    1       26.213 -28.023   8.176  0.00  0.00    -0.003 C 
ENDBRANCH  17  19
ENDBRANCH  16  17
ENDBRANCH  15  16
ENDBRANCH  12  15
ENDBRANCH  10  12
ENDBRANCH   1  11
BRANCH   9  20
ATOM     20  O   LIG    1       24.014 -20.602   7.994  0.00  0.00    -0.391 OA
ATOM     21  H   LIG    1       23.215 -20.499   7.446  0.00  0.00    +0.210 HD
ENDBRANCH   9  20
BRANCH   6  22
ATOM     22  C   LIG    1       29.824 -19.382   6.365  0.00  0.00    +0.031 C 
BRANCH  22  23
ATOM     23  C   LIG    1       29.890 -19.070   7.866  0.00  0.00    +0.015 C 
BRANCH  23  24
ATOM     24  C   LIG    1       31.218 -19.455   8.528  0.00  0.00    +0.121 C 
BRANCH  24  25
ATOM     25  C   LIG    1       31.205 -20.875   9.021  0.00  0.00    +0.305 C 
ATOM     26  O   LIG    1       32.203 -21.453   9.473  0.00  0.00    -0.251 OA
BRANCH  25  27
ATOM     27  O   LIG    1       30.007 -21.468   8.972  0.00  0.00    -0.481 OA
ATOM     28  H   LIG    1       30.047 -22.449   9.045  0.00  0.00    +0.295 HD
ENDBRANCH  25  27
ENDBRANCH  24  25
ENDBRANCH  23  24
ENDBRANCH  22  23
ENDBRANCH   6  22
TORSDOF 13
ENDMDL
MODEL 2
REMARK VINA RESULT:      -8.2      0.706      1.195
REMARK  Name = *****
REMARK                            x       y       z     vdW  Elec       q    Type
REMARK                         _______ _______ _______ _____ _____    ______ ____
ROOT
ATOM      1  C   LIG    1       24.534 -22.387   6.365  0.00  0.00    +0.047 C 
ATOM      2  C   LIG    1       25.952 -21.934   5.988  0.00  0.00    +0.046 C 
ATOM      3  C   LIG    1       26.776 -22.216   7.238  0.00  0.00    +0.179 C 
ATOM      4  O   LIG    1       27.806 -21.235   7.340  0.00  0.00    -0.493 OA
ATOM      5  C   LIG    1       27.532 -20.291   6.364  0.00  0.00    +0.095 C 
ATOM      6  C   LIG    1       28.481 -19.440   5.952  0.00  0.00    +0.014 C 
ATOM      7  C   LIG    1       25.825 -22.149   8.437  0.00  0.00    +0.076 C 
ATOM      8  C   LIG    1       26.175 -20.447   5.762  0.00  0.00    +0.081 C 
ATOM      9  C   LIG    1       24.421 -21.963   7.849  0.00  0.00    +0.125 C 
ENDROOT
BRANCH   1  11
ATOM     10  C   LIG    1       25.136 -24.631   5.298  0.00  0.00    -0.000 C 
ATOM     11  C   LIG    1       24.382 -23.893   6.133  0.00  0.00    -0.022 C 
BRANCH  10  12
ATOM     12  C   LIG    1       25.012 -26.091   4.982  0.00  0.00    +0.137 C 
BRANCH  12  13
ATOM     13  O   LIG    1       26.343 -26.590   4.794  0.00  0.00    -0.388 OA
ATOM     14  H   LIG    1       26.880 -25.909   4.355  0.00  0.00    +0.210 HD
ENDBRANCH  12  13
BRANCH  12  15
ATOM     15  C   LIG    1       24.370 -26.902   6.125  0.00  0.00    +0.035 C 
BRANCH  15  16
ATOM     16  C   LIG    1       25.361 -27.701   6.993  0.00  0.00    +0.003 C 
BRANCH  16  17
ATOM     17  C   LIG    1       24.807 -29.083   7.387  0.00  0.00    -0.000 C 
BRANCH  17  19
ATOM     18  C   LIG    1       25.462 -30.381   5.320  0.00  0.00    +0.004 C 
ATOM     19  C   LIG    1       24.301 -29.910   6.194  0.00  0.00    -0.003 C 
ENDBRANCH  17  19
ENDBRANCH  16  17
ENDBRANCH  15  16
ENDBRANCH  12  15
ENDBRANCH  10  12
ENDBRANCH   1  11
BRANCH   9  20
ATOM     20  O   LIG    1       24.006 -20.607   7.961  0.00  0.00    -0.391 OA
ATOM     21  H   LIG    1       24.314 -20.285   8.828  0.00  0.00    +0.210 HD
ENDBRANCH   9  20
BRANCH   6  22
ATOM     22  C   LIG    1       29.873 -19.426   6.517  0.00  0.00    +0.031 C 
BRANCH  22  23
ATOM     23  C   LIG    1       29.899 -19.060   8.007  0.00  0.00    +0.015 C 
BRANCH  23  24
ATOM     24  C   LIG    1       31.189 -19.465   8.729  0.00  0.00    +0.121 C 
BRANCH  24  25
ATOM     25  C   LIG    1       31.217 -20.935   9.042  0.00  0.00    +0.305 C 
ATOM     26  O   LIG    1       32.243 -21.549   9.366  0.00  0.00    -0.251 OA
BRANCH  25  27
ATOM     27  O   LIG    1       30.024 -21.537   8.984  0.00  0.00    -0.481 OA
ATOM     28  H   LIG    1       29.402 -21.124   8.342  0.00  0.00    +0.295 HD
ENDBRANCH  25  27
ENDBRANCH  24  25
ENDBRANCH  23  24
ENDBRANCH  22  23
ENDBRANCH   6  22
TORSDOF 13
ENDMDL
MODEL 3
REMARK VINA RESULT:      -8.1      2.319      8.234
REMARK  Name = *****
REMARK                            x       y       z     vdW  Elec       q    Type
REMARK                         _______ _______ _______ _____ _____    ______ ____
ROOT
ATOM      1  C   LIG    1       25.914 -21.013   7.301  0.00  0.00    +0.047 C 
ATOM      2  C   LIG    1       26.082 -22.434   6.744  0.00  0.00    +0.046 C 
ATOM      3  C   LIG    1       25.234 -22.439   5.478  0.00  0.00    +0.179 C 
ATOM      4  O   LIG    1       24.691 -23.746   5.296  0.00  0.00    -0.493 OA
ATOM      5  C   LIG    1       24.991 -24.449   6.451  0.00  0.00    +0.095 C 
ATOM      6  C   LIG    1       24.944 -25.787   6.467  0.00  0.00    +0.014 C 
ATOM      7  C   LIG    1       24.125 -21.400   5.666  0.00  0.00    +0.076 C 
ATOM      8  C   LIG    1       25.492 -23.577   7.555  0.00  0.00    +0.081 C 
ATOM      9  C   LIG    1       24.430 -20.698   6.996  0.00  0.00    +0.125 C 
ENDROOT
BRANCH   1  11
ATOM     10  C   LIG    1       28.190 -20.345   6.347  0.00  0.00    -0.000 C 
ATOM     11  C   LIG    1       26.905 -20.061   6.625  0.00  0.00    -0.022 C 
BRANCH  10  12
ATOM     12  C   LIG    1       29.227 -19.451   5.738  0.00  0.00    +0.137 C 
BRANCH  12  13
ATOM     13  O   LIG    1       28.536 -18.551   4.861  0.00  0.00    -0.388 OA
ATOM     14  H   LIG    1       27.610 -18.834   4.778  0.00  0.00    +0.210 HD
ENDBRANCH  12  13
BRANCH  12  15
ATOM     15  C   LIG    1       29.975 -18.597   6.782  0.00  0.00    +0.035 C 
BRANCH  15  16
ATOM     16  C   LIG    1       31.102 -19.330   7.536  0.00  0.00    +0.003 C 
BRANCH  16  17
ATOM     17  C   LIG    1       31.294 -18.788   8.965  0.00  0.00    -0.000 C 
BRANCH  17  19
ATOM     18  C   LIG    1       30.518 -17.163  10.737  0.00  0.00    +0.004 C 
ATOM     19  C   LIG    1       30.144 -17.889   9.446  0.00  0.00    -0.003 C 
ENDBRANCH  17  19
ENDBRANCH  16  17
ENDBRANCH  15  16
ENDBRANCH  12  15
ENDBRANCH  10  12
ENDBRANCH   1  11
BRANCH   9  20
ATOM     20  O   LIG    1       23.582 -21.191   8.027  0.00  0.00    -0.391 OA
ATOM     21  H   LIG    1       23.247 -20.418   8.517  0.00  0.00    +0.210 HD
ENDBRANCH   9  20
BRANCH   6  22
ATOM     22  C   LIG    1       24.553 -26.610   5.272  0.00  0.00    +0.031 C 
BRANCH  22  23
ATOM     23  C   LIG    1       25.260 -27.971   5.238  0.00  0.00    +0.015 C 
BRANCH  23  24
ATOM     24  C   LIG    1       25.108 -28.789   6.525  0.00  0.00    +0.121 C 
BRANCH  24  25
ATOM     25  C   LIG    1       23.976 -29.774   6.431  0.00  0.00    +0.305 C 
ATOM     26  O   LIG    1       23.778 -30.673   7.260  0.00  0.00    -0.251 OA
BRANCH  25  27
ATOM     27  O   LIG    1       23.158 -29.581   5.390  0.00  0.00    -0.481 OA
ATOM     28  H   LIG    1       23.600 -29.177   4.608  0.00  0.00    +0.295 HD
ENDBRANCH  25  27
ENDBRANCH  24  25
ENDBRANCH  23  24
ENDBRANCH  22  23
ENDBRANCH   6  22
TORSDOF 13
ENDMDL
MODEL 4
REMARK VINA RESULT:      -8.0      1.412      1.809
REMARK  Name = *****
REMARK                            x       y       z     vdW  Elec       q    Type
REMARK                         _______ _______ _______ _____ _____    ______ ____
ROOT
ATOM      1  C   LIG    1       24.564 -22.422   6.381  0.00  0.00    +0.047 C 
ATOM      2  C   LIG    1       25.976 -21.948   6.006  0.00  0.00    +0.046 C 
ATOM      3  C   LIG    1       26.799 -22.202   7.262  0.00  0.00    +0.179 C 
ATOM      4  O   LIG    1       27.811 -21.202   7.357  0.00  0.00    -0.493 OA
ATOM      5  C   LIG    1       27.525 -20.274   6.370  0.00  0.00    +0.095 C 
ATOM      6  C   LIG    1       28.460 -19.410   5.953  0.00  0.00    +0.014 C 
ATOM      7  C   LIG    1       25.842 -22.138   8.456  0.00  0.00    +0.076 C 
ATOM      8  C   LIG    1       26.173 -20.460   5.763  0.00  0.00    +0.081 C 
ATOM      9  C   LIG    1       24.437 -21.984   7.860  0.00  0.00    +0.125 C 
ENDROOT
BRANCH   1  11
ATOM     10  C   LIG    1       25.179 -24.659   5.307  0.00  0.00    -0.000 C 
ATOM     11  C   LIG    1       24.440 -23.933   6.165  0.00  0.00    -0.022 C 
BRANCH  10  12
ATOM     12  C   LIG    1       25.078 -26.124   5.006  0.00  0.00    +0.137 C 
BRANCH  12  13
ATOM     13  O   LIG    1       26.418 -26.632   4.964  0.00  0.00    -0.388 OA
ATOM     14  H   LIG    1       27.021 -25.923   4.686  0.00  0.00    +0.210 HD
ENDBRANCH  12  13
BRANCH  12  15
ATOM     15  C   LIG    1       24.317 -26.911   6.091  0.00  0.00    +0.035 C 
BRANCH  15  16
ATOM     16  C   LIG    1       24.325 -28.442   5.912  0.00  0.00    +0.003 C 
BRANCH  16  17
ATOM     17  C   LIG    1       24.755 -29.175   7.196  0.00  0.00    -0.000 C 
BRANCH  17  19
ATOM     18  C   LIG    1       25.461 -30.875   5.465  0.00  0.00    +0.004 C 
ATOM     19  C   LIG    1       25.242 -30.613   6.954  0.00  0.00    -0.003 C 
ENDBRANCH  17  19
ENDBRANCH  16  17
ENDBRANCH  15  16
ENDBRANCH  12  15
ENDBRANCH  10  12
ENDBRANCH   1  11
BRANCH   9  20
ATOM     20  O   LIG    1       23.998 -20.634   7.956  0.00  0.00    -0.391 OA
ATOM     21  H   LIG    1       23.391 -20.477   7.211  0.00  0.00    +0.210 HD
ENDBRANCH   9  20
BRANCH   6  22
ATOM     22  C   LIG    1       29.850 -19.366   6.523  0.00  0.00    +0.031 C 
BRANCH  22  23
ATOM     23  C   LIG    1       30.020 -18.255   7.569  0.00  0.00    +0.015 C 
BRANCH  23  24
ATOM     24  C   LIG    1       30.613 -18.732   8.899  0.00  0.00    +0.121 C 
BRANCH  24  25
ATOM     25  C   LIG    1       31.802 -17.908   9.309  0.00  0.00    +0.305 C 
ATOM     26  O   LIG    1       32.310 -17.952  10.437  0.00  0.00    -0.251 OA
BRANCH  25  27
ATOM     27  O   LIG    1       32.306 -17.141   8.336  0.00  0.00    -0.481 OA
ATOM     28  H   LIG    1       31.650 -16.894   7.645  0.00  0.00    +0.295 HD
ENDBRANCH  25  27
ENDBRANCH  24  25
ENDBRANCH  23  24
ENDBRANCH  22  23
ENDBRANCH   6  22
TORSDOF 13
ENDMDL
MODEL 5
REMARK VINA RESULT:      -7.7      4.027      9.004
REMARK  Name = *****
REMARK                            x       y       z     vdW  Elec       q    Type
REMARK                         _______ _______ _______ _____ _____    ______ ____
ROOT
ATOM      1  C   LIG    1       24.911 -26.169   5.526  0.00  0.00    +0.047 C 
ATOM      2  C   LIG    1       24.328 -27.565   5.795  0.00  0.00    +0.046 C 
ATOM      3  C   LIG    1       24.810 -27.904   7.200  0.00  0.00    +0.179 C 
ATOM      4  O   LIG    1       25.017 -29.312   7.286  0.00  0.00    -0.493 OA
ATOM      5  C   LIG    1       24.885 -29.797   5.995  0.00  0.00    +0.095 C 
ATOM      6  C   LIG    1       24.667 -31.100   5.775  0.00  0.00    +0.014 C 
ATOM      7  C   LIG    1       26.114 -27.136   7.434  0.00  0.00    +0.076 C 
ATOM      8  C   LIG    1       24.863 -28.719   4.963  0.00  0.00    +0.081 C 
ATOM      9  C   LIG    1       26.301 -26.243   6.200  0.00  0.00    +0.125 C 
ENDROOT
BRANCH   1  11
ATOM     10  C   LIG    1       24.386 -23.878   6.531  0.00  0.00    -0.000 C 
ATOM     11  C   LIG    1       23.991 -25.093   6.109  0.00  0.00    -0.022 C 
BRANCH  10  12
ATOM     12  C   LIG    1       23.555 -22.799   7.158  0.00  0.00    +0.137 C 
BRANCH  12  13
ATOM     13  O   LIG    1       24.458 -21.936   7.862  0.00  0.00    -0.388 OA
ATOM     14  H   LIG    1       24.461 -22.177   8.804  0.00  0.00    +0.210 HD
ENDBRANCH  12  13
BRANCH  12  15
ATOM     15  C   LIG    1       22.804 -21.937   6.122  0.00  0.00    +0.035 C 
BRANCH  15  16
ATOM     16  C   LIG    1       23.177 -20.442   6.125  0.00  0.00    +0.003 C 
BRANCH  16  17
ATOM     17  C   LIG    1       22.491 -19.669   4.984  0.00  0.00    -0.000 C 
BRANCH  17  19
ATOM     18  C   LIG    1       24.577 -19.976   3.591  0.00  0.00    +0.004 C 
ATOM     19  C   LIG    1       23.475 -19.004   4.008  0.00  0.00    -0.003 C 
ENDBRANCH  17  19
ENDBRANCH  16  17
ENDBRANCH  15  16
ENDBRANCH  12  15
ENDBRANCH  10  12
ENDBRANCH   1  11
BRANCH   9  20
ATOM     20  O   LIG    1       27.266 -26.805   5.318  0.00  0.00    -0.391 OA
ATOM     21  H   LIG    1       27.440 -26.143   4.626  0.00  0.00    +0.210 HD
ENDBRANCH   9  20
BRANCH   6  22
ATOM     22  C   LIG    1       24.572 -32.115   6.878  0.00  0.00    +0.031 C 
BRANCH  22  23
ATOM     23  C   LIG    1       25.764 -33.082   6.892  0.00  0.00    +0.015 C 
BRANCH  23  24
ATOM     24  C   LIG    1       27.074 -32.455   7.381  0.00  0.00    +0.121 C 
BRANCH  24  25
ATOM     25  C   LIG    1       26.939 -31.889   8.767  0.00  0.00    +0.305 C 
ATOM     26  O   LIG    1       26.777 -32.584   9.779  0.00  0.00    -0.251 OA
BRANCH  25  27
ATOM     27  O   LIG    1       27.048 -30.557   8.835  0.00  0.00    -0.481 OA
ATOM     28  H   LIG    1       27.129 -30.121   7.957  0.00  0.00    +0.295 HD
ENDBRANCH  25  27
ENDBRANCH  24  25
ENDBRANCH  23  24
ENDBRANCH  22  23
ENDBRANCH   6  22
TORSDOF 13
ENDMDL
MODEL 6
REMARK VINA RESULT:      -7.4      4.236      9.375
REMARK  Name = *****
REMARK                            x       y       z     vdW  Elec       q    Type
REMARK                         _______ _______ _______ _____ _____    ______ ____
ROOT
ATOM      1  C   LIG    1       25.101 -26.600   5.321  0.00  0.00    +0.047 C 
ATOM      2  C   LIG    1       24.571 -28.010   5.623  0.00  0.00    +0.046 C 
ATOM      3  C   LIG    1       24.911 -28.227   7.092  0.00  0.00    +0.179 C 
ATOM      4  O   LIG    1       25.187 -29.611   7.298  0.00  0.00    -0.493 OA
ATOM      5  C   LIG    1       25.227 -30.185   6.039  0.00  0.00    +0.095 C 
ATOM      6  C   LIG    1       25.109 -31.510   5.888  0.00  0.00    +0.014 C 
ATOM      7  C   LIG    1       26.136 -27.365   7.410  0.00  0.00    +0.076 C 
ATOM      8  C   LIG    1       25.260 -29.178   4.936  0.00  0.00    +0.081 C 
ATOM      9  C   LIG    1       26.410 -26.542   6.145  0.00  0.00    +0.125 C 
ENDROOT
BRANCH   1  11
ATOM     10  C   LIG    1       24.303 -24.232   5.863  0.00  0.00    -0.000 C 
ATOM     11  C   LIG    1       24.063 -25.549   5.725  0.00  0.00    -0.022 C 
BRANCH  10  12
ATOM     12  C   LIG    1       23.354 -23.159   6.303  0.00  0.00    +0.137 C 
BRANCH  12  13
ATOM     13  O   LIG    1       22.174 -23.818   6.782  0.00  0.00    -0.388 OA
ATOM     14  H   LIG    1       21.806 -23.314   7.527  0.00  0.00    +0.210 HD
ENDBRANCH  12  13
BRANCH  12  15
ATOM     15  C   LIG    1       23.908 -22.301   7.459  0.00  0.00    +0.035 C 
BRANCH  15  16
ATOM     16  C   LIG    1       23.693 -20.783   7.305  0.00  0.00    +0.003 C 
BRANCH  16  17
ATOM     17  C   LIG    1       23.765 -20.332   5.834  0.00  0.00    -0.000 C 
BRANCH  17  19
ATOM     18  C   LIG    1       22.808 -18.775   4.090  0.00  0.00    +0.004 C 
ATOM     19  C   LIG    1       22.514 -19.577   5.356  0.00  0.00    -0.003 C 
ENDBRANCH  17  19
ENDBRANCH  16  17
ENDBRANCH  15  16
ENDBRANCH  12  15
ENDBRANCH  10  12
ENDBRANCH   1  11
BRANCH   9  20
ATOM     20  O   LIG    1       27.497 -27.096   5.413  0.00  0.00    -0.391 OA
ATOM     21  H   LIG    1       28.285 -26.565   5.625  0.00  0.00    +0.210 HD
ENDBRANCH   9  20
BRANCH   6  22
ATOM     22  C   LIG    1       24.948 -32.458   7.043  0.00  0.00    +0.031 C 
BRANCH  22  23
ATOM     23  C   LIG    1       23.483 -32.619   7.472  0.00  0.00    +0.015 C 
BRANCH  23  24
ATOM     24  C   LIG    1       23.286 -32.764   8.985  0.00  0.00    +0.121 C 
BRANCH  24  25
ATOM     25  C   LIG    1       23.485 -31.459   9.703  0.00  0.00    +0.305 C 
ATOM     26  O   LIG    1       24.137 -31.345  10.750  0.00  0.00    -0.251 OA
BRANCH  25  27
ATOM     27  O   LIG    1       22.932 -30.403   9.097  0.00  0.00    -0.481 OA
ATOM     28  H   LIG    1       22.615 -30.590   8.184  0.00  0.00    +0.295 HD
ENDBRANCH  25  27
ENDBRANCH  24  25
ENDBRANCH  23  24
ENDBRANCH  22  23
ENDBRANCH   6  22
TORSDOF 13
ENDMDL
MODEL 7
REMARK VINA RESULT:      -7.3      3.574      7.143
REMARK  Name = *****
REMARK                            x       y       z     vdW  Elec       q    Type
REMARK                         _______ _______ _______ _____ _____    ______ ____
ROOT
ATOM      1  C   LIG    1       23.132 -21.071   6.471  0.00  0.00    +0.047 C 
ATOM      2  C   LIG    1       24.559 -20.582   6.756  0.00  0.00    +0.046 C 
ATOM      3  C   LIG    1       25.406 -21.268   5.692  0.00  0.00    +0.179 C 
ATOM      4  O   LIG    1       26.697 -21.535   6.236  0.00  0.00    -0.493 OA
ATOM      5  C   LIG    1       26.612 -21.240   7.587  0.00  0.00    +0.095 C 
ATOM      6  C   LIG    1       27.719 -21.039   8.313  0.00  0.00    +0.014 C 
ATOM      7  C   LIG    1       24.689 -22.564   5.303  0.00  0.00    +0.076 C 
ATOM      8  C   LIG    1       25.209 -21.035   8.054  0.00  0.00    +0.081 C 
ATOM      9  C   LIG    1       23.351 -22.545   6.054  0.00  0.00    +0.125 C 
ENDROOT
BRANCH   1  11
ATOM     10  C   LIG    1       22.879 -18.967   5.041  0.00  0.00    -0.000 C 
ATOM     11  C   LIG    1       22.484 -20.205   5.387  0.00  0.00    -0.022 C 
BRANCH  10  12
ATOM     12  C   LIG    1       22.264 -18.045   4.032  0.00  0.00    +0.137 C 
BRANCH  12  13
ATOM     13  O   LIG    1       20.879 -18.403   3.933  0.00  0.00    -0.388 OA
ATOM     14  H   LIG    1       20.347 -17.761   4.431  0.00  0.00    +0.210 HD
ENDBRANCH  12  13
BRANCH  12  15
ATOM     15  C   LIG    1       22.331 -16.562   4.450  0.00  0.00    +0.035 C 
BRANCH  15  16
ATOM     16  C   LIG    1       23.718 -15.906   4.306  0.00  0.00    +0.003 C 
BRANCH  16  17
ATOM     17  C   LIG    1       23.633 -14.369   4.261  0.00  0.00    -0.000 C 
BRANCH  17  19
ATOM     18  C   LIG    1       25.995 -14.706   3.428  0.00  0.00    +0.004 C 
ATOM     19  C   LIG    1       24.862 -13.700   3.626  0.00  0.00    -0.003 C 
ENDBRANCH  17  19
ENDBRANCH  16  17
ENDBRANCH  15  16
ENDBRANCH  12  15
ENDBRANCH  10  12
ENDBRANCH   1  11
BRANCH   9  20
ATOM     20  O   LIG    1       23.404 -23.395   7.194  0.00  0.00    -0.391 OA
ATOM     21  H   LIG    1       24.190 -23.961   7.092  0.00  0.00    +0.210 HD
ENDBRANCH   9  20
BRANCH   6  22
ATOM     22  C   LIG    1       29.105 -21.136   7.742  0.00  0.00    +0.031 C 
BRANCH  22  23
ATOM     23  C   LIG    1       29.639 -19.780   7.261  0.00  0.00    +0.015 C 
BRANCH  23  24
ATOM     24  C   LIG    1       29.980 -18.804   8.391  0.00  0.00    +0.121 C 
BRANCH  24  25
ATOM     25  C   LIG    1       31.464 -18.635   8.556  0.00  0.00    +0.305 C 
ATOM     26  O   LIG    1       32.090 -17.643   8.157  0.00  0.00    -0.251 OA
BRANCH  25  27
ATOM     27  O   LIG    1       32.067 -19.633   9.211  0.00  0.00    -0.481 OA
ATOM     28  H   LIG    1       31.941 -19.600  10.187  0.00  0.00    +0.295 HD
ENDBRANCH  25  27
ENDBRANCH  24  25
ENDBRANCH  23  24
ENDBRANCH  22  23
ENDBRANCH   6  22
TORSDOF 13
ENDMDL
MODEL 8
REMARK VINA RESULT:      -7.3      3.156      9.031
REMARK  Name = *****
REMARK                            x       y       z     vdW  Elec       q    Type
REMARK                         _______ _______ _______ _____ _____    ______ ____
ROOT
ATOM      1  C   LIG    1       25.084 -26.570   5.329  0.00  0.00    +0.047 C 
ATOM      2  C   LIG    1       24.561 -27.965   5.702  0.00  0.00    +0.046 C 
ATOM      3  C   LIG    1       24.949 -28.129   7.166  0.00  0.00    +0.179 C 
ATOM      4  O   LIG    1       25.228 -29.505   7.415  0.00  0.00    -0.493 OA
ATOM      5  C   LIG    1       25.225 -30.126   6.177  0.00  0.00    +0.095 C 
ATOM      6  C   LIG    1       25.098 -31.455   6.080  0.00  0.00    +0.014 C 
ATOM      7  C   LIG    1       26.186 -27.259   7.410  0.00  0.00    +0.076 C 
ATOM      8  C   LIG    1       25.224 -29.161   5.037  0.00  0.00    +0.081 C 
ATOM      9  C   LIG    1       26.419 -26.486   6.106  0.00  0.00    +0.125 C 
ENDROOT
BRANCH   1  11
ATOM     10  C   LIG    1       24.334 -24.196   5.911  0.00  0.00    -0.000 C 
ATOM     11  C   LIG    1       24.062 -25.501   5.727  0.00  0.00    -0.022 C 
BRANCH  10  12
ATOM     12  C   LIG    1       23.401 -23.107   6.349  0.00  0.00    +0.137 C 
BRANCH  12  13
ATOM     13  O   LIG    1       22.182 -23.744   6.754  0.00  0.00    -0.388 OA
ATOM     14  H   LIG    1       22.244 -24.697   6.575  0.00  0.00    +0.210 HD
ENDBRANCH  12  13
BRANCH  12  15
ATOM     15  C   LIG    1       23.931 -22.309   7.557  0.00  0.00    +0.035 C 
BRANCH  15  16
ATOM     16  C   LIG    1       25.462 -22.335   7.734  0.00  0.00    +0.003 C 
BRANCH  16  17
ATOM     17  C   LIG    1       25.977 -21.117   8.523  0.00  0.00    -0.000 C 
BRANCH  17  19
ATOM     18  C   LIG    1       28.313 -21.289   7.575  0.00  0.00    +0.004 C 
ATOM     19  C   LIG    1       27.122 -20.366   7.824  0.00  0.00    -0.003 C 
ENDBRANCH  17  19
ENDBRANCH  16  17
ENDBRANCH  15  16
ENDBRANCH  12  15
ENDBRANCH  10  12
ENDBRANCH   1  11
BRANCH   9  20
ATOM     20  O   LIG    1       27.480 -27.071   5.360  0.00  0.00    -0.391 OA
ATOM     21  H   LIG    1       28.239 -26.463   5.416  0.00  0.00    +0.210 HD
ENDBRANCH   9  20
BRANCH   6  22
ATOM     22  C   LIG    1       24.974 -32.358   7.275  0.00  0.00    +0.031 C 
BRANCH  22  23
ATOM     23  C   LIG    1       23.532 -32.455   7.791  0.00  0.00    +0.015 C 
BRANCH  23  24
ATOM     24  C   LIG    1       23.401 -32.330   9.313  0.00  0.00    +0.121 C 
BRANCH  24  25
ATOM     25  C   LIG    1       22.830 -31.000   9.718  0.00  0.00    +0.305 C 
ATOM     26  O   LIG    1       21.620 -30.796   9.890  0.00  0.00    -0.251 OA
BRANCH  25  27
ATOM     27  O   LIG    1       23.742 -30.044   9.923  0.00  0.00    -0.481 OA
ATOM     28  H   LIG    1       23.386 -29.245  10.374  0.00  0.00    +0.295 HD
ENDBRANCH  25  27
ENDBRANCH  24  25
ENDBRANCH  23  24
ENDBRANCH  22  23
ENDBRANCH   6  22
TORSDOF 13
ENDMDL
MODEL 9
REMARK VINA RESULT:      -7.2      3.984      6.569
REMARK  Name = *****
REMARK                            x       y       z     vdW  Elec       q    Type
REMARK                         _______ _______ _______ _____ _____    ______ ____
ROOT
ATOM      1  C   LIG    1       25.763 -27.399   6.545  0.00  0.00    +0.047 C 
ATOM      2  C   LIG    1       25.028 -26.050   6.522  0.00  0.00    +0.046 C 
ATOM      3  C   LIG    1       24.743 -25.808   5.045  0.00  0.00    +0.179 C 
ATOM      4  O   LIG    1       24.785 -24.405   4.794  0.00  0.00    -0.493 OA
ATOM      5  C   LIG    1       25.263 -23.823   5.957  0.00  0.00    +0.095 C 
ATOM      6  C   LIG    1       25.090 -22.515   6.187  0.00  0.00    +0.014 C 
ATOM      7  C   LIG    1       25.820 -26.548   4.245  0.00  0.00    +0.076 C 
ATOM      8  C   LIG    1       25.819 -24.816   6.924  0.00  0.00    +0.081 C 
ATOM      9  C   LIG    1       26.643 -27.332   5.274  0.00  0.00    +0.125 C 
ENDROOT
BRANCH   1  11
ATOM     10  C   LIG    1       25.051 -29.847   6.738  0.00  0.00    -0.000 C 
ATOM     11  C   LIG    1       24.753 -28.550   6.544  0.00  0.00    -0.022 C 
BRANCH  10  12
ATOM     12  C   LIG    1       24.128 -31.027   6.699  0.00  0.00    +0.137 C 
BRANCH  12  13
ATOM     13  O   LIG    1       23.195 -30.789   5.636  0.00  0.00    -0.388 OA
ATOM     14  H   LIG    1       23.594 -31.062   4.793  0.00  0.00    +0.210 HD
ENDBRANCH  12  13
BRANCH  12  15
ATOM     15  C   LIG    1       24.855 -32.352   6.389  0.00  0.00    +0.035 C 
BRANCH  15  16
ATOM     16  C   LIG    1       26.168 -32.204   5.597  0.00  0.00    +0.003 C 
BRANCH  16  17
ATOM     17  C   LIG    1       26.337 -33.310   4.539  0.00  0.00    -0.000 C 
BRANCH  17  19
ATOM     18  C   LIG    1       26.488 -32.932   2.045  0.00  0.00    +0.004 C 
ATOM     19  C   LIG    1       25.549 -33.052   3.244  0.00  0.00    -0.003 C 
ENDBRANCH  17  19
ENDBRANCH  16  17
ENDBRANCH  15  16
ENDBRANCH  12  15
ENDBRANCH  10  12
ENDBRANCH   1  11
BRANCH   9  20
ATOM     20  O   LIG    1       27.873 -26.669   5.541  0.00  0.00    -0.391 OA
ATOM     21  H   LIG    1       28.436 -27.296   6.030  0.00  0.00    +0.210 HD
ENDBRANCH   9  20
BRANCH   6  22
ATOM     22  C   LIG    1       24.402 -21.595   5.219  0.00  0.00    +0.031 C 
BRANCH  22  23
ATOM     23  C   LIG    1       23.372 -20.686   5.903  0.00  0.00    +0.015 C 
BRANCH  23  24
ATOM     24  C   LIG    1       22.337 -20.081   4.948  0.00  0.00    +0.121 C 
BRANCH  24  25
ATOM     25  C   LIG    1       22.840 -18.818   4.306  0.00  0.00    +0.305 C 
ATOM     26  O   LIG    1       23.795 -18.783   3.517  0.00  0.00    -0.251 OA
BRANCH  25  27
ATOM     27  O   LIG    1       22.144 -17.720   4.622  0.00  0.00    -0.481 OA
ATOM     28  H   LIG    1       22.155 -17.029   3.922  0.00  0.00    +0.295 HD
ENDBRANCH  25  27
ENDBRANCH  24  25
ENDBRANCH  23  24
ENDBRANCH  22  23
ENDBRANCH   6  22
TORSDOF 13
ENDMDL
