MODEL 1
REMARK VINA RESULT:      -5.1      0.000      0.000
REMARK  Name = *****
REMARK                            x       y       z     vdW  Elec       q    Type
REMARK                         _______ _______ _______ _____ _____    ______ ____
ROOT
ATOM      1  C   LIG    1       27.127 -29.588  11.757  0.00  0.00    +0.132 C 
ATOM      2  C   LIG    1       25.647 -29.732  12.288  0.00  0.00    +0.017 C 
ATOM      3  C   LIG    1       25.151 -28.251  12.479  0.00  0.00    +0.003 C 
ATOM      4  C   LIG    1       24.629 -27.928  13.907  0.00  0.00    +0.001 C 
ATOM      5  C   LIG    1       23.585 -28.981  14.377  0.00  0.00    +0.025 C 
ATOM      6  C   LIG    1       24.235 -30.368  14.356  0.00  0.00    -0.072 C 
ATOM      7  C   LIG    1       23.767 -31.410  15.064  0.00  0.00    +0.008 C 
ATOM      8  C   LIG    1       22.232 -28.832  13.590  0.00  0.00    +0.022 C 
ATOM      9  C   LIG    1       21.739 -27.384  13.597  0.00  0.00    -0.070 C 
ATOM     10  C   LIG    1       20.462 -27.045  13.859  0.00  0.00    -0.027 C 
ATOM     11  C   LIG    1       19.367 -28.040  14.095  0.00  0.00    +0.027 C 
ATOM     12  C   LIG    1       19.751 -29.438  13.626  0.00  0.00    +0.005 C 
ATOM     13  C   LIG    1       22.754 -26.325  13.250  0.00  0.00    +0.031 C 
ATOM     14  C   LIG    1       21.148 -29.802  14.114  0.00  0.00    +0.009 C 
ATOM     15  C   LIG    1       24.049 -26.508  14.031  0.00  0.00    +0.009 C 
ATOM     16  C   LIG    1       26.324 -27.349  12.064  0.00  0.00    +0.008 C 
ATOM     17  C   LIG    1       25.568 -30.499  13.638  0.00  0.00    +0.041 C 
ATOM     18  C   LIG    1       27.145 -28.197  11.109  0.00  0.00    +0.049 C 
ENDROOT
BRANCH   1  20
ATOM     19  C   LIG    1       29.046 -29.673  13.630  0.00  0.00    +0.007 C 
ATOM     20  C   LIG    1       28.177 -29.646  12.801  0.00  0.00    -0.070 C 
ENDBRANCH   1  20
BRANCH   1  21
ATOM     21  O   LIG    1       27.449 -30.578  10.790  0.00  0.00    -0.376 OA
ATOM     22  H   LIG    1       27.490 -30.132   9.927  0.00  0.00    +0.211 HD
ENDBRANCH   1  21
BRANCH   2  23
ATOM     23  C   LIG    1       24.732 -30.520  11.279  0.00  0.00    +0.008 C 
ATOM     24  C   LIG    1       23.712 -29.736  10.459  0.00  0.00    +0.004 C 
ENDBRANCH   2  23
TORSDOF 3
ENDMDL
MODEL 2
REMARK VINA RESULT:      -5.1      2.845      5.416
REMARK  Name = *****
REMARK                            x       y       z     vdW  Elec       q    Type
REMARK                         _______ _______ _______ _____ _____    ______ ____
ROOT
ATOM      1  C   LIG    1       25.239 -30.404   7.225  0.00  0.00    +0.132 C 
ATOM      2  C   LIG    1       25.691 -30.383   8.738  0.00  0.00    +0.017 C 
ATOM      3  C   LIG    1       24.423 -30.863   9.534  0.00  0.00    +0.003 C 
ATOM      4  C   LIG    1       23.951 -29.881  10.644  0.00  0.00    +0.001 C 
ATOM      5  C   LIG    1       25.131 -29.471  11.572  0.00  0.00    +0.025 C 
ATOM      6  C   LIG    1       26.228 -28.820  10.723  0.00  0.00    -0.072 C 
ATOM      7  C   LIG    1       27.171 -28.011  11.236  0.00  0.00    +0.008 C 
ATOM      8  C   LIG    1       25.576 -30.669  12.489  0.00  0.00    +0.022 C 
ATOM      9  C   LIG    1       24.379 -31.300  13.202  0.00  0.00    -0.070 C 
ATOM     10  C   LIG    1       24.387 -31.607  14.514  0.00  0.00    -0.027 C 
ATOM     11  C   LIG    1       25.580 -31.440  15.403  0.00  0.00    +0.027 C 
ATOM     12  C   LIG    1       26.869 -31.270  14.608  0.00  0.00    +0.005 C 
ATOM     13  C   LIG    1       23.175 -31.612  12.351  0.00  0.00    +0.031 C 
ATOM     14  C   LIG    1       26.678 -30.252  13.489  0.00  0.00    +0.009 C 
ATOM     15  C   LIG    1       22.781 -30.429  11.478  0.00  0.00    +0.009 C 
ATOM     16  C   LIG    1       23.333 -31.131   8.486  0.00  0.00    +0.008 C 
ATOM     17  C   LIG    1       26.116 -28.966   9.215  0.00  0.00    +0.041 C 
ATOM     18  C   LIG    1       24.093 -31.424   7.204  0.00  0.00    +0.049 C 
ENDROOT
BRANCH   1  20
ATOM     19  C   LIG    1       24.320 -28.078   6.254  0.00  0.00    +0.007 C 
ATOM     20  C   LIG    1       24.741 -29.111   6.700  0.00  0.00    -0.070 C 
ENDBRANCH   1  20
BRANCH   1  21
ATOM     21  O   LIG    1       26.281 -30.828   6.358  0.00  0.00    -0.376 OA
ATOM     22  H   LIG    1       26.908 -30.089   6.282  0.00  0.00    +0.211 HD
ENDBRANCH   1  21
BRANCH   2  23
ATOM     23  C   LIG    1       26.926 -31.325   8.997  0.00  0.00    +0.008 C 
ATOM     24  C   LIG    1       26.663 -32.786   9.348  0.00  0.00    +0.004 C 
ENDBRANCH   2  23
TORSDOF 3
ENDMDL
MODEL 3
REMARK VINA RESULT:      -5.0      3.342      5.564
REMARK  Name = *****
REMARK                            x       y       z     vdW  Elec       q    Type
REMARK                         _______ _______ _______ _____ _____    ______ ____
ROOT
ATOM      1  C   LIG    1       24.338 -30.688   6.499  0.00  0.00    +0.132 C 
ATOM      2  C   LIG    1       24.511 -31.054   8.025  0.00  0.00    +0.017 C 
ATOM      3  C   LIG    1       25.172 -29.778   8.664  0.00  0.00    +0.003 C 
ATOM      4  C   LIG    1       26.502 -30.053   9.421  0.00  0.00    +0.001 C 
ATOM      5  C   LIG    1       26.342 -31.224  10.433  0.00  0.00    +0.025 C 
ATOM      6  C   LIG    1       25.898 -32.479   9.674  0.00  0.00    -0.072 C 
ATOM      7  C   LIG    1       26.058 -33.723  10.156  0.00  0.00    +0.008 C 
ATOM      8  C   LIG    1       25.455 -30.799  11.660  0.00  0.00    +0.022 C 
ATOM      9  C   LIG    1       25.936 -29.480  12.266  0.00  0.00    -0.070 C 
ATOM     10  C   LIG    1       26.085 -29.294  13.591  0.00  0.00    -0.027 C 
ATOM     11  C   LIG    1       25.729 -30.319  14.623  0.00  0.00    +0.027 C 
ATOM     12  C   LIG    1       24.829 -31.412  14.059  0.00  0.00    +0.005 C 
ATOM     13  C   LIG    1       26.204 -28.353  11.301  0.00  0.00    +0.031 C 
ATOM     14  C   LIG    1       25.370 -31.916  12.725  0.00  0.00    +0.009 C 
ATOM     15  C   LIG    1       27.063 -28.808  10.129  0.00  0.00    +0.009 C 
ATOM     16  C   LIG    1       25.345 -28.766   7.522  0.00  0.00    +0.008 C 
ATOM     17  C   LIG    1       25.425 -32.293   8.242  0.00  0.00    +0.041 C 
ATOM     18  C   LIG    1       24.292 -29.154   6.498  0.00  0.00    +0.049 C 
ENDROOT
BRANCH   1  20
ATOM     19  C   LIG    1       26.317 -31.520   4.889  0.00  0.00    +0.007 C 
ATOM     20  C   LIG    1       25.442 -31.135   5.616  0.00  0.00    -0.070 C 
ENDBRANCH   1  20
BRANCH   1  21
ATOM     21  O   LIG    1       23.135 -31.210   5.954  0.00  0.00    -0.376 OA
ATOM     22  H   LIG    1       23.324 -32.118   5.663  0.00  0.00    +0.211 HD
ENDBRANCH   1  21
BRANCH   2  23
ATOM     23  C   LIG    1       23.135 -31.396   8.709  0.00  0.00    +0.008 C 
ATOM     24  C   LIG    1       22.665 -30.522   9.867  0.00  0.00    +0.004 C 
ENDBRANCH   2  23
TORSDOF 3
ENDMDL
MODEL 4
REMARK VINA RESULT:      -4.9      3.083      6.254
REMARK  Name = *****
REMARK                            x       y       z     vdW  Elec       q    Type
REMARK                         _______ _______ _______ _____ _____    ______ ____
ROOT
ATOM      1  C   LIG    1       24.451 -31.760  13.109  0.00  0.00    +0.132 C 
ATOM      2  C   LIG    1       24.622 -30.871  11.815  0.00  0.00    +0.017 C 
ATOM      3  C   LIG    1       24.890 -31.904  10.660  0.00  0.00    +0.003 C 
ATOM      4  C   LIG    1       26.198 -31.649   9.859  0.00  0.00    +0.001 C 
ATOM      5  C   LIG    1       26.289 -30.170   9.384  0.00  0.00    +0.025 C 
ATOM      6  C   LIG    1       26.231 -29.250  10.607  0.00  0.00    -0.072 C 
ATOM      7  C   LIG    1       26.679 -27.983  10.595  0.00  0.00    +0.008 C 
ATOM      8  C   LIG    1       25.251 -29.877   8.239  0.00  0.00    +0.022 C 
ATOM      9  C   LIG    1       25.336 -30.922   7.126  0.00  0.00    -0.070 C 
ATOM     10  C   LIG    1       25.353 -30.601   5.819  0.00  0.00    -0.027 C 
ATOM     11  C   LIG    1       25.214 -29.202   5.301  0.00  0.00    +0.027 C 
ATOM     12  C   LIG    1       24.664 -28.252   6.358  0.00  0.00    +0.005 C 
ATOM     13  C   LIG    1       25.359 -32.366   7.558  0.00  0.00    +0.031 C 
ATOM     14  C   LIG    1       25.395 -28.442   7.682  0.00  0.00    +0.009 C 
ATOM     15  C   LIG    1       26.374 -32.606   8.668  0.00  0.00    +0.009 C 
ATOM     16  C   LIG    1       24.862 -33.294  11.311  0.00  0.00    +0.008 C 
ATOM     17  C   LIG    1       25.812 -29.876  11.927  0.00  0.00    +0.041 C 
ATOM     18  C   LIG    1       24.008 -33.121  12.556  0.00  0.00    +0.049 C 
ENDROOT
BRANCH   1  20
ATOM     19  C   LIG    1       26.664 -32.105  14.586  0.00  0.00    +0.007 C 
ATOM     20  C   LIG    1       25.683 -31.945  13.911  0.00  0.00    -0.070 C 
ENDBRANCH   1  20
BRANCH   1  21
ATOM     21  O   LIG    1       23.459 -31.246  13.986  0.00  0.00    -0.376 OA
ATOM     22  H   LIG    1       23.098 -32.000  14.481  0.00  0.00    +0.211 HD
ENDBRANCH   1  21
BRANCH   2  23
ATOM     23  C   LIG    1       23.344 -29.999  11.525  0.00  0.00    +0.008 C 
ATOM     24  C   LIG    1       22.383 -30.461  10.434  0.00  0.00    +0.004 C 
ENDBRANCH   2  23
TORSDOF 3
ENDMDL
MODEL 5
REMARK VINA RESULT:      -4.9      1.563      3.521
REMARK  Name = *****
REMARK                            x       y       z     vdW  Elec       q    Type
REMARK                         _______ _______ _______ _____ _____    ______ ____
ROOT
ATOM      1  C   LIG    1       25.895 -30.278  11.832  0.00  0.00    +0.132 C 
ATOM      2  C   LIG    1       24.592 -29.832  12.605  0.00  0.00    +0.017 C 
ATOM      3  C   LIG    1       23.425 -30.609  11.892  0.00  0.00    +0.003 C 
ATOM      4  C   LIG    1       22.280 -29.702  11.360  0.00  0.00    +0.001 C 
ATOM      5  C   LIG    1       21.774 -28.728  12.462  0.00  0.00    +0.025 C 
ATOM      6  C   LIG    1       22.948 -27.868  12.942  0.00  0.00    -0.072 C 
ATOM      7  C   LIG    1       22.788 -26.689  13.568  0.00  0.00    +0.008 C 
ATOM      8  C   LIG    1       20.971 -29.496  13.575  0.00  0.00    +0.022 C 
ATOM      9  C   LIG    1       19.897 -30.398  12.966  0.00  0.00    -0.070 C 
ATOM     10  C   LIG    1       18.634 -30.451  13.431  0.00  0.00    -0.027 C 
ATOM     11  C   LIG    1       18.156 -29.700  14.635  0.00  0.00    +0.027 C 
ATOM     12  C   LIG    1       19.311 -29.197  15.493  0.00  0.00    +0.005 C 
ATOM     13  C   LIG    1       20.327 -31.279  11.821  0.00  0.00    +0.031 C 
ATOM     14  C   LIG    1       20.373 -28.532  14.625  0.00  0.00    +0.009 C 
ATOM     15  C   LIG    1       21.103 -30.498  10.769  0.00  0.00    +0.009 C 
ATOM     16  C   LIG    1       24.080 -31.441  10.779  0.00  0.00    +0.008 C 
ATOM     17  C   LIG    1       24.343 -28.299  12.520  0.00  0.00    +0.041 C 
ATOM     18  C   LIG    1       25.514 -31.641  11.239  0.00  0.00    +0.049 C 
ENDROOT
BRANCH   1  20
ATOM     19  C   LIG    1       26.655 -28.670   9.823  0.00  0.00    +0.007 C 
ATOM     20  C   LIG    1       26.313 -29.376  10.733  0.00  0.00    -0.070 C 
ENDBRANCH   1  20
BRANCH   1  21
ATOM     21  O   LIG    1       27.011 -30.421  12.699  0.00  0.00    -0.376 OA
ATOM     22  H   LIG    1       26.896 -31.259  13.177  0.00  0.00    +0.211 HD
ENDBRANCH   1  21
BRANCH   2  23
ATOM     23  C   LIG    1       24.667 -30.182  14.137  0.00  0.00    +0.008 C 
ATOM     24  C   LIG    1       23.879 -31.385  14.646  0.00  0.00    +0.004 C 
ENDBRANCH   2  23
TORSDOF 3
ENDMDL
MODEL 6
REMARK VINA RESULT:      -4.7      2.578      3.494
REMARK  Name = *****
REMARK                            x       y       z     vdW  Elec       q    Type
REMARK                         _______ _______ _______ _____ _____    ______ ____
ROOT
ATOM      1  C   LIG    1       23.184 -31.713  11.392  0.00  0.00    +0.132 C 
ATOM      2  C   LIG    1       21.939 -31.147  12.181  0.00  0.00    +0.017 C 
ATOM      3  C   LIG    1       22.141 -29.587  12.168  0.00  0.00    +0.003 C 
ATOM      4  C   LIG    1       22.139 -28.927  13.576  0.00  0.00    +0.001 C 
ATOM      5  C   LIG    1       20.900 -29.372  14.406  0.00  0.00    +0.025 C 
ATOM      6  C   LIG    1       20.913 -30.898  14.539  0.00  0.00    -0.072 C 
ATOM      7  C   LIG    1       20.244 -31.557  15.500  0.00  0.00    +0.008 C 
ATOM      8  C   LIG    1       19.579 -28.731  13.842  0.00  0.00    +0.022 C 
ATOM      9  C   LIG    1       19.727 -27.220  13.657  0.00  0.00    -0.070 C 
ATOM     10  C   LIG    1       18.793 -26.337  14.060  0.00  0.00    -0.027 C 
ATOM     11  C   LIG    1       17.478 -26.730  14.661  0.00  0.00    +0.027 C 
ATOM     12  C   LIG    1       17.147 -28.196  14.408  0.00  0.00    +0.005 C 
ATOM     13  C   LIG    1       20.971 -26.746  12.951  0.00  0.00    +0.031 C 
ATOM     14  C   LIG    1       18.351 -29.078  14.715  0.00  0.00    +0.009 C 
ATOM     15  C   LIG    1       22.225 -27.392  13.524  0.00  0.00    +0.009 C 
ATOM     16  C   LIG    1       23.445 -29.328  11.400  0.00  0.00    +0.008 C 
ATOM     17  C   LIG    1       21.874 -31.664  13.646  0.00  0.00    +0.041 C 
ATOM     18  C   LIG    1       23.610 -30.540  10.499  0.00  0.00    +0.049 C 
ENDROOT
BRANCH   1  20
ATOM     19  C   LIG    1       25.284 -32.421  12.905  0.00  0.00    +0.007 C 
ATOM     20  C   LIG    1       24.334 -32.115  12.237  0.00  0.00    -0.070 C 
ENDBRANCH   1  20
BRANCH   1  21
ATOM     21  O   LIG    1       22.847 -32.836  10.590  0.00  0.00    -0.376 OA
ATOM     22  H   LIG    1       22.223 -32.526   9.913  0.00  0.00    +0.211 HD
ENDBRANCH   1  21
BRANCH   2  23
ATOM     23  C   LIG    1       20.578 -31.558  11.507  0.00  0.00    +0.008 C 
ATOM     24  C   LIG    1       19.862 -30.534  10.633  0.00  0.00    +0.004 C 
ENDBRANCH   2  23
TORSDOF 3
ENDMDL
MODEL 7
REMARK VINA RESULT:      -4.6      2.079      3.811
REMARK  Name = *****
REMARK                            x       y       z     vdW  Elec       q    Type
REMARK                         _______ _______ _______ _____ _____    ______ ____
ROOT
ATOM      1  C   LIG    1       24.948 -31.611   8.905  0.00  0.00    +0.132 C 
ATOM      2  C   LIG    1       24.488 -30.750  10.146  0.00  0.00    +0.017 C 
ATOM      3  C   LIG    1       25.620 -29.671  10.319  0.00  0.00    +0.003 C 
ATOM      4  C   LIG    1       26.265 -29.638  11.733  0.00  0.00    +0.001 C 
ATOM      5  C   LIG    1       25.181 -29.563  12.846  0.00  0.00    +0.025 C 
ATOM      6  C   LIG    1       24.253 -30.775  12.718  0.00  0.00    -0.072 C 
ATOM      7  C   LIG    1       23.488 -31.224  13.728  0.00  0.00    +0.008 C 
ATOM      8  C   LIG    1       24.487 -28.152  12.869  0.00  0.00    +0.022 C 
ATOM      9  C   LIG    1       25.519 -27.023  12.892  0.00  0.00    -0.070 C 
ATOM     10  C   LIG    1       25.430 -25.966  13.722  0.00  0.00    -0.027 C 
ATOM     11  C   LIG    1       24.283 -25.732  14.656  0.00  0.00    +0.027 C 
ATOM     12  C   LIG    1       23.068 -26.578  14.295  0.00  0.00    +0.005 C 
ATOM     13  C   LIG    1       26.646 -27.120  11.896  0.00  0.00    +0.031 C 
ATOM     14  C   LIG    1       23.479 -28.023  14.034  0.00  0.00    +0.009 C 
ATOM     15  C   LIG    1       27.287 -28.502  11.904  0.00  0.00    +0.009 C 
ATOM     16  C   LIG    1       26.647 -29.945   9.210  0.00  0.00    +0.008 C 
ATOM     17  C   LIG    1       24.354 -31.596  11.443  0.00  0.00    +0.041 C 
ATOM     18  C   LIG    1       25.862 -30.658   8.123  0.00  0.00    +0.049 C 
ENDROOT
BRANCH   1  20
ATOM     19  C   LIG    1       26.346 -33.825   9.490  0.00  0.00    +0.007 C 
ATOM     20  C   LIG    1       25.708 -32.839   9.239  0.00  0.00    -0.070 C 
ENDBRANCH   1  20
BRANCH   1  21
ATOM     21  O   LIG    1       23.854 -32.010   8.092  0.00  0.00    -0.376 OA
ATOM     22  H   LIG    1       24.189 -32.093   7.183  0.00  0.00    +0.211 HD
ENDBRANCH   1  21
BRANCH   2  23
ATOM     23  C   LIG    1       23.083 -30.080   9.910  0.00  0.00    +0.008 C 
ATOM     24  C   LIG    1       21.835 -30.833  10.359  0.00  0.00    +0.004 C 
ENDBRANCH   2  23
TORSDOF 3
ENDMDL
MODEL 8
REMARK VINA RESULT:      -4.6      1.848      3.829
REMARK  Name = *****
REMARK                            x       y       z     vdW  Elec       q    Type
REMARK                         _______ _______ _______ _____ _____    ______ ____
ROOT
ATOM      1  C   LIG    1       25.876 -28.660  13.839  0.00  0.00    +0.132 C 
ATOM      2  C   LIG    1       24.303 -28.797  13.837  0.00  0.00    +0.017 C 
ATOM      3  C   LIG    1       24.008 -29.929  12.785  0.00  0.00    +0.003 C 
ATOM      4  C   LIG    1       23.028 -29.513  11.652  0.00  0.00    +0.001 C 
ATOM      5  C   LIG    1       21.734 -28.872  12.232  0.00  0.00    +0.025 C 
ATOM      6  C   LIG    1       22.119 -27.650  13.072  0.00  0.00    -0.072 C 
ATOM      7  C   LIG    1       21.256 -26.663  13.369  0.00  0.00    +0.008 C 
ATOM      8  C   LIG    1       20.834 -29.951  12.940  0.00  0.00    +0.022 C 
ATOM      9  C   LIG    1       20.608 -31.166  12.039  0.00  0.00    -0.070 C 
ATOM     10  C   LIG    1       19.399 -31.732  11.862  0.00  0.00    -0.027 C 
ATOM     11  C   LIG    1       18.159 -31.292  12.576  0.00  0.00    +0.027 C 
ATOM     12  C   LIG    1       18.473 -30.425  13.790  0.00  0.00    +0.005 C 
ATOM     13  C   LIG    1       21.829 -31.748  11.373  0.00  0.00    +0.031 C 
ATOM     14  C   LIG    1       19.496 -29.353  13.433  0.00  0.00    +0.009 C 
ATOM     15  C   LIG    1       22.673 -30.671  10.704  0.00  0.00    +0.009 C 
ATOM     16  C   LIG    1       25.373 -30.379  12.245  0.00  0.00    +0.008 C 
ATOM     17  C   LIG    1       23.588 -27.481  13.420  0.00  0.00    +0.041 C 
ATOM     18  C   LIG    1       26.359 -30.030  13.345  0.00  0.00    +0.049 C 
ENDROOT
BRANCH   1  20
ATOM     19  C   LIG    1       26.845 -26.774  12.194  0.00  0.00    +0.007 C 
ATOM     20  C   LIG    1       26.415 -27.608  12.945  0.00  0.00    -0.070 C 
ENDBRANCH   1  20
BRANCH   1  21
ATOM     21  O   LIG    1       26.391 -28.402  15.138  0.00  0.00    -0.376 OA
ATOM     22  H   LIG    1       25.947 -29.016  15.748  0.00  0.00    +0.211 HD
ENDBRANCH   1  21
BRANCH   2  23
ATOM     23  C   LIG    1       23.742 -29.172  15.260  0.00  0.00    +0.008 C 
ATOM     24  C   LIG    1       23.272 -30.604  15.500  0.00  0.00    +0.004 C 
ENDBRANCH   2  23
TORSDOF 3
ENDMDL
MODEL 9
REMARK VINA RESULT:      -4.5      2.536      4.994
REMARK  Name = *****
REMARK                            x       y       z     vdW  Elec       q    Type
REMARK                         _______ _______ _______ _____ _____    ______ ____
ROOT
ATOM      1  C   LIG    1       26.786 -28.957  12.767  0.00  0.00    +0.132 C 
ATOM      2  C   LIG    1       25.604 -29.825  12.179  0.00  0.00    +0.017 C 
ATOM      3  C   LIG    1       26.037 -30.125  10.697  0.00  0.00    +0.003 C 
ATOM      4  C   LIG    1       24.996 -29.695   9.624  0.00  0.00    +0.001 C 
ATOM      5  C   LIG    1       23.579 -30.238   9.964  0.00  0.00    +0.025 C 
ATOM      6  C   LIG    1       23.163 -29.713  11.342  0.00  0.00    -0.072 C 
ATOM      7  C   LIG    1       21.884 -29.653  11.750  0.00  0.00    +0.008 C 
ATOM      8  C   LIG    1       23.502 -31.795   9.758  0.00  0.00    +0.022 C 
ATOM      9  C   LIG    1       24.040 -32.203   8.385  0.00  0.00    -0.070 C 
ATOM     10  C   LIG    1       23.405 -33.075   7.579  0.00  0.00    -0.027 C 
ATOM     11  C   LIG    1       22.150 -33.799   7.957  0.00  0.00    +0.027 C 
ATOM     12  C   LIG    1       21.892 -33.755   9.458  0.00  0.00    +0.005 C 
ATOM     13  C   LIG    1       25.364 -31.609   7.977  0.00  0.00    +0.031 C 
ATOM     14  C   LIG    1       22.074 -32.339   9.992  0.00  0.00    +0.009 C 
ATOM     15  C   LIG    1       25.397 -30.103   8.196  0.00  0.00    +0.009 C 
ATOM     16  C   LIG    1       27.399 -29.444  10.500  0.00  0.00    +0.008 C 
ATOM     17  C   LIG    1       24.244 -29.072  12.196  0.00  0.00    +0.041 C 
ATOM     18  C   LIG    1       27.988 -29.346  11.896  0.00  0.00    +0.049 C 
ENDROOT
BRANCH   1  20
ATOM     19  C   LIG    1       26.456 -26.298  12.636  0.00  0.00    +0.007 C 
ATOM     20  C   LIG    1       26.588 -27.491  12.686  0.00  0.00    -0.070 C 
ENDBRANCH   1  20
BRANCH   1  21
ATOM     21  O   LIG    1       27.052 -29.265  14.128  0.00  0.00    -0.376 OA
ATOM     22  H   LIG    1       27.064 -30.234  14.205  0.00  0.00    +0.211 HD
ENDBRANCH   1  21
BRANCH   2  23
ATOM     23  C   LIG    1       25.384 -31.152  12.996  0.00  0.00    +0.008 C 
ATOM     24  C   LIG    1       25.525 -32.484  12.267  0.00  0.00    +0.004 C 
ENDBRANCH   2  23
TORSDOF 3
ENDMDL
