MODEL 1
REMARK VINA RESULT:     -12.2      0.000      0.000
REMARK  Name = *****
REMARK                            x       y       z     vdW  Elec       q    Type
REMARK                         _______ _______ _______ _____ _____    ______ ____
ROOT
ATOM      1  C   LIG    1       24.782 -26.009   5.636  0.00  0.00    +0.117 A 
ATOM      2  C   LIG    1       23.685 -25.260   6.043  0.00  0.00    +0.049 A 
ATOM      3  C   LIG    1       23.870 -24.014   6.667  0.00  0.00    -0.040 A 
ATOM      4  C   LIG    1       22.634 -23.226   7.037  0.00  0.00    +0.036 C 
ATOM      5  C   LIG    1       22.894 -21.879   7.710  0.00  0.00    +0.013 C 
ATOM      6  C   LIG    1       24.150 -21.173   7.170  0.00  0.00    +0.031 C 
ATOM      7  C   LIG    1       25.373 -22.112   7.437  0.00  0.00    +0.057 C 
ATOM      8  C   LIG    1       25.179 -23.512   6.852  0.00  0.00    -0.036 A 
ATOM      9  C   LIG    1       26.268 -24.335   6.514  0.00  0.00    +0.008 A 
ATOM     10  C   LIG    1       26.071 -25.567   5.886  0.00  0.00    +0.045 A 
ENDROOT
BRANCH   6  11
ATOM     11  C   LIG    1       23.915 -20.626   5.759  0.00  0.00    -0.043 A 
ATOM     12  C   LIG    1       24.590 -21.089   4.618  0.00  0.00    +0.004 A 
ATOM     13  C   LIG    1       24.323 -20.569   3.351  0.00  0.00    +0.000 A 
ATOM     14  C   LIG    1       23.366 -19.573   3.191  0.00  0.00    +0.000 A 
ATOM     15  C   LIG    1       22.673 -19.104   4.303  0.00  0.00    +0.000 A 
ATOM     16  C   LIG    1       22.941 -19.629   5.574  0.00  0.00    +0.004 A 
ENDBRANCH   6  11
BRANCH   7  17
ATOM     17  C   LIG    1       26.700 -21.388   7.195  0.00  0.00    -0.039 A 
ATOM     18  C   LIG    1       26.888 -20.469   6.154  0.00  0.00    +0.008 A 
ATOM     19  C   LIG    1       28.111 -19.816   5.984  0.00  0.00    +0.046 A 
ATOM     20  C   LIG    1       29.149 -20.035   6.885  0.00  0.00    +0.121 A 
ATOM     21  C   LIG    1       28.995 -20.957   7.915  0.00  0.00    +0.046 A 
ATOM     22  C   LIG    1       27.775 -21.622   8.075  0.00  0.00    +0.008 A 
BRANCH  20  23
ATOM     23  O   LIG    1       30.359 -19.409   6.768  0.00  0.00    -0.491 OA
BRANCH  23  24
ATOM     24  C   LIG    1       30.576 -18.425   7.795  0.00  0.00    +0.244 C 
BRANCH  24  25
ATOM     25  C   LIG    1       31.888 -18.732   8.536  0.00  0.00    +0.125 C 
BRANCH  25  26
ATOM     26  N   LIG    1       31.973 -18.097   9.858  0.00  0.00    -0.299 NA
ATOM     27  C   LIG    1       32.660 -16.804   9.840  0.00  0.00    +0.084 C 
ATOM     28  C   LIG    1       32.251 -16.208  11.171  0.00  0.00    +0.017 C 
ATOM     29  C   LIG    1       30.782 -16.574  11.264  0.00  0.00    +0.017 C 
ATOM     30  C   LIG    1       30.652 -17.867  10.462  0.00  0.00    +0.084 C 
ENDBRANCH  25  26
ENDBRANCH  24  25
ENDBRANCH  23  24
ENDBRANCH  20  23
ENDBRANCH   7  17
BRANCH   1  31
ATOM     31  O   LIG    1       24.543 -27.180   4.982  0.00  0.00    -0.507 OA
ATOM     32  H   LIG    1       25.397 -27.597   4.778  0.00  0.00    +0.292 HD
ENDBRANCH   1  31
TORSDOF 7
ENDMDL
