MODEL 1
REMARK VINA RESULT:      -1.7      0.000      0.000
REMARK  Name = *****
REMARK                            x       y       z     vdW  Elec       q    Type
REMARK                         _______ _______ _______ _____ _____    ______ ____
ROOT
ATOM      1  C   LIG    1       27.754 -19.523   5.430  0.00  0.00    +0.055 A 
ATOM      2  C   LIG    1       28.136 -18.261   4.953  0.00  0.00    +0.043 A 
ATOM      3  C   LIG    1       27.232 -17.478   4.228  0.00  0.00    +0.055 A 
ATOM      4  C   LIG    1       25.918 -17.954   4.037  0.00  0.00    +0.083 A 
ATOM      5 CL   LIG    1       24.730 -16.903   3.320  0.00  0.00    -0.080 Cl
ATOM      6  C   LIG    1       25.514 -19.214   4.537  0.00  0.00    +0.055 A 
ATOM      7  C   LIG    1       26.450 -19.998   5.217  0.00  0.00    +0.043 A 
ENDROOT
BRANCH   3   8
ATOM      8  N   LIG    1       27.662 -16.279   3.611  0.00  0.00    -0.275 N 
ATOM      9  H   LIG    1       27.985 -16.326   2.644  0.00  0.00    +0.155 HD
ATOM     10  C   LIG    1       27.414 -15.008   4.100  0.00  0.00    +0.325 C 
ATOM     11  O   LIG    1       26.775 -14.697   5.097  0.00  0.00    -0.263 OA
BRANCH  10  12
ATOM     12  C   LIG    1       27.959 -13.869   3.207  0.00  0.00    +0.393 C 
ATOM     13  O   LIG    1       29.048 -13.360   3.393  0.00  0.00    -0.240 OA
BRANCH  12  14
ATOM     14  O   LIG    1       27.091 -13.536   2.234  0.00  0.00    -0.474 OA
ATOM     15  H   LIG    1       26.171 -13.742   2.519  0.00  0.00    +0.296 HD
ENDBRANCH  12  14
ENDBRANCH  10  12
ENDBRANCH   3   8
BRANCH   6  16
ATOM     16  N   LIG    1       24.186 -19.647   4.315  0.00  0.00    -0.275 N 
ATOM     17  H   LIG    1       23.804 -19.499   3.379  0.00  0.00    +0.155 HD
ATOM     18  C   LIG    1       23.287 -20.135   5.239  0.00  0.00    +0.325 C 
ATOM     19  O   LIG    1       23.418 -20.295   6.445  0.00  0.00    -0.263 OA
BRANCH  18  20
ATOM     20  C   LIG    1       21.911 -20.462   4.624  0.00  0.00    +0.393 C 
ATOM     21  O   LIG    1       21.410 -21.567   4.712  0.00  0.00    -0.240 OA
BRANCH  20  22
ATOM     22  O   LIG    1       21.387 -19.399   3.992  0.00  0.00    -0.474 OA
ATOM     23  H   LIG    1       21.981 -19.130   3.253  0.00  0.00    +0.296 HD
ENDBRANCH  20  22
ENDBRANCH  18  20
ENDBRANCH   6  16
BRANCH   1  25
ATOM     24  N   LIG    1       29.474 -21.048   6.643  0.00  0.00    -0.191 NA
ATOM     25  C   LIG    1       28.701 -20.355   6.104  0.00  0.00    +0.099 C 
ENDBRANCH   1  25
TORSDOF 7
ENDMDL
MODEL 2
REMARK VINA RESULT:       0.8      2.771      6.400
REMARK  Name = *****
REMARK                            x       y       z     vdW  Elec       q    Type
REMARK                         _______ _______ _______ _____ _____    ______ ____
ROOT
ATOM      1  C   LIG    1       23.704 -18.225   3.934  0.00  0.00    +0.055 A 
ATOM      2  C   LIG    1       24.773 -18.963   4.463  0.00  0.00    +0.043 A 
ATOM      3  C   LIG    1       26.074 -18.449   4.418  0.00  0.00    +0.055 A 
ATOM      4  C   LIG    1       26.279 -17.159   3.888  0.00  0.00    +0.083 A 
ATOM      5 CL   LIG    1       27.854 -16.429   4.017  0.00  0.00    -0.080 Cl
ATOM      6  C   LIG    1       25.204 -16.395   3.377  0.00  0.00    +0.055 A 
ATOM      7  C   LIG    1       23.921 -16.949   3.389  0.00  0.00    +0.043 A 
ENDROOT
BRANCH   3   8
ATOM      8  N   LIG    1       27.171 -19.255   4.804  0.00  0.00    -0.275 N 
ATOM      9  H   LIG    1       28.065 -19.103   4.335  0.00  0.00    +0.155 HD
ATOM     10  C   LIG    1       27.219 -20.026   5.952  0.00  0.00    +0.325 C 
ATOM     11  O   LIG    1       26.368 -20.125   6.827  0.00  0.00    -0.263 OA
BRANCH  10  12
ATOM     12  C   LIG    1       28.555 -20.776   6.157  0.00  0.00    +0.393 C 
ATOM     13  O   LIG    1       28.724 -21.572   7.062  0.00  0.00    -0.240 OA
BRANCH  12  14
ATOM     14  O   LIG    1       29.467 -20.438   5.227  0.00  0.00    -0.474 OA
ATOM     15  H   LIG    1       30.129 -21.161   5.128  0.00  0.00    +0.296 HD
ENDBRANCH  12  14
ENDBRANCH  10  12
ENDBRANCH   3   8
BRANCH   6  16
ATOM     16  N   LIG    1       25.465 -15.107   2.852  0.00  0.00    -0.275 N 
ATOM     17  H   LIG    1       26.049 -15.061   2.016  0.00  0.00    +0.155 HD
ATOM     18  C   LIG    1       25.132 -13.886   3.398  0.00  0.00    +0.325 C 
ATOM     19  O   LIG    1       24.557 -13.631   4.448  0.00  0.00    -0.263 OA
BRANCH  18  20
ATOM     20  C   LIG    1       25.629 -12.696   2.552  0.00  0.00    +0.393 C 
ATOM     21  O   LIG    1       24.861 -11.916   2.021  0.00  0.00    -0.240 OA
BRANCH  20  22
ATOM     22  O   LIG    1       26.970 -12.664   2.481  0.00  0.00    -0.474 OA
ATOM     23  H   LIG    1       27.311 -11.931   3.045  0.00  0.00    +0.296 HD
ENDBRANCH  20  22
ENDBRANCH  18  20
ENDBRANCH   6  16
BRANCH   1  25
ATOM     24  N   LIG    1       21.317 -19.254   3.894  0.00  0.00    -0.191 NA
ATOM     25  C   LIG    1       22.388 -18.781   3.910  0.00  0.00    +0.099 C 
ENDBRANCH   1  25
TORSDOF 7
ENDMDL
