MODEL 1
REMARK VINA RESULT:      -5.5      0.000      0.000
REMARK  Name = *****
REMARK                            x       y       z     vdW  Elec       q    Type
REMARK                         _______ _______ _______ _____ _____    ______ ____
ROOT
ATOM      1  C   LIG    1       25.276 -19.738   3.287  0.00  0.00    +0.027 C 
ATOM      2  C   LIG    1       24.645 -19.751   4.683  0.00  0.00    +0.084 C 
ATOM      3  C   LIG    1       25.339 -20.781   5.633  0.00  0.00    +0.165 C 
ATOM      4  O   LIG    1       24.664 -20.836   6.906  0.00  0.00    -0.369 OA
ATOM      5  C   LIG    1       23.279 -21.153   6.744  0.00  0.00    +0.176 C 
ATOM      6  C   LIG    1       22.576 -20.122   5.854  0.00  0.00    +0.109 C 
ATOM      7  N   LIG    1       23.192 -20.029   4.521  0.00  0.00    -0.309 NA
ATOM      8  H   LIG    1       23.082 -20.924   4.046  0.00  0.00    +0.122 HD
ENDROOT
BRANCH   3   9
ATOM      9  C   LIG    1       26.793 -20.449   5.911  0.00  0.00    -0.017 A 
ATOM     10  C   LIG    1       27.556 -21.228   6.795  0.00  0.00    +0.006 A 
ATOM     11  C   LIG    1       28.888 -20.904   7.062  0.00  0.00    +0.000 A 
ATOM     12  C   LIG    1       29.474 -19.801   6.447  0.00  0.00    +0.000 A 
ATOM     13  C   LIG    1       28.731 -19.021   5.562  0.00  0.00    +0.000 A 
ATOM     14  C   LIG    1       27.398 -19.343   5.295  0.00  0.00    +0.006 A 
ENDBRANCH   3   9
TORSDOF 1
ENDMDL
MODEL 2
REMARK VINA RESULT:      -5.1      2.351      5.100
REMARK  Name = *****
REMARK                            x       y       z     vdW  Elec       q    Type
REMARK                         _______ _______ _______ _____ _____    ______ ____
ROOT
ATOM      1  C   LIG    1       27.157 -21.571   7.062  0.00  0.00    +0.027 C 
ATOM      2  C   LIG    1       27.581 -20.142   6.709  0.00  0.00    +0.084 C 
ATOM      3  C   LIG    1       27.297 -19.798   5.210  0.00  0.00    +0.165 C 
ATOM      4  O   LIG    1       27.792 -18.482   4.886  0.00  0.00    -0.369 OA
ATOM      5  C   LIG    1       29.188 -18.369   5.174  0.00  0.00    +0.176 C 
ATOM      6  C   LIG    1       29.473 -18.656   6.653  0.00  0.00    +0.109 C 
ATOM      7  N   LIG    1       29.021 -19.998   7.054  0.00  0.00    -0.309 NA
ATOM      8  H   LIG    1       29.553 -20.693   6.530  0.00  0.00    +0.122 HD
ENDROOT
BRANCH   3   9
ATOM      9  C   LIG    1       25.821 -19.819   4.862  0.00  0.00    -0.017 A 
ATOM     10  C   LIG    1       25.343 -19.200   3.697  0.00  0.00    +0.006 A 
ATOM     11  C   LIG    1       23.980 -19.205   3.395  0.00  0.00    +0.000 A 
ATOM     12  C   LIG    1       23.078 -19.832   4.251  0.00  0.00    +0.000 A 
ATOM     13  C   LIG    1       23.538 -20.456   5.409  0.00  0.00    +0.000 A 
ATOM     14  C   LIG    1       24.901 -20.450   5.714  0.00  0.00    +0.006 A 
ENDBRANCH   3   9
TORSDOF 1
ENDMDL
MODEL 3
REMARK VINA RESULT:      -4.0      3.043      4.447
REMARK  Name = *****
REMARK                            x       y       z     vdW  Elec       q    Type
REMARK                         _______ _______ _______ _____ _____    ______ ____
ROOT
ATOM      1  C   LIG    1       21.590 -18.255   4.095  0.00  0.00    +0.027 C 
ATOM      2  C   LIG    1       22.785 -19.024   4.665  0.00  0.00    +0.084 C 
ATOM      3  C   LIG    1       24.066 -18.858   3.784  0.00  0.00    +0.165 C 
ATOM      4  O   LIG    1       25.146 -19.667   4.295  0.00  0.00    -0.369 OA
ATOM      5  C   LIG    1       24.765 -21.044   4.377  0.00  0.00    +0.176 C 
ATOM      6  C   LIG    1       23.539 -21.225   5.278  0.00  0.00    +0.109 C 
ATOM      7  N   LIG    1       22.382 -20.450   4.803  0.00  0.00    -0.309 NA
ATOM      8  H   LIG    1       22.106 -20.802   3.887  0.00  0.00    +0.122 HD
ENDROOT
BRANCH   3   9
ATOM      9  C   LIG    1       24.569 -17.427   3.727  0.00  0.00    -0.017 A 
ATOM     10  C   LIG    1       25.880 -17.137   3.320  0.00  0.00    +0.006 A 
ATOM     11  C   LIG    1       26.342 -15.820   3.290  0.00  0.00    +0.000 A 
ATOM     12  C   LIG    1       25.498 -14.777   3.662  0.00  0.00    +0.000 A 
ATOM     13  C   LIG    1       24.191 -15.048   4.063  0.00  0.00    +0.000 A 
ATOM     14  C   LIG    1       23.728 -16.366   4.095  0.00  0.00    +0.006 A 
ENDBRANCH   3   9
TORSDOF 1
ENDMDL
MODEL 4
REMARK VINA RESULT:      -4.0      3.041      4.445
REMARK  Name = *****
REMARK                            x       y       z     vdW  Elec       q    Type
REMARK                         _______ _______ _______ _____ _____    ______ ____
ROOT
ATOM      1  C   LIG    1       21.603 -18.257   4.113  0.00  0.00    +0.027 C 
ATOM      2  C   LIG    1       22.791 -19.039   4.680  0.00  0.00    +0.084 C 
ATOM      3  C   LIG    1       24.074 -18.878   3.801  0.00  0.00    +0.165 C 
ATOM      4  O   LIG    1       25.146 -19.700   4.308  0.00  0.00    -0.369 OA
ATOM      5  C   LIG    1       24.755 -21.073   4.383  0.00  0.00    +0.176 C 
ATOM      6  C   LIG    1       23.526 -21.249   5.282  0.00  0.00    +0.109 C 
ATOM      7  N   LIG    1       22.376 -20.462   4.811  0.00  0.00    -0.309 NA
ATOM      8  H   LIG    1       22.097 -20.807   3.892  0.00  0.00    +0.122 HD
ENDROOT
BRANCH   3   9
ATOM      9  C   LIG    1       24.588 -17.452   3.751  0.00  0.00    -0.017 A 
ATOM     10  C   LIG    1       23.760 -16.373   4.099  0.00  0.00    +0.006 A 
ATOM     11  C   LIG    1       24.234 -15.061   4.031  0.00  0.00    +0.000 A 
ATOM     12  C   LIG    1       25.540 -14.812   3.619  0.00  0.00    +0.000 A 
ATOM     13  C   LIG    1       26.376 -15.873   3.276  0.00  0.00    +0.000 A 
ATOM     14  C   LIG    1       25.904 -17.186   3.342  0.00  0.00    +0.006 A 
ENDBRANCH   3   9
TORSDOF 1
ENDMDL
MODEL 5
REMARK VINA RESULT:      -3.8      5.783      7.307
REMARK  Name = *****
REMARK                            x       y       z     vdW  Elec       q    Type
REMARK                         _______ _______ _______ _____ _____    ______ ____
ROOT
ATOM      1  C   LIG    1       27.832 -14.704   4.000  0.00  0.00    +0.027 C 
ATOM      2  C   LIG    1       26.795 -15.664   3.412  0.00  0.00    +0.084 C 
ATOM      3  C   LIG    1       25.351 -15.358   3.928  0.00  0.00    +0.165 C 
ATOM      4  O   LIG    1       24.413 -16.335   3.430  0.00  0.00    -0.369 OA
ATOM      5  C   LIG    1       24.808 -17.661   3.793  0.00  0.00    +0.176 C 
ATOM      6  C   LIG    1       26.203 -17.991   3.250  0.00  0.00    +0.109 C 
ATOM      7  N   LIG    1       27.224 -17.051   3.739  0.00  0.00    -0.309 NA
ATOM      8  H   LIG    1       27.294 -17.140   4.753  0.00  0.00    +0.122 HD
ENDROOT
BRANCH   3   9
ATOM      9  C   LIG    1       24.843 -13.993   3.501  0.00  0.00    -0.017 A 
ATOM     10  C   LIG    1       25.033 -13.528   2.191  0.00  0.00    +0.006 A 
ATOM     11  C   LIG    1       24.581 -12.262   1.812  0.00  0.00    +0.000 A 
ATOM     12  C   LIG    1       23.931 -11.448   2.736  0.00  0.00    +0.000 A 
ATOM     13  C   LIG    1       23.729 -11.899   4.039  0.00  0.00    +0.000 A 
ATOM     14  C   LIG    1       24.182 -13.164   4.421  0.00  0.00    +0.006 A 
ENDBRANCH   3   9
TORSDOF 1
ENDMDL
MODEL 6
REMARK VINA RESULT:      -3.6      4.697      6.350
REMARK  Name = *****
REMARK                            x       y       z     vdW  Elec       q    Type
REMARK                         _______ _______ _______ _____ _____    ______ ____
ROOT
ATOM      1  C   LIG    1       23.438 -14.457   4.802  0.00  0.00    +0.027 C 
ATOM      2  C   LIG    1       24.392 -14.431   3.605  0.00  0.00    +0.084 C 
ATOM      3  C   LIG    1       25.504 -15.524   3.715  0.00  0.00    +0.165 C 
ATOM      4  O   LIG    1       26.440 -15.412   2.622  0.00  0.00    -0.369 OA
ATOM      5  C   LIG    1       27.020 -14.106   2.570  0.00  0.00    +0.176 C 
ATOM      6  C   LIG    1       25.941 -13.028   2.413  0.00  0.00    +0.109 C 
ATOM      7  N   LIG    1       24.962 -13.059   3.511  0.00  0.00    -0.309 NA
ATOM      8  H   LIG    1       25.442 -12.844   4.384  0.00  0.00    +0.122 HD
ENDROOT
BRANCH   3   9
ATOM      9  C   LIG    1       24.955 -16.938   3.690  0.00  0.00    -0.017 A 
ATOM     10  C   LIG    1       23.613 -17.198   4.009  0.00  0.00    +0.006 A 
ATOM     11  C   LIG    1       23.120 -18.504   4.004  0.00  0.00    +0.000 A 
ATOM     12  C   LIG    1       23.960 -19.565   3.679  0.00  0.00    +0.000 A 
ATOM     13  C   LIG    1       25.294 -19.323   3.355  0.00  0.00    +0.000 A 
ATOM     14  C   LIG    1       25.789 -18.017   3.360  0.00  0.00    +0.006 A 
ENDBRANCH   3   9
TORSDOF 1
ENDMDL
MODEL 7
REMARK VINA RESULT:      -3.2      5.334      7.162
REMARK  Name = *****
REMARK                            x       y       z     vdW  Elec       q    Type
REMARK                         _______ _______ _______ _____ _____    ______ ____
ROOT
ATOM      1  C   LIG    1       24.122 -13.016   2.353  0.00  0.00    +0.027 C 
ATOM      2  C   LIG    1       25.444 -13.741   2.618  0.00  0.00    +0.084 C 
ATOM      3  C   LIG    1       25.453 -14.462   4.005  0.00  0.00    +0.165 C 
ATOM      4  O   LIG    1       26.742 -15.055   4.265  0.00  0.00    -0.369 OA
ATOM      5  C   LIG    1       27.784 -14.078   4.198  0.00  0.00    +0.176 C 
ATOM      6  C   LIG    1       27.817 -13.399   2.824  0.00  0.00    +0.109 C 
ATOM      7  N   LIG    1       26.540 -12.742   2.499  0.00  0.00    -0.309 NA
ATOM      8  H   LIG    1       26.376 -11.995   3.172  0.00  0.00    +0.122 HD
ENDROOT
BRANCH   3   9
ATOM      9  C   LIG    1       24.421 -15.570   4.108  0.00  0.00    -0.017 A 
ATOM     10  C   LIG    1       23.148 -15.326   4.646  0.00  0.00    +0.006 A 
ATOM     11  C   LIG    1       22.212 -16.355   4.756  0.00  0.00    +0.000 A 
ATOM     12  C   LIG    1       22.535 -17.640   4.327  0.00  0.00    +0.000 A 
ATOM     13  C   LIG    1       23.793 -17.897   3.785  0.00  0.00    +0.000 A 
ATOM     14  C   LIG    1       24.731 -16.869   3.676  0.00  0.00    +0.006 A 
ENDBRANCH   3   9
TORSDOF 1
ENDMDL
MODEL 8
REMARK VINA RESULT:      -3.2      2.251      4.780
REMARK  Name = *****
REMARK                            x       y       z     vdW  Elec       q    Type
REMARK                         _______ _______ _______ _____ _____    ______ ____
ROOT
ATOM      1  C   LIG    1       27.786 -20.172   5.684  0.00  0.00    +0.027 C 
ATOM      2  C   LIG    1       27.016 -18.957   5.160  0.00  0.00    +0.084 C 
ATOM      3  C   LIG    1       25.801 -19.371   4.266  0.00  0.00    +0.165 C 
ATOM      4  O   LIG    1       25.153 -18.206   3.714  0.00  0.00    -0.369 OA
ATOM      5  C   LIG    1       26.076 -17.405   2.970  0.00  0.00    +0.176 C 
ATOM      6  C   LIG    1       27.247 -16.952   3.849  0.00  0.00    +0.109 C 
ATOM      7  N   LIG    1       27.979 -18.090   4.429  0.00  0.00    -0.309 NA
ATOM      8  H   LIG    1       28.396 -18.631   3.671  0.00  0.00    +0.122 HD
ENDROOT
BRANCH   3   9
ATOM      9  C   LIG    1       24.744 -20.153   5.023  0.00  0.00    -0.017 A 
ATOM     10  C   LIG    1       23.461 -20.343   4.486  0.00  0.00    +0.006 A 
ATOM     11  C   LIG    1       22.488 -21.046   5.197  0.00  0.00    +0.000 A 
ATOM     12  C   LIG    1       22.784 -21.572   6.452  0.00  0.00    +0.000 A 
ATOM     13  C   LIG    1       24.055 -21.396   6.997  0.00  0.00    +0.000 A 
ATOM     14  C   LIG    1       25.030 -20.692   6.287  0.00  0.00    +0.006 A 
ENDBRANCH   3   9
TORSDOF 1
ENDMDL
MODEL 9
REMARK VINA RESULT:      -2.9      4.807      6.251
REMARK  Name = *****
REMARK                            x       y       z     vdW  Elec       q    Type
REMARK                         _______ _______ _______ _____ _____    ______ ____
ROOT
ATOM      1  C   LIG    1       27.499 -15.220   3.957  0.00  0.00    +0.027 C 
ATOM      2  C   LIG    1       26.156 -14.614   4.373  0.00  0.00    +0.084 C 
ATOM      3  C   LIG    1       24.976 -15.134   3.489  0.00  0.00    +0.165 C 
ATOM      4  O   LIG    1       23.743 -14.476   3.844  0.00  0.00    -0.369 OA
ATOM      5  C   LIG    1       23.866 -13.055   3.735  0.00  0.00    +0.176 C 
ATOM      6  C   LIG    1       24.988 -12.526   4.635  0.00  0.00    +0.109 C 
ATOM      7  N   LIG    1       26.290 -13.133   4.313  0.00  0.00    -0.309 NA
ATOM      8  H   LIG    1       26.549 -12.866   3.363  0.00  0.00    +0.122 HD
ENDROOT
BRANCH   3   9
ATOM      9  C   LIG    1       24.742 -16.627   3.627  0.00  0.00    -0.017 A 
ATOM     10  C   LIG    1       25.757 -17.549   3.328  0.00  0.00    +0.006 A 
ATOM     11  C   LIG    1       25.528 -18.922   3.437  0.00  0.00    +0.000 A 
ATOM     12  C   LIG    1       24.283 -19.390   3.849  0.00  0.00    +0.000 A 
ATOM     13  C   LIG    1       23.266 -18.486   4.155  0.00  0.00    +0.000 A 
ATOM     14  C   LIG    1       23.494 -17.113   4.045  0.00  0.00    +0.006 A 
ENDBRANCH   3   9
TORSDOF 1
ENDMDL
