MODEL 1
REMARK VINA RESULT:      -7.6      0.000      0.000
REMARK  Name = *****
REMARK                            x       y       z     vdW  Elec       q    Type
REMARK                         _______ _______ _______ _____ _____    ______ ____
ROOT
ATOM      1  C   LIG    1       29.771 -21.455   8.438  0.00  0.00    +0.157 C 
ATOM      2  N   LIG    1       28.641 -21.066   7.615  0.00  0.00    -0.264 N 
ATOM      3  C   LIG    1       27.384 -21.498   8.009  0.00  0.00    +0.333 C 
ATOM      4  O   LIG    1       27.215 -22.108   9.067  0.00  0.00    -0.246 OA
ATOM      5  N   LIG    1       26.330 -21.229   7.134  0.00  0.00    -0.277 N 
ATOM      6  C   LIG    1       26.467 -20.414   6.011  0.00  0.00    +0.111 C 
ATOM      7  C   LIG    1       27.690 -19.958   5.695  0.00  0.00    +0.112 C 
ATOM      8  C   LIG    1       28.873 -20.313   6.489  0.00  0.00    +0.258 C 
ATOM      9  O   LIG    1       29.977 -19.926   6.113  0.00  0.00    -0.268 OA
ENDROOT
BRANCH   6  10
ATOM     10  N   LIG    1       25.356 -20.077   5.218  0.00  0.00    -0.315 N 
ATOM     11  C   LIG    1       24.219 -21.023   5.084  0.00  0.00    +0.124 C 
ATOM     12  C   LIG    1       22.925 -20.242   4.757  0.00  0.00    +0.068 C 
ATOM     13  C   LIG    1       23.117 -19.440   3.465  0.00  0.00    +0.021 C 
ATOM     14  C   LIG    1       24.351 -18.544   3.561  0.00  0.00    +0.020 C 
ATOM     15  C   LIG    1       25.601 -19.325   3.967  0.00  0.00    +0.106 C 
BRANCH  12  16
ATOM     16  N   LIG    1       21.761 -21.127   4.631  0.00  0.00    -0.326 NA
ATOM     17  H   LIG    1       20.907 -20.570   4.689  0.00  0.00    +0.118 HD
ATOM     18  H   LIG    1       21.748 -21.558   3.707  0.00  0.00    +0.118 HD
ENDBRANCH  12  16
ENDBRANCH   6  10
BRANCH   5  19
ATOM     19  C   LIG    1       25.067 -21.965   7.396  0.00  0.00    +0.164 C 
BRANCH  19  20
ATOM     20  C   LIG    1       25.091 -23.425   6.925  0.00  0.00    -0.010 A 
ATOM     21  C   LIG    1       23.939 -24.192   6.632  0.00  0.00    +0.057 A 
ATOM     22  C   LIG    1       24.069 -25.522   6.181  0.00  0.00    +0.019 A 
ATOM     23  C   LIG    1       25.321 -26.101   5.994  0.00  0.00    +0.001 A 
ATOM     24  C   LIG    1       26.458 -25.357   6.255  0.00  0.00    +0.000 A 
ATOM     25  C   LIG    1       26.338 -24.045   6.711  0.00  0.00    +0.007 A 
BRANCH  21  26
ATOM     26  C   LIG    1       22.583 -23.706   6.736  0.00  0.00    +0.100 C 
ATOM     27  N   LIG    1       21.510 -23.281   6.706  0.00  0.00    -0.191 NA
ENDBRANCH  21  26
ENDBRANCH  19  20
ENDBRANCH   5  19
TORSDOF 5
ENDMDL
MODEL 2
REMARK VINA RESULT:      -7.1      1.538      4.995
REMARK  Name = *****
REMARK                            x       y       z     vdW  Elec       q    Type
REMARK                         _______ _______ _______ _____ _____    ______ ____
ROOT
ATOM      1  C   LIG    1       29.269 -18.431   6.948  0.00  0.00    +0.157 C 
ATOM      2  N   LIG    1       28.359 -19.556   6.844  0.00  0.00    -0.264 N 
ATOM      3  C   LIG    1       27.774 -19.794   5.610  0.00  0.00    +0.333 C 
ATOM      4  O   LIG    1       28.084 -19.136   4.613  0.00  0.00    -0.246 OA
ATOM      5  N   LIG    1       26.802 -20.793   5.563  0.00  0.00    -0.277 N 
ATOM      6  C   LIG    1       26.543 -21.649   6.633  0.00  0.00    +0.111 C 
ATOM      7  C   LIG    1       27.177 -21.430   7.796  0.00  0.00    +0.112 C 
ATOM      8  C   LIG    1       28.111 -20.311   7.965  0.00  0.00    +0.258 C 
ATOM      9  O   LIG    1       28.609 -20.116   9.072  0.00  0.00    -0.268 OA
ENDROOT
BRANCH   6  10
ATOM     10  N   LIG    1       25.635 -22.715   6.507  0.00  0.00    -0.315 N 
ATOM     11  C   LIG    1       24.322 -22.663   7.200  0.00  0.00    +0.124 C 
ATOM     12  C   LIG    1       23.298 -23.540   6.443  0.00  0.00    +0.068 C 
ATOM     13  C   LIG    1       23.810 -24.983   6.361  0.00  0.00    +0.021 C 
ATOM     14  C   LIG    1       25.209 -25.027   5.746  0.00  0.00    +0.020 C 
ATOM     15  C   LIG    1       26.182 -24.089   6.460  0.00  0.00    +0.106 C 
BRANCH  12  16
ATOM     16  N   LIG    1       21.973 -23.514   7.074  0.00  0.00    -0.326 NA
ATOM     17  H   LIG    1       21.648 -22.547   7.133  0.00  0.00    +0.118 HD
ATOM     18  H   LIG    1       21.295 -23.999   6.486  0.00  0.00    +0.118 HD
ENDBRANCH  12  16
ENDBRANCH   6  10
BRANCH   5  19
ATOM     19  C   LIG    1       25.960 -20.822   4.340  0.00  0.00    +0.164 C 
BRANCH  19  20
ATOM     20  C   LIG    1       24.648 -20.037   4.472  0.00  0.00    -0.010 A 
ATOM     21  C   LIG    1       24.464 -18.703   4.041  0.00  0.00    +0.057 A 
ATOM     22  C   LIG    1       23.209 -18.078   4.186  0.00  0.00    +0.019 A 
ATOM     23  C   LIG    1       22.122 -18.758   4.730  0.00  0.00    +0.001 A 
ATOM     24  C   LIG    1       22.279 -20.071   5.136  0.00  0.00    +0.000 A 
ATOM     25  C   LIG    1       23.520 -20.693   5.006  0.00  0.00    +0.007 A 
BRANCH  21  26
ATOM     26  C   LIG    1       25.487 -17.895   3.419  0.00  0.00    +0.100 C 
ATOM     27  N   LIG    1       26.263 -17.156   2.988  0.00  0.00    -0.191 NA
ENDBRANCH  21  26
ENDBRANCH  19  20
ENDBRANCH   5  19
TORSDOF 5
ENDMDL
MODEL 3
REMARK VINA RESULT:      -7.0      8.352     10.242
REMARK  Name = *****
REMARK                            x       y       z     vdW  Elec       q    Type
REMARK                         _______ _______ _______ _____ _____    ______ ____
ROOT
ATOM      1  C   LIG    1       25.111 -30.494   8.805  0.00  0.00    +0.157 C 
ATOM      2  N   LIG    1       25.531 -29.687   9.936  0.00  0.00    -0.264 N 
ATOM      3  C   LIG    1       24.976 -29.978  11.172  0.00  0.00    +0.333 C 
ATOM      4  O   LIG    1       24.224 -30.943  11.329  0.00  0.00    -0.246 OA
ATOM      5  N   LIG    1       25.288 -29.108  12.216  0.00  0.00    -0.277 N 
ATOM      6  C   LIG    1       26.249 -28.103  12.103  0.00  0.00    +0.111 C 
ATOM      7  C   LIG    1       26.816 -27.890  10.905  0.00  0.00    +0.112 C 
ATOM      8  C   LIG    1       26.436 -28.674   9.723  0.00  0.00    +0.258 C 
ATOM      9  O   LIG    1       26.936 -28.390   8.638  0.00  0.00    -0.268 OA
ENDROOT
BRANCH   6  10
ATOM     10  N   LIG    1       26.615 -27.320  13.212  0.00  0.00    -0.315 N 
ATOM     11  C   LIG    1       26.651 -25.839  13.103  0.00  0.00    +0.124 C 
ATOM     12  C   LIG    1       26.431 -25.207  14.497  0.00  0.00    +0.068 C 
ATOM     13  C   LIG    1       27.509 -25.704  15.468  0.00  0.00    +0.021 C 
ATOM     14  C   LIG    1       27.546 -27.232  15.500  0.00  0.00    +0.020 C 
ATOM     15  C   LIG    1       27.680 -27.835  14.102  0.00  0.00    +0.106 C 
BRANCH  12  16
ATOM     16  N   LIG    1       26.438 -23.740  14.447  0.00  0.00    -0.326 NA
ATOM     17  H   LIG    1       26.646 -23.437  13.494  0.00  0.00    +0.118 HD
ATOM     18  H   LIG    1       25.509 -23.378  14.657  0.00  0.00    +0.118 HD
ENDBRANCH  12  16
ENDBRANCH   6  10
BRANCH   5  19
ATOM     19  C   LIG    1       24.448 -29.229  13.435  0.00  0.00    +0.164 C 
BRANCH  19  20
ATOM     20  C   LIG    1       23.106 -28.492  13.339  0.00  0.00    -0.010 A 
ATOM     21  C   LIG    1       21.842 -29.126  13.334  0.00  0.00    +0.057 A 
ATOM     22  C   LIG    1       20.663 -28.356  13.266  0.00  0.00    +0.019 A 
ATOM     23  C   LIG    1       20.710 -26.965  13.225  0.00  0.00    +0.001 A 
ATOM     24  C   LIG    1       21.938 -26.328  13.252  0.00  0.00    +0.000 A 
ATOM     25  C   LIG    1       23.109 -27.083  13.308  0.00  0.00    +0.007 A 
BRANCH  21  26
ATOM     26  C   LIG    1       21.641 -30.554  13.417  0.00  0.00    +0.100 C 
ATOM     27  N   LIG    1       21.595 -31.703  13.522  0.00  0.00    -0.191 NA
ENDBRANCH  21  26
ENDBRANCH  19  20
ENDBRANCH   5  19
TORSDOF 5
ENDMDL
MODEL 4
REMARK VINA RESULT:      -6.9      6.495      9.345
REMARK  Name = *****
REMARK                            x       y       z     vdW  Elec       q    Type
REMARK                         _______ _______ _______ _____ _____    ______ ____
ROOT
ATOM      1  C   LIG    1       24.302 -33.825   7.825  0.00  0.00    +0.157 C 
ATOM      2  N   LIG    1       24.537 -32.461   7.389  0.00  0.00    -0.264 N 
ATOM      3  C   LIG    1       25.418 -31.693   8.135  0.00  0.00    +0.333 C 
ATOM      4  O   LIG    1       26.052 -32.174   9.077  0.00  0.00    -0.246 OA
ATOM      5  N   LIG    1       25.526 -30.348   7.780  0.00  0.00    -0.277 N 
ATOM      6  C   LIG    1       24.939 -29.817   6.632  0.00  0.00    +0.111 C 
ATOM      7  C   LIG    1       24.142 -30.609   5.895  0.00  0.00    +0.112 C 
ATOM      8  C   LIG    1       23.867 -31.998   6.282  0.00  0.00    +0.258 C 
ATOM      9  O   LIG    1       23.075 -32.654   5.610  0.00  0.00    -0.268 OA
ENDROOT
BRANCH   6  10
ATOM     10  N   LIG    1       25.164 -28.483   6.251  0.00  0.00    -0.315 N 
ATOM     11  C   LIG    1       24.033 -27.523   6.185  0.00  0.00    +0.124 C 
ATOM     12  C   LIG    1       24.558 -26.083   6.394  0.00  0.00    +0.068 C 
ATOM     13  C   LIG    1       25.609 -25.755   5.327  0.00  0.00    +0.021 C 
ATOM     14  C   LIG    1       26.721 -26.804   5.321  0.00  0.00    +0.020 C 
ATOM     15  C   LIG    1       26.172 -28.225   5.198  0.00  0.00    +0.106 C 
BRANCH  12  16
ATOM     16  N   LIG    1       23.478 -25.090   6.356  0.00  0.00    -0.326 NA
ATOM     17  H   LIG    1       22.716 -25.443   5.774  0.00  0.00    +0.118 HD
ATOM     18  H   LIG    1       23.081 -24.968   7.287  0.00  0.00    +0.118 HD
ENDBRANCH  12  16
ENDBRANCH   6  10
BRANCH   5  19
ATOM     19  C   LIG    1       26.207 -29.470   8.766  0.00  0.00    +0.164 C 
BRANCH  19  20
ATOM     20  C   LIG    1       25.600 -29.532  10.174  0.00  0.00    -0.010 A 
ATOM     21  C   LIG    1       26.352 -29.548  11.372  0.00  0.00    +0.057 A 
ATOM     22  C   LIG    1       25.697 -29.582  12.620  0.00  0.00    +0.019 A 
ATOM     23  C   LIG    1       24.307 -29.576  12.706  0.00  0.00    +0.001 A 
ATOM     24  C   LIG    1       23.557 -29.538  11.545  0.00  0.00    +0.000 A 
ATOM     25  C   LIG    1       24.196 -29.516  10.306  0.00  0.00    +0.007 A 
BRANCH  21  26
ATOM     26  C   LIG    1       27.794 -29.511  11.433  0.00  0.00    +0.100 C 
ATOM     27  N   LIG    1       28.940 -29.564  11.570  0.00  0.00    -0.191 NA
ENDBRANCH  21  26
ENDBRANCH  19  20
ENDBRANCH   5  19
TORSDOF 5
ENDMDL
MODEL 5
REMARK VINA RESULT:      -6.8      2.257      5.456
REMARK  Name = *****
REMARK                            x       y       z     vdW  Elec       q    Type
REMARK                         _______ _______ _______ _____ _____    ______ ____
ROOT
ATOM      1  C   LIG    1       23.846 -26.453   5.704  0.00  0.00    +0.157 C 
ATOM      2  N   LIG    1       24.638 -25.332   6.173  0.00  0.00    -0.264 N 
ATOM      3  C   LIG    1       23.964 -24.165   6.502  0.00  0.00    +0.333 C 
ATOM      4  O   LIG    1       22.732 -24.108   6.487  0.00  0.00    -0.246 OA
ATOM      5  N   LIG    1       24.752 -23.059   6.820  0.00  0.00    -0.277 N 
ATOM      6  C   LIG    1       26.134 -23.137   6.991  0.00  0.00    +0.111 C 
ATOM      7  C   LIG    1       26.748 -24.302   6.727  0.00  0.00    +0.112 C 
ATOM      8  C   LIG    1       26.003 -25.474   6.251  0.00  0.00    +0.258 C 
ATOM      9  O   LIG    1       26.624 -26.493   5.958  0.00  0.00    -0.268 OA
ENDROOT
BRANCH   6  10
ATOM     10  N   LIG    1       26.877 -22.024   7.421  0.00  0.00    -0.315 N 
ATOM     11  C   LIG    1       28.333 -21.942   7.139  0.00  0.00    +0.124 C 
ATOM     12  C   LIG    1       28.774 -20.460   7.099  0.00  0.00    +0.068 C 
ATOM     13  C   LIG    1       28.444 -19.785   8.435  0.00  0.00    +0.021 C 
ATOM     14  C   LIG    1       26.965 -19.962   8.780  0.00  0.00    +0.020 C 
ATOM     15  C   LIG    1       26.533 -21.427   8.731  0.00  0.00    +0.106 C 
BRANCH  12  16
ATOM     16  N   LIG    1       30.205 -20.317   6.805  0.00  0.00    -0.326 NA
ATOM     17  H   LIG    1       30.721 -20.224   7.682  0.00  0.00    +0.118 HD
ATOM     18  H   LIG    1       30.559 -21.166   6.364  0.00  0.00    +0.118 HD
ENDBRANCH  12  16
ENDBRANCH   6  10
BRANCH   5  19
ATOM     19  C   LIG    1       24.051 -21.750   6.850  0.00  0.00    +0.164 C 
BRANCH  19  20
ATOM     20  C   LIG    1       24.311 -20.879   5.614  0.00  0.00    -0.010 A 
ATOM     21  C   LIG    1       23.327 -20.523   4.663  0.00  0.00    +0.057 A 
ATOM     22  C   LIG    1       23.663 -19.696   3.572  0.00  0.00    +0.019 A 
ATOM     23  C   LIG    1       24.953 -19.193   3.416  0.00  0.00    +0.001 A 
ATOM     24  C   LIG    1       25.921 -19.514   4.351  0.00  0.00    +0.000 A 
ATOM     25  C   LIG    1       25.600 -20.340   5.427  0.00  0.00    +0.007 A 
BRANCH  21  26
ATOM     26  C   LIG    1       21.943 -20.932   4.723  0.00  0.00    +0.100 C 
ATOM     27  N   LIG    1       20.873 -21.365   4.727  0.00  0.00    -0.191 NA
ENDBRANCH  21  26
ENDBRANCH  19  20
ENDBRANCH   5  19
TORSDOF 5
ENDMDL
MODEL 6
REMARK VINA RESULT:      -6.8      8.574     10.451
REMARK  Name = *****
REMARK                            x       y       z     vdW  Elec       q    Type
REMARK                         _______ _______ _______ _____ _____    ______ ____
ROOT
ATOM      1  C   LIG    1       23.673 -31.197   8.024  0.00  0.00    +0.157 C 
ATOM      2  N   LIG    1       24.369 -30.535   9.111  0.00  0.00    -0.264 N 
ATOM      3  C   LIG    1       23.886 -30.731  10.395  0.00  0.00    +0.333 C 
ATOM      4  O   LIG    1       22.958 -31.512  10.621  0.00  0.00    -0.246 OA
ATOM      5  N   LIG    1       24.484 -29.981  11.408  0.00  0.00    -0.277 N 
ATOM      6  C   LIG    1       25.627 -29.209  11.205  0.00  0.00    +0.111 C 
ATOM      7  C   LIG    1       26.109 -29.093   9.957  0.00  0.00    +0.112 C 
ATOM      8  C   LIG    1       25.451 -29.740   8.814  0.00  0.00    +0.258 C 
ATOM      9  O   LIG    1       25.894 -29.542   7.686  0.00  0.00    -0.268 OA
ENDROOT
BRANCH   6  10
ATOM     10  N   LIG    1       26.264 -28.558  12.276  0.00  0.00    -0.315 N 
ATOM     11  C   LIG    1       26.898 -27.231  12.073  0.00  0.00    +0.124 C 
ATOM     12  C   LIG    1       26.934 -26.459  13.413  0.00  0.00    +0.068 C 
ATOM     13  C   LIG    1       27.704 -27.273  14.459  0.00  0.00    +0.021 C 
ATOM     14  C   LIG    1       27.118 -28.678  14.592  0.00  0.00    +0.020 C 
ATOM     15  C   LIG    1       27.016 -29.390  13.243  0.00  0.00    +0.106 C 
BRANCH  12  16
ATOM     16  N   LIG    1       27.536 -25.128  13.269  0.00  0.00    -0.326 NA
ATOM     17  H   LIG    1       27.021 -24.462  13.846  0.00  0.00    +0.118 HD
ATOM     18  H   LIG    1       28.488 -25.133  13.634  0.00  0.00    +0.118 HD
ENDBRANCH  12  16
ENDBRANCH   6  10
BRANCH   5  19
ATOM     19  C   LIG    1       23.760 -29.949  12.705  0.00  0.00    +0.164 C 
BRANCH  19  20
ATOM     20  C   LIG    1       22.828 -28.741  12.865  0.00  0.00    -0.010 A 
ATOM     21  C   LIG    1       21.422 -28.788  12.723  0.00  0.00    +0.057 A 
ATOM     22  C   LIG    1       20.651 -27.623  12.914  0.00  0.00    +0.019 A 
ATOM     23  C   LIG    1       21.244 -26.414  13.267  0.00  0.00    +0.001 A 
ATOM     24  C   LIG    1       22.616 -26.356  13.433  0.00  0.00    +0.000 A 
ATOM     25  C   LIG    1       23.388 -27.501  13.234  0.00  0.00    +0.007 A 
BRANCH  21  26
ATOM     26  C   LIG    1       20.670 -29.980  12.405  0.00  0.00    +0.100 C 
ATOM     27  N   LIG    1       20.078 -30.962  12.268  0.00  0.00    -0.191 NA
ENDBRANCH  21  26
ENDBRANCH  19  20
ENDBRANCH   5  19
TORSDOF 5
ENDMDL
MODEL 7
REMARK VINA RESULT:      -6.7      6.936     10.247
REMARK  Name = *****
REMARK                            x       y       z     vdW  Elec       q    Type
REMARK                         _______ _______ _______ _____ _____    ______ ____
ROOT
ATOM      1  C   LIG    1       27.640 -32.799   6.415  0.00  0.00    +0.157 C 
ATOM      2  N   LIG    1       26.714 -32.323   7.425  0.00  0.00    -0.264 N 
ATOM      3  C   LIG    1       25.679 -31.501   7.008  0.00  0.00    +0.333 C 
ATOM      4  O   LIG    1       25.492 -31.257   5.813  0.00  0.00    -0.246 OA
ATOM      5  N   LIG    1       24.881 -30.946   8.009  0.00  0.00    -0.277 N 
ATOM      6  C   LIG    1       24.975 -31.323   9.348  0.00  0.00    +0.111 C 
ATOM      7  C   LIG    1       25.949 -32.174   9.708  0.00  0.00    +0.112 C 
ATOM      8  C   LIG    1       26.916 -32.693   8.734  0.00  0.00    +0.258 C 
ATOM      9  O   LIG    1       27.830 -33.413   9.131  0.00  0.00    -0.268 OA
ENDROOT
BRANCH   6  10
ATOM     10  N   LIG    1       24.077 -30.823  10.308  0.00  0.00    -0.315 N 
ATOM     11  C   LIG    1       24.577 -30.351  11.624  0.00  0.00    +0.124 C 
ATOM     12  C   LIG    1       23.602 -29.302  12.208  0.00  0.00    +0.068 C 
ATOM     13  C   LIG    1       22.204 -29.917  12.349  0.00  0.00    +0.021 C 
ATOM     14  C   LIG    1       21.732 -30.500  11.017  0.00  0.00    +0.020 C 
ATOM     15  C   LIG    1       22.751 -31.470  10.419  0.00  0.00    +0.106 C 
BRANCH  12  16
ATOM     16  N   LIG    1       24.055 -28.785  13.505  0.00  0.00    -0.326 NA
ATOM     17  H   LIG    1       24.982 -29.163  13.712  0.00  0.00    +0.118 HD
ATOM     18  H   LIG    1       24.172 -27.774  13.457  0.00  0.00    +0.118 HD
ENDBRANCH  12  16
ENDBRANCH   6  10
BRANCH   5  19
ATOM     19  C   LIG    1       23.997 -29.828   7.589  0.00  0.00    +0.164 C 
BRANCH  19  20
ATOM     20  C   LIG    1       24.749 -28.644   6.966  0.00  0.00    -0.010 A 
ATOM     21  C   LIG    1       25.834 -27.973   7.576  0.00  0.00    +0.057 A 
ATOM     22  C   LIG    1       26.474 -26.909   6.909  0.00  0.00    +0.019 A 
ATOM     23  C   LIG    1       26.075 -26.510   5.636  0.00  0.00    +0.001 A 
ATOM     24  C   LIG    1       25.030 -27.171   5.016  0.00  0.00    +0.000 A 
ATOM     25  C   LIG    1       24.384 -28.217   5.673  0.00  0.00    +0.007 A 
BRANCH  21  26
ATOM     26  C   LIG    1       26.382 -28.308   8.870  0.00  0.00    +0.100 C 
ATOM     27  N   LIG    1       26.925 -28.531   9.864  0.00  0.00    -0.191 NA
ENDBRANCH  21  26
ENDBRANCH  19  20
ENDBRANCH   5  19
TORSDOF 5
ENDMDL
MODEL 8
REMARK VINA RESULT:      -6.7      7.353      9.817
REMARK  Name = *****
REMARK                            x       y       z     vdW  Elec       q    Type
REMARK                         _______ _______ _______ _____ _____    ______ ____
ROOT
ATOM      1  C   LIG    1       27.035 -26.290  13.005  0.00  0.00    +0.157 C 
ATOM      2  N   LIG    1       26.059 -27.316  12.689  0.00  0.00    -0.264 N 
ATOM      3  C   LIG    1       26.443 -28.319  11.814  0.00  0.00    +0.333 C 
ATOM      4  O   LIG    1       27.599 -28.394  11.390  0.00  0.00    -0.246 OA
ATOM      5  N   LIG    1       25.452 -29.216  11.418  0.00  0.00    -0.277 N 
ATOM      6  C   LIG    1       24.182 -29.245  11.996  0.00  0.00    +0.111 C 
ATOM      7  C   LIG    1       23.864 -28.296  12.891  0.00  0.00    +0.112 C 
ATOM      8  C   LIG    1       24.808 -27.233  13.255  0.00  0.00    +0.258 C 
ATOM      9  O   LIG    1       24.439 -26.350  14.026  0.00  0.00    -0.268 OA
ENDROOT
BRANCH   6  10
ATOM     10  N   LIG    1       23.248 -30.237  11.649  0.00  0.00    -0.315 N 
ATOM     11  C   LIG    1       21.815 -29.888  11.479  0.00  0.00    +0.124 C 
ATOM     12  C   LIG    1       21.143 -30.894  10.515  0.00  0.00    +0.068 C 
ATOM     13  C   LIG    1       21.292 -32.317  11.066  0.00  0.00    +0.021 C 
ATOM     14  C   LIG    1       22.759 -32.640  11.343  0.00  0.00    +0.020 C 
ATOM     15  C   LIG    1       23.424 -31.587  12.230  0.00  0.00    +0.106 C 
BRANCH  12  16
ATOM     16  N   LIG    1       19.725 -30.587  10.295  0.00  0.00    -0.326 NA
ATOM     17  H   LIG    1       19.275 -31.382   9.839  0.00  0.00    +0.118 HD
ATOM     18  H   LIG    1       19.248 -30.474  11.189  0.00  0.00    +0.118 HD
ENDBRANCH  12  16
ENDBRANCH   6  10
BRANCH   5  19
ATOM     19  C   LIG    1       25.780 -30.073  10.250  0.00  0.00    +0.164 C 
BRANCH  19  20
ATOM     20  C   LIG    1       25.520 -29.401   8.896  0.00  0.00    -0.010 A 
ATOM     21  C   LIG    1       24.645 -29.904   7.906  0.00  0.00    +0.057 A 
ATOM     22  C   LIG    1       24.456 -29.196   6.701  0.00  0.00    +0.019 A 
ATOM     23  C   LIG    1       25.101 -27.985   6.466  0.00  0.00    +0.001 A 
ATOM     24  C   LIG    1       25.943 -27.467   7.434  0.00  0.00    +0.000 A 
ATOM     25  C   LIG    1       26.144 -28.166   8.624  0.00  0.00    +0.007 A 
BRANCH  21  26
ATOM     26  C   LIG    1       23.877 -31.121   8.032  0.00  0.00    +0.100 C 
ATOM     27  N   LIG    1       23.298 -32.120   8.021  0.00  0.00    -0.191 NA
ENDBRANCH  21  26
ENDBRANCH  19  20
ENDBRANCH   5  19
TORSDOF 5
ENDMDL
MODEL 9
REMARK VINA RESULT:      -6.5      7.039     10.251
REMARK  Name = *****
REMARK                            x       y       z     vdW  Elec       q    Type
REMARK                         _______ _______ _______ _____ _____    ______ ____
ROOT
ATOM      1  C   LIG    1       28.333 -29.270  11.808  0.00  0.00    +0.157 C 
ATOM      2  N   LIG    1       27.026 -29.833  11.521  0.00  0.00    -0.264 N 
ATOM      3  C   LIG    1       26.457 -29.538  10.292  0.00  0.00    +0.333 C 
ATOM      4  O   LIG    1       27.072 -28.900   9.435  0.00  0.00    -0.246 OA
ATOM      5  N   LIG    1       25.148 -29.975  10.090  0.00  0.00    -0.277 N 
ATOM      6  C   LIG    1       24.487 -30.824  10.978  0.00  0.00    +0.111 C 
ATOM      7  C   LIG    1       25.095 -31.143  12.132  0.00  0.00    +0.112 C 
ATOM      8  C   LIG    1       26.417 -30.608  12.479  0.00  0.00    +0.258 C 
ATOM      9  O   LIG    1       26.896 -30.877  13.579  0.00  0.00    -0.268 OA
ENDROOT
BRANCH   6  10
ATOM     10  N   LIG    1       23.210 -31.332  10.683  0.00  0.00    -0.315 N 
ATOM     11  C   LIG    1       22.019 -30.831  11.416  0.00  0.00    +0.124 C 
ATOM     12  C   LIG    1       20.756 -31.006  10.540  0.00  0.00    +0.068 C 
ATOM     13  C   LIG    1       20.582 -32.484  10.170  0.00  0.00    +0.021 C 
ATOM     14  C   LIG    1       21.849 -33.030   9.513  0.00  0.00    +0.020 C 
ATOM     15  C   LIG    1       23.095 -32.772  10.359  0.00  0.00    +0.106 C 
BRANCH  12  16
ATOM     16  N   LIG    1       19.547 -30.510  11.208  0.00  0.00    -0.326 NA
ATOM     17  H   LIG    1       19.506 -30.889  12.155  0.00  0.00    +0.118 HD
ATOM     18  H   LIG    1       19.597 -29.498  11.317  0.00  0.00    +0.118 HD
ENDBRANCH  12  16
ENDBRANCH   6  10
BRANCH   5  19
ATOM     19  C   LIG    1       24.440 -29.386   8.925  0.00  0.00    +0.164 C 
BRANCH  19  20
ATOM     20  C   LIG    1       24.863 -29.982   7.576  0.00  0.00    -0.010 A 
ATOM     21  C   LIG    1       24.903 -29.263   6.359  0.00  0.00    +0.057 A 
ATOM     22  C   LIG    1       25.330 -29.897   5.175  0.00  0.00    +0.019 A 
ATOM     23  C   LIG    1       25.742 -31.227   5.176  0.00  0.00    +0.001 A 
ATOM     24  C   LIG    1       25.731 -31.938   6.363  0.00  0.00    +0.000 A 
ATOM     25  C   LIG    1       25.299 -31.322   7.536  0.00  0.00    +0.007 A 
BRANCH  21  26
ATOM     26  C   LIG    1       24.549 -27.869   6.219  0.00  0.00    +0.100 C 
ATOM     27  N   LIG    1       24.383 -26.730   6.120  0.00  0.00    -0.191 NA
ENDBRANCH  21  26
ENDBRANCH  19  20
ENDBRANCH   5  19
TORSDOF 5
ENDMDL
