MODEL 1
REMARK VINA RESULT:      -1.2      0.000      0.000
REMARK  Name = *****
REMARK                            x       y       z     vdW  Elec       q    Type
REMARK                         _______ _______ _______ _____ _____    ______ ____
ROOT
ATOM      1  C   LIG    1       25.448 -17.277   3.600  0.00  0.00    +0.137 A 
ATOM      2  C   LIG    1       25.501 -15.926   3.279  0.00  0.00    +0.052 A 
ATOM      3  C   LIG    1       24.402 -15.093   3.537  0.00  0.00    -0.011 A 
ATOM      4  C   LIG    1       23.250 -15.664   4.091  0.00  0.00    +0.052 A 
ATOM      5  C   LIG    1       23.177 -17.042   4.311  0.00  0.00    +0.137 A 
ATOM      6  C   LIG    1       24.282 -17.853   4.090  0.00  0.00    +0.092 A 
ENDROOT
BRANCH   1   7
ATOM      7  O   LIG    1       26.551 -18.148   3.535  0.00  0.00    -0.411 OA
BRANCH   7  10
ATOM      8  C   LIG    1       28.717 -18.078   5.049  0.00  0.00    +0.135 C 
ATOM      9  N   LIG    1       27.844 -19.235   5.093  0.00  0.00    -0.273 N 
ATOM     10  C   LIG    1       26.695 -19.309   4.305  0.00  0.00    +0.408 C 
ATOM     11  O   LIG    1       25.929 -20.267   4.303  0.00  0.00    -0.226 OA
ATOM     12  C   LIG    1       28.006 -20.177   6.174  0.00  0.00    +0.135 C 
ENDBRANCH   7  10
ENDBRANCH   1   7
BRANCH   3  13
ATOM     13  C   LIG    1       24.456 -13.593   3.306  0.00  0.00    +0.158 C 
BRANCH  13  14
ATOM     14  O   LIG    1       24.117 -12.911   4.521  0.00  0.00    -0.386 OA
ATOM     15  H   LIG    1       24.720 -13.223   5.215  0.00  0.00    +0.210 HD
ENDBRANCH  13  14
BRANCH  13  16
ATOM     16  C   LIG    1       25.846 -13.113   2.830  0.00  0.00    +0.117 C 
BRANCH  16  17
ATOM     17  N   LIG    1       26.577 -12.357   3.859  0.00  0.00    -0.308 NA
ATOM     18  H   LIG    1       25.876 -11.999   4.515  0.00  0.00    +0.122 HD
BRANCH  17  19
ATOM     19  C   LIG    1       27.606 -13.135   4.574  0.00  0.00    +0.011 C 
ATOM     20  C   LIG    1       28.098 -14.305   3.703  0.00  0.00    +0.027 C 
ATOM     21  C   LIG    1       27.117 -13.658   5.937  0.00  0.00    +0.027 C 
ATOM     22  C   LIG    1       28.799 -12.192   4.824  0.00  0.00    +0.027 C 
ENDBRANCH  17  19
ENDBRANCH  16  17
ENDBRANCH  13  16
ENDBRANCH   3  13
BRANCH   5  23
ATOM     23  O   LIG    1       22.038 -17.671   4.841  0.00  0.00    -0.411 OA
BRANCH  23  24
ATOM     24  C   LIG    1       21.499 -18.813   4.247  0.00  0.00    +0.408 C 
ATOM     25  N   LIG    1       21.818 -19.966   4.934  0.00  0.00    -0.273 N 
ATOM     26  C   LIG    1       21.194 -21.218   4.553  0.00  0.00    +0.135 C 
ATOM     27  C   LIG    1       22.941 -20.039   5.851  0.00  0.00    +0.135 C 
ATOM     28  O   LIG    1       20.797 -18.809   3.238  0.00  0.00    -0.226 OA
ENDBRANCH  23  24
ENDBRANCH   5  23
TORSDOF 9
ENDMDL
MODEL 2
REMARK VINA RESULT:      -1.2      1.991      4.873
REMARK  Name = *****
REMARK                            x       y       z     vdW  Elec       q    Type
REMARK                         _______ _______ _______ _____ _____    ______ ____
ROOT
ATOM      1  C   LIG    1       25.644 -17.523   3.597  0.00  0.00    +0.137 A 
ATOM      2  C   LIG    1       25.697 -16.138   3.503  0.00  0.00    +0.052 A 
ATOM      3  C   LIG    1       26.889 -15.455   3.785  0.00  0.00    -0.011 A 
ATOM      4  C   LIG    1       28.003 -16.199   4.190  0.00  0.00    +0.052 A 
ATOM      5  C   LIG    1       27.903 -17.580   4.379  0.00  0.00    +0.137 A 
ATOM      6  C   LIG    1       26.731 -18.254   4.060  0.00  0.00    +0.092 A 
ENDROOT
BRANCH   1   7
ATOM      7  O   LIG    1       24.551 -18.301   3.173  0.00  0.00    -0.411 OA
BRANCH   7  10
ATOM      8  C   LIG    1       24.205 -20.908   3.445  0.00  0.00    +0.135 C 
ATOM      9  N   LIG    1       23.289 -19.989   4.090  0.00  0.00    -0.273 N 
ATOM     10  C   LIG    1       23.437 -18.607   3.965  0.00  0.00    +0.408 C 
ATOM     11  O   LIG    1       22.686 -17.790   4.488  0.00  0.00    -0.226 OA
ATOM     12  C   LIG    1       22.402 -20.503   5.106  0.00  0.00    +0.135 C 
ENDBRANCH   7  10
ENDBRANCH   1   7
BRANCH   3  13
ATOM     13  C   LIG    1       27.024 -13.954   3.590  0.00  0.00    +0.158 C 
BRANCH  13  14
ATOM     14  O   LIG    1       28.406 -13.620   3.400  0.00  0.00    -0.386 OA
ATOM     15  H   LIG    1       28.863 -14.416   3.082  0.00  0.00    +0.210 HD
ENDBRANCH  13  14
BRANCH  13  16
ATOM     16  C   LIG    1       26.210 -13.435   2.382  0.00  0.00    +0.117 C 
BRANCH  16  17
ATOM     17  N   LIG    1       25.538 -12.154   2.651  0.00  0.00    -0.308 NA
ATOM     18  H   LIG    1       25.564 -11.618   1.779  0.00  0.00    +0.122 HD
BRANCH  17  19
ATOM     19  C   LIG    1       24.152 -12.281   3.139  0.00  0.00    +0.011 C 
ATOM     20  C   LIG    1       24.023 -11.689   4.553  0.00  0.00    +0.027 C 
ATOM     21  C   LIG    1       23.648 -13.736   3.126  0.00  0.00    +0.027 C 
ATOM     22  C   LIG    1       23.258 -11.457   2.193  0.00  0.00    +0.027 C 
ENDBRANCH  17  19
ENDBRANCH  16  17
ENDBRANCH  13  16
ENDBRANCH   3  13
BRANCH   5  23
ATOM     23  O   LIG    1       28.981 -18.372   4.808  0.00  0.00    -0.411 OA
BRANCH  23  24
ATOM     24  C   LIG    1       28.930 -19.073   6.014  0.00  0.00    +0.408 C 
ATOM     25  N   LIG    1       28.216 -20.249   5.912  0.00  0.00    -0.273 N 
ATOM     26  C   LIG    1       28.214 -21.179   7.023  0.00  0.00    +0.135 C 
ATOM     27  C   LIG    1       27.254 -20.484   4.850  0.00  0.00    +0.135 C 
ATOM     28  O   LIG    1       29.474 -18.710   7.055  0.00  0.00    -0.226 OA
ENDBRANCH  23  24
ENDBRANCH   5  23
TORSDOF 9
ENDMDL
MODEL 3
REMARK VINA RESULT:      -0.8      1.834      6.342
REMARK  Name = *****
REMARK                            x       y       z     vdW  Elec       q    Type
REMARK                         _______ _______ _______ _____ _____    ______ ____
ROOT
ATOM      1  C   LIG    1       25.267 -17.544   3.293  0.00  0.00    +0.137 A 
ATOM      2  C   LIG    1       26.405 -18.196   3.748  0.00  0.00    +0.052 A 
ATOM      3  C   LIG    1       27.537 -17.462   4.131  0.00  0.00    -0.011 A 
ATOM      4  C   LIG    1       27.498 -16.067   4.009  0.00  0.00    +0.052 A 
ATOM      5  C   LIG    1       26.384 -15.435   3.451  0.00  0.00    +0.137 A 
ATOM      6  C   LIG    1       25.252 -16.166   3.112  0.00  0.00    +0.092 A 
ENDROOT
BRANCH   1   7
ATOM      7  O   LIG    1       24.035 -18.181   3.050  0.00  0.00    -0.411 OA
BRANCH   7  10
ATOM      8  C   LIG    1       23.699 -20.802   3.079  0.00  0.00    +0.135 C 
ATOM      9  N   LIG    1       22.991 -19.975   4.035  0.00  0.00    -0.273 N 
ATOM     10  C   LIG    1       23.139 -18.588   4.046  0.00  0.00    +0.408 C 
ATOM     11  O   LIG    1       22.558 -17.845   4.831  0.00  0.00    -0.226 OA
ATOM     12  C   LIG    1       22.363 -20.615   5.166  0.00  0.00    +0.135 C 
ENDBRANCH   7  10
ENDBRANCH   1   7
BRANCH   3  13
ATOM     13  C   LIG    1       28.761 -18.125   4.738  0.00  0.00    +0.158 C 
BRANCH  13  14
ATOM     14  O   LIG    1       29.398 -17.212   5.643  0.00  0.00    -0.386 OA
ATOM     15  H   LIG    1       28.702 -16.738   6.126  0.00  0.00    +0.210 HD
ENDBRANCH  13  14
BRANCH  13  16
ATOM     16  C   LIG    1       28.419 -19.429   5.494  0.00  0.00    +0.117 C 
BRANCH  16  17
ATOM     17  N   LIG    1       27.035 -19.458   5.992  0.00  0.00    -0.308 NA
ATOM     18  H   LIG    1       26.461 -18.972   5.297  0.00  0.00    +0.122 HD
BRANCH  17  19
ATOM     19  C   LIG    1       26.505 -20.810   6.246  0.00  0.00    +0.011 C 
ATOM     20  C   LIG    1       26.293 -21.563   4.921  0.00  0.00    +0.027 C 
ATOM     21  C   LIG    1       25.199 -20.795   7.062  0.00  0.00    +0.027 C 
ATOM     22  C   LIG    1       27.569 -21.571   7.062  0.00  0.00    +0.027 C 
ENDBRANCH  17  19
ENDBRANCH  16  17
ENDBRANCH  13  16
ENDBRANCH   3  13
BRANCH   5  23
ATOM     23  O   LIG    1       26.300 -14.043   3.283  0.00  0.00    -0.411 OA
BRANCH  23  24
ATOM     24  C   LIG    1       25.459 -13.267   4.081  0.00  0.00    +0.408 C 
ATOM     25  N   LIG    1       24.707 -12.375   3.345  0.00  0.00    -0.273 N 
ATOM     26  C   LIG    1       23.659 -11.618   3.998  0.00  0.00    +0.135 C 
ATOM     27  C   LIG    1       25.084 -11.962   2.005  0.00  0.00    +0.135 C 
ATOM     28  O   LIG    1       25.367 -13.370   5.302  0.00  0.00    -0.226 OA
ENDBRANCH  23  24
ENDBRANCH   5  23
TORSDOF 9
ENDMDL
MODEL 4
REMARK VINA RESULT:      -0.7      0.520      4.155
REMARK  Name = *****
REMARK                            x       y       z     vdW  Elec       q    Type
REMARK                         _______ _______ _______ _____ _____    ______ ____
ROOT
ATOM      1  C   LIG    1       23.185 -16.995   4.345  0.00  0.00    +0.137 A 
ATOM      2  C   LIG    1       23.323 -15.644   4.056  0.00  0.00    +0.052 A 
ATOM      3  C   LIG    1       24.512 -15.158   3.493  0.00  0.00    -0.011 A 
ATOM      4  C   LIG    1       25.557 -16.061   3.265  0.00  0.00    +0.052 A 
ATOM      5  C   LIG    1       25.440 -17.396   3.658  0.00  0.00    +0.137 A 
ATOM      6  C   LIG    1       24.245 -17.878   4.177  0.00  0.00    +0.092 A 
ENDROOT
BRANCH   1   7
ATOM      7  O   LIG    1       21.979 -17.597   4.749  0.00  0.00    -0.411 OA
BRANCH   7  10
ATOM      8  C   LIG    1       22.794 -19.860   5.845  0.00  0.00    +0.135 C 
ATOM      9  N   LIG    1       21.852 -19.891   4.744  0.00  0.00    -0.273 N 
ATOM     10  C   LIG    1       21.404 -18.718   4.137  0.00  0.00    +0.408 C 
ATOM     11  O   LIG    1       20.612 -18.693   3.201  0.00  0.00    -0.226 OA
ATOM     12  C   LIG    1       21.152 -21.124   4.473  0.00  0.00    +0.135 C 
ENDBRANCH   7  10
ENDBRANCH   1   7
BRANCH   3  13
ATOM     13  C   LIG    1       24.667 -13.710   3.060  0.00  0.00    +0.158 C 
BRANCH  13  14
ATOM     14  O   LIG    1       23.388 -13.190   2.671  0.00  0.00    -0.386 OA
ATOM     15  H   LIG    1       22.710 -13.824   2.956  0.00  0.00    +0.210 HD
ENDBRANCH  13  14
BRANCH  13  16
ATOM     16  C   LIG    1       25.257 -12.815   4.173  0.00  0.00    +0.117 C 
BRANCH  16  17
ATOM     17  N   LIG    1       26.625 -12.359   3.879  0.00  0.00    -0.308 NA
ATOM     18  H   LIG    1       26.648 -11.353   4.070  0.00  0.00    +0.122 HD
BRANCH  17  19
ATOM     19  C   LIG    1       27.678 -13.056   4.640  0.00  0.00    +0.011 C 
ATOM     20  C   LIG    1       27.096 -13.672   5.925  0.00  0.00    +0.027 C 
ATOM     21  C   LIG    1       28.869 -12.141   4.983  0.00  0.00    +0.027 C 
ATOM     22  C   LIG    1       28.198 -14.204   3.754  0.00  0.00    +0.027 C 
ENDBRANCH  17  19
ENDBRANCH  16  17
ENDBRANCH  13  16
ENDBRANCH   3  13
BRANCH   5  23
ATOM     23  O   LIG    1       26.465 -18.339   3.475  0.00  0.00    -0.411 OA
BRANCH  23  24
ATOM     24  C   LIG    1       26.564 -19.468   4.289  0.00  0.00    +0.408 C 
ATOM     25  N   LIG    1       27.556 -19.349   5.240  0.00  0.00    -0.273 N 
ATOM     26  C   LIG    1       27.675 -20.356   6.276  0.00  0.00    +0.135 C 
ATOM     27  C   LIG    1       28.652 -18.406   5.105  0.00  0.00    +0.135 C 
ATOM     28  O   LIG    1       25.840 -20.458   4.199  0.00  0.00    -0.226 OA
ENDBRANCH  23  24
ENDBRANCH   5  23
TORSDOF 9
ENDMDL
MODEL 5
REMARK VINA RESULT:      -0.6      2.048      6.687
REMARK  Name = *****
REMARK                            x       y       z     vdW  Elec       q    Type
REMARK                         _______ _______ _______ _____ _____    ______ ____
ROOT
ATOM      1  C   LIG    1       27.047 -16.042   3.892  0.00  0.00    +0.137 A 
ATOM      2  C   LIG    1       26.996 -17.428   3.803  0.00  0.00    +0.052 A 
ATOM      3  C   LIG    1       25.774 -18.079   3.578  0.00  0.00    -0.011 A 
ATOM      4  C   LIG    1       24.614 -17.301   3.478  0.00  0.00    +0.052 A 
ATOM      5  C   LIG    1       24.668 -15.919   3.674  0.00  0.00    +0.137 A 
ATOM      6  C   LIG    1       25.887 -15.278   3.857  0.00  0.00    +0.092 A 
ENDROOT
BRANCH   1   7
ATOM      7  O   LIG    1       28.239 -15.298   3.946  0.00  0.00    -0.411 OA
BRANCH   7  10
ATOM      8  C   LIG    1       27.968 -13.867   6.152  0.00  0.00    +0.135 C 
ATOM      9  N   LIG    1       28.188 -13.201   4.884  0.00  0.00    -0.273 N 
ATOM     10  C   LIG    1       28.331 -13.922   3.699  0.00  0.00    +0.408 C 
ATOM     11  O   LIG    1       28.515 -13.404   2.602  0.00  0.00    -0.226 OA
ATOM     12  C   LIG    1       28.558 -11.806   4.897  0.00  0.00    +0.135 C 
ENDBRANCH   7  10
ENDBRANCH   1   7
BRANCH   3  13
ATOM     13  C   LIG    1       25.688 -19.580   3.364  0.00  0.00    +0.158 C 
BRANCH  13  14
ATOM     14  O   LIG    1       26.408 -20.252   4.407  0.00  0.00    -0.386 OA
ATOM     15  H   LIG    1       26.220 -19.793   5.242  0.00  0.00    +0.210 HD
ENDBRANCH  13  14
BRANCH  13  16
ATOM     16  C   LIG    1       24.231 -20.097   3.346  0.00  0.00    +0.117 C 
BRANCH  16  17
ATOM     17  N   LIG    1       23.993 -21.181   4.312  0.00  0.00    -0.308 NA
ATOM     18  H   LIG    1       24.878 -21.336   4.804  0.00  0.00    +0.122 HD
BRANCH  17  19
ATOM     19  C   LIG    1       22.906 -20.916   5.272  0.00  0.00    +0.011 C 
ATOM     20  C   LIG    1       22.670 -19.401   5.415  0.00  0.00    +0.027 C 
ATOM     21  C   LIG    1       23.166 -21.543   6.654  0.00  0.00    +0.027 C 
ATOM     22  C   LIG    1       21.624 -21.546   4.695  0.00  0.00    +0.027 C 
ENDBRANCH  17  19
ENDBRANCH  16  17
ENDBRANCH  13  16
ENDBRANCH   3  13
BRANCH   5  23
ATOM     23  O   LIG    1       23.533 -15.094   3.610  0.00  0.00    -0.411 OA
BRANCH  23  24
ATOM     24  C   LIG    1       23.570 -13.775   4.065  0.00  0.00    +0.408 C 
ATOM     25  N   LIG    1       23.845 -12.875   3.055  0.00  0.00    -0.273 N 
ATOM     26  C   LIG    1       23.747 -11.454   3.322  0.00  0.00    +0.135 C 
ATOM     27  C   LIG    1       24.480 -13.273   1.812  0.00  0.00    +0.135 C 
ATOM     28  O   LIG    1       23.361 -13.432   5.227  0.00  0.00    -0.226 OA
ENDBRANCH  23  24
ENDBRANCH   5  23
TORSDOF 9
ENDMDL
MODEL 6
REMARK VINA RESULT:      -0.5      1.369      6.412
REMARK  Name = *****
REMARK                            x       y       z     vdW  Elec       q    Type
REMARK                         _______ _______ _______ _____ _____    ______ ____
ROOT
ATOM      1  C   LIG    1       24.958 -15.041   3.790  0.00  0.00    +0.137 A 
ATOM      2  C   LIG    1       23.671 -15.539   3.952  0.00  0.00    +0.052 A 
ATOM      3  C   LIG    1       23.453 -16.922   4.050  0.00  0.00    -0.011 A 
ATOM      4  C   LIG    1       24.557 -17.778   3.949  0.00  0.00    +0.052 A 
ATOM      5  C   LIG    1       25.829 -17.266   3.683  0.00  0.00    +0.137 A 
ATOM      6  C   LIG    1       26.042 -15.895   3.626  0.00  0.00    +0.092 A 
ENDROOT
BRANCH   1   7
ATOM      7  O   LIG    1       25.289 -13.675   3.852  0.00  0.00    -0.411 OA
BRANCH   7  10
ATOM      8  C   LIG    1       27.109 -13.430   5.753  0.00  0.00    +0.135 C 
ATOM      9  N   LIG    1       27.420 -13.014   4.401  0.00  0.00    -0.273 N 
ATOM     10  C   LIG    1       26.484 -13.124   3.373  0.00  0.00    +0.408 C 
ATOM     11  O   LIG    1       26.699 -12.781   2.214  0.00  0.00    -0.226 OA
ATOM     12  C   LIG    1       28.800 -12.764   4.059  0.00  0.00    +0.135 C 
ENDBRANCH   7  10
ENDBRANCH   1   7
BRANCH   3  13
ATOM     13  C   LIG    1       22.080 -17.503   4.337  0.00  0.00    +0.158 C 
BRANCH  13  14
ATOM     14  O   LIG    1       21.493 -17.965   3.113  0.00  0.00    -0.386 OA
ATOM     15  H   LIG    1       21.730 -17.334   2.413  0.00  0.00    +0.210 HD
ENDBRANCH  13  14
BRANCH  13  16
ATOM     16  C   LIG    1       22.127 -18.674   5.346  0.00  0.00    +0.117 C 
BRANCH  16  17
ATOM     17  N   LIG    1       23.342 -19.494   5.218  0.00  0.00    -0.308 NA
ATOM     18  H   LIG    1       23.923 -19.291   6.036  0.00  0.00    +0.122 HD
BRANCH  17  19
ATOM     19  C   LIG    1       23.092 -20.943   5.107  0.00  0.00    +0.011 C 
ATOM     20  C   LIG    1       24.017 -21.569   4.048  0.00  0.00    +0.027 C 
ATOM     21  C   LIG    1       21.622 -21.270   4.786  0.00  0.00    +0.027 C 
ATOM     22  C   LIG    1       23.434 -21.571   6.471  0.00  0.00    +0.027 C 
ENDBRANCH  17  19
ENDBRANCH  16  17
ENDBRANCH  13  16
ENDBRANCH   3  13
BRANCH   5  23
ATOM     23  O   LIG    1       26.966 -18.080   3.547  0.00  0.00    -0.411 OA
BRANCH  23  24
ATOM     24  C   LIG    1       27.963 -18.099   4.523  0.00  0.00    +0.408 C 
ATOM     25  N   LIG    1       27.965 -19.269   5.254  0.00  0.00    -0.273 N 
ATOM     26  C   LIG    1       29.043 -19.524   6.188  0.00  0.00    +0.135 C 
ATOM     27  C   LIG    1       26.806 -20.140   5.329  0.00  0.00    +0.135 C 
ATOM     28  O   LIG    1       28.773 -17.193   4.710  0.00  0.00    -0.226 OA
ENDBRANCH  23  24
ENDBRANCH   5  23
TORSDOF 9
ENDMDL
MODEL 7
REMARK VINA RESULT:      -0.1      1.769      6.135
REMARK  Name = *****
REMARK                            x       y       z     vdW  Elec       q    Type
REMARK                         _______ _______ _______ _____ _____    ______ ____
ROOT
ATOM      1  C   LIG    1       26.744 -17.652   3.966  0.00  0.00    +0.137 A 
ATOM      2  C   LIG    1       25.467 -18.197   3.976  0.00  0.00    +0.052 A 
ATOM      3  C   LIG    1       24.353 -17.397   3.680  0.00  0.00    -0.011 A 
ATOM      4  C   LIG    1       24.562 -16.040   3.410  0.00  0.00    +0.052 A 
ATOM      5  C   LIG    1       25.841 -15.486   3.506  0.00  0.00    +0.137 A 
ATOM      6  C   LIG    1       26.943 -16.292   3.760  0.00  0.00    +0.092 A 
ENDROOT
BRANCH   1   7
ATOM      7  O   LIG    1       27.926 -18.407   4.082  0.00  0.00    -0.411 OA
BRANCH   7  10
ATOM      8  C   LIG    1       27.470 -20.688   5.337  0.00  0.00    +0.135 C 
ATOM      9  N   LIG    1       28.421 -19.741   5.886  0.00  0.00    -0.273 N 
ATOM     10  C   LIG    1       28.683 -18.526   5.254  0.00  0.00    +0.408 C 
ATOM     11  O   LIG    1       29.475 -17.691   5.681  0.00  0.00    -0.226 OA
ATOM     12  C   LIG    1       29.315 -20.190   6.926  0.00  0.00    +0.135 C 
ENDBRANCH   7  10
ENDBRANCH   1   7
BRANCH   3  13
ATOM     13  C   LIG    1       22.952 -17.974   3.572  0.00  0.00    +0.158 C 
BRANCH  13  14
ATOM     14  O   LIG    1       22.957 -19.068   2.644  0.00  0.00    -0.386 OA
ATOM     15  H   LIG    1       23.853 -19.444   2.633  0.00  0.00    +0.210 HD
ENDBRANCH  13  14
BRANCH  13  16
ATOM     16  C   LIG    1       22.405 -18.469   4.931  0.00  0.00    +0.117 C 
BRANCH  16  17
ATOM     17  N   LIG    1       22.196 -19.925   4.970  0.00  0.00    -0.308 NA
ATOM     18  H   LIG    1       22.155 -20.243   3.998  0.00  0.00    +0.122 HD
BRANCH  17  19
ATOM     19  C   LIG    1       23.226 -20.670   5.716  0.00  0.00    +0.011 C 
ATOM     20  C   LIG    1       24.126 -19.702   6.504  0.00  0.00    +0.027 C 
ATOM     21  C   LIG    1       24.084 -21.571   4.809  0.00  0.00    +0.027 C 
ATOM     22  C   LIG    1       22.494 -21.571   6.729  0.00  0.00    +0.027 C 
ENDBRANCH  17  19
ENDBRANCH  16  17
ENDBRANCH  13  16
ENDBRANCH   3  13
BRANCH   5  23
ATOM     23  O   LIG    1       26.104 -14.126   3.269  0.00  0.00    -0.411 OA
BRANCH  23  24
ATOM     24  C   LIG    1       25.675 -13.141   4.159  0.00  0.00    +0.408 C 
ATOM     25  N   LIG    1       24.494 -12.547   3.761  0.00  0.00    -0.273 N 
ATOM     26  C   LIG    1       23.820 -11.630   4.657  0.00  0.00    +0.135 C 
ATOM     27  C   LIG    1       24.026 -12.593   2.387  0.00  0.00    +0.135 C 
ATOM     28  O   LIG    1       26.257 -12.837   5.198  0.00  0.00    -0.226 OA
ENDBRANCH  23  24
ENDBRANCH   5  23
TORSDOF 9
ENDMDL
MODEL 8
REMARK VINA RESULT:      -0.0      1.549      6.427
REMARK  Name = *****
REMARK                            x       y       z     vdW  Elec       q    Type
REMARK                         _______ _______ _______ _____ _____    ______ ____
ROOT
ATOM      1  C   LIG    1       26.560 -17.686   4.049  0.00  0.00    +0.137 A 
ATOM      2  C   LIG    1       25.305 -18.277   3.985  0.00  0.00    +0.052 A 
ATOM      3  C   LIG    1       24.163 -17.494   3.763  0.00  0.00    -0.011 A 
ATOM      4  C   LIG    1       24.321 -16.108   3.641  0.00  0.00    +0.052 A 
ATOM      5  C   LIG    1       25.576 -15.519   3.812  0.00  0.00    +0.137 A 
ATOM      6  C   LIG    1       26.707 -16.305   3.992  0.00  0.00    +0.092 A 
ENDROOT
BRANCH   1   7
ATOM      7  O   LIG    1       27.770 -18.403   4.099  0.00  0.00    -0.411 OA
BRANCH   7  10
ATOM      8  C   LIG    1       27.302 -20.548   5.570  0.00  0.00    +0.135 C 
ATOM      9  N   LIG    1       28.339 -19.616   5.965  0.00  0.00    -0.273 N 
ATOM     10  C   LIG    1       28.611 -18.471   5.216  0.00  0.00    +0.408 C 
ATOM     11  O   LIG    1       29.474 -17.651   5.512  0.00  0.00    -0.226 OA
ATOM     12  C   LIG    1       29.289 -20.030   6.970  0.00  0.00    +0.135 C 
ENDBRANCH   7  10
ENDBRANCH   1   7
BRANCH   3  13
ATOM     13  C   LIG    1       22.787 -18.109   3.576  0.00  0.00    +0.158 C 
BRANCH  13  14
ATOM     14  O   LIG    1       22.857 -19.141   2.583  0.00  0.00    -0.386 OA
ATOM     15  H   LIG    1       22.540 -18.769   1.744  0.00  0.00    +0.210 HD
ENDBRANCH  13  14
BRANCH  13  16
ATOM     16  C   LIG    1       22.219 -18.706   4.884  0.00  0.00    +0.117 C 
BRANCH  16  17
ATOM     17  N   LIG    1       23.208 -19.497   5.632  0.00  0.00    -0.308 NA
ATOM     18  H   LIG    1       23.138 -19.208   6.612  0.00  0.00    +0.122 HD
BRANCH  17  19
ATOM     19  C   LIG    1       23.042 -20.957   5.509  0.00  0.00    +0.011 C 
ATOM     20  C   LIG    1       24.207 -21.567   4.711  0.00  0.00    +0.027 C 
ATOM     21  C   LIG    1       21.698 -21.351   4.869  0.00  0.00    +0.027 C 
ATOM     22  C   LIG    1       23.082 -21.542   6.934  0.00  0.00    +0.027 C 
ENDBRANCH  17  19
ENDBRANCH  16  17
ENDBRANCH  13  16
ENDBRANCH   3  13
BRANCH   5  23
ATOM     23  O   LIG    1       25.788 -14.133   3.725  0.00  0.00    -0.411 OA
BRANCH  23  24
ATOM     24  C   LIG    1       26.615 -13.469   4.631  0.00  0.00    +0.408 C 
ATOM     25  N   LIG    1       27.753 -12.964   4.036  0.00  0.00    -0.273 N 
ATOM     26  C   LIG    1       28.631 -12.098   4.797  0.00  0.00    +0.135 C 
ATOM     27  C   LIG    1       28.254 -13.465   2.769  0.00  0.00    +0.135 C 
ATOM     28  O   LIG    1       26.364 -13.320   5.825  0.00  0.00    -0.226 OA
ENDBRANCH  23  24
ENDBRANCH   5  23
TORSDOF 9
ENDMDL
MODEL 9
REMARK VINA RESULT:       0.7      1.653      6.226
REMARK  Name = *****
REMARK                            x       y       z     vdW  Elec       q    Type
REMARK                         _______ _______ _______ _____ _____    ______ ____
ROOT
ATOM      1  C   LIG    1       26.373 -17.956   4.010  0.00  0.00    +0.137 A 
ATOM      2  C   LIG    1       25.038 -18.064   4.377  0.00  0.00    +0.052 A 
ATOM      3  C   LIG    1       24.153 -16.999   4.151  0.00  0.00    -0.011 A 
ATOM      4  C   LIG    1       24.658 -15.824   3.580  0.00  0.00    +0.052 A 
ATOM      5  C   LIG    1       26.023 -15.695   3.313  0.00  0.00    +0.137 A 
ATOM      6  C   LIG    1       26.885 -16.768   3.503  0.00  0.00    +0.092 A 
ENDROOT
BRANCH   1   7
ATOM      7  O   LIG    1       27.289 -19.024   4.041  0.00  0.00    -0.411 OA
BRANCH   7  10
ATOM      8  C   LIG    1       29.442 -18.866   5.567  0.00  0.00    +0.135 C 
ATOM      9  N   LIG    1       28.461 -19.905   5.811  0.00  0.00    -0.273 N 
ATOM     10  C   LIG    1       27.316 -20.022   5.023  0.00  0.00    +0.408 C 
ATOM     11  O   LIG    1       26.460 -20.886   5.187  0.00  0.00    -0.226 OA
ATOM     12  C   LIG    1       28.525 -20.631   7.056  0.00  0.00    +0.135 C 
ENDBRANCH   7  10
ENDBRANCH   1   7
BRANCH   3  13
ATOM     13  C   LIG    1       22.665 -17.113   4.434  0.00  0.00    +0.158 C 
BRANCH  13  14
ATOM     14  O   LIG    1       21.949 -16.195   3.596  0.00  0.00    -0.386 OA
ATOM     15  H   LIG    1       22.239 -16.340   2.681  0.00  0.00    +0.210 HD
ENDBRANCH  13  14
BRANCH  13  16
ATOM     16  C   LIG    1       22.121 -18.541   4.198  0.00  0.00    +0.117 C 
BRANCH  16  17
ATOM     17  N   LIG    1       22.182 -19.385   5.402  0.00  0.00    -0.308 NA
ATOM     18  H   LIG    1       21.255 -19.349   5.835  0.00  0.00    +0.122 HD
BRANCH  17  19
ATOM     19  C   LIG    1       22.583 -20.781   5.149  0.00  0.00    +0.011 C 
ATOM     20  C   LIG    1       23.208 -21.399   6.413  0.00  0.00    +0.027 C 
ATOM     21  C   LIG    1       23.550 -20.917   3.959  0.00  0.00    +0.027 C 
ATOM     22  C   LIG    1       21.301 -21.570   4.817  0.00  0.00    +0.027 C 
ENDBRANCH  17  19
ENDBRANCH  16  17
ENDBRANCH  13  16
ENDBRANCH   3  13
BRANCH   5  23
ATOM     23  O   LIG    1       26.587 -14.532   2.764  0.00  0.00    -0.411 OA
BRANCH  23  24
ATOM     24  C   LIG    1       27.564 -13.808   3.449  0.00  0.00    +0.408 C 
ATOM     25  N   LIG    1       27.092 -13.266   4.627  0.00  0.00    -0.273 N 
ATOM     26  C   LIG    1       28.020 -12.634   5.544  0.00  0.00    +0.135 C 
ATOM     27  C   LIG    1       25.676 -13.063   4.875  0.00  0.00    +0.135 C 
ATOM     28  O   LIG    1       28.727 -13.678   3.074  0.00  0.00    -0.226 OA
ENDBRANCH  23  24
ENDBRANCH   5  23
TORSDOF 9
ENDMDL
