MODEL 1
REMARK VINA RESULT:      -2.3      0.000      0.000
REMARK  Name = *****
REMARK                            x       y       z     vdW  Elec       q    Type
REMARK                         _______ _______ _______ _____ _____    ______ ____
ROOT
ATOM      1  C   LIG    1       25.326 -16.098   3.726  0.00  0.00    +0.065 C 
ATOM      2  C   LIG    1       25.546 -17.617   3.517  0.00  0.00    +0.097 C 
ATOM      3  C   LIG    1       24.269 -18.461   3.709  0.00  0.00    +0.065 C 
ATOM      4  C   LIG    1       23.097 -17.868   4.053  0.00  0.00    +0.016 C 
ATOM      5  C   LIG    1       21.758 -18.554   4.190  0.00  0.00    +0.061 C 
ATOM      6  N   LIG    1       23.052 -16.504   4.250  0.00  0.00    -0.321 N 
ATOM      7  H   LIG    1       22.146 -16.099   4.474  0.00  0.00    +0.152 HD
ATOM      8  C   LIG    1       24.097 -15.624   4.052  0.00  0.00    +0.016 C 
ATOM      9  C   LIG    1       23.687 -14.175   4.193  0.00  0.00    +0.061 C 
ENDROOT
BRANCH   2  10
ATOM     10  C   LIG    1       26.769 -18.167   4.282  0.00  0.00    -0.015 A 
ATOM     11  C   LIG    1       26.737 -19.230   5.210  0.00  0.00    +0.063 A 
ATOM     12 CL   LIG    1       25.260 -20.080   5.530  0.00  0.00    -0.082 Cl
ATOM     13  C   LIG    1       27.917 -19.611   5.885  0.00  0.00    +0.059 A 
ATOM     14 CL   LIG    1       27.950 -20.884   7.062  0.00  0.00    -0.082 Cl
ATOM     15  C   LIG    1       29.127 -18.958   5.637  0.00  0.00    +0.021 A 
ATOM     16  C   LIG    1       29.177 -17.922   4.715  0.00  0.00    +0.002 A 
ATOM     17  C   LIG    1       28.013 -17.532   4.052  0.00  0.00    +0.006 A 
ENDBRANCH   2  10
BRANCH   1  18
ATOM     18  C   LIG    1       26.505 -15.218   3.453  0.00  0.00    +0.338 C 
ATOM     19  O   LIG    1       26.878 -14.912   2.339  0.00  0.00    -0.245 OA
BRANCH  18  20
ATOM     20  O   LIG    1       27.098 -14.828   4.612  0.00  0.00    -0.462 OA
BRANCH  20  22
ATOM     21  C   LIG    1       28.631 -12.992   4.117  0.00  0.00    +0.048 C 
ATOM     22  C   LIG    1       27.344 -13.428   4.799  0.00  0.00    +0.229 C 
ENDBRANCH  20  22
ENDBRANCH  18  20
ENDBRANCH   1  18
BRANCH   3  23
ATOM     23  C   LIG    1       24.361 -19.900   3.335  0.00  0.00    +0.337 C 
ATOM     24  O   LIG    1       25.285 -20.371   2.684  0.00  0.00    -0.245 OA
BRANCH  23  25
ATOM     25  O   LIG    1       23.262 -20.587   3.724  0.00  0.00    -0.465 OA
ATOM     26  C   LIG    1       23.484 -21.572   4.733  0.00  0.00    +0.280 C 
ENDBRANCH  23  25
ENDBRANCH   3  23
TORSDOF 6
ENDMDL
MODEL 2
REMARK VINA RESULT:      -1.9      2.231      6.058
REMARK  Name = *****
REMARK                            x       y       z     vdW  Elec       q    Type
REMARK                         _______ _______ _______ _____ _____    ______ ____
ROOT
ATOM      1  C   LIG    1       26.597 -17.544   3.952  0.00  0.00    +0.065 C 
ATOM      2  C   LIG    1       25.636 -16.423   3.481  0.00  0.00    +0.097 C 
ATOM      3  C   LIG    1       26.219 -15.003   3.629  0.00  0.00    +0.065 C 
ATOM      4  C   LIG    1       27.457 -14.819   4.155  0.00  0.00    +0.016 C 
ATOM      5  C   LIG    1       28.184 -13.500   4.279  0.00  0.00    +0.061 C 
ATOM      6  N   LIG    1       28.191 -15.906   4.575  0.00  0.00    -0.321 N 
ATOM      7  H   LIG    1       29.126 -15.724   4.932  0.00  0.00    +0.152 HD
ATOM      8  C   LIG    1       27.822 -17.230   4.445  0.00  0.00    +0.016 C 
ATOM      9  C   LIG    1       28.913 -18.194   4.853  0.00  0.00    +0.061 C 
ENDROOT
BRANCH   2  10
ATOM     10  C   LIG    1       24.208 -16.565   4.049  0.00  0.00    -0.015 A 
ATOM     11  C   LIG    1       23.319 -17.622   3.762  0.00  0.00    +0.063 A 
ATOM     12 CL   LIG    1       23.811 -18.938   2.745  0.00  0.00    -0.082 Cl
ATOM     13  C   LIG    1       22.017 -17.616   4.306  0.00  0.00    +0.059 A 
ATOM     14 CL   LIG    1       20.858 -18.862   3.971  0.00  0.00    -0.082 Cl
ATOM     15  C   LIG    1       21.595 -16.579   5.143  0.00  0.00    +0.021 A 
ATOM     16  C   LIG    1       22.463 -15.541   5.448  0.00  0.00    +0.002 A 
ATOM     17  C   LIG    1       23.749 -15.535   4.905  0.00  0.00    +0.006 A 
ENDBRANCH   2  10
BRANCH   1  18
ATOM     18  C   LIG    1       26.127 -18.948   3.738  0.00  0.00    +0.338 C 
ATOM     19  O   LIG    1       25.890 -19.422   2.646  0.00  0.00    -0.245 OA
BRANCH  18  20
ATOM     20  O   LIG    1       25.992 -19.600   4.923  0.00  0.00    -0.462 OA
BRANCH  20  22
ATOM     21  C   LIG    1       23.991 -20.821   5.612  0.00  0.00    +0.048 C 
ATOM     22  C   LIG    1       25.340 -20.878   4.912  0.00  0.00    +0.229 C 
ENDBRANCH  20  22
ENDBRANCH  18  20
ENDBRANCH   1  18
BRANCH   3  23
ATOM     23  C   LIG    1       25.433 -13.895   3.018  0.00  0.00    +0.337 C 
ATOM     24  O   LIG    1       25.372 -13.695   1.812  0.00  0.00    -0.245 OA
BRANCH  23  25
ATOM     25  O   LIG    1       24.879 -13.098   3.961  0.00  0.00    -0.465 OA
ATOM     26  C   LIG    1       23.883 -12.193   3.487  0.00  0.00    +0.280 C 
ENDBRANCH  23  25
ENDBRANCH   3  23
TORSDOF 6
ENDMDL
MODEL 3
REMARK VINA RESULT:      -1.7      0.845      1.178
REMARK  Name = *****
REMARK                            x       y       z     vdW  Elec       q    Type
REMARK                         _______ _______ _______ _____ _____    ______ ____
ROOT
ATOM      1  C   LIG    1       25.130 -16.394   3.886  0.00  0.00    +0.065 C 
ATOM      2  C   LIG    1       25.443 -17.879   3.567  0.00  0.00    +0.097 C 
ATOM      3  C   LIG    1       24.214 -18.806   3.661  0.00  0.00    +0.065 C 
ATOM      4  C   LIG    1       23.003 -18.309   4.020  0.00  0.00    +0.016 C 
ATOM      5  C   LIG    1       21.703 -19.079   4.069  0.00  0.00    +0.061 C 
ATOM      6  N   LIG    1       22.873 -16.970   4.319  0.00  0.00    -0.321 N 
ATOM      7  H   LIG    1       21.941 -16.635   4.551  0.00  0.00    +0.152 HD
ATOM      8  C   LIG    1       23.869 -16.019   4.216  0.00  0.00    +0.016 C 
ATOM      9  C   LIG    1       23.372 -14.610   4.457  0.00  0.00    +0.061 C 
ENDROOT
BRANCH   2  10
ATOM     10  C   LIG    1       26.680 -18.416   4.319  0.00  0.00    -0.015 A 
ATOM     11  C   LIG    1       26.672 -19.489   5.234  0.00  0.00    +0.063 A 
ATOM     12 CL   LIG    1       25.212 -20.368   5.554  0.00  0.00    -0.082 Cl
ATOM     13  C   LIG    1       27.862 -19.858   5.898  0.00  0.00    +0.059 A 
ATOM     14 CL   LIG    1       27.925 -21.143   7.060  0.00  0.00    -0.082 Cl
ATOM     15  C   LIG    1       29.060 -19.181   5.650  0.00  0.00    +0.021 A 
ATOM     16  C   LIG    1       29.086 -18.134   4.740  0.00  0.00    +0.002 A 
ATOM     17  C   LIG    1       27.912 -17.757   4.088  0.00  0.00    +0.006 A 
ENDBRANCH   2  10
BRANCH   1  18
ATOM     18  C   LIG    1       26.261 -15.431   3.711  0.00  0.00    +0.338 C 
ATOM     19  O   LIG    1       26.968 -15.046   4.620  0.00  0.00    -0.245 OA
BRANCH  18  20
ATOM     20  O   LIG    1       26.374 -15.046   2.413  0.00  0.00    -0.462 OA
BRANCH  20  22
ATOM     21  C   LIG    1       25.408 -12.803   2.327  0.00  0.00    +0.048 C 
ATOM     22  C   LIG    1       26.649 -13.663   2.147  0.00  0.00    +0.229 C 
ENDBRANCH  20  22
ENDBRANCH  18  20
ENDBRANCH   1  18
BRANCH   3  23
ATOM     23  C   LIG    1       24.398 -20.204   3.181  0.00  0.00    +0.337 C 
ATOM     24  O   LIG    1       25.297 -20.544   2.423  0.00  0.00    -0.245 OA
BRANCH  23  25
ATOM     25  O   LIG    1       23.403 -21.013   3.611  0.00  0.00    -0.465 OA
ATOM     26  C   LIG    1       23.580 -21.553   4.921  0.00  0.00    +0.280 C 
ENDBRANCH  23  25
ENDBRANCH   3  23
TORSDOF 6
ENDMDL
MODEL 4
REMARK VINA RESULT:      -1.4      2.629      6.220
REMARK  Name = *****
REMARK                            x       y       z     vdW  Elec       q    Type
REMARK                         _______ _______ _______ _____ _____    ______ ____
ROOT
ATOM      1  C   LIG    1       26.655 -17.560   3.888  0.00  0.00    +0.065 C 
ATOM      2  C   LIG    1       25.672 -16.514   3.303  0.00  0.00    +0.097 C 
ATOM      3  C   LIG    1       26.231 -15.076   3.294  0.00  0.00    +0.065 C 
ATOM      4  C   LIG    1       27.467 -14.815   3.790  0.00  0.00    +0.016 C 
ATOM      5  C   LIG    1       28.172 -13.478   3.768  0.00  0.00    +0.061 C 
ATOM      6  N   LIG    1       28.222 -15.838   4.322  0.00  0.00    -0.321 N 
ATOM      7  H   LIG    1       29.155 -15.602   4.652  0.00  0.00    +0.152 HD
ATOM      8  C   LIG    1       27.875 -17.174   4.338  0.00  0.00    +0.016 C 
ATOM      9  C   LIG    1       28.985 -18.070   4.841  0.00  0.00    +0.061 C 
ENDROOT
BRANCH   2  10
ATOM     10  C   LIG    1       24.249 -16.618   3.891  0.00  0.00    -0.015 A 
ATOM     11  C   LIG    1       23.649 -15.669   4.744  0.00  0.00    +0.063 A 
ATOM     12 CL   LIG    1       24.486 -14.210   5.169  0.00  0.00    -0.082 Cl
ATOM     13  C   LIG    1       22.356 -15.900   5.259  0.00  0.00    +0.059 A 
ATOM     14 CL   LIG    1       21.567 -14.796   6.338  0.00  0.00    -0.082 Cl
ATOM     15  C   LIG    1       21.647 -17.057   4.922  0.00  0.00    +0.021 A 
ATOM     16  C   LIG    1       22.218 -17.993   4.071  0.00  0.00    +0.002 A 
ATOM     17  C   LIG    1       23.501 -17.776   3.567  0.00  0.00    +0.006 A 
ENDBRANCH   2  10
BRANCH   1  18
ATOM     18  C   LIG    1       26.208 -18.987   3.829  0.00  0.00    +0.338 C 
ATOM     19  O   LIG    1       25.815 -19.531   2.817  0.00  0.00    -0.245 OA
BRANCH  18  20
ATOM     20  O   LIG    1       26.293 -19.573   5.052  0.00  0.00    -0.462 OA
BRANCH  20  22
ATOM     21  C   LIG    1       24.251 -20.529   5.991  0.00  0.00    +0.048 C 
ATOM     22  C   LIG    1       25.560 -20.788   5.264  0.00  0.00    +0.229 C 
ENDBRANCH  20  22
ENDBRANCH  18  20
ENDBRANCH   1  18
BRANCH   3  23
ATOM     23  C   LIG    1       25.423 -14.054   2.571  0.00  0.00    +0.337 C 
ATOM     24  O   LIG    1       24.505 -14.333   1.812  0.00  0.00    -0.245 OA
BRANCH  23  25
ATOM     25  O   LIG    1       25.892 -12.804   2.790  0.00  0.00    -0.465 OA
ATOM     26  C   LIG    1       25.017 -11.747   2.395  0.00  0.00    +0.280 C 
ENDBRANCH  23  25
ENDBRANCH   3  23
TORSDOF 6
ENDMDL
MODEL 5
REMARK VINA RESULT:      -0.2      2.380      4.590
REMARK  Name = *****
REMARK                            x       y       z     vdW  Elec       q    Type
REMARK                         _______ _______ _______ _____ _____    ______ ____
ROOT
ATOM      1  C   LIG    1       25.613 -17.063   4.064  0.00  0.00    +0.065 C 
ATOM      2  C   LIG    1       25.545 -18.399   4.847  0.00  0.00    +0.097 C 
ATOM      3  C   LIG    1       26.928 -18.973   5.217  0.00  0.00    +0.065 C 
ATOM      4  C   LIG    1       28.063 -18.330   4.839  0.00  0.00    +0.016 C 
ATOM      5  C   LIG    1       29.475 -18.727   5.202  0.00  0.00    +0.061 C 
ATOM      6  N   LIG    1       27.979 -17.166   4.105  0.00  0.00    -0.321 N 
ATOM      7  H   LIG    1       28.853 -16.701   3.872  0.00  0.00    +0.152 HD
ATOM      8  C   LIG    1       26.814 -16.511   3.760  0.00  0.00    +0.016 C 
ATOM      9  C   LIG    1       27.059 -15.174   3.096  0.00  0.00    +0.061 C 
ENDROOT
BRANCH   2  10
ATOM     10  C   LIG    1       24.600 -19.436   4.203  0.00  0.00    -0.015 A 
ATOM     11  C   LIG    1       23.388 -19.891   4.763  0.00  0.00    +0.063 A 
ATOM     12 CL   LIG    1       22.809 -19.240   6.263  0.00  0.00    -0.082 Cl
ATOM     13  C   LIG    1       22.633 -20.882   4.100  0.00  0.00    +0.059 A 
ATOM     14 CL   LIG    1       21.151 -21.514   4.742  0.00  0.00    -0.082 Cl
ATOM     15  C   LIG    1       23.062 -21.414   2.881  0.00  0.00    +0.021 A 
ATOM     16  C   LIG    1       24.245 -20.965   2.310  0.00  0.00    +0.002 A 
ATOM     17  C   LIG    1       25.002 -19.993   2.964  0.00  0.00    +0.006 A 
ENDBRANCH   2  10
BRANCH   1  18
ATOM     18  C   LIG    1       24.302 -16.407   3.767  0.00  0.00    +0.338 C 
ATOM     19  O   LIG    1       23.238 -16.992   3.764  0.00  0.00    -0.245 OA
BRANCH  18  20
ATOM     20  O   LIG    1       24.471 -15.087   3.491  0.00  0.00    -0.462 OA
BRANCH  20  22
ATOM     21  C   LIG    1       23.869 -12.736   3.769  0.00  0.00    +0.048 C 
ATOM     22  C   LIG    1       23.839 -14.137   4.360  0.00  0.00    +0.229 C 
ENDBRANCH  20  22
ENDBRANCH  18  20
ENDBRANCH   1  18
BRANCH   3  23
ATOM     23  C   LIG    1       26.938 -20.146   6.134  0.00  0.00    +0.337 C 
ATOM     24  O   LIG    1       26.125 -20.305   7.035  0.00  0.00    -0.245 OA
BRANCH  23  25
ATOM     25  O   LIG    1       28.000 -20.951   5.902  0.00  0.00    -0.465 OA
ATOM     26  C   LIG    1       28.737 -21.337   7.062  0.00  0.00    +0.280 C 
ENDBRANCH  23  25
ENDBRANCH   3  23
TORSDOF 6
ENDMDL
MODEL 6
REMARK VINA RESULT:       0.3      2.812      5.229
REMARK  Name = *****
REMARK                            x       y       z     vdW  Elec       q    Type
REMARK                         _______ _______ _______ _____ _____    ______ ____
ROOT
ATOM      1  C   LIG    1       26.000 -17.846   4.121  0.00  0.00    +0.065 C 
ATOM      2  C   LIG    1       25.411 -16.454   4.466  0.00  0.00    +0.097 C 
ATOM      3  C   LIG    1       23.891 -16.347   4.223  0.00  0.00    +0.065 C 
ATOM      4  C   LIG    1       23.198 -17.403   3.726  0.00  0.00    +0.016 C 
ATOM      5  C   LIG    1       21.702 -17.468   3.519  0.00  0.00    +0.061 C 
ATOM      6  N   LIG    1       23.858 -18.574   3.422  0.00  0.00    -0.321 N 
ATOM      7  H   LIG    1       23.293 -19.350   3.083  0.00  0.00    +0.152 HD
ATOM      8  C   LIG    1       25.196 -18.829   3.647  0.00  0.00    +0.016 C 
ATOM      9  C   LIG    1       25.584 -20.262   3.357  0.00  0.00    +0.061 C 
ENDROOT
BRANCH   2  10
ATOM     10  C   LIG    1       26.216 -15.284   3.863  0.00  0.00    -0.015 A 
ATOM     11  C   LIG    1       27.000 -14.371   4.598  0.00  0.00    +0.063 A 
ATOM     12 CL   LIG    1       27.175 -14.540   6.315  0.00  0.00    -0.082 Cl
ATOM     13  C   LIG    1       27.653 -13.309   3.937  0.00  0.00    +0.059 A 
ATOM     14 CL   LIG    1       28.606 -12.128   4.777  0.00  0.00    -0.082 Cl
ATOM     15  C   LIG    1       27.546 -13.154   2.552  0.00  0.00    +0.021 A 
ATOM     16  C   LIG    1       26.792 -14.054   1.812  0.00  0.00    +0.002 A 
ATOM     17  C   LIG    1       26.135 -15.100   2.461  0.00  0.00    +0.006 A 
ENDBRANCH   2  10
BRANCH   1  18
ATOM     18  C   LIG    1       27.450 -18.042   4.434  0.00  0.00    +0.338 C 
ATOM     19  O   LIG    1       28.330 -17.294   4.059  0.00  0.00    -0.245 OA
BRANCH  18  20
ATOM     20  O   LIG    1       27.639 -19.165   5.174  0.00  0.00    -0.462 OA
BRANCH  20  22
ATOM     21  C   LIG    1       28.882 -20.541   6.766  0.00  0.00    +0.048 C 
ATOM     22  C   LIG    1       28.861 -19.279   5.917  0.00  0.00    +0.229 C 
ENDBRANCH  20  22
ENDBRANCH  18  20
ENDBRANCH   1  18
BRANCH   3  23
ATOM     23  C   LIG    1       23.226 -15.108   4.713  0.00  0.00    +0.337 C 
ATOM     24  O   LIG    1       22.551 -15.063   5.733  0.00  0.00    -0.245 OA
BRANCH  23  25
ATOM     25  O   LIG    1       23.387 -14.081   3.848  0.00  0.00    -0.465 OA
ATOM     26  C   LIG    1       23.780 -12.842   4.438  0.00  0.00    +0.280 C 
ENDBRANCH  23  25
ENDBRANCH   3  23
TORSDOF 6
ENDMDL
