MODEL 1
REMARK VINA RESULT:      -4.8      0.000      0.000
REMARK  Name = *****
REMARK                            x       y       z     vdW  Elec       q    Type
REMARK                         _______ _______ _______ _____ _____    ______ ____
ROOT
ATOM      1  C   LIG    1       27.451 -17.839   4.397  0.00  0.00    +0.039 A 
ATOM      2  C   LIG    1       26.416 -18.829   4.432  0.00  0.00    +0.057 A 
ATOM      3  C   LIG    1       26.588 -20.016   5.194  0.00  0.00    +0.031 A 
ATOM      4  S   LIG    1       25.339 -21.293   5.267  0.00  0.00    -0.088 S 
ATOM      5  C   LIG    1       23.864 -20.425   4.842  0.00  0.00    +0.024 A 
ATOM      6  C   LIG    1       23.872 -19.269   4.068  0.00  0.00    +0.036 A 
ATOM      7  C   LIG    1       22.649 -18.700   3.664  0.00  0.00    +0.013 A 
ATOM      8  C   LIG    1       21.435 -19.253   4.075  0.00  0.00    +0.001 A 
ATOM      9  C   LIG    1       21.429 -20.382   4.886  0.00  0.00    +0.001 A 
ATOM     10  C   LIG    1       22.638 -20.971   5.257  0.00  0.00    +0.016 A 
ATOM     11  C   LIG    1       27.795 -20.231   5.908  0.00  0.00    -0.008 A 
ATOM     12  C   LIG    1       28.778 -19.239   5.877  0.00  0.00    +0.009 A 
ATOM     13  C   LIG    1       25.139 -18.609   3.673  0.00  0.00    +0.197 A 
ATOM     14  O   LIG    1       25.088 -17.803   2.729  0.00  0.00    -0.286 OA
ATOM     15  C   LIG    1       28.625 -18.101   5.105  0.00  0.00    +0.024 A 
ENDROOT
BRANCH   1  16
ATOM     16  N   LIG    1       27.356 -16.674   3.642  0.00  0.00    -0.342 N 
ATOM     17  H   LIG    1       26.889 -16.786   2.740  0.00  0.00    +0.146 HD
BRANCH  16  18
ATOM     18  C   LIG    1       27.435 -15.311   4.172  0.00  0.00    +0.117 C 
BRANCH  18  19
ATOM     19  C   LIG    1       26.958 -14.264   3.127  0.00  0.00    +0.103 C 
BRANCH  19  20
ATOM     20  N   LIG    1       25.487 -14.059   2.989  0.00  0.00    -0.301 NA
BRANCH  20  22
ATOM     21  C   LIG    1       23.478 -14.857   4.344  0.00  0.00    +0.020 C 
ATOM     22  C   LIG    1       24.816 -14.122   4.310  0.00  0.00    +0.081 C 
ENDBRANCH  20  22
BRANCH  20  23
ATOM     23  C   LIG    1       25.173 -12.787   2.305  0.00  0.00    +0.081 C 
ATOM     24  C   LIG    1       24.081 -11.957   2.981  0.00  0.00    +0.020 C 
ENDBRANCH  20  23
ENDBRANCH  19  20
ENDBRANCH  18  19
ENDBRANCH  16  18
ENDBRANCH   1  16
BRANCH  11  25
ATOM     25  C   LIG    1       28.080 -21.451   6.762  0.00  0.00    +0.192 C 
BRANCH  25  26
ATOM     26  O   LIG    1       29.475 -21.571   7.056  0.00  0.00    -0.390 OA
ATOM     27  H   LIG    1       29.896 -20.728   6.816  0.00  0.00    +0.210 HD
ENDBRANCH  25  26
ENDBRANCH  11  25
TORSDOF 8
ENDMDL
