MODEL 1
REMARK VINA RESULT:      -4.7      0.000      0.000
REMARK  Name = *****
REMARK                            x       y       z     vdW  Elec       q    Type
REMARK                         _______ _______ _______ _____ _____    ______ ____
ROOT
ATOM      1  C   LIG    1       28.269 -18.747   5.154  0.00  0.00    +0.332 C 
ATOM      2  O   LIG    1       29.475 -18.787   5.158  0.00  0.00    -0.246 OA
ENDROOT
BRANCH   1   3
ATOM      3  C   LIG    1       27.459 -17.726   4.442  0.00  0.00    +0.092 C 
ATOM      4  C   LIG    1       27.853 -16.446   4.390  0.00  0.00    +0.015 C 
BRANCH   4   5
ATOM      5  C   LIG    1       27.070 -15.331   3.814  0.00  0.00    -0.025 A 
ATOM      6  C   LIG    1       25.677 -15.457   3.709  0.00  0.00    +0.011 A 
ATOM      7  C   LIG    1       24.900 -14.448   3.121  0.00  0.00    +0.046 A 
ATOM      8  C   LIG    1       25.504 -13.292   2.629  0.00  0.00    +0.120 A 
ATOM      9  C   LIG    1       26.887 -13.157   2.725  0.00  0.00    +0.046 A 
ATOM     10  C   LIG    1       27.659 -14.161   3.321  0.00  0.00    +0.011 A 
BRANCH   8  11
ATOM     11  O   LIG    1       24.852 -12.274   1.992  0.00  0.00    -0.495 OA
ATOM     12  C   LIG    1       23.861 -11.608   2.766  0.00  0.00    +0.277 C 
ENDBRANCH   8  11
ENDBRANCH   4   5
ENDBRANCH   1   3
BRANCH   1  13
ATOM     13  O   LIG    1       27.424 -19.539   5.869  0.00  0.00    -0.461 OA
BRANCH  13  14
ATOM     14  C   LIG    1       26.585 -20.431   5.102  0.00  0.00    +0.236 C 
BRANCH  14  15
ATOM     15  C   LIG    1       25.067 -20.305   5.384  0.00  0.00    +0.026 C 
BRANCH  15  16
ATOM     16  C   LIG    1       24.599 -21.361   6.405  0.00  0.00    +0.003 C 
ATOM     17  C   LIG    1       23.152 -21.224   6.858  0.00  0.00    +0.004 C 
ENDBRANCH  15  16
BRANCH  15  18
ATOM     18  C   LIG    1       24.244 -20.308   4.059  0.00  0.00    +0.007 C 
BRANCH  18  19
ATOM     19  C   LIG    1       23.655 -18.935   3.654  0.00  0.00    +0.000 C 
BRANCH  19  21
ATOM     20  C   LIG    1       22.212 -17.101   4.717  0.00  0.00    +0.004 C 
ATOM     21  C   LIG    1       22.368 -18.593   4.429  0.00  0.00    -0.003 C 
ENDBRANCH  19  21
ENDBRANCH  18  19
ENDBRANCH  15  18
ENDBRANCH  14  15
ENDBRANCH  13  14
ENDBRANCH   1  13
TORSDOF 10
ENDMDL
MODEL 2
REMARK VINA RESULT:      -4.6      2.265      4.089
REMARK  Name = *****
REMARK                            x       y       z     vdW  Elec       q    Type
REMARK                         _______ _______ _______ _____ _____    ______ ____
ROOT
ATOM      1  C   LIG    1       22.051 -18.530   4.436  0.00  0.00    +0.332 C 
ATOM      2  O   LIG    1       21.038 -18.717   3.807  0.00  0.00    -0.246 OA
ENDROOT
BRANCH   1   3
ATOM      3  C   LIG    1       22.841 -17.274   4.412  0.00  0.00    +0.092 C 
ATOM      4  C   LIG    1       23.983 -17.189   3.715  0.00  0.00    +0.015 C 
BRANCH   4   5
ATOM      5  C   LIG    1       24.906 -16.033   3.717  0.00  0.00    -0.025 A 
ATOM      6  C   LIG    1       24.413 -14.765   4.058  0.00  0.00    +0.011 A 
ATOM      7  C   LIG    1       25.238 -13.632   4.022  0.00  0.00    +0.046 A 
ATOM      8  C   LIG    1       26.575 -13.748   3.644  0.00  0.00    +0.120 A 
ATOM      9  C   LIG    1       27.075 -15.001   3.301  0.00  0.00    +0.046 A 
ATOM     10  C   LIG    1       26.253 -16.132   3.347  0.00  0.00    +0.011 A 
BRANCH   8  11
ATOM     11  O   LIG    1       27.451 -12.706   3.523  0.00  0.00    -0.495 OA
ATOM     12  C   LIG    1       28.796 -12.998   3.886  0.00  0.00    +0.277 C 
ENDBRANCH   8  11
ENDBRANCH   4   5
ENDBRANCH   1   3
BRANCH   1  13
ATOM     13  O   LIG    1       22.721 -19.442   5.192  0.00  0.00    -0.461 OA
BRANCH  13  14
ATOM     14  C   LIG    1       23.238 -20.593   4.488  0.00  0.00    +0.236 C 
BRANCH  14  15
ATOM     15  C   LIG    1       24.595 -21.126   5.015  0.00  0.00    +0.026 C 
BRANCH  15  16
ATOM     16  C   LIG    1       24.493 -21.547   6.495  0.00  0.00    +0.003 C 
ATOM     17  C   LIG    1       23.080 -21.572   7.062  0.00  0.00    +0.004 C 
ENDBRANCH  15  16
BRANCH  15  18
ATOM     18  C   LIG    1       25.748 -20.115   4.731  0.00  0.00    +0.007 C 
BRANCH  18  19
ATOM     19  C   LIG    1       26.698 -19.856   5.925  0.00  0.00    +0.000 C 
BRANCH  19  21
ATOM     20  C   LIG    1       29.106 -18.981   6.019  0.00  0.00    +0.004 C 
ATOM     21  C   LIG    1       28.175 -20.106   5.569  0.00  0.00    -0.003 C 
ENDBRANCH  19  21
ENDBRANCH  18  19
ENDBRANCH  15  18
ENDBRANCH  14  15
ENDBRANCH  13  14
ENDBRANCH   1  13
TORSDOF 10
ENDMDL
MODEL 3
REMARK VINA RESULT:      -4.5      0.909      1.990
REMARK  Name = *****
REMARK                            x       y       z     vdW  Elec       q    Type
REMARK                         _______ _______ _______ _____ _____    ______ ____
ROOT
ATOM      1  C   LIG    1       28.627 -18.560   5.355  0.00  0.00    +0.332 C 
ATOM      2  O   LIG    1       29.468 -18.309   6.183  0.00  0.00    -0.246 OA
ENDROOT
BRANCH   1   3
ATOM      3  C   LIG    1       28.011 -17.561   4.446  0.00  0.00    +0.092 C 
ATOM      4  C   LIG    1       27.987 -16.259   4.764  0.00  0.00    +0.015 C 
BRANCH   4   5
ATOM      5  C   LIG    1       27.299 -15.201   3.994  0.00  0.00    -0.025 A 
ATOM      6  C   LIG    1       28.016 -14.059   3.609  0.00  0.00    +0.011 A 
ATOM      7  C   LIG    1       27.391 -13.006   2.924  0.00  0.00    +0.046 A 
ATOM      8  C   LIG    1       26.036 -13.078   2.610  0.00  0.00    +0.120 A 
ATOM      9  C   LIG    1       25.312 -14.206   2.990  0.00  0.00    +0.046 A 
ATOM     10  C   LIG    1       25.939 -15.260   3.664  0.00  0.00    +0.011 A 
BRANCH   8  11
ATOM     11  O   LIG    1       25.316 -12.092   1.996  0.00  0.00    -0.495 OA
ATOM     12  C   LIG    1       23.973 -11.951   2.443  0.00  0.00    +0.277 C 
ENDBRANCH   8  11
ENDBRANCH   4   5
ENDBRANCH   1   3
BRANCH   1  13
ATOM     13  O   LIG    1       28.005 -19.755   5.161  0.00  0.00    -0.461 OA
BRANCH  13  14
ATOM     14  C   LIG    1       26.921 -20.062   6.066  0.00  0.00    +0.236 C 
BRANCH  14  15
ATOM     15  C   LIG    1       25.688 -20.730   5.406  0.00  0.00    +0.026 C 
BRANCH  15  16
ATOM     16  C   LIG    1       25.577 -20.349   3.916  0.00  0.00    +0.003 C 
ATOM     17  C   LIG    1       24.993 -18.969   3.646  0.00  0.00    +0.004 C 
ENDBRANCH  15  16
BRANCH  15  18
ATOM     18  C   LIG    1       24.389 -20.450   6.222  0.00  0.00    +0.007 C 
BRANCH  18  19
ATOM     19  C   LIG    1       23.228 -21.440   5.961  0.00  0.00    +0.000 C 
BRANCH  19  21
ATOM     20  C   LIG    1       22.221 -19.312   4.947  0.00  0.00    +0.004 C 
ATOM     21  C   LIG    1       22.115 -20.829   5.091  0.00  0.00    -0.003 C 
ENDBRANCH  19  21
ENDBRANCH  18  19
ENDBRANCH  15  18
ENDBRANCH  14  15
ENDBRANCH  13  14
ENDBRANCH   1  13
TORSDOF 10
ENDMDL
MODEL 4
REMARK VINA RESULT:      -4.5      1.750      6.268
REMARK  Name = *****
REMARK                            x       y       z     vdW  Elec       q    Type
REMARK                         _______ _______ _______ _____ _____    ______ ____
ROOT
ATOM      1  C   LIG    1       27.869 -13.798   3.807  0.00  0.00    +0.332 C 
ATOM      2  O   LIG    1       28.918 -13.431   3.336  0.00  0.00    -0.246 OA
ENDROOT
BRANCH   1   3
ATOM      3  C   LIG    1       27.579 -15.185   4.248  0.00  0.00    +0.092 C 
ATOM      4  C   LIG    1       27.096 -16.096   3.392  0.00  0.00    +0.015 C 
BRANCH   4   5
ATOM      5  C   LIG    1       26.663 -17.464   3.749  0.00  0.00    -0.025 A 
ATOM      6  C   LIG    1       25.433 -17.940   3.271  0.00  0.00    +0.011 A 
ATOM      7  C   LIG    1       24.958 -19.210   3.627  0.00  0.00    +0.046 A 
ATOM      8  C   LIG    1       25.706 -20.029   4.470  0.00  0.00    +0.120 A 
ATOM      9  C   LIG    1       26.927 -19.567   4.955  0.00  0.00    +0.046 A 
ATOM     10  C   LIG    1       27.405 -18.304   4.590  0.00  0.00    +0.011 A 
BRANCH   8  11
ATOM     11  O   LIG    1       25.316 -21.258   4.923  0.00  0.00    -0.495 OA
ATOM     12  C   LIG    1       24.110 -21.272   5.679  0.00  0.00    +0.277 C 
ENDBRANCH   8  11
ENDBRANCH   4   5
ENDBRANCH   1   3
BRANCH   1  13
ATOM     13  O   LIG    1       26.728 -13.065   3.927  0.00  0.00    -0.461 OA
BRANCH  13  14
ATOM     14  C   LIG    1       25.802 -13.144   2.820  0.00  0.00    +0.236 C 
BRANCH  14  15
ATOM     15  C   LIG    1       24.305 -13.156   3.220  0.00  0.00    +0.026 C 
BRANCH  15  16
ATOM     16  C   LIG    1       23.814 -11.740   3.583  0.00  0.00    +0.003 C 
ATOM     17  C   LIG    1       23.740 -11.447   5.075  0.00  0.00    +0.004 C 
ENDBRANCH  15  16
BRANCH  15  18
ATOM     18  C   LIG    1       24.025 -14.218   4.326  0.00  0.00    +0.007 C 
BRANCH  18  19
ATOM     19  C   LIG    1       23.116 -15.392   3.888  0.00  0.00    +0.000 C 
BRANCH  19  21
ATOM     20  C   LIG    1       22.091 -17.539   4.845  0.00  0.00    +0.004 C 
ATOM     21  C   LIG    1       22.402 -16.061   5.078  0.00  0.00    -0.003 C 
ENDBRANCH  19  21
ENDBRANCH  18  19
ENDBRANCH  15  18
ENDBRANCH  14  15
ENDBRANCH  13  14
ENDBRANCH   1  13
TORSDOF 10
ENDMDL
MODEL 5
REMARK VINA RESULT:      -4.4      1.925      6.561
REMARK  Name = *****
REMARK                            x       y       z     vdW  Elec       q    Type
REMARK                         _______ _______ _______ _____ _____    ______ ____
ROOT
ATOM      1  C   LIG    1       27.224 -14.504   3.096  0.00  0.00    +0.332 C 
ATOM      2  O   LIG    1       28.274 -13.946   3.299  0.00  0.00    -0.246 OA
ENDROOT
BRANCH   1   3
ATOM      3  C   LIG    1       26.823 -15.798   3.702  0.00  0.00    +0.092 C 
ATOM      4  C   LIG    1       26.043 -16.661   3.035  0.00  0.00    +0.015 C 
BRANCH   4   5
ATOM      5  C   LIG    1       25.489 -17.917   3.585  0.00  0.00    -0.025 A 
ATOM      6  C   LIG    1       26.367 -18.903   4.058  0.00  0.00    +0.011 A 
ATOM      7  C   LIG    1       25.889 -20.131   4.539  0.00  0.00    +0.046 A 
ATOM      8  C   LIG    1       24.520 -20.394   4.556  0.00  0.00    +0.120 A 
ATOM      9  C   LIG    1       23.638 -19.424   4.086  0.00  0.00    +0.046 A 
ATOM     10  C   LIG    1       24.117 -18.196   3.617  0.00  0.00    +0.011 A 
BRANCH   8  11
ATOM     11  O   LIG    1       23.950 -21.572   4.952  0.00  0.00    -0.495 OA
ATOM     12  C   LIG    1       23.210 -21.511   6.165  0.00  0.00    +0.277 C 
ENDBRANCH   8  11
ENDBRANCH   4   5
ENDBRANCH   1   3
BRANCH   1  13
ATOM     13  O   LIG    1       26.261 -14.132   2.208  0.00  0.00    -0.461 OA
BRANCH  13  14
ATOM     14  C   LIG    1       25.793 -12.768   2.313  0.00  0.00    +0.236 C 
BRANCH  14  15
ATOM     15  C   LIG    1       24.480 -12.588   3.115  0.00  0.00    +0.026 C 
BRANCH  15  16
ATOM     16  C   LIG    1       24.744 -11.913   4.475  0.00  0.00    +0.003 C 
ATOM     17  C   LIG    1       23.498 -11.469   5.228  0.00  0.00    +0.004 C 
ENDBRANCH  15  16
BRANCH  15  18
ATOM     18  C   LIG    1       23.696 -13.932   3.226  0.00  0.00    +0.007 C 
BRANCH  18  19
ATOM     19  C   LIG    1       23.620 -14.526   4.653  0.00  0.00    +0.000 C 
BRANCH  19  21
ATOM     20  C   LIG    1       21.904 -15.577   6.243  0.00  0.00    +0.004 C 
ATOM     21  C   LIG    1       22.451 -15.516   4.818  0.00  0.00    -0.003 C 
ENDBRANCH  19  21
ENDBRANCH  18  19
ENDBRANCH  15  18
ENDBRANCH  14  15
ENDBRANCH  13  14
ENDBRANCH   1  13
TORSDOF 10
ENDMDL
MODEL 6
REMARK VINA RESULT:      -4.1      1.826      2.719
REMARK  Name = *****
REMARK                            x       y       z     vdW  Elec       q    Type
REMARK                         _______ _______ _______ _____ _____    ______ ____
ROOT
ATOM      1  C   LIG    1       25.766 -19.863   3.998  0.00  0.00    +0.332 C 
ATOM      2  O   LIG    1       26.072 -20.819   4.667  0.00  0.00    -0.246 OA
ENDROOT
BRANCH   1   3
ATOM      3  C   LIG    1       26.312 -18.495   4.178  0.00  0.00    +0.092 C 
ATOM      4  C   LIG    1       25.905 -17.481   3.402  0.00  0.00    +0.015 C 
BRANCH   4   5
ATOM      5  C   LIG    1       26.466 -16.112   3.416  0.00  0.00    -0.025 A 
ATOM      6  C   LIG    1       25.961 -15.157   2.522  0.00  0.00    +0.011 A 
ATOM      7  C   LIG    1       26.498 -13.863   2.463  0.00  0.00    +0.046 A 
ATOM      8  C   LIG    1       27.552 -13.500   3.300  0.00  0.00    +0.120 A 
ATOM      9  C   LIG    1       28.064 -14.441   4.190  0.00  0.00    +0.046 A 
ATOM     10  C   LIG    1       27.520 -15.728   4.255  0.00  0.00    +0.011 A 
BRANCH   8  11
ATOM     11  O   LIG    1       28.184 -12.288   3.289  0.00  0.00    -0.495 OA
ATOM     12  C   LIG    1       29.070 -12.056   4.378  0.00  0.00    +0.277 C 
ENDBRANCH   8  11
ENDBRANCH   4   5
ENDBRANCH   1   3
BRANCH   1  13
ATOM     13  O   LIG    1       24.801 -19.814   3.039  0.00  0.00    -0.461 OA
BRANCH  13  14
ATOM     14  C   LIG    1       23.488 -20.271   3.435  0.00  0.00    +0.236 C 
BRANCH  14  15
ATOM     15  C   LIG    1       23.041 -19.829   4.851  0.00  0.00    +0.026 C 
BRANCH  15  16
ATOM     16  C   LIG    1       22.603 -21.038   5.701  0.00  0.00    +0.003 C 
ATOM     17  C   LIG    1       23.319 -21.181   7.037  0.00  0.00    +0.004 C 
ENDBRANCH  15  16
BRANCH  15  18
ATOM     18  C   LIG    1       21.973 -18.696   4.779  0.00  0.00    +0.007 C 
BRANCH  18  19
ATOM     19  C   LIG    1       22.452 -17.389   4.102  0.00  0.00    +0.000 C 
BRANCH  19  21
ATOM     20  C   LIG    1       23.165 -14.972   4.577  0.00  0.00    +0.004 C 
ATOM     21  C   LIG    1       22.323 -16.164   5.027  0.00  0.00    -0.003 C 
ENDBRANCH  19  21
ENDBRANCH  18  19
ENDBRANCH  15  18
ENDBRANCH  14  15
ENDBRANCH  13  14
ENDBRANCH   1  13
TORSDOF 10
ENDMDL
MODEL 7
REMARK VINA RESULT:      -4.0      2.157      7.055
REMARK  Name = *****
REMARK                            x       y       z     vdW  Elec       q    Type
REMARK                         _______ _______ _______ _____ _____    ______ ____
ROOT
ATOM      1  C   LIG    1       24.220 -13.051   3.807  0.00  0.00    +0.332 C 
ATOM      2  O   LIG    1       23.763 -12.504   4.781  0.00  0.00    -0.246 OA
ENDROOT
BRANCH   1   3
ATOM      3  C   LIG    1       24.118 -14.505   3.528  0.00  0.00    +0.092 C 
ATOM      4  C   LIG    1       23.455 -15.323   4.357  0.00  0.00    +0.015 C 
BRANCH   4   5
ATOM      5  C   LIG    1       23.392 -16.796   4.239  0.00  0.00    -0.025 A 
ATOM      6  C   LIG    1       22.243 -17.469   4.681  0.00  0.00    +0.011 A 
ATOM      7  C   LIG    1       22.161 -18.869   4.638  0.00  0.00    +0.046 A 
ATOM      8  C   LIG    1       23.227 -19.621   4.150  0.00  0.00    +0.120 A 
ATOM      9  C   LIG    1       24.375 -18.964   3.711  0.00  0.00    +0.046 A 
ATOM     10  C   LIG    1       24.451 -17.568   3.745  0.00  0.00    +0.011 A 
BRANCH   8  11
ATOM     11  O   LIG    1       23.275 -20.987   4.112  0.00  0.00    -0.495 OA
ATOM     12  C   LIG    1       24.448 -21.569   4.671  0.00  0.00    +0.277 C 
ENDBRANCH   8  11
ENDBRANCH   4   5
ENDBRANCH   1   3
BRANCH   1  13
ATOM     13  O   LIG    1       24.997 -12.485   2.844  0.00  0.00    -0.461 OA
BRANCH  13  14
ATOM     14  C   LIG    1       26.131 -13.265   2.402  0.00  0.00    +0.236 C 
BRANCH  14  15
ATOM     15  C   LIG    1       27.023 -13.823   3.540  0.00  0.00    +0.026 C 
BRANCH  15  16
ATOM     16  C   LIG    1       28.392 -13.114   3.575  0.00  0.00    +0.003 C 
ATOM     17  C   LIG    1       28.672 -12.315   4.840  0.00  0.00    +0.004 C 
ENDBRANCH  15  16
BRANCH  15  18
ATOM     18  C   LIG    1       27.127 -15.377   3.466  0.00  0.00    +0.007 C 
BRANCH  18  19
ATOM     19  C   LIG    1       28.050 -16.021   4.529  0.00  0.00    +0.000 C 
BRANCH  19  21
ATOM     20  C   LIG    1       29.108 -18.222   5.311  0.00  0.00    +0.004 C 
ATOM     21  C   LIG    1       27.990 -17.560   4.508  0.00  0.00    -0.003 C 
ENDBRANCH  19  21
ENDBRANCH  18  19
ENDBRANCH  15  18
ENDBRANCH  14  15
ENDBRANCH  13  14
ENDBRANCH   1  13
TORSDOF 10
ENDMDL
MODEL 8
REMARK VINA RESULT:      -3.6      1.955      6.425
REMARK  Name = *****
REMARK                            x       y       z     vdW  Elec       q    Type
REMARK                         _______ _______ _______ _____ _____    ______ ____
ROOT
ATOM      1  C   LIG    1       27.994 -13.878   3.862  0.00  0.00    +0.332 C 
ATOM      2  O   LIG    1       29.008 -13.561   3.288  0.00  0.00    -0.246 OA
ENDROOT
BRANCH   1   3
ATOM      3  C   LIG    1       27.631 -15.268   4.233  0.00  0.00    +0.092 C 
ATOM      4  C   LIG    1       26.920 -16.042   3.400  0.00  0.00    +0.015 C 
BRANCH   4   5
ATOM      5  C   LIG    1       26.405 -17.392   3.714  0.00  0.00    -0.025 A 
ATOM      6  C   LIG    1       27.218 -18.287   4.425  0.00  0.00    +0.011 A 
ATOM      7  C   LIG    1       26.791 -19.594   4.698  0.00  0.00    +0.046 A 
ATOM      8  C   LIG    1       25.540 -20.031   4.266  0.00  0.00    +0.120 A 
ATOM      9  C   LIG    1       24.725 -19.152   3.557  0.00  0.00    +0.046 A 
ATOM     10  C   LIG    1       25.148 -17.845   3.293  0.00  0.00    +0.011 A 
BRANCH   8  11
ATOM     11  O   LIG    1       25.048 -21.295   4.430  0.00  0.00    -0.495 OA
ATOM     12  C   LIG    1       24.082 -21.441   5.466  0.00  0.00    +0.277 C 
ENDBRANCH   8  11
ENDBRANCH   4   5
ENDBRANCH   1   3
BRANCH   1  13
ATOM     13  O   LIG    1       26.951 -13.064   4.182  0.00  0.00    -0.461 OA
BRANCH  13  14
ATOM     14  C   LIG    1       26.187 -13.439   5.350  0.00  0.00    +0.236 C 
BRANCH  14  15
ATOM     15  C   LIG    1       24.649 -13.336   5.185  0.00  0.00    +0.026 C 
BRANCH  15  16
ATOM     16  C   LIG    1       24.120 -14.399   4.201  0.00  0.00    +0.003 C 
ATOM     17  C   LIG    1       22.955 -15.232   4.717  0.00  0.00    +0.004 C 
ENDBRANCH  15  16
BRANCH  15  18
ATOM     18  C   LIG    1       24.216 -11.882   4.827  0.00  0.00    +0.007 C 
BRANCH  18  19
ATOM     19  C   LIG    1       23.520 -11.728   3.453  0.00  0.00    +0.000 C 
BRANCH  19  21
ATOM     20  C   LIG    1       25.104 -12.901   1.812  0.00  0.00    +0.004 C 
ATOM     21  C   LIG    1       24.527 -11.572   2.297  0.00  0.00    -0.003 C 
ENDBRANCH  19  21
ENDBRANCH  18  19
ENDBRANCH  15  18
ENDBRANCH  14  15
ENDBRANCH  13  14
ENDBRANCH   1  13
TORSDOF 10
ENDMDL
MODEL 9
REMARK VINA RESULT:      -3.6      1.449      2.891
REMARK  Name = *****
REMARK                            x       y       z     vdW  Elec       q    Type
REMARK                         _______ _______ _______ _____ _____    ______ ____
ROOT
ATOM      1  C   LIG    1       25.953 -19.467   3.751  0.00  0.00    +0.332 C 
ATOM      2  O   LIG    1       27.074 -19.809   4.039  0.00  0.00    -0.246 OA
ENDROOT
BRANCH   1   3
ATOM      3  C   LIG    1       25.567 -18.095   3.338  0.00  0.00    +0.092 C 
ATOM      4  C   LIG    1       26.333 -17.040   3.645  0.00  0.00    +0.015 C 
BRANCH   4   5
ATOM      5  C   LIG    1       25.987 -15.625   3.388  0.00  0.00    -0.025 A 
ATOM      6  C   LIG    1       24.705 -15.164   3.719  0.00  0.00    +0.011 A 
ATOM      7  C   LIG    1       24.315 -13.845   3.446  0.00  0.00    +0.046 A 
ATOM      8  C   LIG    1       25.203 -12.961   2.836  0.00  0.00    +0.120 A 
ATOM      9  C   LIG    1       26.479 -13.408   2.499  0.00  0.00    +0.046 A 
ATOM     10  C   LIG    1       26.869 -14.722   2.783  0.00  0.00    +0.011 A 
BRANCH   8  11
ATOM     11  O   LIG    1       24.912 -11.675   2.476  0.00  0.00    -0.495 OA
ATOM     12  C   LIG    1       23.567 -11.447   2.072  0.00  0.00    +0.277 C 
ENDBRANCH   8  11
ENDBRANCH   4   5
ENDBRANCH   1   3
BRANCH   1  13
ATOM     13  O   LIG    1       24.822 -20.219   3.848  0.00  0.00    -0.461 OA
BRANCH  13  14
ATOM     14  C   LIG    1       23.583 -19.488   3.986  0.00  0.00    +0.236 C 
BRANCH  14  15
ATOM     15  C   LIG    1       22.331 -20.366   4.234  0.00  0.00    +0.026 C 
BRANCH  15  16
ATOM     16  C   LIG    1       21.046 -19.514   4.247  0.00  0.00    +0.003 C 
ATOM     17  C   LIG    1       21.247 -18.038   3.931  0.00  0.00    +0.004 C 
ENDBRANCH  15  16
BRANCH  15  18
ATOM     18  C   LIG    1       22.505 -21.253   5.505  0.00  0.00    +0.007 C 
BRANCH  18  19
ATOM     19  C   LIG    1       23.366 -20.623   6.627  0.00  0.00    +0.000 C 
BRANCH  19  21
ATOM     20  C   LIG    1       25.885 -20.835   7.059  0.00  0.00    +0.004 C 
ATOM     21  C   LIG    1       24.528 -21.536   7.062  0.00  0.00    -0.003 C 
ENDBRANCH  19  21
ENDBRANCH  18  19
ENDBRANCH  15  18
ENDBRANCH  14  15
ENDBRANCH  13  14
ENDBRANCH   1  13
TORSDOF 10
ENDMDL
