MODEL 1
REMARK VINA RESULT:      -1.8      0.000      0.000
REMARK  Name = *****
REMARK                            x       y       z     vdW  Elec       q    Type
REMARK                         _______ _______ _______ _____ _____    ______ ____
ROOT
ATOM      1  C   LIG    1       27.755 -19.000   4.860  0.00  0.00    +0.050 C 
ATOM      2  C   LIG    1       27.313 -20.396   5.285  0.00  0.00    +0.173 C 
ATOM      3  S   LIG    1       27.013 -20.447   7.062  0.00  0.00    -0.127 S 
ATOM      4  C   LIG    1       25.260 -20.792   6.845  0.00  0.00    +0.108 C 
ATOM      5  C   LIG    1       24.926 -20.523   5.371  0.00  0.00    +0.095 C 
ATOM      6  C   LIG    1       23.776 -21.461   4.857  0.00  0.00    +0.026 C 
ATOM      7  C   LIG    1       23.857 -21.466   3.322  0.00  0.00    +0.022 C 
ATOM      8  C   LIG    1       23.937 -19.994   2.853  0.00  0.00    +0.085 C 
ATOM      9  N   LIG    1       23.479 -19.052   3.916  0.00  0.00    -0.299 NA
ATOM     10  C   LIG    1       22.189 -19.538   4.439  0.00  0.00    +0.085 C 
ATOM     11  C   LIG    1       22.390 -20.862   5.206  0.00  0.00    +0.022 C 
ATOM     12  C   LIG    1       24.446 -19.077   5.053  0.00  0.00    +0.120 C 
ATOM     13  O   LIG    1       26.125 -20.825   4.613  0.00  0.00    -0.358 OA
ENDROOT
TORSDOF 0
ENDMDL
MODEL 2
REMARK VINA RESULT:      -0.8      6.359      7.968
REMARK  Name = *****
REMARK                            x       y       z     vdW  Elec       q    Type
REMARK                         _______ _______ _______ _____ _____    ______ ____
ROOT
ATOM      1  C   LIG    1       23.260 -14.463   4.834  0.00  0.00    +0.050 C 
ATOM      2  C   LIG    1       23.934 -14.587   3.472  0.00  0.00    +0.173 C 
ATOM      3  S   LIG    1       23.617 -13.119   2.476  0.00  0.00    -0.127 S 
ATOM      4  C   LIG    1       25.358 -12.660   2.442  0.00  0.00    +0.108 C 
ATOM      5  C   LIG    1       26.070 -13.512   3.501  0.00  0.00    +0.095 C 
ATOM      6  C   LIG    1       27.553 -13.826   3.090  0.00  0.00    +0.026 C 
ATOM      7  C   LIG    1       28.000 -15.037   3.923  0.00  0.00    +0.022 C 
ATOM      8  C   LIG    1       27.640 -14.749   5.400  0.00  0.00    +0.085 C 
ATOM      9  N   LIG    1       27.403 -13.294   5.634  0.00  0.00    -0.299 NA
ATOM     10  C   LIG    1       28.524 -12.542   5.041  0.00  0.00    +0.085 C 
ATOM     11  C   LIG    1       28.488 -12.660   3.502  0.00  0.00    +0.022 C 
ATOM     12  C   LIG    1       26.165 -12.870   4.915  0.00  0.00    +0.120 C 
ATOM     13  O   LIG    1       25.349 -14.768   3.575  0.00  0.00    -0.358 OA
ENDROOT
TORSDOF 0
ENDMDL
MODEL 3
REMARK VINA RESULT:      -0.5      6.359      7.267
REMARK  Name = *****
REMARK                            x       y       z     vdW  Elec       q    Type
REMARK                         _______ _______ _______ _____ _____    ______ ____
ROOT
ATOM      1  C   LIG    1       28.723 -12.312   4.455  0.00  0.00    +0.050 C 
ATOM      2  C   LIG    1       28.275 -13.320   3.402  0.00  0.00    +0.173 C 
ATOM      3  S   LIG    1       28.350 -14.996   4.062  0.00  0.00    -0.127 S 
ATOM      4  C   LIG    1       26.569 -15.221   3.929  0.00  0.00    +0.108 C 
ATOM      5  C   LIG    1       25.956 -13.836   3.677  0.00  0.00    +0.095 C 
ATOM      6  C   LIG    1       24.657 -13.929   2.799  0.00  0.00    +0.026 C 
ATOM      7  C   LIG    1       24.415 -12.529   2.211  0.00  0.00    +0.022 C 
ATOM      8  C   LIG    1       24.506 -11.511   3.372  0.00  0.00    +0.085 C 
ATOM      9  N   LIG    1       24.353 -12.175   4.700  0.00  0.00    -0.299 NA
ATOM     10  C   LIG    1       23.167 -13.050   4.644  0.00  0.00    +0.085 C 
ATOM     11  C   LIG    1       23.424 -14.234   3.687  0.00  0.00    +0.022 C 
ATOM     12  C   LIG    1       25.531 -13.056   4.954  0.00  0.00    +0.120 C 
ATOM     13  O   LIG    1       26.945 -13.075   2.937  0.00  0.00    -0.358 OA
ENDROOT
TORSDOF 0
ENDMDL
MODEL 4
REMARK VINA RESULT:      -0.3      6.496      7.978
REMARK  Name = *****
REMARK                            x       y       z     vdW  Elec       q    Type
REMARK                         _______ _______ _______ _____ _____    ______ ____
ROOT
ATOM      1  C   LIG    1       23.501 -12.336   1.812  0.00  0.00    +0.050 C 
ATOM      2  C   LIG    1       24.337 -11.600   2.853  0.00  0.00    +0.173 C 
ATOM      3  S   LIG    1       23.539 -11.671   4.467  0.00  0.00    -0.127 S 
ATOM      4  C   LIG    1       24.882 -12.632   5.186  0.00  0.00    +0.108 C 
ATOM      5  C   LIG    1       25.748 -13.136   4.023  0.00  0.00    +0.095 C 
ATOM      6  C   LIG    1       27.257 -13.268   4.440  0.00  0.00    +0.026 C 
ATOM      7  C   LIG    1       28.078 -13.292   3.142  0.00  0.00    +0.022 C 
ATOM      8  C   LIG    1       27.432 -14.334   2.198  0.00  0.00    +0.085 C 
ATOM      9  N   LIG    1       26.544 -15.275   2.943  0.00  0.00    -0.299 NA
ATOM     10  C   LIG    1       27.283 -15.775   4.116  0.00  0.00    +0.085 C 
ATOM     11  C   LIG    1       27.512 -14.633   5.129  0.00  0.00    +0.022 C 
ATOM     12  C   LIG    1       25.357 -14.533   3.461  0.00  0.00    +0.120 C 
ATOM     13  O   LIG    1       25.657 -12.137   2.976  0.00  0.00    -0.358 OA
ENDROOT
TORSDOF 0
ENDMDL
MODEL 5
REMARK VINA RESULT:      -0.2      6.444      7.558
REMARK  Name = *****
REMARK                            x       y       z     vdW  Elec       q    Type
REMARK                         _______ _______ _______ _____ _____    ______ ____
ROOT
ATOM      1  C   LIG    1       27.615 -15.788   4.067  0.00  0.00    +0.050 C 
ATOM      2  C   LIG    1       27.627 -14.388   4.669  0.00  0.00    +0.173 C 
ATOM      3  S   LIG    1       28.747 -13.316   3.750  0.00  0.00    -0.127 S 
ATOM      4  C   LIG    1       27.410 -12.239   3.206  0.00  0.00    +0.108 C 
ATOM      5  C   LIG    1       26.094 -12.968   3.506  0.00  0.00    +0.095 C 
ATOM      6  C   LIG    1       24.936 -11.960   3.839  0.00  0.00    +0.026 C 
ATOM      7  C   LIG    1       23.850 -12.756   4.579  0.00  0.00    +0.022 C 
ATOM      8  C   LIG    1       23.563 -14.034   3.755  0.00  0.00    +0.085 C 
ATOM      9  N   LIG    1       24.053 -13.905   2.351  0.00  0.00    -0.299 NA
ATOM     10  C   LIG    1       23.576 -12.619   1.812  0.00  0.00    +0.085 C 
ATOM     11  C   LIG    1       24.272 -11.447   2.536  0.00  0.00    +0.022 C 
ATOM     12  C   LIG    1       25.545 -13.851   2.348  0.00  0.00    +0.120 C 
ATOM     13  O   LIG    1       26.331 -13.784   4.682  0.00  0.00    -0.358 OA
ENDROOT
TORSDOF 0
ENDMDL
MODEL 6
REMARK VINA RESULT:       0.0      5.303      6.421
REMARK  Name = *****
REMARK                            x       y       z     vdW  Elec       q    Type
REMARK                         _______ _______ _______ _____ _____    ______ ____
ROOT
ATOM      1  C   LIG    1       27.269 -17.447   4.035  0.00  0.00    +0.050 C 
ATOM      2  C   LIG    1       26.089 -17.142   3.119  0.00  0.00    +0.173 C 
ATOM      3  S   LIG    1       24.545 -17.669   3.885  0.00  0.00    -0.127 S 
ATOM      4  C   LIG    1       23.917 -15.985   3.982  0.00  0.00    +0.108 C 
ATOM      5  C   LIG    1       25.099 -15.046   3.706  0.00  0.00    +0.095 C 
ATOM      6  C   LIG    1       24.635 -13.722   2.998  0.00  0.00    +0.026 C 
ATOM      7  C   LIG    1       25.881 -13.105   2.344  0.00  0.00    +0.022 C 
ATOM      8  C   LIG    1       27.002 -13.073   3.409  0.00  0.00    +0.085 C 
ATOM      9  N   LIG    1       26.454 -13.211   4.790  0.00  0.00    -0.299 NA
ATOM     10  C   LIG    1       25.336 -12.261   4.939  0.00  0.00    +0.085 C 
ATOM     11  C   LIG    1       24.151 -12.688   4.047  0.00  0.00    +0.022 C 
ATOM     12  C   LIG    1       25.886 -14.581   4.965  0.00  0.00    +0.120 C 
ATOM     13  O   LIG    1       25.985 -15.752   2.800  0.00  0.00    -0.358 OA
ENDROOT
TORSDOF 0
ENDMDL
MODEL 7
REMARK VINA RESULT:       0.1      6.260      7.915
REMARK  Name = *****
REMARK                            x       y       z     vdW  Elec       q    Type
REMARK                         _______ _______ _______ _____ _____    ______ ____
ROOT
ATOM      1  C   LIG    1       23.194 -14.780   5.153  0.00  0.00    +0.050 C 
ATOM      2  C   LIG    1       23.368 -13.807   3.992  0.00  0.00    +0.173 C 
ATOM      3  S   LIG    1       23.285 -12.105   4.579  0.00  0.00    -0.127 S 
ATOM      4  C   LIG    1       24.991 -11.769   4.114  0.00  0.00    +0.108 C 
ATOM      5  C   LIG    1       25.652 -13.121   3.817  0.00  0.00    +0.095 C 
ATOM      6  C   LIG    1       26.763 -12.993   2.713  0.00  0.00    +0.026 C 
ATOM      7  C   LIG    1       27.002 -14.404   2.154  0.00  0.00    +0.022 C 
ATOM      8  C   LIG    1       27.198 -15.358   3.356  0.00  0.00    +0.085 C 
ATOM      9  N   LIG    1       27.535 -14.609   4.603  0.00  0.00    -0.299 NA
ATOM     10  C   LIG    1       28.621 -13.662   4.293  0.00  0.00    +0.085 C 
ATOM     11  C   LIG    1       28.108 -12.555   3.347  0.00  0.00    +0.022 C 
ATOM     12  C   LIG    1       26.357 -13.796   5.028  0.00  0.00    +0.120 C 
ATOM     13  O   LIG    1       24.609 -13.989   3.304  0.00  0.00    -0.358 OA
ENDROOT
TORSDOF 0
ENDMDL
MODEL 8
REMARK VINA RESULT:       0.6      6.516      7.385
REMARK  Name = *****
REMARK                            x       y       z     vdW  Elec       q    Type
REMARK                         _______ _______ _______ _____ _____    ______ ____
ROOT
ATOM      1  C   LIG    1       27.697 -14.714   2.051  0.00  0.00    +0.050 C 
ATOM      2  C   LIG    1       27.544 -14.736   3.568  0.00  0.00    +0.173 C 
ATOM      3  S   LIG    1       28.580 -13.470   4.324  0.00  0.00    -0.127 S 
ATOM      4  C   LIG    1       27.159 -12.565   4.961  0.00  0.00    +0.108 C 
ATOM      5  C   LIG    1       25.915 -13.129   4.263  0.00  0.00    +0.095 C 
ATOM      6  C   LIG    1       24.649 -13.060   5.190  0.00  0.00    +0.026 C 
ATOM      7  C   LIG    1       23.624 -14.054   4.622  0.00  0.00    +0.022 C 
ATOM      8  C   LIG    1       23.500 -13.783   3.105  0.00  0.00    +0.085 C 
ATOM      9  N   LIG    1       24.023 -12.433   2.742  0.00  0.00    -0.299 NA
ATOM     10  C   LIG    1       23.436 -11.447   3.667  0.00  0.00    +0.085 C 
ATOM     11  C   LIG    1       23.982 -11.663   5.094  0.00  0.00    +0.022 C 
ATOM     12  C   LIG    1       25.501 -12.400   2.952  0.00  0.00    +0.120 C 
ATOM     13  O   LIG    1       26.192 -14.526   3.987  0.00  0.00    -0.358 OA
ENDROOT
TORSDOF 0
ENDMDL
MODEL 9
REMARK VINA RESULT:       1.0      6.174      7.008
REMARK  Name = *****
REMARK                            x       y       z     vdW  Elec       q    Type
REMARK                         _______ _______ _______ _____ _____    ______ ____
ROOT
ATOM      1  C   LIG    1       29.125 -12.182   3.215  0.00  0.00    +0.050 C 
ATOM      2  C   LIG    1       28.786 -13.328   4.162  0.00  0.00    +0.173 C 
ATOM      3  S   LIG    1       28.493 -12.703   5.827  0.00  0.00    -0.127 S 
ATOM      4  C   LIG    1       26.770 -13.222   5.812  0.00  0.00    +0.108 C 
ATOM      5  C   LIG    1       26.415 -13.570   4.360  0.00  0.00    +0.095 C 
ATOM      6  C   LIG    1       25.337 -14.710   4.285  0.00  0.00    +0.026 C 
ATOM      7  C   LIG    1       25.416 -15.306   2.871  0.00  0.00    +0.022 C 
ATOM      8  C   LIG    1       25.387 -14.132   1.865  0.00  0.00    +0.085 C 
ATOM      9  N   LIG    1       24.863 -12.883   2.491  0.00  0.00    -0.299 NA
ATOM     10  C   LIG    1       23.613 -13.212   3.200  0.00  0.00    +0.085 C 
ATOM     11  C   LIG    1       23.911 -14.116   4.415  0.00  0.00    +0.022 C 
ATOM     12  C   LIG    1       25.831 -12.399   3.520  0.00  0.00    +0.120 C 
ATOM     13  O   LIG    1       27.633 -14.063   3.744  0.00  0.00    -0.358 OA
ENDROOT
TORSDOF 0
ENDMDL
