MODEL 1
REMARK VINA RESULT:      -0.8      0.000      0.000
REMARK  Name = *****
REMARK                            x       y       z     vdW  Elec       q    Type
REMARK                         _______ _______ _______ _____ _____    ______ ____
ROOT
ATOM      1  N   LIG    1       24.978 -18.650   3.938  0.00  0.00    -0.331 N 
ATOM      2  C   LIG    1       24.642 -17.273   4.005  0.00  0.00    +0.147 A 
ATOM      3  C   LIG    1       23.302 -16.929   4.194  0.00  0.00    +0.068 A 
ATOM      4  C   LIG    1       22.933 -15.596   4.261  0.00  0.00    +0.057 A 
ATOM      5  C   LIG    1       23.915 -14.629   4.138  0.00  0.00    +0.164 A 
ATOM      6  C   LIG    1       25.266 -14.983   3.971  0.00  0.00    +0.159 A 
ATOM      7  F   LIG    1       23.501 -13.356   4.197  0.00  0.00    -0.202 F 
ATOM      8  C   LIG    1       22.272 -17.973   4.333  0.00  0.00    +0.205 A 
ATOM      9  O   LIG    1       21.088 -17.682   4.494  0.00  0.00    -0.286 OA
ATOM     10  C   LIG    1       22.688 -19.388   4.288  0.00  0.00    +0.122 A 
ATOM     11  N   LIG    1       25.598 -16.308   3.896  0.00  0.00    -0.211 NA
ATOM     12  C   LIG    1       23.996 -19.618   4.098  0.00  0.00    +0.106 A 
ENDROOT
BRANCH   6  13
ATOM     13  N   LIG    1       26.295 -14.023   3.839  0.00  0.00    -0.310 N 
ATOM     14  C   LIG    1       27.149 -14.217   2.646  0.00  0.00    +0.121 C 
ATOM     15  C   LIG    1       28.234 -13.121   2.518  0.00  0.00    +0.100 C 
ATOM     16  N   LIG    1       29.033 -12.922   3.742  0.00  0.00    -0.313 NA
ATOM     17  H   LIG    1       29.487 -13.804   3.977  0.00  0.00    +0.122 HD
ATOM     18  C   LIG    1       28.101 -12.579   4.827  0.00  0.00    +0.100 C 
ATOM     19  C   LIG    1       27.019 -13.650   5.074  0.00  0.00    +0.121 C 
ENDBRANCH   6  13
BRANCH   1  21
ATOM     20  C   LIG    1       26.957 -19.724   4.951  0.00  0.00    +0.027 C 
ATOM     21  C   LIG    1       26.399 -18.972   3.752  0.00  0.00    +0.120 C 
ENDBRANCH   1  21
BRANCH  10  22
ATOM     22  C   LIG    1       21.745 -20.514   4.449  0.00  0.00    +0.342 C 
ATOM     23  O   LIG    1       20.606 -20.503   4.001  0.00  0.00    -0.245 OA
BRANCH  22  24
ATOM     24  O   LIG    1       22.236 -21.572   5.133  0.00  0.00    -0.477 OA
ATOM     25  H   LIG    1       21.866 -22.445   4.848  0.00  0.00    +0.295 HD
ENDBRANCH  22  24
ENDBRANCH  10  22
TORSDOF 4
ENDMDL
MODEL 2
REMARK VINA RESULT:       0.8      3.504      6.779
REMARK  Name = *****
REMARK                            x       y       z     vdW  Elec       q    Type
REMARK                         _______ _______ _______ _____ _____    ______ ____
ROOT
ATOM      1  N   LIG    1       27.447 -16.206   4.025  0.00  0.00    -0.331 N 
ATOM      2  C   LIG    1       26.031 -16.297   4.025  0.00  0.00    +0.147 A 
ATOM      3  C   LIG    1       25.294 -15.113   4.084  0.00  0.00    +0.068 A 
ATOM      4  C   LIG    1       23.910 -15.160   4.090  0.00  0.00    +0.057 A 
ATOM      5  C   LIG    1       23.288 -16.395   4.036  0.00  0.00    +0.164 A 
ATOM      6  C   LIG    1       24.036 -17.582   3.953  0.00  0.00    +0.159 A 
ATOM      7  F   LIG    1       21.948 -16.382   4.057  0.00  0.00    -0.202 F 
ATOM      8  C   LIG    1       25.974 -13.807   4.131  0.00  0.00    +0.205 A 
ATOM      9  O   LIG    1       25.335 -12.758   4.189  0.00  0.00    -0.286 OA
ATOM     10  C   LIG    1       27.448 -13.776   4.095  0.00  0.00    +0.122 A 
ATOM     11  N   LIG    1       25.402 -17.505   3.962  0.00  0.00    -0.211 NA
ATOM     12  C   LIG    1       28.068 -14.965   4.043  0.00  0.00    +0.106 A 
ENDROOT
BRANCH   6  13
ATOM     13  N   LIG    1       23.435 -18.860   3.899  0.00  0.00    -0.310 N 
ATOM     14  C   LIG    1       22.351 -19.057   4.887  0.00  0.00    +0.121 C 
ATOM     15  C   LIG    1       21.692 -20.452   4.763  0.00  0.00    +0.100 C 
ATOM     16  N   LIG    1       22.653 -21.571   4.770  0.00  0.00    -0.313 NA
ATOM     17  H   LIG    1       23.182 -21.535   5.641  0.00  0.00    +0.122 HD
ATOM     18  C   LIG    1       23.587 -21.358   3.654  0.00  0.00    +0.100 C 
ATOM     19  C   LIG    1       24.343 -20.016   3.727  0.00  0.00    +0.121 C 
ENDBRANCH   6  13
BRANCH   1  21
ATOM     20  C   LIG    1       28.808 -17.831   5.291  0.00  0.00    +0.027 C 
ATOM     21  C   LIG    1       28.187 -17.473   3.949  0.00  0.00    +0.120 C 
ENDBRANCH   1  21
BRANCH  10  22
ATOM     22  C   LIG    1       28.232 -12.523   4.104  0.00  0.00    +0.342 C 
ATOM     23  O   LIG    1       28.861 -12.134   5.080  0.00  0.00    -0.245 OA
BRANCH  22  24
ATOM     24  O   LIG    1       28.207 -11.830   2.944  0.00  0.00    -0.477 OA
ATOM     25  H   LIG    1       27.654 -11.009   2.975  0.00  0.00    +0.295 HD
ENDBRANCH  22  24
ENDBRANCH  10  22
TORSDOF 4
ENDMDL
MODEL 3
REMARK VINA RESULT:       0.9      3.919      7.053
REMARK  Name = *****
REMARK                            x       y       z     vdW  Elec       q    Type
REMARK                         _______ _______ _______ _____ _____    ______ ____
ROOT
ATOM      1  N   LIG    1       23.461 -15.046   4.034  0.00  0.00    -0.331 N 
ATOM      2  C   LIG    1       24.220 -16.237   3.906  0.00  0.00    +0.147 A 
ATOM      3  C   LIG    1       25.462 -16.163   3.272  0.00  0.00    +0.068 A 
ATOM      4  C   LIG    1       26.232 -17.305   3.124  0.00  0.00    +0.057 A 
ATOM      5  C   LIG    1       25.744 -18.502   3.615  0.00  0.00    +0.164 A 
ATOM      6  C   LIG    1       24.502 -18.565   4.273  0.00  0.00    +0.159 A 
ATOM      7  F   LIG    1       26.524 -19.577   3.434  0.00  0.00    -0.202 F 
ATOM      8  C   LIG    1       25.969 -14.876   2.764  0.00  0.00    +0.205 A 
ATOM      9  O   LIG    1       27.059 -14.800   2.199  0.00  0.00    -0.286 OA
ATOM     10  C   LIG    1       25.149 -13.666   2.957  0.00  0.00    +0.122 A 
ATOM     11  N   LIG    1       23.759 -17.424   4.394  0.00  0.00    -0.211 NA
ATOM     12  C   LIG    1       23.969 -13.839   3.573  0.00  0.00    +0.106 A 
ENDROOT
BRANCH   6  13
ATOM     13  N   LIG    1       23.972 -19.771   4.785  0.00  0.00    -0.310 N 
ATOM     14  C   LIG    1       22.504 -19.893   4.636  0.00  0.00    +0.121 C 
ATOM     15  C   LIG    1       21.972 -21.244   5.170  0.00  0.00    +0.100 C 
ATOM     16  N   LIG    1       22.415 -21.564   6.540  0.00  0.00    -0.313 NA
ATOM     17  H   LIG    1       22.100 -20.820   7.163  0.00  0.00    +0.122 HD
ATOM     18  C   LIG    1       23.885 -21.572   6.539  0.00  0.00    +0.100 C 
ATOM     19  C   LIG    1       24.510 -20.237   6.082  0.00  0.00    +0.121 C 
ENDBRANCH   6  13
BRANCH   1  21
ATOM     20  C   LIG    1       22.335 -15.124   6.231  0.00  0.00    +0.027 C 
ATOM     21  C   LIG    1       22.166 -15.162   4.718  0.00  0.00    +0.120 C 
ENDBRANCH   1  21
BRANCH  10  22
ATOM     22  C   LIG    1       25.574 -12.321   2.518  0.00  0.00    +0.342 C 
ATOM     23  O   LIG    1       24.806 -11.502   2.029  0.00  0.00    -0.245 OA
BRANCH  22  24
ATOM     24  O   LIG    1       26.887 -12.054   2.697  0.00  0.00    -0.477 OA
ATOM     25  H   LIG    1       27.152 -11.946   3.645  0.00  0.00    +0.295 HD
ENDBRANCH  22  24
ENDBRANCH  10  22
TORSDOF 4
ENDMDL
MODEL 4
REMARK VINA RESULT:       1.1      1.611      2.133
REMARK  Name = *****
REMARK                            x       y       z     vdW  Elec       q    Type
REMARK                         _______ _______ _______ _____ _____    ______ ____
ROOT
ATOM      1  N   LIG    1       26.696 -19.024   4.517  0.00  0.00    -0.331 N 
ATOM      2  C   LIG    1       26.343 -17.687   4.201  0.00  0.00    +0.147 A 
ATOM      3  C   LIG    1       25.055 -17.440   3.722  0.00  0.00    +0.068 A 
ATOM      4  C   LIG    1       24.673 -16.149   3.399  0.00  0.00    +0.057 A 
ATOM      5  C   LIG    1       25.590 -15.126   3.563  0.00  0.00    +0.164 A 
ATOM      6  C   LIG    1       26.878 -15.378   4.068  0.00  0.00    +0.159 A 
ATOM      7  F   LIG    1       25.172 -13.898   3.223  0.00  0.00    -0.202 F 
ATOM      8  C   LIG    1       24.090 -18.541   3.564  0.00  0.00    +0.205 A 
ATOM      9  O   LIG    1       22.954 -18.337   3.137  0.00  0.00    -0.286 OA
ATOM     10  C   LIG    1       24.504 -19.906   3.941  0.00  0.00    +0.122 A 
ATOM     11  N   LIG    1       27.230 -16.665   4.366  0.00  0.00    -0.211 NA
ATOM     12  C   LIG    1       25.763 -20.043   4.386  0.00  0.00    +0.106 A 
ENDROOT
BRANCH   6  13
ATOM     13  N   LIG    1       27.841 -14.359   4.246  0.00  0.00    -0.310 N 
ATOM     14  C   LIG    1       27.590 -13.493   5.420  0.00  0.00    +0.121 C 
ATOM     15  C   LIG    1       28.689 -12.419   5.601  0.00  0.00    +0.100 C 
ATOM     16  N   LIG    1       28.965 -11.632   4.385  0.00  0.00    -0.313 NA
ATOM     17  H   LIG    1       28.102 -11.170   4.098  0.00  0.00    +0.122 HD
ATOM     18  C   LIG    1       29.357 -12.575   3.327  0.00  0.00    +0.100 C 
ATOM     19  C   LIG    1       28.290 -13.648   3.028  0.00  0.00    +0.121 C 
ENDBRANCH   6  13
BRANCH   1  21
ATOM     20  C   LIG    1       28.057 -20.233   6.186  0.00  0.00    +0.027 C 
ATOM     21  C   LIG    1       28.054 -19.242   5.031  0.00  0.00    +0.120 C 
ENDBRANCH   1  21
BRANCH  10  22
ATOM     22  C   LIG    1       23.608 -21.077   3.854  0.00  0.00    +0.342 C 
ATOM     23  O   LIG    1       23.055 -21.571   4.829  0.00  0.00    -0.245 OA
BRANCH  22  24
ATOM     24  O   LIG    1       23.438 -21.571   2.608  0.00  0.00    -0.477 OA
ATOM     25  H   LIG    1       22.502 -21.814   2.393  0.00  0.00    +0.295 HD
ENDBRANCH  22  24
ENDBRANCH  10  22
TORSDOF 4
ENDMDL
