MODEL 1
REMARK VINA RESULT:      -8.3      0.000      0.000
REMARK  Name = *****
REMARK                            x       y       z     vdW  Elec       q    Type
REMARK                         _______ _______ _______ _____ _____    ______ ____
ROOT
ATOM      1  C   LIG    1       26.510 -23.277   6.952  0.00  0.00    +0.158 C 
ATOM      2  N   LIG    1       26.299 -21.935   7.558  0.00  0.00    -0.198 N 
ATOM      3  S   LIG    1       24.673 -21.404   7.559  0.00  0.00    +0.075 S 
ATOM      4  O   LIG    1       23.835 -22.562   7.802  0.00  0.00    -0.150 OA
ATOM      5  O   LIG    1       24.583 -20.219   8.381  0.00  0.00    -0.150 OA
ATOM      6  C   LIG    1       24.470 -20.920   5.880  0.00  0.00    +0.119 A 
ATOM      7  C   LIG    1       25.592 -20.401   5.223  0.00  0.00    +0.045 A 
ATOM      8  C   LIG    1       25.434 -20.026   3.883  0.00  0.00    +0.013 A 
ATOM      9  C   LIG    1       24.207 -20.196   3.228  0.00  0.00    +0.001 A 
ATOM     10  C   LIG    1       23.115 -20.739   3.905  0.00  0.00    +0.002 A 
ATOM     11  C   LIG    1       26.878 -20.231   5.936  0.00  0.00    +0.153 C 
ATOM     12  C   LIG    1       23.242 -21.108   5.241  0.00  0.00    +0.029 A 
ATOM     13  C   LIG    1       27.192 -20.906   7.062  0.00  0.00    +0.155 C 
ENDROOT
BRANCH  13  14
ATOM     14  C   LIG    1       28.478 -20.676   7.804  0.00  0.00    +0.269 C 
ATOM     15  N   LIG    1       28.733 -19.334   7.968  0.00  0.00    -0.265 N 
ATOM     16  H   LIG    1       28.055 -18.698   7.568  0.00  0.00    +0.157 HD
ATOM     17  O   LIG    1       29.151 -21.639   8.154  0.00  0.00    -0.268 OA
BRANCH  15  18
ATOM     18  C   LIG    1       29.851 -18.780   8.594  0.00  0.00    +0.125 A 
ATOM     19  N   LIG    1       29.789 -18.370   9.872  0.00  0.00    -0.240 NA
ATOM     20  C   LIG    1       30.903 -17.837  10.419  0.00  0.00    +0.113 A 
ATOM     21  C   LIG    1       32.096 -17.679   9.737  0.00  0.00    +0.020 A 
ATOM     22  C   LIG    1       32.149 -18.101   8.416  0.00  0.00    +0.005 A 
ATOM     23  C   LIG    1       31.014 -18.666   7.837  0.00  0.00    +0.044 A 
ENDBRANCH  15  18
ENDBRANCH  13  14
BRANCH  11  24
ATOM     24  O   LIG    1       27.725 -19.300   5.353  0.00  0.00    -0.504 OA
ATOM     25  H   LIG    1       28.635 -19.680   5.315  0.00  0.00    +0.292 HD
ENDBRANCH  11  24
TORSDOF 3
ENDMDL
MODEL 2
REMARK VINA RESULT:      -8.2      0.643      1.028
REMARK  Name = *****
REMARK                            x       y       z     vdW  Elec       q    Type
REMARK                         _______ _______ _______ _____ _____    ______ ____
ROOT
ATOM      1  C   LIG    1       26.669 -23.159   6.986  0.00  0.00    +0.158 C 
ATOM      2  N   LIG    1       26.504 -21.800   7.568  0.00  0.00    -0.198 N 
ATOM      3  S   LIG    1       24.880 -21.275   7.699  0.00  0.00    +0.075 S 
ATOM      4  O   LIG    1       24.076 -22.428   8.052  0.00  0.00    -0.150 OA
ATOM      5  O   LIG    1       24.857 -20.065   8.490  0.00  0.00    -0.150 OA
ATOM      6  C   LIG    1       24.525 -20.844   6.031  0.00  0.00    +0.119 A 
ATOM      7  C   LIG    1       25.580 -20.341   5.260  0.00  0.00    +0.045 A 
ATOM      8  C   LIG    1       25.300 -20.009   3.929  0.00  0.00    +0.013 A 
ATOM      9  C   LIG    1       24.020 -20.203   3.393  0.00  0.00    +0.001 A 
ATOM     10  C   LIG    1       22.997 -20.729   4.182  0.00  0.00    +0.002 A 
ATOM     11  C   LIG    1       26.924 -20.144   5.849  0.00  0.00    +0.153 C 
ATOM     12  C   LIG    1       23.246 -21.056   5.511  0.00  0.00    +0.029 A 
ATOM     13  C   LIG    1       27.341 -20.783   6.963  0.00  0.00    +0.155 C 
ENDROOT
BRANCH  13  14
ATOM     14  C   LIG    1       28.687 -20.525   7.579  0.00  0.00    +0.269 C 
ATOM     15  N   LIG    1       28.856 -19.194   7.884  0.00  0.00    -0.265 N 
ATOM     16  H   LIG    1       28.087 -18.581   7.648  0.00  0.00    +0.157 HD
ATOM     17  O   LIG    1       29.471 -21.457   7.725  0.00  0.00    -0.268 OA
BRANCH  15  18
ATOM     18  C   LIG    1       29.996 -18.617   8.446  0.00  0.00    +0.125 A 
ATOM     19  N   LIG    1       31.157 -18.593   7.769  0.00  0.00    -0.240 NA
ATOM     20  C   LIG    1       32.226 -18.025   8.369  0.00  0.00    +0.113 A 
ATOM     21  C   LIG    1       32.196 -17.480   9.640  0.00  0.00    +0.020 A 
ATOM     22  C   LIG    1       30.994 -17.514  10.333  0.00  0.00    +0.005 A 
ATOM     23  C   LIG    1       29.876 -18.084   9.727  0.00  0.00    +0.044 A 
ENDBRANCH  15  18
ENDBRANCH  13  14
BRANCH  11  24
ATOM     24  O   LIG    1       27.709 -19.229   5.165  0.00  0.00    -0.504 OA
ATOM     25  H   LIG    1       28.327 -18.802   5.804  0.00  0.00    +0.292 HD
ENDBRANCH  11  24
TORSDOF 3
ENDMDL
MODEL 3
REMARK VINA RESULT:      -6.7      1.895      2.735
REMARK  Name = *****
REMARK                            x       y       z     vdW  Elec       q    Type
REMARK                         _______ _______ _______ _____ _____    ______ ____
ROOT
ATOM      1  C   LIG    1       25.583 -20.488   9.033  0.00  0.00    +0.158 C 
ATOM      2  N   LIG    1       25.837 -20.301   7.579  0.00  0.00    -0.198 N 
ATOM      3  S   LIG    1       24.546 -20.785   6.565  0.00  0.00    +0.075 S 
ATOM      4  O   LIG    1       23.309 -20.443   7.239  0.00  0.00    -0.150 OA
ATOM      5  O   LIG    1       24.828 -20.329   5.223  0.00  0.00    -0.150 OA
ATOM      6  C   LIG    1       24.725 -22.535   6.595  0.00  0.00    +0.119 A 
ATOM      7  C   LIG    1       26.023 -23.045   6.715  0.00  0.00    +0.045 A 
ATOM      8  C   LIG    1       26.165 -24.438   6.751  0.00  0.00    +0.013 A 
ATOM      9  C   LIG    1       25.044 -25.276   6.699  0.00  0.00    +0.001 A 
ATOM     10  C   LIG    1       23.761 -24.735   6.605  0.00  0.00    +0.002 A 
ATOM     11  C   LIG    1       27.193 -22.139   6.767  0.00  0.00    +0.153 C 
ATOM     12  C   LIG    1       23.594 -23.355   6.555  0.00  0.00    +0.029 A 
ATOM     13  C   LIG    1       27.102 -20.837   7.117  0.00  0.00    +0.155 C 
ENDROOT
BRANCH  13  14
ATOM     14  C   LIG    1       28.291 -19.919   7.108  0.00  0.00    +0.269 C 
ATOM     15  N   LIG    1       28.767 -19.697   8.379  0.00  0.00    -0.265 N 
ATOM     16  H   LIG    1       28.264 -20.150   9.131  0.00  0.00    +0.157 HD
ATOM     17  O   LIG    1       28.691 -19.463   6.042  0.00  0.00    -0.268 OA
BRANCH  15  18
ATOM     18  C   LIG    1       29.845 -18.879   8.723  0.00  0.00    +0.125 A 
ATOM     19  N   LIG    1       29.764 -18.042   9.771  0.00  0.00    -0.240 NA
ATOM     20  C   LIG    1       30.839 -17.272  10.050  0.00  0.00    +0.113 A 
ATOM     21  C   LIG    1       32.009 -17.288   9.312  0.00  0.00    +0.020 A 
ATOM     22  C   LIG    1       32.081 -18.152   8.228  0.00  0.00    +0.005 A 
ATOM     23  C   LIG    1       30.988 -18.964   7.932  0.00  0.00    +0.044 A 
ENDBRANCH  15  18
ENDBRANCH  13  14
BRANCH  11  24
ATOM     24  O   LIG    1       28.388 -22.741   6.406  0.00  0.00    -0.504 OA
ATOM     25  H   LIG    1       28.223 -23.333   5.634  0.00  0.00    +0.292 HD
ENDBRANCH  11  24
TORSDOF 3
ENDMDL
MODEL 4
REMARK VINA RESULT:      -6.3      4.221      6.885
REMARK  Name = *****
REMARK                            x       y       z     vdW  Elec       q    Type
REMARK                         _______ _______ _______ _____ _____    ______ ____
ROOT
ATOM      1  C   LIG    1       25.094 -20.708   7.306  0.00  0.00    +0.158 C 
ATOM      2  N   LIG    1       24.959 -21.414   6.003  0.00  0.00    -0.198 N 
ATOM      3  S   LIG    1       25.399 -20.479   4.640  0.00  0.00    +0.075 S 
ATOM      4  O   LIG    1       26.531 -19.657   5.021  0.00  0.00    -0.150 OA
ATOM      5  O   LIG    1       25.451 -21.351   3.488  0.00  0.00    -0.150 OA
ATOM      6  C   LIG    1       23.992 -19.437   4.471  0.00  0.00    +0.119 A 
ATOM      7  C   LIG    1       22.752 -19.968   4.842  0.00  0.00    +0.045 A 
ATOM      8  C   LIG    1       21.633 -19.135   4.719  0.00  0.00    +0.013 A 
ATOM      9  C   LIG    1       21.766 -17.815   4.271  0.00  0.00    +0.001 A 
ATOM     10  C   LIG    1       23.021 -17.307   3.932  0.00  0.00    +0.002 A 
ATOM     11  C   LIG    1       22.636 -21.368   5.313  0.00  0.00    +0.153 C 
ATOM     12  C   LIG    1       24.147 -18.118   4.034  0.00  0.00    +0.029 A 
ATOM     13  C   LIG    1       23.680 -22.068   5.806  0.00  0.00    +0.155 C 
ENDROOT
BRANCH  13  14
ATOM     14  C   LIG    1       23.556 -23.506   6.224  0.00  0.00    +0.269 C 
ATOM     15  N   LIG    1       24.641 -24.246   5.813  0.00  0.00    -0.265 N 
ATOM     16  H   LIG    1       25.348 -23.749   5.287  0.00  0.00    +0.157 HD
ATOM     17  O   LIG    1       22.557 -23.871   6.833  0.00  0.00    -0.268 OA
BRANCH  15  18
ATOM     18  C   LIG    1       24.829 -25.614   6.020  0.00  0.00    +0.125 A 
ATOM     19  N   LIG    1       24.103 -26.517   5.338  0.00  0.00    -0.240 NA
ATOM     20  C   LIG    1       24.328 -27.826   5.587  0.00  0.00    +0.113 A 
ATOM     21  C   LIG    1       25.252 -28.287   6.507  0.00  0.00    +0.020 A 
ATOM     22  C   LIG    1       25.993 -27.347   7.209  0.00  0.00    +0.005 A 
ATOM     23  C   LIG    1       25.786 -25.992   6.959  0.00  0.00    +0.044 A 
ENDBRANCH  15  18
ENDBRANCH  13  14
BRANCH  11  24
ATOM     24  O   LIG    1       21.363 -21.901   5.184  0.00  0.00    -0.504 OA
ATOM     25  H   LIG    1       21.157 -22.428   5.992  0.00  0.00    +0.292 HD
ENDBRANCH  11  24
TORSDOF 3
ENDMDL
MODEL 5
REMARK VINA RESULT:      -6.0      6.810      9.913
REMARK  Name = *****
REMARK                            x       y       z     vdW  Elec       q    Type
REMARK                         _______ _______ _______ _____ _____    ______ ____
ROOT
ATOM      1  C   LIG    1       26.599 -28.491   8.645  0.00  0.00    +0.158 C 
ATOM      2  N   LIG    1       25.203 -28.795   8.227  0.00  0.00    -0.198 N 
ATOM      3  S   LIG    1       24.528 -30.184   8.964  0.00  0.00    +0.075 S 
ATOM      4  O   LIG    1       25.012 -30.233  10.330  0.00  0.00    -0.150 OA
ATOM      5  O   LIG    1       23.116 -30.219   8.659  0.00  0.00    -0.150 OA
ATOM      6  C   LIG    1       25.314 -31.469   8.054  0.00  0.00    +0.119 A 
ATOM      7  C   LIG    1       25.616 -31.212   6.712  0.00  0.00    +0.045 A 
ATOM      8  C   LIG    1       26.252 -32.230   5.991  0.00  0.00    +0.013 A 
ATOM      9  C   LIG    1       26.594 -33.441   6.606  0.00  0.00    +0.001 A 
ATOM     10  C   LIG    1       26.301 -33.657   7.953  0.00  0.00    +0.002 A 
ATOM     11  C   LIG    1       25.245 -29.924   6.083  0.00  0.00    +0.153 C 
ATOM     12  C   LIG    1       25.658 -32.666   8.689  0.00  0.00    +0.029 A 
ATOM     13  C   LIG    1       24.995 -28.802   6.793  0.00  0.00    +0.155 C 
ENDROOT
BRANCH  13  14
ATOM     14  C   LIG    1       24.562 -27.520   6.141  0.00  0.00    +0.269 C 
ATOM     15  N   LIG    1       24.781 -26.437   6.961  0.00  0.00    -0.265 N 
ATOM     16  H   LIG    1       25.176 -26.638   7.871  0.00  0.00    +0.157 HD
ATOM     17  O   LIG    1       24.064 -27.553   5.020  0.00  0.00    -0.268 OA
BRANCH  15  18
ATOM     18  C   LIG    1       24.473 -25.108   6.668  0.00  0.00    +0.125 A 
ATOM     19  N   LIG    1       23.203 -24.671   6.717  0.00  0.00    -0.240 NA
ATOM     20  C   LIG    1       22.968 -23.374   6.417  0.00  0.00    +0.113 A 
ATOM     21  C   LIG    1       23.957 -22.478   6.054  0.00  0.00    +0.020 A 
ATOM     22  C   LIG    1       25.264 -22.939   6.001  0.00  0.00    +0.005 A 
ATOM     23  C   LIG    1       25.529 -24.270   6.319  0.00  0.00    +0.044 A 
ENDBRANCH  15  18
ENDBRANCH  13  14
BRANCH  11  24
ATOM     24  O   LIG    1       25.157 -29.978   4.701  0.00  0.00    -0.504 OA
ATOM     25  H   LIG    1       25.992 -30.363   4.345  0.00  0.00    +0.292 HD
ENDBRANCH  11  24
TORSDOF 3
ENDMDL
MODEL 6
REMARK VINA RESULT:      -5.8      3.885      7.038
REMARK  Name = *****
REMARK                            x       y       z     vdW  Elec       q    Type
REMARK                         _______ _______ _______ _____ _____    ______ ____
ROOT
ATOM      1  C   LIG    1       23.512 -21.368   7.652  0.00  0.00    +0.158 C 
ATOM      2  N   LIG    1       24.701 -22.161   7.239  0.00  0.00    -0.198 N 
ATOM      3  S   LIG    1       26.122 -21.239   7.001  0.00  0.00    +0.075 S 
ATOM      4  O   LIG    1       26.136 -20.191   8.002  0.00  0.00    -0.150 OA
ATOM      5  O   LIG    1       27.233 -22.151   6.845  0.00  0.00    -0.150 OA
ATOM      6  C   LIG    1       25.796 -20.505   5.437  0.00  0.00    +0.119 A 
ATOM      7  C   LIG    1       25.035 -21.246   4.526  0.00  0.00    +0.045 A 
ATOM      8  C   LIG    1       24.765 -20.657   3.285  0.00  0.00    +0.013 A 
ATOM      9  C   LIG    1       25.218 -19.365   2.989  0.00  0.00    +0.001 A 
ATOM     10  C   LIG    1       25.953 -18.642   3.929  0.00  0.00    +0.002 A 
ATOM     11  C   LIG    1       24.568 -22.611   4.861  0.00  0.00    +0.153 C 
ATOM     12  C   LIG    1       26.246 -19.210   5.165  0.00  0.00    +0.029 A 
ATOM     13  C   LIG    1       24.463 -23.063   6.130  0.00  0.00    +0.155 C 
ENDROOT
BRANCH  13  14
ATOM     14  C   LIG    1       24.043 -24.471   6.447  0.00  0.00    +0.269 C 
ATOM     15  N   LIG    1       25.055 -25.368   6.195  0.00  0.00    -0.265 N 
ATOM     16  H   LIG    1       25.914 -24.981   5.825  0.00  0.00    +0.157 HD
ATOM     17  O   LIG    1       22.906 -24.682   6.855  0.00  0.00    -0.268 OA
BRANCH  15  18
ATOM     18  C   LIG    1       24.988 -26.752   6.362  0.00  0.00    +0.125 A 
ATOM     19  N   LIG    1       24.239 -27.507   5.540  0.00  0.00    -0.240 NA
ATOM     20  C   LIG    1       24.211 -28.840   5.757  0.00  0.00    +0.113 A 
ATOM     21  C   LIG    1       24.897 -29.468   6.780  0.00  0.00    +0.020 A 
ATOM     22  C   LIG    1       25.663 -28.680   7.627  0.00  0.00    +0.005 A 
ATOM     23  C   LIG    1       25.717 -27.304   7.413  0.00  0.00    +0.044 A 
ENDBRANCH  15  18
ENDBRANCH  13  14
BRANCH  11  24
ATOM     24  O   LIG    1       24.266 -23.390   3.754  0.00  0.00    -0.504 OA
ATOM     25  H   LIG    1       25.043 -23.962   3.549  0.00  0.00    +0.292 HD
ENDBRANCH  11  24
TORSDOF 3
ENDMDL
MODEL 7
REMARK VINA RESULT:      -5.8      8.014     11.377
REMARK  Name = *****
REMARK                            x       y       z     vdW  Elec       q    Type
REMARK                         _______ _______ _______ _____ _____    ______ ____
ROOT
ATOM      1  C   LIG    1       26.973 -31.531   8.999  0.00  0.00    +0.158 C 
ATOM      2  N   LIG    1       26.318 -30.267   9.433  0.00  0.00    -0.198 N 
ATOM      3  S   LIG    1       26.522 -29.895  11.090  0.00  0.00    +0.075 S 
ATOM      4  O   LIG    1       27.860 -30.305  11.470  0.00  0.00    -0.150 OA
ATOM      5  O   LIG    1       26.052 -28.546  11.313  0.00  0.00    -0.150 OA
ATOM      6  C   LIG    1       25.374 -31.001  11.833  0.00  0.00    +0.119 A 
ATOM      7  C   LIG    1       24.216 -31.305  11.109  0.00  0.00    +0.045 A 
ATOM      8  C   LIG    1       23.307 -32.196  11.695  0.00  0.00    +0.013 A 
ATOM      9  C   LIG    1       23.572 -32.776  12.942  0.00  0.00    +0.001 A 
ATOM     10  C   LIG    1       24.748 -32.471  13.628  0.00  0.00    +0.002 A 
ATOM     11  C   LIG    1       23.958 -30.679   9.792  0.00  0.00    +0.153 C 
ATOM     12  C   LIG    1       25.662 -31.579  13.073  0.00  0.00    +0.029 A 
ATOM     13  C   LIG    1       24.933 -30.141   9.028  0.00  0.00    +0.155 C 
ENDROOT
BRANCH  13  14
ATOM     14  C   LIG    1       24.643 -29.458   7.722  0.00  0.00    +0.269 C 
ATOM     15  N   LIG    1       25.366 -28.295   7.589  0.00  0.00    -0.265 N 
ATOM     16  H   LIG    1       25.965 -28.050   8.367  0.00  0.00    +0.157 HD
ATOM     17  O   LIG    1       23.826 -29.952   6.952  0.00  0.00    -0.268 OA
BRANCH  15  18
ATOM     18  C   LIG    1       25.316 -27.413   6.508  0.00  0.00    +0.125 A 
ATOM     19  N   LIG    1       25.984 -27.681   5.373  0.00  0.00    -0.240 NA
ATOM     20  C   LIG    1       25.899 -26.786   4.364  0.00  0.00    +0.113 A 
ATOM     21  C   LIG    1       25.177 -25.609   4.438  0.00  0.00    +0.020 A 
ATOM     22  C   LIG    1       24.495 -25.339   5.616  0.00  0.00    +0.005 A 
ATOM     23  C   LIG    1       24.558 -26.255   6.664  0.00  0.00    +0.044 A 
ENDBRANCH  15  18
ENDBRANCH  13  14
BRANCH  11  24
ATOM     24  O   LIG    1       22.621 -30.678   9.423  0.00  0.00    -0.504 OA
ATOM     25  H   LIG    1       22.116 -31.235  10.061  0.00  0.00    +0.292 HD
ENDBRANCH  11  24
TORSDOF 3
ENDMDL
MODEL 8
REMARK VINA RESULT:      -5.7      9.948     11.316
REMARK  Name = *****
REMARK                            x       y       z     vdW  Elec       q    Type
REMARK                         _______ _______ _______ _____ _____    ______ ____
ROOT
ATOM      1  C   LIG    1       23.370 -32.140   8.388  0.00  0.00    +0.158 C 
ATOM      2  N   LIG    1       24.310 -30.988   8.327  0.00  0.00    -0.198 N 
ATOM      3  S   LIG    1       24.591 -30.384   6.751  0.00  0.00    +0.075 S 
ATOM      4  O   LIG    1       23.342 -30.471   6.020  0.00  0.00    -0.150 OA
ATOM      5  O   LIG    1       25.316 -29.139   6.865  0.00  0.00    -0.150 OA
ATOM      6  C   LIG    1       25.690 -31.599   6.110  0.00  0.00    +0.119 A 
ATOM      7  C   LIG    1       26.565 -32.213   7.014  0.00  0.00    +0.045 A 
ATOM      8  C   LIG    1       27.432 -33.188   6.506  0.00  0.00    +0.013 A 
ATOM      9  C   LIG    1       27.396 -33.548   5.153  0.00  0.00    +0.001 A 
ATOM     10  C   LIG    1       26.494 -32.934   4.282  0.00  0.00    +0.002 A 
ATOM     11  C   LIG    1       26.585 -31.815   8.440  0.00  0.00    +0.153 C 
ATOM     12  C   LIG    1       25.630 -31.953   4.759  0.00  0.00    +0.029 A 
ATOM     13  C   LIG    1       25.552 -31.190   9.045  0.00  0.00    +0.155 C 
ENDROOT
BRANCH  13  14
ATOM     14  C   LIG    1       25.615 -30.742  10.478  0.00  0.00    +0.269 C 
ATOM     15  N   LIG    1       25.419 -29.385  10.591  0.00  0.00    -0.265 N 
ATOM     16  H   LIG    1       25.281 -28.879   9.725  0.00  0.00    +0.157 HD
ATOM     17  O   LIG    1       25.841 -31.566  11.358  0.00  0.00    -0.268 OA
BRANCH  15  18
ATOM     18  C   LIG    1       25.436 -28.647  11.776  0.00  0.00    +0.125 A 
ATOM     19  N   LIG    1       24.428 -28.745  12.659  0.00  0.00    -0.240 NA
ATOM     20  C   LIG    1       24.501 -28.001  13.785  0.00  0.00    +0.113 A 
ATOM     21  C   LIG    1       25.544 -27.140  14.073  0.00  0.00    +0.020 A 
ATOM     22  C   LIG    1       26.578 -27.042  13.152  0.00  0.00    +0.005 A 
ATOM     23  C   LIG    1       26.529 -27.810  11.991  0.00  0.00    +0.044 A 
ENDBRANCH  15  18
ENDBRANCH  13  14
BRANCH  11  24
ATOM     24  O   LIG    1       27.769 -32.124   9.093  0.00  0.00    -0.504 OA
ATOM     25  H   LIG    1       27.804 -33.099   9.239  0.00  0.00    +0.292 HD
ENDBRANCH  11  24
TORSDOF 3
ENDMDL
MODEL 9
REMARK VINA RESULT:      -5.7      9.934     12.621
REMARK  Name = *****
REMARK                            x       y       z     vdW  Elec       q    Type
REMARK                         _______ _______ _______ _____ _____    ______ ____
ROOT
ATOM      1  C   LIG    1       22.884 -30.402  10.280  0.00  0.00    +0.158 C 
ATOM      2  N   LIG    1       24.131 -31.066   9.813  0.00  0.00    -0.198 N 
ATOM      3  S   LIG    1       25.176 -31.576  11.068  0.00  0.00    +0.075 S 
ATOM      4  O   LIG    1       24.349 -32.046  12.162  0.00  0.00    -0.150 OA
ATOM      5  O   LIG    1       26.209 -32.405  10.489  0.00  0.00    -0.150 OA
ATOM      6  C   LIG    1       25.907 -30.049  11.545  0.00  0.00    +0.119 A 
ATOM      7  C   LIG    1       26.093 -29.087  10.546  0.00  0.00    +0.045 A 
ATOM      8  C   LIG    1       26.664 -27.866  10.928  0.00  0.00    +0.013 A 
ATOM      9  C   LIG    1       27.003 -27.618  12.265  0.00  0.00    +0.001 A 
ATOM     10  C   LIG    1       26.782 -28.589  13.242  0.00  0.00    +0.002 A 
ATOM     11  C   LIG    1       25.728 -29.372   9.140  0.00  0.00    +0.153 C 
ATOM     12  C   LIG    1       26.227 -29.815  12.886  0.00  0.00    +0.029 A 
ATOM     13  C   LIG    1       24.850 -30.336   8.788  0.00  0.00    +0.155 C 
ENDROOT
BRANCH  13  14
ATOM     14  C   LIG    1       24.537 -30.650   7.352  0.00  0.00    +0.269 C 
ATOM     15  N   LIG    1       25.132 -31.824   6.951  0.00  0.00    -0.265 N 
ATOM     16  H   LIG    1       25.697 -32.299   7.643  0.00  0.00    +0.157 HD
ATOM     17  O   LIG    1       23.844 -29.874   6.704  0.00  0.00    -0.268 OA
BRANCH  15  18
ATOM     18  C   LIG    1       25.059 -32.389   5.677  0.00  0.00    +0.125 A 
ATOM     19  N   LIG    1       24.079 -33.255   5.365  0.00  0.00    -0.240 NA
ATOM     20  C   LIG    1       24.065 -33.771   4.117  0.00  0.00    +0.113 A 
ATOM     21  C   LIG    1       25.007 -33.470   3.149  0.00  0.00    +0.020 A 
ATOM     22  C   LIG    1       26.018 -32.579   3.482  0.00  0.00    +0.005 A 
ATOM     23  C   LIG    1       26.042 -32.025   4.760  0.00  0.00    +0.044 A 
ENDBRANCH  15  18
ENDBRANCH  13  14
BRANCH  11  24
ATOM     24  O   LIG    1       26.382 -28.572   8.215  0.00  0.00    -0.504 OA
ATOM     25  H   LIG    1       27.271 -28.959   8.035  0.00  0.00    +0.292 HD
ENDBRANCH  11  24
TORSDOF 3
ENDMDL
