MODEL 1
REMARK VINA RESULT:      -4.0      0.000      0.000
REMARK  Name = *****
REMARK                            x       y       z     vdW  Elec       q    Type
REMARK                         _______ _______ _______ _____ _____    ______ ____
ROOT
ATOM      1  N   LIG    1       25.929 -18.870   4.425  0.00  0.00    -0.298 N 
ATOM      2  C   LIG    1       27.075 -19.247   5.179  0.00  0.00    +0.048 A 
ATOM      3  C   LIG    1       27.099 -20.421   5.955  0.00  0.00    +0.034 A 
ATOM      4  C   LIG    1       28.244 -20.764   6.695  0.00  0.00    +0.017 A 
ATOM      5  C   LIG    1       29.368 -19.941   6.691  0.00  0.00    +0.001 A 
ATOM      6  C   LIG    1       29.354 -18.768   5.951  0.00  0.00    +0.002 A 
ATOM      7  S   LIG    1       25.739 -21.571   6.006  0.00  0.00    -0.086 S 
ATOM      8  C   LIG    1       24.407 -20.577   5.364  0.00  0.00    +0.034 A 
ATOM      9  C   LIG    1       23.101 -21.059   5.569  0.00  0.00    +0.017 A 
ATOM     10  C   LIG    1       21.998 -20.348   5.103  0.00  0.00    +0.001 A 
ATOM     11  C   LIG    1       22.190 -19.145   4.441  0.00  0.00    +0.002 A 
ATOM     12  C   LIG    1       23.486 -18.666   4.227  0.00  0.00    +0.024 A 
ATOM     13  C   LIG    1       28.219 -18.424   5.210  0.00  0.00    +0.024 A 
ATOM     14  C   LIG    1       24.624 -19.382   4.653  0.00  0.00    +0.048 A 
ENDROOT
BRANCH   1  15
ATOM     15  C   LIG    1       26.196 -18.364   3.054  0.00  0.00    +0.116 C 
BRANCH  15  19
ATOM     16  C   LIG    1       27.345 -13.883   4.644  0.00  0.00    +0.105 C 
ATOM     17  N   LIG    1       26.613 -14.748   3.733  0.00  0.00    -0.305 NA
ATOM     18  C   LIG    1       27.158 -16.104   3.674  0.00  0.00    +0.089 C 
ATOM     19  C   LIG    1       26.051 -16.842   2.930  0.00  0.00    +0.022 C 
ATOM     20  C   LIG    1       24.782 -16.254   3.550  0.00  0.00    +0.021 C 
ATOM     21  C   LIG    1       25.202 -14.894   4.103  0.00  0.00    +0.084 C 
ENDBRANCH  15  19
ENDBRANCH   1  15
TORSDOF 2
ENDMDL
MODEL 2
REMARK VINA RESULT:      -2.1      1.941      4.901
REMARK  Name = *****
REMARK                            x       y       z     vdW  Elec       q    Type
REMARK                         _______ _______ _______ _____ _____    ______ ____
ROOT
ATOM      1  N   LIG    1       25.518 -17.431   3.384  0.00  0.00    -0.298 N 
ATOM      2  C   LIG    1       25.486 -16.009   3.336  0.00  0.00    +0.048 A 
ATOM      3  C   LIG    1       24.451 -15.270   3.939  0.00  0.00    +0.034 A 
ATOM      4  C   LIG    1       24.442 -13.866   3.869  0.00  0.00    +0.017 A 
ATOM      5  C   LIG    1       25.445 -13.180   3.186  0.00  0.00    +0.001 A 
ATOM      6  C   LIG    1       26.460 -13.893   2.565  0.00  0.00    +0.002 A 
ATOM      7  S   LIG    1       23.139 -16.033   4.873  0.00  0.00    -0.086 S 
ATOM      8  C   LIG    1       23.254 -17.726   4.333  0.00  0.00    +0.034 A 
ATOM      9  C   LIG    1       22.155 -18.558   4.615  0.00  0.00    +0.017 A 
ATOM     10  C   LIG    1       22.156 -19.896   4.230  0.00  0.00    +0.001 A 
ATOM     11  C   LIG    1       23.247 -20.410   3.547  0.00  0.00    +0.002 A 
ATOM     12  C   LIG    1       24.346 -19.590   3.270  0.00  0.00    +0.024 A 
ATOM     13  C   LIG    1       26.475 -15.290   2.635  0.00  0.00    +0.024 A 
ATOM     14  C   LIG    1       24.391 -18.241   3.682  0.00  0.00    +0.048 A 
ENDROOT
BRANCH   1  15
ATOM     15  C   LIG    1       26.845 -18.037   3.666  0.00  0.00    +0.116 C 
BRANCH  15  19
ATOM     16  C   LIG    1       29.475 -20.382   7.059  0.00  0.00    +0.105 C 
ATOM     17  N   LIG    1       28.220 -19.790   6.623  0.00  0.00    -0.305 NA
ATOM     18  C   LIG    1       28.385 -18.874   5.496  0.00  0.00    +0.089 C 
ATOM     19  C   LIG    1       26.939 -18.667   5.062  0.00  0.00    +0.022 C 
ATOM     20  C   LIG    1       26.346 -20.072   5.186  0.00  0.00    +0.021 C 
ATOM     21  C   LIG    1       27.242 -20.793   6.192  0.00  0.00    +0.084 C 
ENDBRANCH  15  19
ENDBRANCH   1  15
TORSDOF 2
ENDMDL
MODEL 3
REMARK VINA RESULT:      -2.1      1.763      5.092
REMARK  Name = *****
REMARK                            x       y       z     vdW  Elec       q    Type
REMARK                         _______ _______ _______ _____ _____    ______ ____
ROOT
ATOM      1  N   LIG    1       26.271 -19.043   4.422  0.00  0.00    -0.298 N 
ATOM      2  C   LIG    1       26.396 -17.672   4.061  0.00  0.00    +0.048 A 
ATOM      3  C   LIG    1       27.604 -16.969   4.225  0.00  0.00    +0.034 A 
ATOM      4  C   LIG    1       27.695 -15.612   3.866  0.00  0.00    +0.017 A 
ATOM      5  C   LIG    1       26.589 -14.933   3.361  0.00  0.00    +0.001 A 
ATOM      6  C   LIG    1       25.383 -15.604   3.214  0.00  0.00    +0.002 A 
ATOM      7  S   LIG    1       29.096 -17.741   4.823  0.00  0.00    -0.086 S 
ATOM      8  C   LIG    1       28.455 -19.227   5.567  0.00  0.00    +0.034 A 
ATOM      9  C   LIG    1       29.316 -19.924   6.434  0.00  0.00    +0.017 A 
ATOM     10  C   LIG    1       28.900 -21.095   7.062  0.00  0.00    +0.001 A 
ATOM     11  C   LIG    1       27.617 -21.571   6.840  0.00  0.00    +0.002 A 
ATOM     12  C   LIG    1       26.760 -20.886   5.974  0.00  0.00    +0.024 A 
ATOM     13  C   LIG    1       25.288 -16.954   3.566  0.00  0.00    +0.024 A 
ATOM     14  C   LIG    1       27.165 -19.719   5.293  0.00  0.00    +0.048 A 
ENDROOT
BRANCH   1  15
ATOM     15  C   LIG    1       25.534 -19.899   3.456  0.00  0.00    +0.116 C 
BRANCH  15  19
ATOM     16  C   LIG    1       20.995 -18.159   3.997  0.00  0.00    +0.105 C 
ATOM     17  N   LIG    1       21.946 -19.253   4.103  0.00  0.00    -0.305 NA
ATOM     18  C   LIG    1       23.157 -19.032   3.315  0.00  0.00    +0.089 C 
ATOM     19  C   LIG    1       24.069 -20.131   3.848  0.00  0.00    +0.022 C 
ATOM     20  C   LIG    1       23.784 -20.104   5.351  0.00  0.00    +0.021 C 
ATOM     21  C   LIG    1       22.394 -19.482   5.480  0.00  0.00    +0.084 C 
ENDBRANCH  15  19
ENDBRANCH   1  15
TORSDOF 2
ENDMDL
MODEL 4
REMARK VINA RESULT:      -1.5      1.047      4.315
REMARK  Name = *****
REMARK                            x       y       z     vdW  Elec       q    Type
REMARK                         _______ _______ _______ _____ _____    ______ ____
ROOT
ATOM      1  N   LIG    1       25.713 -19.502   4.076  0.00  0.00    -0.298 N 
ATOM      2  C   LIG    1       24.443 -20.079   4.355  0.00  0.00    +0.048 A 
ATOM      3  C   LIG    1       24.096 -20.519   5.646  0.00  0.00    +0.034 A 
ATOM      4  C   LIG    1       22.835 -21.092   5.890  0.00  0.00    +0.017 A 
ATOM      5  C   LIG    1       21.913 -21.251   4.858  0.00  0.00    +0.001 A 
ATOM      6  C   LIG    1       22.247 -20.845   3.574  0.00  0.00    +0.002 A 
ATOM      7  S   LIG    1       25.174 -20.330   7.052  0.00  0.00    -0.086 S 
ATOM      8  C   LIG    1       26.742 -20.030   6.261  0.00  0.00    +0.034 A 
ATOM      9  C   LIG    1       27.891 -20.162   7.062  0.00  0.00    +0.017 A 
ATOM     10  C   LIG    1       29.160 -19.949   6.529  0.00  0.00    +0.001 A 
ATOM     11  C   LIG    1       29.291 -19.616   5.190  0.00  0.00    +0.002 A 
ATOM     12  C   LIG    1       28.152 -19.475   4.391  0.00  0.00    +0.024 A 
ATOM     13  C   LIG    1       23.498 -20.271   3.327  0.00  0.00    +0.024 A 
ATOM     14  C   LIG    1       26.852 -19.647   4.911  0.00  0.00    +0.048 A 
ENDROOT
BRANCH   1  15
ATOM     15  C   LIG    1       25.699 -18.299   3.203  0.00  0.00    +0.116 C 
BRANCH  15  19
ATOM     16  C   LIG    1       24.712 -13.539   3.750  0.00  0.00    +0.105 C 
ATOM     17  N   LIG    1       25.416 -14.738   4.177  0.00  0.00    -0.305 NA
ATOM     18  C   LIG    1       24.820 -15.965   3.651  0.00  0.00    +0.089 C 
ATOM     19  C   LIG    1       25.902 -16.989   3.975  0.00  0.00    +0.022 C 
ATOM     20  C   LIG    1       27.189 -16.231   3.647  0.00  0.00    +0.021 C 
ATOM     21  C   LIG    1       26.818 -14.753   3.750  0.00  0.00    +0.084 C 
ENDBRANCH  15  19
ENDBRANCH   1  15
TORSDOF 2
ENDMDL
