MODEL 1
REMARK VINA RESULT:      -5.5      0.000      0.000
REMARK  Name = *****
REMARK                            x       y       z     vdW  Elec       q    Type
REMARK                         _______ _______ _______ _____ _____    ______ ____
ROOT
ATOM      1  C   LIG    1       22.164 -21.570   5.560  0.00  0.00    +0.045 C 
ATOM      2  C   LIG    1       23.283 -20.731   5.022  0.00  0.00    -0.034 C 
ATOM      3  C   LIG    1       24.529 -20.760   5.521  0.00  0.00    +0.098 C 
ATOM      4  N   LIG    1       25.569 -19.964   5.031  0.00  0.00    -0.284 N 
ATOM      5  C   LIG    1       25.326 -19.080   3.954  0.00  0.00    +0.256 C 
ATOM      6  O   LIG    1       26.141 -18.361   3.379  0.00  0.00    -0.267 OA
ATOM      7  C   LIG    1       23.933 -19.051   3.425  0.00  0.00    +0.071 C 
ATOM      8  C   LIG    1       22.982 -19.841   3.931  0.00  0.00    +0.010 C 
ENDROOT
BRANCH   4   9
ATOM      9  C   LIG    1       26.896 -20.048   5.609  0.00  0.00    +0.049 A 
ATOM     10  C   LIG    1       27.240 -21.095   6.485  0.00  0.00    +0.026 A 
ATOM     11  C   LIG    1       28.513 -21.177   7.062  0.00  0.00    +0.002 A 
ATOM     12  C   LIG    1       29.471 -20.212   6.779  0.00  0.00    +0.000 A 
ATOM     13  C   LIG    1       29.158 -19.167   5.918  0.00  0.00    +0.002 A 
ATOM     14  C   LIG    1       27.885 -19.087   5.340  0.00  0.00    +0.026 A 
ENDBRANCH   4   9
TORSDOF 1
ENDMDL
MODEL 2
REMARK VINA RESULT:      -4.9      3.927      6.157
REMARK  Name = *****
REMARK                            x       y       z     vdW  Elec       q    Type
REMARK                         _______ _______ _______ _____ _____    ______ ____
ROOT
ATOM      1  C   LIG    1       23.906 -12.028   3.593  0.00  0.00    +0.045 C 
ATOM      2  C   LIG    1       24.657 -13.323   3.535  0.00  0.00    -0.034 C 
ATOM      3  C   LIG    1       24.079 -14.518   3.730  0.00  0.00    +0.098 C 
ATOM      4  N   LIG    1       24.784 -15.726   3.694  0.00  0.00    -0.284 N 
ATOM      5  C   LIG    1       26.174 -15.717   3.435  0.00  0.00    +0.256 C 
ATOM      6  O   LIG    1       26.919 -16.688   3.317  0.00  0.00    -0.267 OA
ATOM      7  C   LIG    1       26.801 -14.378   3.236  0.00  0.00    +0.071 C 
ATOM      8  C   LIG    1       26.073 -13.260   3.277  0.00  0.00    +0.010 C 
ENDROOT
BRANCH   4   9
ATOM      9  C   LIG    1       24.099 -16.986   3.906  0.00  0.00    +0.049 A 
ATOM     10  C   LIG    1       22.783 -17.020   4.405  0.00  0.00    +0.026 A 
ATOM     11  C   LIG    1       22.117 -18.231   4.629  0.00  0.00    +0.002 A 
ATOM     12  C   LIG    1       22.753 -19.437   4.363  0.00  0.00    +0.000 A 
ATOM     13  C   LIG    1       24.052 -19.431   3.871  0.00  0.00    +0.002 A 
ATOM     14  C   LIG    1       24.717 -18.219   3.645  0.00  0.00    +0.026 A 
ENDBRANCH   4   9
TORSDOF 1
ENDMDL
MODEL 3
REMARK VINA RESULT:      -4.7      3.579      5.726
REMARK  Name = *****
REMARK                            x       y       z     vdW  Elec       q    Type
REMARK                         _______ _______ _______ _____ _____    ______ ____
ROOT
ATOM      1  C   LIG    1       27.184 -14.069   2.569  0.00  0.00    +0.045 C 
ATOM      2  C   LIG    1       25.922 -14.578   3.194  0.00  0.00    -0.034 C 
ATOM      3  C   LIG    1       25.622 -15.883   3.289  0.00  0.00    +0.098 C 
ATOM      4  N   LIG    1       24.435 -16.358   3.857  0.00  0.00    -0.284 N 
ATOM      5  C   LIG    1       23.490 -15.440   4.371  0.00  0.00    +0.256 C 
ATOM      6  O   LIG    1       22.434 -15.698   4.946  0.00  0.00    -0.267 OA
ATOM      7  C   LIG    1       23.834 -13.995   4.243  0.00  0.00    +0.071 C 
ATOM      8  C   LIG    1       24.987 -13.603   3.695  0.00  0.00    +0.010 C 
ENDROOT
BRANCH   4   9
ATOM      9  C   LIG    1       24.174 -17.781   3.936  0.00  0.00    +0.049 A 
ATOM     10  C   LIG    1       22.921 -18.265   4.360  0.00  0.00    +0.026 A 
ATOM     11  C   LIG    1       22.661 -19.637   4.456  0.00  0.00    +0.002 A 
ATOM     12  C   LIG    1       23.650 -20.559   4.134  0.00  0.00    +0.000 A 
ATOM     13  C   LIG    1       24.895 -20.108   3.712  0.00  0.00    +0.002 A 
ATOM     14  C   LIG    1       25.153 -18.735   3.615  0.00  0.00    +0.026 A 
ENDBRANCH   4   9
TORSDOF 1
ENDMDL
MODEL 4
REMARK VINA RESULT:      -4.7      4.959      6.893
REMARK  Name = *****
REMARK                            x       y       z     vdW  Elec       q    Type
REMARK                         _______ _______ _______ _____ _____    ______ ____
ROOT
ATOM      1  C   LIG    1       24.990 -18.885   3.312  0.00  0.00    +0.045 C 
ATOM      2  C   LIG    1       25.735 -17.600   3.507  0.00  0.00    -0.034 C 
ATOM      3  C   LIG    1       25.176 -16.392   3.332  0.00  0.00    +0.098 C 
ATOM      4  N   LIG    1       25.875 -15.193   3.497  0.00  0.00    -0.284 N 
ATOM      5  C   LIG    1       27.239 -15.224   3.871  0.00  0.00    +0.256 C 
ATOM      6  O   LIG    1       27.971 -14.264   4.106  0.00  0.00    -0.267 OA
ATOM      7  C   LIG    1       27.846 -16.574   4.045  0.00  0.00    +0.071 C 
ATOM      8  C   LIG    1       27.123 -17.685   3.879  0.00  0.00    +0.010 C 
ENDROOT
BRANCH   4   9
ATOM      9  C   LIG    1       25.211 -13.919   3.300  0.00  0.00    +0.049 A 
ATOM     10  C   LIG    1       24.511 -13.297   4.352  0.00  0.00    +0.026 A 
ATOM     11  C   LIG    1       23.852 -12.076   4.170  0.00  0.00    +0.002 A 
ATOM     12  C   LIG    1       23.874 -11.448   2.931  0.00  0.00    +0.000 A 
ATOM     13  C   LIG    1       24.558 -12.041   1.875  0.00  0.00    +0.002 A 
ATOM     14  C   LIG    1       25.218 -13.262   2.059  0.00  0.00    +0.026 A 
ENDBRANCH   4   9
TORSDOF 1
ENDMDL
MODEL 5
REMARK VINA RESULT:      -4.7      3.585      5.764
REMARK  Name = *****
REMARK                            x       y       z     vdW  Elec       q    Type
REMARK                         _______ _______ _______ _____ _____    ______ ____
ROOT
ATOM      1  C   LIG    1       27.185 -14.067   2.565  0.00  0.00    +0.045 C 
ATOM      2  C   LIG    1       25.923 -14.572   3.194  0.00  0.00    -0.034 C 
ATOM      3  C   LIG    1       25.622 -15.876   3.295  0.00  0.00    +0.098 C 
ATOM      4  N   LIG    1       24.435 -16.347   3.866  0.00  0.00    -0.284 N 
ATOM      5  C   LIG    1       23.490 -15.426   4.375  0.00  0.00    +0.256 C 
ATOM      6  O   LIG    1       22.434 -15.681   4.952  0.00  0.00    -0.267 OA
ATOM      7  C   LIG    1       23.835 -13.982   4.239  0.00  0.00    +0.071 C 
ATOM      8  C   LIG    1       24.989 -13.594   3.689  0.00  0.00    +0.010 C 
ENDROOT
BRANCH   4   9
ATOM      9  C   LIG    1       24.172 -17.770   3.953  0.00  0.00    +0.049 A 
ATOM     10  C   LIG    1       25.163 -18.712   3.613  0.00  0.00    +0.026 A 
ATOM     11  C   LIG    1       24.916 -20.088   3.677  0.00  0.00    +0.002 A 
ATOM     12  C   LIG    1       23.671 -20.556   4.078  0.00  0.00    +0.000 A 
ATOM     13  C   LIG    1       22.676 -19.648   4.418  0.00  0.00    +0.002 A 
ATOM     14  C   LIG    1       22.925 -18.272   4.356  0.00  0.00    +0.026 A 
ENDBRANCH   4   9
TORSDOF 1
ENDMDL
MODEL 6
REMARK VINA RESULT:      -4.4      3.751      5.180
REMARK  Name = *****
REMARK                            x       y       z     vdW  Elec       q    Type
REMARK                         _______ _______ _______ _____ _____    ______ ____
ROOT
ATOM      1  C   LIG    1       24.587 -20.559   3.399  0.00  0.00    +0.045 C 
ATOM      2  C   LIG    1       24.057 -19.200   3.740  0.00  0.00    -0.034 C 
ATOM      3  C   LIG    1       24.759 -18.070   3.559  0.00  0.00    +0.098 C 
ATOM      4  N   LIG    1       24.271 -16.803   3.893  0.00  0.00    -0.284 N 
ATOM      5  C   LIG    1       22.976 -16.675   4.446  0.00  0.00    +0.256 C 
ATOM      6  O   LIG    1       22.388 -15.636   4.739  0.00  0.00    -0.267 OA
ATOM      7  C   LIG    1       22.218 -17.942   4.655  0.00  0.00    +0.071 C 
ATOM      8  C   LIG    1       22.736 -19.124   4.309  0.00  0.00    +0.010 C 
ENDROOT
BRANCH   4   9
ATOM      9  C   LIG    1       25.077 -15.619   3.665  0.00  0.00    +0.049 A 
ATOM     10  C   LIG    1       24.504 -14.334   3.711  0.00  0.00    +0.026 A 
ATOM     11  C   LIG    1       25.268 -13.184   3.476  0.00  0.00    +0.002 A 
ATOM     12  C   LIG    1       26.623 -13.293   3.186  0.00  0.00    +0.000 A 
ATOM     13  C   LIG    1       27.213 -14.551   3.135  0.00  0.00    +0.002 A 
ATOM     14  C   LIG    1       26.448 -15.699   3.372  0.00  0.00    +0.026 A 
ENDBRANCH   4   9
TORSDOF 1
ENDMDL
MODEL 7
REMARK VINA RESULT:      -4.4      3.719      5.116
REMARK  Name = *****
REMARK                            x       y       z     vdW  Elec       q    Type
REMARK                         _______ _______ _______ _____ _____    ______ ____
ROOT
ATOM      1  C   LIG    1       24.645 -20.603   3.426  0.00  0.00    +0.045 C 
ATOM      2  C   LIG    1       24.092 -19.250   3.753  0.00  0.00    -0.034 C 
ATOM      3  C   LIG    1       24.777 -18.110   3.568  0.00  0.00    +0.098 C 
ATOM      4  N   LIG    1       24.268 -16.848   3.890  0.00  0.00    -0.284 N 
ATOM      5  C   LIG    1       22.967 -16.737   4.433  0.00  0.00    +0.256 C 
ATOM      6  O   LIG    1       22.360 -15.705   4.714  0.00  0.00    -0.267 OA
ATOM      7  C   LIG    1       22.227 -18.014   4.645  0.00  0.00    +0.071 C 
ATOM      8  C   LIG    1       22.765 -19.190   4.311  0.00  0.00    +0.010 C 
ENDROOT
BRANCH   4   9
ATOM      9  C   LIG    1       25.057 -15.654   3.659  0.00  0.00    +0.049 A 
ATOM     10  C   LIG    1       26.435 -15.739   3.383  0.00  0.00    +0.026 A 
ATOM     11  C   LIG    1       27.211 -14.592   3.175  0.00  0.00    +0.002 A 
ATOM     12  C   LIG    1       26.627 -13.333   3.241  0.00  0.00    +0.000 A 
ATOM     13  C   LIG    1       25.268 -13.221   3.512  0.00  0.00    +0.002 A 
ATOM     14  C   LIG    1       24.493 -14.369   3.718  0.00  0.00    +0.026 A 
ENDBRANCH   4   9
TORSDOF 1
ENDMDL
MODEL 8
REMARK VINA RESULT:      -4.2      3.677      5.315
REMARK  Name = *****
REMARK                            x       y       z     vdW  Elec       q    Type
REMARK                         _______ _______ _______ _____ _____    ______ ____
ROOT
ATOM      1  C   LIG    1       21.744 -19.260   4.469  0.00  0.00    +0.045 C 
ATOM      2  C   LIG    1       23.089 -18.688   4.139  0.00  0.00    -0.034 C 
ATOM      3  C   LIG    1       23.329 -17.370   4.064  0.00  0.00    +0.098 C 
ATOM      4  N   LIG    1       24.580 -16.836   3.738  0.00  0.00    -0.284 N 
ATOM      5  C   LIG    1       25.665 -17.705   3.477  0.00  0.00    +0.256 C 
ATOM      6  O   LIG    1       26.830 -17.394   3.234  0.00  0.00    -0.267 OA
ATOM      7  C   LIG    1       25.375 -19.165   3.551  0.00  0.00    +0.071 C 
ATOM      8  C   LIG    1       24.159 -19.615   3.873  0.00  0.00    +0.010 C 
ENDROOT
BRANCH   4   9
ATOM      9  C   LIG    1       24.777 -15.401   3.680  0.00  0.00    +0.049 A 
ATOM     10  C   LIG    1       23.809 -14.516   4.194  0.00  0.00    +0.026 A 
ATOM     11  C   LIG    1       23.980 -13.128   4.128  0.00  0.00    +0.002 A 
ATOM     12  C   LIG    1       25.121 -12.591   3.545  0.00  0.00    +0.000 A 
ATOM     13  C   LIG    1       26.091 -13.443   3.030  0.00  0.00    +0.002 A 
ATOM     14  C   LIG    1       25.920 -14.831   3.098  0.00  0.00    +0.026 A 
ENDBRANCH   4   9
TORSDOF 1
ENDMDL
MODEL 9
REMARK VINA RESULT:      -4.2      4.590      6.329
REMARK  Name = *****
REMARK                            x       y       z     vdW  Elec       q    Type
REMARK                         _______ _______ _______ _____ _____    ______ ____
ROOT
ATOM      1  C   LIG    1       22.352 -18.760   4.446  0.00  0.00    +0.045 C 
ATOM      2  C   LIG    1       23.497 -17.871   4.072  0.00  0.00    -0.034 C 
ATOM      3  C   LIG    1       23.412 -16.531   4.048  0.00  0.00    +0.098 C 
ATOM      4  N   LIG    1       24.476 -15.701   3.682  0.00  0.00    -0.284 N 
ATOM      5  C   LIG    1       25.717 -16.274   3.319  0.00  0.00    +0.256 C 
ATOM      6  O   LIG    1       26.756 -15.683   3.027  0.00  0.00    -0.267 OA
ATOM      7  C   LIG    1       25.788 -17.763   3.335  0.00  0.00    +0.071 C 
ATOM      8  C   LIG    1       24.738 -18.503   3.701  0.00  0.00    +0.010 C 
ENDROOT
BRANCH   4   9
ATOM      9  C   LIG    1       24.321 -14.260   3.685  0.00  0.00    +0.049 A 
ATOM     10  C   LIG    1       24.126 -13.554   4.888  0.00  0.00    +0.026 A 
ATOM     11  C   LIG    1       23.959 -12.164   4.902  0.00  0.00    +0.002 A 
ATOM     12  C   LIG    1       23.979 -11.447   3.712  0.00  0.00    +0.000 A 
ATOM     13  C   LIG    1       24.169 -12.119   2.511  0.00  0.00    +0.002 A 
ATOM     14  C   LIG    1       24.338 -13.509   2.498  0.00  0.00    +0.026 A 
ENDBRANCH   4   9
TORSDOF 1
ENDMDL
