MODEL 1
REMARK VINA RESULT:      -9.3      0.000      0.000
REMARK  Name = *****
REMARK                            x       y       z     vdW  Elec       q    Type
REMARK                         _______ _______ _______ _____ _____    ______ ____
ROOT
ATOM      1  C   LIG    1       25.897 -25.790   6.233  0.00  0.00    -0.030 A 
ATOM      2  C   LIG    1       25.410 -25.433   4.972  0.00  0.00    +0.006 A 
ATOM      3  C   LIG    1       24.785 -24.195   4.768  0.00  0.00    +0.009 A 
ATOM      4  C   LIG    1       24.606 -23.269   5.815  0.00  0.00    -0.017 A 
ATOM      5  C   LIG    1       25.045 -23.669   7.087  0.00  0.00    +0.009 A 
ATOM      6  C   LIG    1       25.721 -24.883   7.285  0.00  0.00    +0.006 A 
ENDROOT
BRANCH   4   7
ATOM      7  C   LIG    1       23.961 -21.947   5.567  0.00  0.00    -0.007 A 
ATOM      8  C   LIG    1       24.610 -20.685   5.673  0.00  0.00    +0.028 A 
ATOM      9  C   LIG    1       23.858 -19.503   5.457  0.00  0.00    +0.012 A 
ATOM     10  C   LIG    1       22.515 -19.544   5.087  0.00  0.00    +0.001 A 
ATOM     11  C   LIG    1       21.884 -20.768   4.943  0.00  0.00    +0.001 A 
ATOM     12  C   LIG    1       22.592 -21.944   5.196  0.00  0.00    +0.009 A 
BRANCH   8  13
ATOM     13  C   LIG    1       26.039 -20.494   5.957  0.00  0.00    +0.180 A 
ATOM     14  N   LIG    1       27.009 -20.204   5.035  0.00  0.00    -0.239 N 
ATOM     15  H   LIG    1       26.935 -20.119   4.030  0.00  0.00    +0.192 HD
ATOM     16  N   LIG    1       28.204 -20.082   5.626  0.00  0.00    -0.046 NA
ATOM     17  N   LIG    1       27.966 -20.255   6.916  0.00  0.00    -0.023 NA
ATOM     18  N   LIG    1       26.631 -20.496   7.140  0.00  0.00    -0.108 NA
ENDBRANCH   8  13
ENDBRANCH   4   7
BRANCH   1  19
ATOM     19  C   LIG    1       26.611 -27.108   6.465  0.00  0.00    +0.150 C 
BRANCH  19  24
ATOM     20  C   LIG    1       27.065 -27.770  11.357  0.00  0.00    +0.088 C 
ATOM     21  C   LIG    1       26.327 -28.534  10.305  0.00  0.00    +0.128 A 
ATOM     22  N   LIG    1       26.390 -28.069   9.050  0.00  0.00    -0.217 NA
ATOM     23  C   LIG    1       25.697 -28.728   8.108  0.00  0.00    +0.135 A 
ATOM     24  N   LIG    1       25.718 -28.223   6.782  0.00  0.00    -0.251 N 
ATOM     25  C   LIG    1       24.870 -28.698   5.789  0.00  0.00    +0.222 C 
ATOM     26  C   LIG    1       23.785 -29.652   6.250  0.00  0.00    +0.101 C 
ATOM     27  C   LIG    1       24.306 -30.628   7.281  0.00  0.00    +0.049 C 
ATOM     28  O   LIG    1       24.888 -28.302   4.634  0.00  0.00    -0.275 OA
ATOM     29  C   LIG    1       24.980 -29.884   8.389  0.00  0.00    +0.014 A 
ATOM     30  C   LIG    1       25.021 -30.326   9.703  0.00  0.00    +0.047 A 
ATOM     31  C   LIG    1       24.368 -31.604  10.138  0.00  0.00    +0.066 C 
ATOM     32  N   LIG    1       25.669 -29.643  10.670  0.00  0.00    -0.237 NA
ENDBRANCH  19  24
ENDBRANCH   1  19
TORSDOF 4
ENDMDL
MODEL 2
REMARK VINA RESULT:      -8.8      2.143      8.444
REMARK  Name = *****
REMARK                            x       y       z     vdW  Elec       q    Type
REMARK                         _______ _______ _______ _____ _____    ______ ____
ROOT
ATOM      1  C   LIG    1       24.844 -23.791   7.040  0.00  0.00    -0.030 A 
ATOM      2  C   LIG    1       23.723 -24.521   6.637  0.00  0.00    +0.006 A 
ATOM      3  C   LIG    1       23.821 -25.892   6.361  0.00  0.00    +0.009 A 
ATOM      4  C   LIG    1       25.042 -26.587   6.460  0.00  0.00    -0.017 A 
ATOM      5  C   LIG    1       26.170 -25.825   6.805  0.00  0.00    +0.009 A 
ATOM      6  C   LIG    1       26.067 -24.466   7.137  0.00  0.00    +0.006 A 
ENDROOT
BRANCH   4   7
ATOM      7  C   LIG    1       25.115 -28.051   6.186  0.00  0.00    -0.007 A 
ATOM      8  C   LIG    1       25.487 -29.046   7.134  0.00  0.00    +0.028 A 
ATOM      9  C   LIG    1       25.562 -30.399   6.720  0.00  0.00    +0.012 A 
ATOM     10  C   LIG    1       25.226 -30.792   5.425  0.00  0.00    +0.001 A 
ATOM     11  C   LIG    1       24.825 -29.837   4.505  0.00  0.00    +0.001 A 
ATOM     12  C   LIG    1       24.789 -28.492   4.877  0.00  0.00    +0.009 A 
BRANCH   8  13
ATOM     13  C   LIG    1       25.771 -28.792   8.553  0.00  0.00    +0.180 A 
ATOM     14  N   LIG    1       25.068 -29.297   9.615  0.00  0.00    -0.239 N 
ATOM     15  H   LIG    1       24.235 -29.870   9.620  0.00  0.00    +0.192 HD
ATOM     16  N   LIG    1       25.596 -28.881  10.773  0.00  0.00    -0.046 NA
ATOM     17  N   LIG    1       26.647 -28.156  10.428  0.00  0.00    -0.023 NA
ATOM     18  N   LIG    1       26.779 -28.102   9.061  0.00  0.00    -0.108 NA
ENDBRANCH   8  13
ENDBRANCH   4   7
BRANCH   1  19
ATOM     19  C   LIG    1       24.751 -22.316   7.380  0.00  0.00    +0.150 C 
BRANCH  19  24
ATOM     20  C   LIG    1       29.501 -21.596   8.606  0.00  0.00    +0.088 C 
ATOM     21  C   LIG    1       28.641 -21.010   7.532  0.00  0.00    +0.128 A 
ATOM     22  N   LIG    1       27.375 -21.442   7.454  0.00  0.00    -0.217 NA
ATOM     23  C   LIG    1       26.610 -20.948   6.468  0.00  0.00    +0.135 A 
ATOM     24  N   LIG    1       25.280 -21.429   6.344  0.00  0.00    -0.251 N 
ATOM     25  C   LIG    1       24.485 -21.148   5.239  0.00  0.00    +0.222 C 
ATOM     26  C   LIG    1       25.184 -20.462   4.081  0.00  0.00    +0.101 C 
ATOM     27  C   LIG    1       26.146 -19.401   4.566  0.00  0.00    +0.049 C 
ATOM     28  O   LIG    1       23.329 -21.524   5.122  0.00  0.00    -0.275 OA
ATOM     29  C   LIG    1       27.073 -19.982   5.584  0.00  0.00    +0.014 A 
ATOM     30  C   LIG    1       28.377 -19.550   5.778  0.00  0.00    +0.047 A 
ATOM     31  C   LIG    1       28.985 -18.451   4.958  0.00  0.00    +0.066 C 
ATOM     32  N   LIG    1       29.174 -20.076   6.731  0.00  0.00    -0.237 NA
ENDBRANCH  19  24
ENDBRANCH   1  19
TORSDOF 4
ENDMDL
MODEL 3
REMARK VINA RESULT:      -8.8      1.486      1.887
REMARK  Name = *****
REMARK                            x       y       z     vdW  Elec       q    Type
REMARK                         _______ _______ _______ _____ _____    ______ ____
ROOT
ATOM      1  C   LIG    1       25.394 -25.644   6.980  0.00  0.00    -0.030 A 
ATOM      2  C   LIG    1       24.051 -25.531   6.614  0.00  0.00    +0.006 A 
ATOM      3  C   LIG    1       23.521 -24.301   6.199  0.00  0.00    +0.009 A 
ATOM      4  C   LIG    1       24.305 -23.131   6.148  0.00  0.00    -0.017 A 
ATOM      5  C   LIG    1       25.636 -23.250   6.579  0.00  0.00    +0.009 A 
ATOM      6  C   LIG    1       26.185 -24.489   6.940  0.00  0.00    +0.006 A 
ENDROOT
BRANCH   4   7
ATOM      7  C   LIG    1       23.725 -21.840   5.679  0.00  0.00    -0.007 A 
ATOM      8  C   LIG    1       24.421 -20.599   5.623  0.00  0.00    +0.028 A 
ATOM      9  C   LIG    1       23.727 -19.438   5.201  0.00  0.00    +0.012 A 
ATOM     10  C   LIG    1       22.398 -19.486   4.784  0.00  0.00    +0.001 A 
ATOM     11  C   LIG    1       21.723 -20.695   4.796  0.00  0.00    +0.001 A 
ATOM     12  C   LIG    1       22.372 -21.844   5.252  0.00  0.00    +0.009 A 
BRANCH   8  13
ATOM     13  C   LIG    1       25.845 -20.418   5.938  0.00  0.00    +0.180 A 
ATOM     14  N   LIG    1       26.853 -20.251   5.025  0.00  0.00    -0.239 N 
ATOM     15  H   LIG    1       26.815 -20.269   4.015  0.00  0.00    +0.192 HD
ATOM     16  N   LIG    1       28.031 -20.101   5.643  0.00  0.00    -0.046 NA
ATOM     17  N   LIG    1       27.745 -20.133   6.935  0.00  0.00    -0.023 NA
ATOM     18  N   LIG    1       26.398 -20.315   7.135  0.00  0.00    -0.108 NA
ENDBRANCH   8  13
ENDBRANCH   4   7
BRANCH   1  19
ATOM     19  C   LIG    1       25.996 -26.974   7.394  0.00  0.00    +0.150 C 
BRANCH  19  24
ATOM     20  C   LIG    1       23.371 -29.989  10.326  0.00  0.00    +0.088 C 
ATOM     21  C   LIG    1       23.846 -30.124   8.915  0.00  0.00    +0.128 A 
ATOM     22  N   LIG    1       24.530 -29.095   8.396  0.00  0.00    -0.217 NA
ATOM     23  C   LIG    1       24.925 -29.195   7.116  0.00  0.00    +0.135 A 
ATOM     24  N   LIG    1       25.612 -28.096   6.538  0.00  0.00    -0.251 N 
ATOM     25  C   LIG    1       25.868 -28.011   5.175  0.00  0.00    +0.222 C 
ATOM     26  C   LIG    1       25.202 -29.064   4.311  0.00  0.00    +0.101 C 
ATOM     27  C   LIG    1       25.243 -30.426   4.969  0.00  0.00    +0.049 C 
ATOM     28  O   LIG    1       26.482 -27.091   4.656  0.00  0.00    -0.275 OA
ATOM     29  C   LIG    1       24.696 -30.335   6.357  0.00  0.00    +0.014 A 
ATOM     30  C   LIG    1       24.035 -31.374   6.996  0.00  0.00    +0.047 A 
ATOM     31  C   LIG    1       23.794 -32.697   6.332  0.00  0.00    +0.066 C 
ATOM     32  N   LIG    1       23.585 -31.266   8.264  0.00  0.00    -0.237 NA
ENDBRANCH  19  24
ENDBRANCH   1  19
TORSDOF 4
ENDMDL
MODEL 4
REMARK VINA RESULT:      -8.5      4.402      7.875
REMARK  Name = *****
REMARK                            x       y       z     vdW  Elec       q    Type
REMARK                         _______ _______ _______ _____ _____    ______ ____
ROOT
ATOM      1  C   LIG    1       27.544 -19.919   5.483  0.00  0.00    -0.030 A 
ATOM      2  C   LIG    1       27.415 -20.367   6.800  0.00  0.00    +0.006 A 
ATOM      3  C   LIG    1       28.245 -19.867   7.813  0.00  0.00    +0.009 A 
ATOM      4  C   LIG    1       29.249 -18.914   7.551  0.00  0.00    -0.017 A 
ATOM      5  C   LIG    1       29.406 -18.521   6.212  0.00  0.00    +0.009 A 
ATOM      6  C   LIG    1       28.541 -18.976   5.205  0.00  0.00    +0.006 A 
ENDROOT
BRANCH   4   7
ATOM      7  C   LIG    1       30.103 -18.378   8.650  0.00  0.00    -0.007 A 
ATOM      8  C   LIG    1       30.974 -19.154   9.466  0.00  0.00    +0.028 A 
ATOM      9  C   LIG    1       31.690 -18.517  10.509  0.00  0.00    +0.012 A 
ATOM     10  C   LIG    1       31.611 -17.142  10.723  0.00  0.00    +0.001 A 
ATOM     11  C   LIG    1       30.797 -16.371   9.910  0.00  0.00    +0.001 A 
ATOM     12  C   LIG    1       30.046 -16.984   8.906  0.00  0.00    +0.009 A 
BRANCH   8  13
ATOM     13  C   LIG    1       31.231 -20.590   9.294  0.00  0.00    +0.180 A 
ATOM     14  N   LIG    1       32.015 -21.154   8.322  0.00  0.00    -0.239 N 
ATOM     15  H   LIG    1       32.499 -20.714   7.551  0.00  0.00    +0.192 HD
ATOM     16  N   LIG    1       32.049 -22.486   8.454  0.00  0.00    -0.046 NA
ATOM     17  N   LIG    1       31.322 -22.741   9.530  0.00  0.00    -0.023 NA
ATOM     18  N   LIG    1       30.821 -21.580  10.070  0.00  0.00    -0.108 NA
ENDBRANCH   8  13
ENDBRANCH   4   7
BRANCH   1  19
ATOM     19  C   LIG    1       26.630 -20.418   4.380  0.00  0.00    +0.150 C 
BRANCH  19  24
ATOM     20  C   LIG    1       26.145 -24.536   7.099  0.00  0.00    +0.088 C 
ATOM     21  C   LIG    1       25.147 -23.545   6.590  0.00  0.00    +0.128 A 
ATOM     22  N   LIG    1       25.617 -22.506   5.887  0.00  0.00    -0.217 NA
ATOM     23  C   LIG    1       24.729 -21.593   5.460  0.00  0.00    +0.135 A 
ATOM     24  N   LIG    1       25.215 -20.464   4.752  0.00  0.00    -0.251 N 
ATOM     25  C   LIG    1       24.416 -19.365   4.461  0.00  0.00    +0.222 C 
ATOM     26  C   LIG    1       23.047 -19.354   5.113  0.00  0.00    +0.101 C 
ATOM     27  C   LIG    1       22.416 -20.729   5.099  0.00  0.00    +0.049 C 
ATOM     28  O   LIG    1       24.801 -18.394   3.827  0.00  0.00    -0.275 OA
ATOM     29  C   LIG    1       23.364 -21.728   5.679  0.00  0.00    +0.014 A 
ATOM     30  C   LIG    1       22.964 -22.866   6.364  0.00  0.00    +0.047 A 
ATOM     31  C   LIG    1       21.518 -23.191   6.599  0.00  0.00    +0.066 C 
ATOM     32  N   LIG    1       23.849 -23.764   6.844  0.00  0.00    -0.237 NA
ENDBRANCH  19  24
ENDBRANCH   1  19
TORSDOF 4
ENDMDL
MODEL 5
REMARK VINA RESULT:      -8.2      1.934      2.989
REMARK  Name = *****
REMARK                            x       y       z     vdW  Elec       q    Type
REMARK                         _______ _______ _______ _____ _____    ______ ____
ROOT
ATOM      1  C   LIG    1       25.420 -26.926   6.502  0.00  0.00    -0.030 A 
ATOM      2  C   LIG    1       24.063 -26.591   6.495  0.00  0.00    +0.006 A 
ATOM      3  C   LIG    1       23.655 -25.253   6.398  0.00  0.00    +0.009 A 
ATOM      4  C   LIG    1       24.582 -24.195   6.322  0.00  0.00    -0.017 A 
ATOM      5  C   LIG    1       25.940 -24.545   6.394  0.00  0.00    +0.009 A 
ATOM      6  C   LIG    1       26.353 -25.885   6.434  0.00  0.00    +0.006 A 
ENDROOT
BRANCH   4   7
ATOM      7  C   LIG    1       24.122 -22.782   6.194  0.00  0.00    -0.007 A 
ATOM      8  C   LIG    1       24.831 -21.642   6.670  0.00  0.00    +0.028 A 
ATOM      9  C   LIG    1       24.249 -20.359   6.523  0.00  0.00    +0.012 A 
ATOM     10  C   LIG    1       23.030 -20.174   5.874  0.00  0.00    +0.001 A 
ATOM     11  C   LIG    1       22.351 -21.272   5.373  0.00  0.00    +0.001 A 
ATOM     12  C   LIG    1       22.881 -22.551   5.547  0.00  0.00    +0.009 A 
BRANCH   8  13
ATOM     13  C   LIG    1       26.166 -21.676   7.283  0.00  0.00    +0.180 A 
ATOM     14  N   LIG    1       27.352 -21.449   6.637  0.00  0.00    -0.239 N 
ATOM     15  H   LIG    1       27.526 -21.271   5.656  0.00  0.00    +0.192 HD
ATOM     16  N   LIG    1       28.381 -21.544   7.487  0.00  0.00    -0.046 NA
ATOM     17  N   LIG    1       27.829 -21.789   8.665  0.00  0.00    -0.023 NA
ATOM     18  N   LIG    1       26.461 -21.860   8.560  0.00  0.00    -0.108 NA
ENDBRANCH   8  13
ENDBRANCH   4   7
BRANCH   1  19
ATOM     19  C   LIG    1       25.881 -28.370   6.567  0.00  0.00    +0.150 C 
BRANCH  19  24
ATOM     20  C   LIG    1       23.476 -32.465   5.145  0.00  0.00    +0.088 C 
ATOM     21  C   LIG    1       23.743 -31.874   6.492  0.00  0.00    +0.128 A 
ATOM     22  N   LIG    1       24.459 -30.743   6.535  0.00  0.00    -0.217 NA
ATOM     23  C   LIG    1       24.735 -30.229   7.745  0.00  0.00    +0.135 A 
ATOM     24  N   LIG    1       25.530 -29.055   7.811  0.00  0.00    -0.251 N 
ATOM     25  C   LIG    1       26.049 -28.572   9.005  0.00  0.00    +0.222 C 
ATOM     26  C   LIG    1       25.882 -29.477  10.211  0.00  0.00    +0.101 C 
ATOM     27  C   LIG    1       24.518 -30.129  10.229  0.00  0.00    +0.049 C 
ATOM     28  O   LIG    1       26.711 -27.549   9.094  0.00  0.00    -0.275 OA
ATOM     29  C   LIG    1       24.258 -30.799   8.918  0.00  0.00    +0.014 A 
ATOM     30  C   LIG    1       23.474 -31.934   8.773  0.00  0.00    +0.047 A 
ATOM     31  C   LIG    1       22.820 -32.609   9.942  0.00  0.00    +0.066 C 
ATOM     32  N   LIG    1       23.235 -32.491   7.568  0.00  0.00    -0.237 NA
ENDBRANCH  19  24
ENDBRANCH   1  19
TORSDOF 4
ENDMDL
MODEL 6
REMARK VINA RESULT:      -8.0      5.448      8.345
REMARK  Name = *****
REMARK                            x       y       z     vdW  Elec       q    Type
REMARK                         _______ _______ _______ _____ _____    ______ ____
ROOT
ATOM      1  C   LIG    1       24.799 -30.195  11.427  0.00  0.00    -0.030 A 
ATOM      2  C   LIG    1       23.735 -30.344  10.534  0.00  0.00    +0.006 A 
ATOM      3  C   LIG    1       23.967 -30.649   9.186  0.00  0.00    +0.009 A 
ATOM      4  C   LIG    1       25.268 -30.802   8.669  0.00  0.00    -0.017 A 
ATOM      5  C   LIG    1       26.327 -30.588   9.566  0.00  0.00    +0.009 A 
ATOM      6  C   LIG    1       26.100 -30.339  10.928  0.00  0.00    +0.006 A 
ENDROOT
BRANCH   4   7
ATOM      7  C   LIG    1       25.488 -31.153   7.236  0.00  0.00    -0.007 A 
ATOM      8  C   LIG    1       25.404 -30.241   6.146  0.00  0.00    +0.028 A 
ATOM      9  C   LIG    1       25.589 -30.725   4.827  0.00  0.00    +0.012 A 
ATOM     10  C   LIG    1       25.908 -32.058   4.571  0.00  0.00    +0.001 A 
ATOM     11  C   LIG    1       26.031 -32.945   5.627  0.00  0.00    +0.001 A 
ATOM     12  C   LIG    1       25.807 -32.501   6.931  0.00  0.00    +0.009 A 
BRANCH   8  13
ATOM     13  C   LIG    1       25.173 -28.796   6.273  0.00  0.00    +0.180 A 
ATOM     14  N   LIG    1       26.029 -27.894   6.849  0.00  0.00    -0.239 N 
ATOM     15  H   LIG    1       26.912 -28.053   7.314  0.00  0.00    +0.192 HD
ATOM     16  N   LIG    1       25.522 -26.656   6.790  0.00  0.00    -0.046 NA
ATOM     17  N   LIG    1       24.375 -26.787   6.142  0.00  0.00    -0.023 NA
ATOM     18  N   LIG    1       24.151 -28.099   5.803  0.00  0.00    -0.108 NA
ENDBRANCH   8  13
ENDBRANCH   4   7
BRANCH   1  19
ATOM     19  C   LIG    1       24.569 -29.904  12.898  0.00  0.00    +0.150 C 
BRANCH  19  24
ATOM     20  C   LIG    1       20.025 -31.425  14.172  0.00  0.00    +0.088 C 
ATOM     21  C   LIG    1       20.599 -30.065  13.937  0.00  0.00    +0.128 A 
ATOM     22  N   LIG    1       21.899 -29.993  13.620  0.00  0.00    -0.217 NA
ATOM     23  C   LIG    1       22.429 -28.772  13.446  0.00  0.00    +0.135 A 
ATOM     24  N   LIG    1       23.815 -28.676  13.152  0.00  0.00    -0.251 N 
ATOM     25  C   LIG    1       24.499 -27.467  13.170  0.00  0.00    +0.222 C 
ATOM     26  C   LIG    1       23.727 -26.279  13.711  0.00  0.00    +0.101 C 
ATOM     27  C   LIG    1       22.291 -26.289  13.234  0.00  0.00    +0.049 C 
ATOM     28  O   LIG    1       25.684 -27.353  12.893  0.00  0.00    -0.275 OA
ATOM     29  C   LIG    1       21.666 -27.614  13.531  0.00  0.00    +0.014 A 
ATOM     30  C   LIG    1       20.318 -27.789  13.804  0.00  0.00    +0.047 A 
ATOM     31  C   LIG    1       19.354 -26.639  13.840  0.00  0.00    +0.066 C 
ATOM     32  N   LIG    1       19.783 -29.006  14.034  0.00  0.00    -0.237 NA
ENDBRANCH  19  24
ENDBRANCH   1  19
TORSDOF 4
ENDMDL
MODEL 7
REMARK VINA RESULT:      -7.7      5.795      8.292
REMARK  Name = *****
REMARK                            x       y       z     vdW  Elec       q    Type
REMARK                         _______ _______ _______ _____ _____    ______ ____
ROOT
ATOM      1  C   LIG    1       23.713 -30.681  11.264  0.00  0.00    -0.030 A 
ATOM      2  C   LIG    1       22.914 -30.464  10.138  0.00  0.00    +0.006 A 
ATOM      3  C   LIG    1       23.383 -30.777   8.855  0.00  0.00    +0.009 A 
ATOM      4  C   LIG    1       24.672 -31.303   8.640  0.00  0.00    -0.017 A 
ATOM      5  C   LIG    1       25.483 -31.456   9.775  0.00  0.00    +0.009 A 
ATOM      6  C   LIG    1       24.999 -31.198  11.066  0.00  0.00    +0.006 A 
ENDROOT
BRANCH   4   7
ATOM      7  C   LIG    1       25.138 -31.652   7.266  0.00  0.00    -0.007 A 
ATOM      8  C   LIG    1       25.287 -30.731   6.191  0.00  0.00    +0.028 A 
ATOM      9  C   LIG    1       25.693 -31.213   4.922  0.00  0.00    +0.012 A 
ATOM     10  C   LIG    1       26.007 -32.554   4.711  0.00  0.00    +0.001 A 
ATOM     11  C   LIG    1       25.903 -33.452   5.760  0.00  0.00    +0.001 A 
ATOM     12  C   LIG    1       25.460 -33.009   7.007  0.00  0.00    +0.009 A 
BRANCH   8  13
ATOM     13  C   LIG    1       25.088 -29.278   6.293  0.00  0.00    +0.180 A 
ATOM     14  N   LIG    1       25.900 -28.402   6.964  0.00  0.00    -0.239 N 
ATOM     15  H   LIG    1       26.719 -28.587   7.527  0.00  0.00    +0.192 HD
ATOM     16  N   LIG    1       25.442 -27.149   6.849  0.00  0.00    -0.046 NA
ATOM     17  N   LIG    1       24.374 -27.246   6.075  0.00  0.00    -0.023 NA
ATOM     18  N   LIG    1       24.148 -28.552   5.710  0.00  0.00    -0.108 NA
ENDBRANCH   8  13
ENDBRANCH   4   7
BRANCH   1  19
ATOM     19  C   LIG    1       23.210 -30.386  12.665  0.00  0.00    +0.150 C 
BRANCH  19  24
ATOM     20  C   LIG    1       27.727 -28.343  12.623  0.00  0.00    +0.088 C 
ATOM     21  C   LIG    1       26.377 -27.787  12.944  0.00  0.00    +0.128 A 
ATOM     22  N   LIG    1       25.330 -28.616  12.836  0.00  0.00    -0.217 NA
ATOM     23  C   LIG    1       24.110 -28.112  13.086  0.00  0.00    +0.135 A 
ATOM     24  N   LIG    1       22.986 -28.965  12.932  0.00  0.00    -0.251 N 
ATOM     25  C   LIG    1       21.681 -28.490  12.954  0.00  0.00    +0.222 C 
ATOM     26  C   LIG    1       21.528 -26.981  12.954  0.00  0.00    +0.101 C 
ATOM     27  C   LIG    1       22.551 -26.322  13.853  0.00  0.00    +0.049 C 
ATOM     28  O   LIG    1       20.696 -29.206  12.854  0.00  0.00    -0.275 OA
ATOM     29  C   LIG    1       23.922 -26.799  13.498  0.00  0.00    +0.014 A 
ATOM     30  C   LIG    1       25.069 -26.032  13.642  0.00  0.00    +0.047 A 
ATOM     31  C   LIG    1       25.029 -24.626  14.161  0.00  0.00    +0.066 C 
ATOM     32  N   LIG    1       26.294 -26.510  13.342  0.00  0.00    -0.237 NA
ENDBRANCH  19  24
ENDBRANCH   1  19
TORSDOF 4
ENDMDL
MODEL 8
REMARK VINA RESULT:      -7.6      5.769      8.425
REMARK  Name = *****
REMARK                            x       y       z     vdW  Elec       q    Type
REMARK                         _______ _______ _______ _____ _____    ______ ____
ROOT
ATOM      1  C   LIG    1       25.246 -30.800  11.272  0.00  0.00    -0.030 A 
ATOM      2  C   LIG    1       24.174 -31.239  10.490  0.00  0.00    +0.006 A 
ATOM      3  C   LIG    1       24.336 -31.473   9.118  0.00  0.00    +0.009 A 
ATOM      4  C   LIG    1       25.566 -31.264   8.466  0.00  0.00    -0.017 A 
ATOM      5  C   LIG    1       26.616 -30.764   9.254  0.00  0.00    +0.009 A 
ATOM      6  C   LIG    1       26.475 -30.582  10.638  0.00  0.00    +0.006 A 
ENDROOT
BRANCH   4   7
ATOM      7  C   LIG    1       25.720 -31.545   7.009  0.00  0.00    -0.007 A 
ATOM      8  C   LIG    1       25.490 -30.607   5.963  0.00  0.00    +0.028 A 
ATOM      9  C   LIG    1       25.627 -31.028   4.617  0.00  0.00    +0.012 A 
ATOM     10  C   LIG    1       26.037 -32.319   4.289  0.00  0.00    +0.001 A 
ATOM     11  C   LIG    1       26.301 -33.229   5.299  0.00  0.00    +0.001 A 
ATOM     12  C   LIG    1       26.127 -32.850   6.631  0.00  0.00    +0.009 A 
BRANCH   8  13
ATOM     13  C   LIG    1       25.151 -29.191   6.162  0.00  0.00    +0.180 A 
ATOM     14  N   LIG    1       25.943 -28.254   6.773  0.00  0.00    -0.239 N 
ATOM     15  H   LIG    1       26.841 -28.367   7.222  0.00  0.00    +0.192 HD
ATOM     16  N   LIG    1       25.342 -27.058   6.778  0.00  0.00    -0.046 NA
ATOM     17  N   LIG    1       24.201 -27.246   6.135  0.00  0.00    -0.023 NA
ATOM     18  N   LIG    1       24.073 -28.554   5.735  0.00  0.00    -0.108 NA
ENDBRANCH   8  13
ENDBRANCH   4   7
BRANCH   1  19
ATOM     19  C   LIG    1       25.102 -30.578  12.766  0.00  0.00    +0.150 C 
BRANCH  19  24
ATOM     20  C   LIG    1       21.413 -27.276  13.015  0.00  0.00    +0.088 C 
ATOM     21  C   LIG    1       22.887 -27.152  13.230  0.00  0.00    +0.128 A 
ATOM     22  N   LIG    1       23.622 -28.266  13.105  0.00  0.00    -0.217 NA
ATOM     23  C   LIG    1       24.941 -28.168  13.335  0.00  0.00    +0.135 A 
ATOM     24  N   LIG    1       25.727 -29.347  13.250  0.00  0.00    -0.251 N 
ATOM     25  C   LIG    1       27.048 -29.396  13.678  0.00  0.00    +0.222 C 
ATOM     26  C   LIG    1       27.545 -28.171  14.423  0.00  0.00    +0.101 C 
ATOM     27  C   LIG    1       27.038 -26.895  13.790  0.00  0.00    +0.049 C 
ATOM     28  O   LIG    1       27.754 -30.388  13.589  0.00  0.00    -0.275 OA
ATOM     29  C   LIG    1       25.553 -26.958  13.637  0.00  0.00    +0.014 A 
ATOM     30  C   LIG    1       24.723 -25.848  13.685  0.00  0.00    +0.047 A 
ATOM     31  C   LIG    1       25.253 -24.464  13.914  0.00  0.00    +0.066 C 
ATOM     32  N   LIG    1       23.388 -25.941  13.509  0.00  0.00    -0.237 NA
ENDBRANCH  19  24
ENDBRANCH   1  19
TORSDOF 4
ENDMDL
MODEL 9
REMARK VINA RESULT:      -7.2      5.751      9.521
REMARK  Name = *****
REMARK                            x       y       z     vdW  Elec       q    Type
REMARK                         _______ _______ _______ _____ _____    ______ ____
ROOT
ATOM      1  C   LIG    1       24.061 -29.402  11.563  0.00  0.00    -0.030 A 
ATOM      2  C   LIG    1       24.091 -28.389  12.525  0.00  0.00    +0.006 A 
ATOM      3  C   LIG    1       22.908 -27.933  13.124  0.00  0.00    +0.009 A 
ATOM      4  C   LIG    1       21.647 -28.455  12.776  0.00  0.00    -0.017 A 
ATOM      5  C   LIG    1       21.630 -29.428  11.763  0.00  0.00    +0.009 A 
ATOM      6  C   LIG    1       22.814 -29.928  11.202  0.00  0.00    +0.006 A 
ENDROOT
BRANCH   4   7
ATOM      7  C   LIG    1       20.406 -27.971  13.446  0.00  0.00    -0.007 A 
ATOM      8  C   LIG    1       19.554 -28.762  14.267  0.00  0.00    +0.028 A 
ATOM      9  C   LIG    1       18.377 -28.182  14.800  0.00  0.00    +0.012 A 
ATOM     10  C   LIG    1       18.058 -26.841  14.590  0.00  0.00    +0.001 A 
ATOM     11  C   LIG    1       18.899 -26.052  13.824  0.00  0.00    +0.001 A 
ATOM     12  C   LIG    1       20.041 -26.614  13.251  0.00  0.00    +0.009 A 
BRANCH   8  13
ATOM     13  C   LIG    1       19.815 -30.156  14.654  0.00  0.00    +0.180 A 
ATOM     14  N   LIG    1       19.145 -31.256  14.188  0.00  0.00    -0.239 N 
ATOM     15  H   LIG    1       18.355 -31.310  13.560  0.00  0.00    +0.192 HD
ATOM     16  N   LIG    1       19.638 -32.376  14.732  0.00  0.00    -0.046 NA
ATOM     17  N   LIG    1       20.638 -31.971  15.500  0.00  0.00    -0.023 NA
ATOM     18  N   LIG    1       20.770 -30.604  15.453  0.00  0.00    -0.108 NA
ENDBRANCH   8  13
ENDBRANCH   4   7
BRANCH   1  19
ATOM     19  C   LIG    1       25.333 -29.937  10.932  0.00  0.00    +0.150 C 
BRANCH  19  24
ATOM     20  C   LIG    1       24.389 -28.102   6.424  0.00  0.00    +0.088 C 
ATOM     21  C   LIG    1       24.377 -29.497   6.963  0.00  0.00    +0.128 A 
ATOM     22  N   LIG    1       24.709 -29.660   8.251  0.00  0.00    -0.217 NA
ATOM     23  C   LIG    1       24.737 -30.914   8.730  0.00  0.00    +0.135 A 
ATOM     24  N   LIG    1       25.130 -31.109  10.080  0.00  0.00    -0.251 N 
ATOM     25  C   LIG    1       25.400 -32.367  10.604  0.00  0.00    +0.222 C 
ATOM     26  C   LIG    1       25.442 -33.504   9.602  0.00  0.00    +0.101 C 
ATOM     27  C   LIG    1       24.344 -33.373   8.570  0.00  0.00    +0.049 C 
ATOM     28  O   LIG    1       25.710 -32.565  11.769  0.00  0.00    -0.275 OA
ATOM     29  C   LIG    1       24.384 -32.012   7.955  0.00  0.00    +0.014 A 
ATOM     30  C   LIG    1       23.996 -31.741   6.651  0.00  0.00    +0.047 A 
ATOM     31  C   LIG    1       23.506 -32.813   5.724  0.00  0.00    +0.066 C 
ATOM     32  N   LIG    1       24.015 -30.491   6.141  0.00  0.00    -0.237 NA
ENDBRANCH  19  24
ENDBRANCH   1  19
TORSDOF 4
ENDMDL
