MODEL 1
REMARK VINA RESULT:      -7.9      0.000      0.000
REMARK  Name = *****
REMARK                            x       y       z     vdW  Elec       q    Type
REMARK                         _______ _______ _______ _____ _____    ______ ____
ROOT
ATOM      1  N   LIG    1       24.479 -21.255   5.751  0.00  0.00    -0.296 N 
ATOM      2  C   LIG    1       25.786 -20.628   5.736  0.00  0.00    +0.079 C 
ATOM      3  C   LIG    1       26.006 -19.528   4.882  0.00  0.00    +0.051 C 
ATOM      4  C   LIG    1       27.276 -18.975   4.712  0.00  0.00    +0.054 C 
ATOM      5  C   LIG    1       28.342 -19.483   5.437  0.00  0.00    +0.146 C 
ATOM      6  C   LIG    1       28.180 -20.501   6.395  0.00  0.00    +0.086 C 
ATOM      7  F   LIG    1       29.543 -18.925   5.226  0.00  0.00    -0.203 F 
ATOM      8  C   LIG    1       24.860 -18.870   4.217  0.00  0.00    +0.203 C 
ATOM      9  O   LIG    1       25.012 -17.930   3.440  0.00  0.00    -0.286 OA
ATOM     10  C   LIG    1       23.509 -19.342   4.553  0.00  0.00    +0.122 C 
ATOM     11  C   LIG    1       26.866 -21.017   6.574  0.00  0.00    +0.089 C 
ATOM     12 CL   LIG    1       26.508 -21.892   8.049  0.00  0.00    -0.079 Cl
ATOM     13  C   LIG    1       23.424 -20.491   5.240  0.00  0.00    +0.112 C 
ENDROOT
BRANCH   1  20
ATOM     14  C   LIG    1       24.938 -24.870   5.316  0.00  0.00    +0.154 A 
ATOM     15  C   LIG    1       24.005 -25.429   6.188  0.00  0.00    +0.166 A 
ATOM     16  F   LIG    1       23.886 -26.758   6.314  0.00  0.00    -0.202 F 
ATOM     17  C   LIG    1       23.223 -24.600   6.963  0.00  0.00    +0.084 A 
ATOM     18  C   LIG    1       23.395 -23.228   6.844  0.00  0.00    +0.169 A 
ATOM     19  F   LIG    1       22.678 -22.454   7.672  0.00  0.00    -0.202 F 
ATOM     20  C   LIG    1       24.316 -22.689   5.923  0.00  0.00    +0.176 A 
ATOM     21  N   LIG    1       25.068 -23.534   5.152  0.00  0.00    -0.209 NA
BRANCH  14  22
ATOM     22  N   LIG    1       25.748 -25.689   4.526  0.00  0.00    -0.341 N 
ATOM     23  H   LIG    1       25.212 -26.180   3.817  0.00  0.00    +0.144 HD
ATOM     24  H   LIG    1       26.284 -26.308   5.124  0.00  0.00    +0.144 HD
ENDBRANCH  14  22
ENDBRANCH   1  20
BRANCH   6  25
ATOM     25  N   LIG    1       29.284 -20.939   7.180  0.00  0.00    -0.322 NA
ATOM     26  C   LIG    1       30.356 -20.107   7.668  0.00  0.00    +0.138 C 
ATOM     27  C   LIG    1       30.663 -21.207   8.695  0.00  0.00    +0.149 C 
ATOM     28  C   LIG    1       29.241 -21.706   8.400  0.00  0.00    +0.138 C 
BRANCH  27  29
ATOM     29  O   LIG    1       31.749 -22.109   8.370  0.00  0.00    -0.389 OA
ATOM     30  H   LIG    1       31.622 -22.304   7.423  0.00  0.00    +0.210 HD
ENDBRANCH  27  29
ENDBRANCH   6  25
BRANCH  10  31
ATOM     31  C   LIG    1       22.267 -18.661   4.139  0.00  0.00    +0.342 C 
ATOM     32  O   LIG    1       21.276 -19.251   3.750  0.00  0.00    -0.245 OA
BRANCH  31  33
ATOM     33  O   LIG    1       22.318 -17.313   4.226  0.00  0.00    -0.477 OA
ATOM     34  H   LIG    1       23.091 -16.964   4.732  0.00  0.00    +0.295 HD
ENDBRANCH  31  33
ENDBRANCH  10  31
TORSDOF 6
ENDMDL
MODEL 2
REMARK VINA RESULT:      -6.7      6.802      9.958
REMARK  Name = *****
REMARK                            x       y       z     vdW  Elec       q    Type
REMARK                         _______ _______ _______ _____ _____    ______ ____
ROOT
ATOM      1  N   LIG    1       24.939 -29.475   6.665  0.00  0.00    -0.296 N 
ATOM      2  C   LIG    1       24.872 -29.717   8.093  0.00  0.00    +0.079 C 
ATOM      3  C   LIG    1       24.102 -30.799   8.567  0.00  0.00    +0.051 C 
ATOM      4  C   LIG    1       23.878 -30.998   9.929  0.00  0.00    +0.054 C 
ATOM      5  C   LIG    1       24.466 -30.143  10.848  0.00  0.00    +0.146 C 
ATOM      6  C   LIG    1       25.342 -29.113  10.459  0.00  0.00    +0.086 C 
ATOM      7  F   LIG    1       24.207 -30.371  12.144  0.00  0.00    -0.203 F 
ATOM      8  C   LIG    1       23.592 -31.813   7.618  0.00  0.00    +0.203 C 
ATOM      9  O   LIG    1       22.889 -32.752   7.984  0.00  0.00    -0.286 OA
ATOM     10  C   LIG    1       23.995 -31.695   6.208  0.00  0.00    +0.122 C 
ATOM     11  C   LIG    1       25.582 -28.960   9.065  0.00  0.00    +0.089 C 
ATOM     12 CL   LIG    1       27.000 -28.065   8.555  0.00  0.00    -0.079 Cl
ATOM     13  C   LIG    1       24.583 -30.548   5.842  0.00  0.00    +0.112 C 
ENDROOT
BRANCH   1  20
ATOM     14  C   LIG    1       24.171 -25.932   6.084  0.00  0.00    +0.154 A 
ATOM     15  C   LIG    1       25.049 -25.567   5.065  0.00  0.00    +0.166 A 
ATOM     16  F   LIG    1       25.069 -24.315   4.586  0.00  0.00    -0.202 F 
ATOM     17  C   LIG    1       25.939 -26.498   4.574  0.00  0.00    +0.084 A 
ATOM     18  C   LIG    1       25.927 -27.775   5.116  0.00  0.00    +0.169 A 
ATOM     19  F   LIG    1       26.860 -28.630   4.674  0.00  0.00    -0.202 F 
ATOM     20  C   LIG    1       24.999 -28.130   6.116  0.00  0.00    +0.176 A 
ATOM     21  N   LIG    1       24.113 -27.192   6.575  0.00  0.00    -0.209 NA
BRANCH  14  22
ATOM     22  N   LIG    1       23.265 -25.006   6.605  0.00  0.00    -0.341 N 
ATOM     23  H   LIG    1       22.609 -24.682   5.900  0.00  0.00    +0.144 HD
ATOM     24  H   LIG    1       23.775 -24.253   7.053  0.00  0.00    +0.144 HD
ENDBRANCH  14  22
ENDBRANCH   1  20
BRANCH   6  25
ATOM     25  N   LIG    1       25.994 -28.309  11.437  0.00  0.00    -0.322 NA
ATOM     26  C   LIG    1       25.368 -27.705  12.587  0.00  0.00    +0.138 C 
ATOM     27  C   LIG    1       26.770 -27.563  13.200  0.00  0.00    +0.149 C 
ATOM     28  C   LIG    1       27.190 -28.628  12.177  0.00  0.00    +0.138 C 
BRANCH  27  29
ATOM     29  O   LIG    1       27.398 -26.264  13.082  0.00  0.00    -0.389 OA
ATOM     30  H   LIG    1       27.372 -26.072  12.126  0.00  0.00    +0.210 HD
ENDBRANCH  27  29
ENDBRANCH   6  25
BRANCH  10  31
ATOM     31  C   LIG    1       23.744 -32.731   5.187  0.00  0.00    +0.342 C 
ATOM     32  O   LIG    1       24.623 -33.234   4.511  0.00  0.00    -0.245 OA
BRANCH  31  33
ATOM     33  O   LIG    1       22.445 -33.081   5.059  0.00  0.00    -0.477 OA
ATOM     34  H   LIG    1       21.855 -32.733   5.771  0.00  0.00    +0.295 HD
ENDBRANCH  31  33
ENDBRANCH  10  31
TORSDOF 6
ENDMDL
MODEL 3
REMARK VINA RESULT:      -6.7      9.421     10.659
REMARK  Name = *****
REMARK                            x       y       z     vdW  Elec       q    Type
REMARK                         _______ _______ _______ _____ _____    ______ ____
ROOT
ATOM      1  N   LIG    1       23.489 -29.945  11.750  0.00  0.00    -0.296 N 
ATOM      2  C   LIG    1       23.729 -28.746  12.528  0.00  0.00    +0.079 C 
ATOM      3  C   LIG    1       22.639 -27.911  12.850  0.00  0.00    +0.051 C 
ATOM      4  C   LIG    1       22.820 -26.673  13.466  0.00  0.00    +0.054 C 
ATOM      5  C   LIG    1       24.098 -26.270  13.820  0.00  0.00    +0.146 C 
ATOM      6  C   LIG    1       25.221 -27.097  13.640  0.00  0.00    +0.086 C 
ATOM      7  F   LIG    1       24.218 -25.065  14.398  0.00  0.00    -0.203 F 
ATOM      8  C   LIG    1       21.255 -28.385  12.624  0.00  0.00    +0.203 C 
ATOM      9  O   LIG    1       20.278 -27.677  12.859  0.00  0.00    -0.286 OA
ATOM     10  C   LIG    1       21.073 -29.765  12.151  0.00  0.00    +0.122 C 
ATOM     11  C   LIG    1       24.999 -28.370  13.045  0.00  0.00    +0.089 C 
ATOM     12 CL   LIG    1       26.220 -29.610  13.246  0.00  0.00    -0.079 Cl
ATOM     13  C   LIG    1       22.169 -30.407  11.722  0.00  0.00    +0.112 C 
ENDROOT
BRANCH   1  20
ATOM     14  C   LIG    1       25.652 -30.058   8.786  0.00  0.00    +0.154 A 
ATOM     15  C   LIG    1       26.230 -31.325   8.848  0.00  0.00    +0.166 A 
ATOM     16  F   LIG    1       27.106 -31.730   7.918  0.00  0.00    -0.202 F 
ATOM     17  C   LIG    1       25.927 -32.156   9.905  0.00  0.00    +0.084 A 
ATOM     18  C   LIG    1       25.050 -31.696  10.877  0.00  0.00    +0.169 A 
ATOM     19  F   LIG    1       24.843 -32.496  11.933  0.00  0.00    -0.202 F 
ATOM     20  C   LIG    1       24.446 -30.427  10.767  0.00  0.00    +0.176 A 
ATOM     21  N   LIG    1       24.750 -29.627   9.698  0.00  0.00    -0.209 NA
BRANCH  14  22
ATOM     22  N   LIG    1       25.948 -29.195   7.730  0.00  0.00    -0.341 N 
ATOM     23  H   LIG    1       26.947 -29.139   7.556  0.00  0.00    +0.144 HD
ATOM     24  H   LIG    1       25.521 -28.291   7.905  0.00  0.00    +0.144 HD
ENDBRANCH  14  22
ENDBRANCH   1  20
BRANCH   6  25
ATOM     25  N   LIG    1       26.506 -26.682  14.093  0.00  0.00    -0.322 NA
ATOM     26  C   LIG    1       27.249 -25.547  13.603  0.00  0.00    +0.138 C 
ATOM     27  C   LIG    1       28.081 -25.611  14.893  0.00  0.00    +0.149 C 
ATOM     28  C   LIG    1       26.920 -26.445  15.454  0.00  0.00    +0.138 C 
BRANCH  27  29
ATOM     29  O   LIG    1       29.368 -26.268  14.800  0.00  0.00    -0.389 OA
ATOM     30  H   LIG    1       29.150 -27.218  14.784  0.00  0.00    +0.210 HD
ENDBRANCH  27  29
ENDBRANCH   6  25
BRANCH  10  31
ATOM     31  C   LIG    1       19.767 -30.449  12.076  0.00  0.00    +0.342 C 
ATOM     32  O   LIG    1       19.499 -31.293  11.240  0.00  0.00    -0.245 OA
BRANCH  31  33
ATOM     33  O   LIG    1       18.881 -30.058  13.019  0.00  0.00    -0.477 OA
ATOM     34  H   LIG    1       17.942 -30.291  12.820  0.00  0.00    +0.295 HD
ENDBRANCH  31  33
ENDBRANCH  10  31
TORSDOF 6
ENDMDL
MODEL 4
REMARK VINA RESULT:      -6.3      9.465     11.004
REMARK  Name = *****
REMARK                            x       y       z     vdW  Elec       q    Type
REMARK                         _______ _______ _______ _____ _____    ______ ____
ROOT
ATOM      1  N   LIG    1       23.122 -30.876   9.895  0.00  0.00    -0.296 N 
ATOM      2  C   LIG    1       23.594 -30.233  11.105  0.00  0.00    +0.079 C 
ATOM      3  C   LIG    1       22.657 -29.620  11.962  0.00  0.00    +0.051 C 
ATOM      4  C   LIG    1       23.056 -28.860  13.062  0.00  0.00    +0.054 C 
ATOM      5  C   LIG    1       24.407 -28.743  13.354  0.00  0.00    +0.146 C 
ATOM      6  C   LIG    1       25.394 -29.421  12.616  0.00  0.00    +0.086 C 
ATOM      7  F   LIG    1       24.737 -27.989  14.413  0.00  0.00    -0.203 F 
ATOM      8  C   LIG    1       21.210 -29.857  11.764  0.00  0.00    +0.203 C 
ATOM      9  O   LIG    1       20.359 -29.316  12.467  0.00  0.00    -0.286 OA
ATOM     10  C   LIG    1       20.810 -30.811  10.719  0.00  0.00    +0.122 C 
ATOM     11  C   LIG    1       24.952 -30.220  11.525  0.00  0.00    +0.089 C 
ATOM     12 CL   LIG    1       26.032 -31.449  10.900  0.00  0.00    -0.079 Cl
ATOM     13  C   LIG    1       21.763 -31.204   9.862  0.00  0.00    +0.112 C 
ENDROOT
BRANCH   1  20
ATOM     14  C   LIG    1       25.034 -29.605   7.031  0.00  0.00    +0.154 A 
ATOM     15  C   LIG    1       25.319 -30.750   6.290  0.00  0.00    +0.166 A 
ATOM     16  F   LIG    1       26.029 -30.679   5.155  0.00  0.00    -0.202 F 
ATOM     17  C   LIG    1       24.899 -31.978   6.754  0.00  0.00    +0.084 A 
ATOM     18  C   LIG    1       24.203 -32.028   7.954  0.00  0.00    +0.169 A 
ATOM     19  F   LIG    1       23.883 -33.245   8.418  0.00  0.00    -0.202 F 
ATOM     20  C   LIG    1       23.890 -30.850   8.662  0.00  0.00    +0.176 A 
ATOM     21  N   LIG    1       24.304 -29.641   8.170  0.00  0.00    -0.209 NA
BRANCH  14  22
ATOM     22  N   LIG    1       25.454 -28.350   6.586  0.00  0.00    -0.341 N 
ATOM     23  H   LIG    1       26.351 -28.398   6.112  0.00  0.00    +0.144 HD
ATOM     24  H   LIG    1       25.446 -27.698   7.363  0.00  0.00    +0.144 HD
ENDBRANCH  14  22
ENDBRANCH   1  20
BRANCH   6  25
ATOM     25  N   LIG    1       26.764 -29.343  12.997  0.00  0.00    -0.322 NA
ATOM     26  C   LIG    1       27.502 -28.131  13.252  0.00  0.00    +0.138 C 
ATOM     27  C   LIG    1       28.526 -28.985  14.014  0.00  0.00    +0.149 C 
ATOM     28  C   LIG    1       27.411 -30.039  14.082  0.00  0.00    +0.138 C 
BRANCH  27  29
ATOM     29  O   LIG    1       29.726 -29.353  13.292  0.00  0.00    -0.389 OA
ATOM     30  H   LIG    1       29.462 -29.313  12.354  0.00  0.00    +0.210 HD
ENDBRANCH  27  29
ENDBRANCH   6  25
BRANCH  10  31
ATOM     31  C   LIG    1       19.432 -31.309  10.537  0.00  0.00    +0.342 C 
ATOM     32  O   LIG    1       19.056 -32.400  10.926  0.00  0.00    -0.245 OA
BRANCH  31  33
ATOM     33  O   LIG    1       18.611 -30.448   9.895  0.00  0.00    -0.477 OA
ATOM     34  H   LIG    1       17.664 -30.726   9.872  0.00  0.00    +0.295 HD
ENDBRANCH  31  33
ENDBRANCH  10  31
TORSDOF 6
ENDMDL
MODEL 5
REMARK VINA RESULT:      -6.3      9.999     11.582
REMARK  Name = *****
REMARK                            x       y       z     vdW  Elec       q    Type
REMARK                         _______ _______ _______ _____ _____    ______ ____
ROOT
ATOM      1  N   LIG    1       24.228 -28.489  12.497  0.00  0.00    -0.296 N 
ATOM      2  C   LIG    1       23.848 -29.422  11.456  0.00  0.00    +0.079 C 
ATOM      3  C   LIG    1       22.508 -29.856  11.382  0.00  0.00    +0.051 C 
ATOM      4  C   LIG    1       22.110 -30.861  10.501  0.00  0.00    +0.054 C 
ATOM      5  C   LIG    1       23.041 -31.415   9.635  0.00  0.00    +0.146 C 
ATOM      6  C   LIG    1       24.367 -30.953   9.567  0.00  0.00    +0.086 C 
ATOM      7  F   LIG    1       22.608 -32.387   8.818  0.00  0.00    -0.203 F 
ATOM      8  C   LIG    1       21.467 -29.175  12.184  0.00  0.00    +0.203 C 
ATOM      9  O   LIG    1       20.295 -29.542  12.175  0.00  0.00    -0.286 OA
ATOM     10  C   LIG    1       21.868 -27.995  12.964  0.00  0.00    +0.122 C 
ATOM     11  C   LIG    1       24.733 -29.900  10.451  0.00  0.00    +0.089 C 
ATOM     12 CL   LIG    1       26.167 -28.963  10.085  0.00  0.00    -0.079 Cl
ATOM     13  C   LIG    1       23.184 -27.773  13.093  0.00  0.00    +0.112 C 
ENDROOT
BRANCH   1  20
ATOM     14  C   LIG    1       27.160 -29.816  14.261  0.00  0.00    +0.154 A 
ATOM     15  C   LIG    1       27.976 -28.699  14.433  0.00  0.00    +0.166 A 
ATOM     16  F   LIG    1       29.166 -28.800  15.041  0.00  0.00    -0.202 F 
ATOM     17  C   LIG    1       27.569 -27.482  13.931  0.00  0.00    +0.084 A 
ATOM     18  C   LIG    1       26.352 -27.413  13.269  0.00  0.00    +0.169 A 
ATOM     19  F   LIG    1       26.026 -26.233  12.721  0.00  0.00    -0.202 F 
ATOM     20  C   LIG    1       25.526 -28.549  13.147  0.00  0.00    +0.176 A 
ATOM     21  N   LIG    1       25.946 -29.744  13.669  0.00  0.00    -0.209 NA
BRANCH  14  22
ATOM     22  N   LIG    1       27.553 -31.063  14.753  0.00  0.00    -0.341 N 
ATOM     23  H   LIG    1       27.988 -30.988  15.667  0.00  0.00    +0.144 HD
ATOM     24  H   LIG    1       28.139 -31.525  14.067  0.00  0.00    +0.144 HD
ENDBRANCH  14  22
ENDBRANCH   1  20
BRANCH   6  25
ATOM     25  N   LIG    1       25.272 -31.490   8.607  0.00  0.00    -0.322 NA
ATOM     26  C   LIG    1       25.686 -32.868   8.515  0.00  0.00    +0.138 C 
ATOM     27  C   LIG    1       26.126 -32.577   7.072  0.00  0.00    +0.149 C 
ATOM     28  C   LIG    1       25.213 -31.347   7.173  0.00  0.00    +0.138 C 
BRANCH  27  29
ATOM     29  O   LIG    1       27.537 -32.325   6.865  0.00  0.00    -0.389 OA
ATOM     30  H   LIG    1       27.879 -32.134   7.758  0.00  0.00    +0.210 HD
ENDBRANCH  27  29
ENDBRANCH   6  25
BRANCH  10  31
ATOM     31  C   LIG    1       20.919 -27.091  13.643  0.00  0.00    +0.342 C 
ATOM     32  O   LIG    1       21.052 -26.722  14.797  0.00  0.00    -0.245 OA
BRANCH  31  33
ATOM     33  O   LIG    1       19.878 -26.700  12.875  0.00  0.00    -0.477 OA
ATOM     34  H   LIG    1       20.132 -26.363  11.982  0.00  0.00    +0.295 HD
ENDBRANCH  31  33
ENDBRANCH  10  31
TORSDOF 6
ENDMDL
MODEL 6
REMARK VINA RESULT:      -5.9     10.277     11.750
REMARK  Name = *****
REMARK                            x       y       z     vdW  Elec       q    Type
REMARK                         _______ _______ _______ _____ _____    ______ ____
ROOT
ATOM      1  N   LIG    1       23.879 -29.006  12.038  0.00  0.00    -0.296 N 
ATOM      2  C   LIG    1       23.581 -29.996  11.022  0.00  0.00    +0.079 C 
ATOM      3  C   LIG    1       22.289 -30.558  10.974  0.00  0.00    +0.051 C 
ATOM      4  C   LIG    1       21.981 -31.617  10.120  0.00  0.00    +0.054 C 
ATOM      5  C   LIG    1       22.952 -32.099   9.257  0.00  0.00    +0.146 C 
ATOM      6  C   LIG    1       24.227 -31.513   9.162  0.00  0.00    +0.086 C 
ATOM      7  F   LIG    1       22.608 -33.127   8.466  0.00  0.00    -0.203 F 
ATOM      8  C   LIG    1       21.195 -29.961  11.772  0.00  0.00    +0.203 C 
ATOM      9  O   LIG    1       20.063 -30.440  11.786  0.00  0.00    -0.286 OA
ATOM     10  C   LIG    1       21.487 -28.730  12.522  0.00  0.00    +0.122 C 
ATOM     11  C   LIG    1       24.498 -30.410  10.018  0.00  0.00    +0.089 C 
ATOM     12 CL   LIG    1       25.832 -29.348   9.614  0.00  0.00    -0.079 Cl
ATOM     13  C   LIG    1       22.776 -28.380  12.630  0.00  0.00    +0.112 C 
ENDROOT
BRANCH   1  20
ATOM     14  C   LIG    1       27.047 -27.633  13.285  0.00  0.00    +0.154 A 
ATOM     15  C   LIG    1       27.692 -28.739  13.834  0.00  0.00    +0.166 A 
ATOM     16  F   LIG    1       28.898 -28.621  14.408  0.00  0.00    -0.202 F 
ATOM     17  C   LIG    1       27.062 -29.965  13.823  0.00  0.00    +0.084 A 
ATOM     18  C   LIG    1       25.796 -30.052  13.260  0.00  0.00    +0.169 A 
ATOM     19  F   LIG    1       25.177 -31.239  13.342  0.00  0.00    -0.202 F 
ATOM     20  C   LIG    1       25.184 -28.926  12.673  0.00  0.00    +0.176 A 
ATOM     21  N   LIG    1       25.839 -27.724  12.681  0.00  0.00    -0.209 NA
BRANCH  14  22
ATOM     22  N   LIG    1       27.661 -26.379  13.290  0.00  0.00    -0.341 N 
ATOM     23  H   LIG    1       28.275 -26.256  12.491  0.00  0.00    +0.144 HD
ATOM     24  H   LIG    1       28.127 -26.238  14.180  0.00  0.00    +0.144 HD
ENDBRANCH  14  22
ENDBRANCH   1  20
BRANCH   6  25
ATOM     25  N   LIG    1       25.170 -31.983   8.203  0.00  0.00    -0.322 NA
ATOM     26  C   LIG    1       25.503 -31.336   6.958  0.00  0.00    +0.138 C 
ATOM     27  C   LIG    1       26.793 -32.170   6.938  0.00  0.00    +0.149 C 
ATOM     28  C   LIG    1       26.539 -32.371   8.439  0.00  0.00    +0.138 C 
BRANCH  27  29
ATOM     29  O   LIG    1       26.780 -33.359   6.111  0.00  0.00    -0.389 OA
ATOM     30  H   LIG    1       26.308 -33.083   5.304  0.00  0.00    +0.210 HD
ENDBRANCH  27  29
ENDBRANCH   6  25
BRANCH  10  31
ATOM     31  C   LIG    1       20.462 -27.906  13.192  0.00  0.00    +0.342 C 
ATOM     32  O   LIG    1       20.544 -26.697  13.308  0.00  0.00    -0.245 OA
BRANCH  31  33
ATOM     33  O   LIG    1       19.412 -28.609  13.672  0.00  0.00    -0.477 OA
ATOM     34  H   LIG    1       19.326 -28.595  14.656  0.00  0.00    +0.295 HD
ENDBRANCH  31  33
ENDBRANCH  10  31
TORSDOF 6
ENDMDL
MODEL 7
REMARK VINA RESULT:      -5.7      1.565      1.921
REMARK  Name = *****
REMARK                            x       y       z     vdW  Elec       q    Type
REMARK                         _______ _______ _______ _____ _____    ______ ____
ROOT
ATOM      1  N   LIG    1       24.931 -22.527   5.898  0.00  0.00    -0.296 N 
ATOM      2  C   LIG    1       26.010 -21.564   5.993  0.00  0.00    +0.079 C 
ATOM      3  C   LIG    1       25.888 -20.334   5.316  0.00  0.00    +0.051 C 
ATOM      4  C   LIG    1       26.947 -19.428   5.245  0.00  0.00    +0.054 C 
ATOM      5  C   LIG    1       28.135 -19.716   5.900  0.00  0.00    +0.146 C 
ATOM      6  C   LIG    1       28.291 -20.867   6.693  0.00  0.00    +0.086 C 
ATOM      7  F   LIG    1       29.125 -18.818   5.789  0.00  0.00    -0.203 F 
ATOM      8  C   LIG    1       24.585 -19.933   4.742  0.00  0.00    +0.203 C 
ATOM      9  O   LIG    1       24.444 -18.886   4.115  0.00  0.00    -0.286 OA
ATOM     10  C   LIG    1       23.430 -20.810   4.987  0.00  0.00    +0.122 C 
ATOM     11  C   LIG    1       27.181 -21.752   6.778  0.00  0.00    +0.089 C 
ATOM     12 CL   LIG    1       27.126 -22.899   8.101  0.00  0.00    -0.079 Cl
ATOM     13  C   LIG    1       23.690 -22.024   5.494  0.00  0.00    +0.112 C 
ENDROOT
BRANCH   1  20
ATOM     14  C   LIG    1       25.780 -25.931   6.978  0.00  0.00    +0.154 A 
ATOM     15  C   LIG    1       25.710 -26.678   5.803  0.00  0.00    +0.166 A 
ATOM     16  F   LIG    1       25.951 -27.996   5.807  0.00  0.00    -0.202 F 
ATOM     17  C   LIG    1       25.345 -26.056   4.629  0.00  0.00    +0.084 A 
ATOM     18  C   LIG    1       25.059 -24.698   4.660  0.00  0.00    +0.169 A 
ATOM     19  F   LIG    1       24.627 -24.144   3.518  0.00  0.00    -0.202 F 
ATOM     20  C   LIG    1       25.180 -23.959   5.854  0.00  0.00    +0.176 A 
ATOM     21  N   LIG    1       25.562 -24.596   7.004  0.00  0.00    -0.209 NA
BRANCH  14  22
ATOM     22  N   LIG    1       26.140 -26.539   8.183  0.00  0.00    -0.341 N 
ATOM     23  H   LIG    1       26.803 -25.975   8.707  0.00  0.00    +0.144 HD
ATOM     24  H   LIG    1       26.472 -27.479   7.999  0.00  0.00    +0.144 HD
ENDBRANCH  14  22
ENDBRANCH   1  20
BRANCH   6  25
ATOM     25  N   LIG    1       29.497 -21.087   7.419  0.00  0.00    -0.322 NA
ATOM     26  C   LIG    1       30.616 -20.180   7.493  0.00  0.00    +0.138 C 
ATOM     27  C   LIG    1       31.072 -20.940   8.747  0.00  0.00    +0.149 C 
ATOM     28  C   LIG    1       29.629 -21.463   8.804  0.00  0.00    +0.138 C 
BRANCH  27  29
ATOM     29  O   LIG    1       32.114 -21.928   8.561  0.00  0.00    -0.389 OA
ATOM     30  H   LIG    1       32.004 -22.537   9.315  0.00  0.00    +0.210 HD
ENDBRANCH  27  29
ENDBRANCH   6  25
BRANCH  10  31
ATOM     31  C   LIG    1       22.035 -20.452   4.664  0.00  0.00    +0.342 C 
ATOM     32  O   LIG    1       21.136 -21.269   4.577  0.00  0.00    -0.245 OA
BRANCH  31  33
ATOM     33  O   LIG    1       21.833 -19.130   4.468  0.00  0.00    -0.477 OA
ATOM     34  H   LIG    1       21.675 -18.875   3.527  0.00  0.00    +0.295 HD
ENDBRANCH  31  33
ENDBRANCH  10  31
TORSDOF 6
ENDMDL
MODEL 8
REMARK VINA RESULT:      -5.6      9.639     11.431
REMARK  Name = *****
REMARK                            x       y       z     vdW  Elec       q    Type
REMARK                         _______ _______ _______ _____ _____    ______ ____
ROOT
ATOM      1  N   LIG    1       23.520 -31.449  10.679  0.00  0.00    -0.296 N 
ATOM      2  C   LIG    1       23.447 -30.253  11.494  0.00  0.00    +0.079 C 
ATOM      3  C   LIG    1       22.186 -29.807  11.941  0.00  0.00    +0.051 C 
ATOM      4  C   LIG    1       22.031 -28.588  12.602  0.00  0.00    +0.054 C 
ATOM      5  C   LIG    1       23.149 -27.815  12.875  0.00  0.00    +0.146 C 
ATOM      6  C   LIG    1       24.452 -28.247  12.566  0.00  0.00    +0.086 C 
ATOM      7  F   LIG    1       22.943 -26.646  13.500  0.00  0.00    -0.203 F 
ATOM      8  C   LIG    1       21.002 -30.683  11.801  0.00  0.00    +0.203 C 
ATOM      9  O   LIG    1       19.880 -30.320  12.146  0.00  0.00    -0.286 OA
ATOM     10  C   LIG    1       21.213 -32.040  11.276  0.00  0.00    +0.122 C 
ATOM     11  C   LIG    1       24.580 -29.512  11.928  0.00  0.00    +0.089 C 
ATOM     12 CL   LIG    1       26.137 -30.314  11.972  0.00  0.00    -0.079 Cl
ATOM     13  C   LIG    1       22.410 -32.299  10.732  0.00  0.00    +0.112 C 
ENDROOT
BRANCH   1  20
ATOM     14  C   LIG    1       26.293 -32.754   8.658  0.00  0.00    +0.154 A 
ATOM     15  C   LIG    1       26.375 -31.859   7.593  0.00  0.00    +0.166 A 
ATOM     16  F   LIG    1       27.285 -32.022   6.623  0.00  0.00    -0.202 F 
ATOM     17  C   LIG    1       25.479 -30.814   7.517  0.00  0.00    +0.084 A 
ATOM     18  C   LIG    1       24.520 -30.692   8.513  0.00  0.00    +0.169 A 
ATOM     19  F   LIG    1       23.613 -29.716   8.364  0.00  0.00    -0.202 F 
ATOM     20  C   LIG    1       24.487 -31.587   9.602  0.00  0.00    +0.176 A 
ATOM     21  N   LIG    1       25.399 -32.606   9.663  0.00  0.00    -0.209 NA
BRANCH  14  22
ATOM     22  N   LIG    1       27.184 -33.825   8.754  0.00  0.00    -0.341 N 
ATOM     23  H   LIG    1       27.872 -33.812   8.008  0.00  0.00    +0.144 HD
ATOM     24  H   LIG    1       26.661 -34.693   8.803  0.00  0.00    +0.144 HD
ENDBRANCH  14  22
ENDBRANCH   1  20
BRANCH   6  25
ATOM     25  N   LIG    1       25.581 -27.463  12.937  0.00  0.00    -0.322 NA
ATOM     26  C   LIG    1       26.294 -27.548  14.188  0.00  0.00    +0.138 C 
ATOM     27  C   LIG    1       27.469 -26.838  13.498  0.00  0.00    +0.149 C 
ATOM     28  C   LIG    1       26.796 -27.268  12.186  0.00  0.00    +0.138 C 
BRANCH  27  29
ATOM     29  O   LIG    1       27.589 -25.414  13.731  0.00  0.00    -0.389 OA
ATOM     30  H   LIG    1       26.893 -25.219  14.385  0.00  0.00    +0.210 HD
ENDBRANCH  27  29
ENDBRANCH   6  25
BRANCH  10  31
ATOM     31  C   LIG    1       20.180 -33.095  11.270  0.00  0.00    +0.342 C 
ATOM     32  O   LIG    1       19.811 -33.666  10.260  0.00  0.00    -0.245 OA
BRANCH  31  33
ATOM     33  O   LIG    1       19.670 -33.379  12.489  0.00  0.00    -0.477 OA
ATOM     34  H   LIG    1       19.634 -32.610  13.107  0.00  0.00    +0.295 HD
ENDBRANCH  31  33
ENDBRANCH  10  31
TORSDOF 6
ENDMDL
MODEL 9
REMARK VINA RESULT:      -5.6     10.053     11.162
REMARK  Name = *****
REMARK                            x       y       z     vdW  Elec       q    Type
REMARK                         _______ _______ _______ _____ _____    ______ ____
ROOT
ATOM      1  N   LIG    1       23.681 -30.591  10.478  0.00  0.00    -0.296 N 
ATOM      2  C   LIG    1       25.024 -30.123  10.759  0.00  0.00    +0.079 C 
ATOM      3  C   LIG    1       26.074 -30.505   9.899  0.00  0.00    +0.051 C 
ATOM      4  C   LIG    1       27.406 -30.212  10.194  0.00  0.00    +0.054 C 
ATOM      5  C   LIG    1       27.707 -29.483  11.334  0.00  0.00    +0.146 C 
ATOM      6  C   LIG    1       26.707 -28.965  12.177  0.00  0.00    +0.086 C 
ATOM      7  F   LIG    1       29.003 -29.241  11.577  0.00  0.00    -0.203 F 
ATOM      8  C   LIG    1       25.768 -31.147   8.602  0.00  0.00    +0.203 C 
ATOM      9  O   LIG    1       26.654 -31.526   7.839  0.00  0.00    -0.286 OA
ATOM     10  C   LIG    1       24.355 -31.278   8.219  0.00  0.00    +0.122 C 
ATOM     11  C   LIG    1       25.356 -29.247  11.829  0.00  0.00    +0.089 C 
ATOM     12 CL   LIG    1       24.091 -28.249  12.517  0.00  0.00    -0.079 Cl
ATOM     13  C   LIG    1       23.445 -31.037   9.174  0.00  0.00    +0.112 C 
ENDROOT
BRANCH   1  20
ATOM     14  C   LIG    1       20.682 -30.570  12.596  0.00  0.00    +0.154 A 
ATOM     15  C   LIG    1       20.963 -31.521  13.574  0.00  0.00    +0.166 A 
ATOM     16  F   LIG    1       20.074 -31.803  14.538  0.00  0.00    -0.202 F 
ATOM     17  C   LIG    1       22.154 -32.211  13.525  0.00  0.00    +0.084 A 
ATOM     18  C   LIG    1       23.039 -31.930  12.492  0.00  0.00    +0.169 A 
ATOM     19  F   LIG    1       24.150 -32.678  12.426  0.00  0.00    -0.202 F 
ATOM     20  C   LIG    1       22.749 -30.932  11.540  0.00  0.00    +0.176 A 
ATOM     21  N   LIG    1       21.565 -30.249  11.622  0.00  0.00    -0.209 NA
BRANCH  14  22
ATOM     22  N   LIG    1       19.479 -29.862  12.619  0.00  0.00    -0.341 N 
ATOM     23  H   LIG    1       18.675 -30.483  12.610  0.00  0.00    +0.144 HD
ATOM     24  H   LIG    1       19.471 -29.187  11.862  0.00  0.00    +0.144 HD
ENDBRANCH  14  22
ENDBRANCH   1  20
BRANCH   6  25
ATOM     25  N   LIG    1       27.051 -28.150  13.292  0.00  0.00    -0.322 NA
ATOM     26  C   LIG    1       26.921 -26.715  13.362  0.00  0.00    +0.138 C 
ATOM     27  C   LIG    1       26.995 -26.842  14.891  0.00  0.00    +0.149 C 
ATOM     28  C   LIG    1       26.632 -28.316  14.662  0.00  0.00    +0.138 C 
BRANCH  27  29
ATOM     29  O   LIG    1       28.282 -26.577  15.500  0.00  0.00    -0.389 OA
ATOM     30  H   LIG    1       28.209 -26.965  16.391  0.00  0.00    +0.210 HD
ENDBRANCH  27  29
ENDBRANCH   6  25
BRANCH  10  31
ATOM     31  C   LIG    1       23.895 -31.702   6.882  0.00  0.00    +0.342 C 
ATOM     32  O   LIG    1       23.329 -30.959   6.100  0.00  0.00    -0.245 OA
BRANCH  31  33
ATOM     33  O   LIG    1       24.155 -32.996   6.590  0.00  0.00    -0.477 OA
ATOM     34  H   LIG    1       23.424 -33.464   6.119  0.00  0.00    +0.295 HD
ENDBRANCH  31  33
ENDBRANCH  10  31
TORSDOF 6
ENDMDL
