MODEL 1
REMARK VINA RESULT:      -6.0      0.000      0.000
REMARK  Name = *****
REMARK                            x       y       z     vdW  Elec       q    Type
REMARK                         _______ _______ _______ _____ _____    ______ ____
ROOT
ATOM      1  C   LIG    1       24.927 -31.482   9.784  0.00  0.00    +0.163 C 
ATOM      2  C   LIG    1       24.720 -31.765  11.273  0.00  0.00    +0.209 C 
ATOM      3  N   LIG    1       23.261 -31.906  11.395  0.00  0.00    -0.281 N 
ATOM      4  C   LIG    1       22.693 -32.531  12.500  0.00  0.00    +0.269 C 
ATOM      5  O   LIG    1       23.375 -32.806  13.482  0.00  0.00    -0.268 OA
ATOM      6  C   LIG    1       21.260 -32.831  12.452  0.00  0.00    +0.164 A 
ATOM      7  N   LIG    1       20.370 -32.546  13.479  0.00  0.00    -0.208 NA
ATOM      8  C   LIG    1       19.187 -32.858  12.981  0.00  0.00    +0.203 A 
ATOM      9  C   LIG    1       17.844 -32.551  13.531  0.00  0.00    +0.170 C 
ATOM     10  C   LIG    1       17.460 -31.145  13.103  0.00  0.00    +0.145 C 
ATOM     11  O   LIG    1       16.873 -30.951  12.032  0.00  0.00    -0.297 OA
ATOM     12  C   LIG    1       17.778 -29.964  14.017  0.00  0.00    +0.110 C 
ATOM     13  C   LIG    1       19.260 -29.921  14.370  0.00  0.00    +0.145 C 
ATOM     14  C   LIG    1       19.840 -28.567  14.676  0.00  0.00    +0.007 C 
ATOM     15  C   LIG    1       21.154 -28.331  14.901  0.00  0.00    -0.052 C 
ATOM     16  C   LIG    1       22.187 -29.431  15.005  0.00  0.00    +0.043 C 
ATOM     17  C   LIG    1       21.647 -26.953  14.943  0.00  0.00    +0.000 C 
ATOM     18  C   LIG    1       22.915 -26.598  15.209  0.00  0.00    -0.008 C 
ATOM     19  C   LIG    1       23.481 -25.219  15.050  0.00  0.00    +0.132 C 
ATOM     20  N   LIG    1       24.537 -25.348  14.068  0.00  0.00    -0.308 N 
ATOM     21  H   LIG    1       24.267 -25.729  13.175  0.00  0.00    +0.149 HD
ATOM     22  C   LIG    1       25.849 -25.409  14.453  0.00  0.00    +0.237 C 
ATOM     23  O   LIG    1       26.290 -24.940  15.495  0.00  0.00    -0.271 OA
ATOM     24  C   LIG    1       26.765 -26.165  13.557  0.00  0.00    +0.063 C 
ATOM     25  C   LIG    1       26.370 -27.164  12.747  0.00  0.00    -0.015 C 
ATOM     26  C   LIG    1       27.329 -28.178  12.153  0.00  0.00    +0.050 C 
ATOM     27  C   LIG    1       27.110 -28.321  10.644  0.00  0.00    +0.015 C 
ATOM     28  C   LIG    1       27.209 -29.525  12.959  0.00  0.00    +0.186 C 
ATOM     29  O   LIG    1       26.584 -30.594  12.200  0.00  0.00    -0.459 OA
ATOM     30  O   LIG    1       19.240 -33.455  11.752  0.00  0.00    -0.447 OA
ATOM     31  C   LIG    1       20.565 -33.453  11.438  0.00  0.00    +0.230 A 
ATOM     32  C   LIG    1       22.568 -31.266  10.292  0.00  0.00    +0.111 C 
ATOM     33  C   LIG    1       25.219 -30.563  12.073  0.00  0.00    +0.330 C 
ATOM     34  O   LIG    1       24.515 -29.632  12.448  0.00  0.00    -0.249 OA
ATOM     35  C   LIG    1       23.665 -30.705   9.396  0.00  0.00    +0.047 C 
ENDROOT
BRANCH   1  36
ATOM     36  S   LIG    1       25.127 -33.025   8.895  0.00  0.00    -0.025 S 
ATOM     37  O   LIG    1       26.136 -33.791   9.591  0.00  0.00    -0.174 OA
ATOM     38  O   LIG    1       23.810 -33.577   8.643  0.00  0.00    -0.174 OA
BRANCH  36  39
ATOM     39  C   LIG    1       25.809 -32.536   7.321  0.00  0.00    +0.181 C 
BRANCH  39  40
ATOM     40  C   LIG    1       24.739 -32.422   6.234  0.00  0.00    +0.107 C 
BRANCH  40  41
ATOM     41  N   LIG    1       25.141 -31.619   5.046  0.00  0.00    -0.301 NA
BRANCH  41  43
ATOM     42  C   LIG    1       24.290 -29.351   5.788  0.00  0.00    +0.020 C 
ATOM     43  C   LIG    1       25.474 -30.219   5.362  0.00  0.00    +0.081 C 
ENDBRANCH  41  43
BRANCH  41  44
ATOM     44  C   LIG    1       26.224 -32.302   4.306  0.00  0.00    +0.081 C 
ATOM     45  C   LIG    1       25.897 -32.692   2.867  0.00  0.00    +0.020 C 
ENDBRANCH  41  44
ENDBRANCH  40  41
ENDBRANCH  39  40
ENDBRANCH  36  39
ENDBRANCH   1  36
BRANCH  28  46
ATOM     46  C   LIG    1       28.607 -30.014  13.445  0.00  0.00    +0.024 C 
ATOM     47  C   LIG    1       29.747 -29.472  12.572  0.00  0.00    +0.011 C 
ATOM     48  C   LIG    1       28.884 -29.634  14.900  0.00  0.00    +0.011 C 
ENDBRANCH  28  46
BRANCH  13  49
ATOM     49  O   LIG    1       19.444 -30.768  15.499  0.00  0.00    -0.387 OA
ATOM     50  H   LIG    1       19.094 -31.646  15.243  0.00  0.00    +0.210 HD
ENDBRANCH  13  49
TORSDOF 8
ENDMDL
MODEL 2
REMARK VINA RESULT:      -4.6      0.881      1.302
REMARK  Name = *****
REMARK                            x       y       z     vdW  Elec       q    Type
REMARK                         _______ _______ _______ _____ _____    ______ ____
ROOT
ATOM      1  C   LIG    1       24.686 -31.305   9.372  0.00  0.00    +0.163 C 
ATOM      2  C   LIG    1       24.504 -31.684  10.843  0.00  0.00    +0.209 C 
ATOM      3  N   LIG    1       23.048 -31.844  10.978  0.00  0.00    -0.281 N 
ATOM      4  C   LIG    1       22.501 -32.544  12.049  0.00  0.00    +0.269 C 
ATOM      5  O   LIG    1       23.201 -32.875  13.001  0.00  0.00    -0.268 OA
ATOM      6  C   LIG    1       21.069 -32.851  12.003  0.00  0.00    +0.164 A 
ATOM      7  N   LIG    1       20.194 -32.639  13.060  0.00  0.00    -0.208 NA
ATOM      8  C   LIG    1       19.005 -32.928  12.561  0.00  0.00    +0.203 A 
ATOM      9  C   LIG    1       17.669 -32.668  13.149  0.00  0.00    +0.170 C 
ATOM     10  C   LIG    1       17.269 -31.240  12.820  0.00  0.00    +0.145 C 
ATOM     11  O   LIG    1       16.664 -30.983  11.772  0.00  0.00    -0.297 OA
ATOM     12  C   LIG    1       17.593 -30.117  13.802  0.00  0.00    +0.110 C 
ATOM     13  C   LIG    1       19.080 -30.086  14.135  0.00  0.00    +0.145 C 
ATOM     14  C   LIG    1       19.656 -28.751  14.518  0.00  0.00    +0.007 C 
ATOM     15  C   LIG    1       20.972 -28.519  14.738  0.00  0.00    -0.052 C 
ATOM     16  C   LIG    1       22.014 -29.616  14.756  0.00  0.00    +0.043 C 
ATOM     17  C   LIG    1       21.456 -27.143  14.862  0.00  0.00    +0.000 C 
ATOM     18  C   LIG    1       22.726 -26.795  15.131  0.00  0.00    -0.008 C 
ATOM     19  C   LIG    1       23.280 -25.405  15.053  0.00  0.00    +0.132 C 
ATOM     20  N   LIG    1       24.320 -25.462  14.049  0.00  0.00    -0.308 N 
ATOM     21  H   LIG    1       24.039 -25.787  13.137  0.00  0.00    +0.149 HD
ATOM     22  C   LIG    1       25.639 -25.537  14.409  0.00  0.00    +0.237 C 
ATOM     23  O   LIG    1       26.093 -25.133  15.473  0.00  0.00    -0.271 OA
ATOM     24  C   LIG    1       26.546 -26.228  13.452  0.00  0.00    +0.063 C 
ATOM     25  C   LIG    1       26.145 -27.175  12.585  0.00  0.00    -0.015 C 
ATOM     26  C   LIG    1       27.101 -28.141  11.913  0.00  0.00    +0.050 C 
ATOM     27  C   LIG    1       26.860 -28.189  10.401  0.00  0.00    +0.015 C 
ATOM     28  C   LIG    1       27.003 -29.539  12.632  0.00  0.00    +0.186 C 
ATOM     29  O   LIG    1       26.374 -30.561  11.815  0.00  0.00    -0.459 OA
ATOM     30  O   LIG    1       19.043 -33.444  11.296  0.00  0.00    -0.447 OA
ATOM     31  C   LIG    1       20.363 -33.412  10.962  0.00  0.00    +0.230 A 
ATOM     32  C   LIG    1       22.333 -31.140   9.929  0.00  0.00    +0.111 C 
ATOM     33  C   LIG    1       25.007 -30.532  11.712  0.00  0.00    +0.330 C 
ATOM     34  O   LIG    1       24.303 -29.633  12.156  0.00  0.00    -0.249 OA
ATOM     35  C   LIG    1       23.412 -30.514   9.055  0.00  0.00    +0.047 C 
ENDROOT
BRANCH   1  36
ATOM     36  S   LIG    1       24.882 -32.785   8.383  0.00  0.00    -0.025 S 
ATOM     37  O   LIG    1       25.876 -33.606   9.035  0.00  0.00    -0.174 OA
ATOM     38  O   LIG    1       23.563 -33.307   8.080  0.00  0.00    -0.174 OA
BRANCH  36  39
ATOM     39  C   LIG    1       25.586 -32.197   6.852  0.00  0.00    +0.181 C 
BRANCH  39  40
ATOM     40  C   LIG    1       26.205 -30.806   6.994  0.00  0.00    +0.107 C 
BRANCH  40  41
ATOM     41  N   LIG    1       25.644 -29.778   6.074  0.00  0.00    -0.301 NA
BRANCH  41  43
ATOM     42  C   LIG    1       23.519 -29.068   4.890  0.00  0.00    +0.020 C 
ATOM     43  C   LIG    1       24.411 -30.205   5.390  0.00  0.00    +0.081 C 
ENDBRANCH  41  43
BRANCH  41  44
ATOM     44  C   LIG    1       25.480 -28.489   6.779  0.00  0.00    +0.081 C 
ATOM     45  C   LIG    1       26.148 -27.286   6.122  0.00  0.00    +0.020 C 
ENDBRANCH  41  44
ENDBRANCH  40  41
ENDBRANCH  39  40
ENDBRANCH  36  39
ENDBRANCH   1  36
BRANCH  28  46
ATOM     46  C   LIG    1       28.412 -30.046  13.064  0.00  0.00    +0.024 C 
ATOM     47  C   LIG    1       29.519 -29.565  12.116  0.00  0.00    +0.011 C 
ATOM     48  C   LIG    1       28.773 -29.623  14.489  0.00  0.00    +0.011 C 
ENDBRANCH  28  46
BRANCH  13  49
ATOM     49  O   LIG    1       19.288 -31.002  15.204  0.00  0.00    -0.387 OA
ATOM     50  H   LIG    1       18.429 -31.082  15.668  0.00  0.00    +0.210 HD
ENDBRANCH  13  49
TORSDOF 8
ENDMDL
