MODEL 1
REMARK VINA RESULT:       0.7      0.000      0.000
REMARK  Name = *****
REMARK                            x       y       z     vdW  Elec       q    Type
REMARK                         _______ _______ _______ _____ _____    ______ ____
ROOT
ATOM      1  C   LIG    1       22.066 -32.629   8.020  0.00  0.00    +0.210 C 
ATOM      2  C   LIG    1       23.493 -32.618   7.358  0.00  0.00    +0.126 C 
ATOM      3  C   LIG    1       24.375 -33.823   7.714  0.00  0.00    +0.048 C 
ATOM      4  C   LIG    1       24.237 -31.328   7.775  0.00  0.00    +0.158 C 
ATOM      5  C   LIG    1       25.738 -31.347   7.442  0.00  0.00    +0.065 C 
ATOM      6  C   LIG    1       26.021 -30.907   6.002  0.00  0.00    +0.016 C 
ATOM      7  C   LIG    1       26.435 -30.498   8.498  0.00  0.00    +0.066 C 
ATOM      8  N   LIG    1       26.464 -29.238   8.178  0.00  0.00    -0.091 NA
ATOM      9  C   LIG    1       26.906 -31.141   9.908  0.00  0.00    +0.037 C 
ATOM     10  C   LIG    1       27.262 -32.628   9.832  0.00  0.00    +0.014 C 
ATOM     11  C   LIG    1       25.812 -30.994  11.020  0.00  0.00    +0.046 C 
ATOM     12  C   LIG    1       26.087 -30.930  12.721  0.00  0.00    +0.090 C 
ATOM     13  C   LIG    1       26.627 -32.294  13.173  0.00  0.00    +0.044 C 
ATOM     14  C   LIG    1       24.975 -30.237  13.988  0.00  0.00    +0.158 C 
ATOM     15  C   LIG    1       23.485 -30.923  14.207  0.00  0.00    +0.047 C 
ATOM     16  C   LIG    1       22.608 -29.928  15.037  0.00  0.00    +0.013 C 
ATOM     17  C   LIG    1       22.356 -31.491  13.076  0.00  0.00    +0.140 C 
ATOM     18  C   LIG    1       22.835 -31.847  11.653  0.00  0.00    +0.124 C 
ATOM     19  C   LIG    1       23.552 -33.169  11.658  0.00  0.00    +0.022 C 
ATOM     20  C   LIG    1       22.084 -31.514  10.269  0.00  0.00    +0.313 C 
ATOM     21  O   LIG    1       21.788 -30.455   9.892  0.00  0.00    -0.250 OA
ATOM     22  O   LIG    1       22.147 -32.682   9.493  0.00  0.00    -0.458 OA
ENDROOT
BRANCH   1  24
ATOM     23  C   LIG    1       19.717 -33.824   7.862  0.00  0.00    +0.007 C 
ATOM     24  C   LIG    1       21.206 -33.825   7.530  0.00  0.00    +0.044 C 
ENDBRANCH   1  24
BRANCH  12  25
ATOM     25  O   LIG    1       27.220 -30.042  12.782  0.00  0.00    -0.386 OA
ATOM     26  H   LIG    1       28.004 -30.592  12.923  0.00  0.00    +0.210 HD
ENDBRANCH  12  25
BRANCH   4  27
ATOM     27  O   LIG    1       23.565 -30.214   7.165  0.00  0.00    -0.388 OA
ATOM     28  H   LIG    1       22.950 -30.576   6.497  0.00  0.00    +0.210 HD
ENDBRANCH   4  27
BRANCH   2  29
ATOM     29  O   LIG    1       23.332 -32.587   5.928  0.00  0.00    -0.383 OA
ATOM     30  H   LIG    1       23.271 -31.634   5.699  0.00  0.00    +0.210 HD
ENDBRANCH   2  29
BRANCH  14  31
ATOM     31  O   LIG    1       25.730 -29.832  15.220  0.00  0.00    -0.342 OA
BRANCH  31  32
ATOM     32  C   LIG    1       26.080 -28.377  15.500  0.00  0.00    +0.281 C 
ATOM     33  C   LIG    1       27.278 -28.061  14.579  0.00  0.00    +0.187 C 
ATOM     34  C   LIG    1       27.061 -26.895  13.535  0.00  0.00    +0.092 C 
ATOM     35  C   LIG    1       26.842 -25.640  14.360  0.00  0.00    +0.053 C 
ATOM     36  C   LIG    1       25.842 -25.924  15.500  0.00  0.00    +0.120 C 
ATOM     37  C   LIG    1       24.845 -24.762  15.467  0.00  0.00    +0.038 C 
ATOM     38  O   LIG    1       25.157 -27.240  15.426  0.00  0.00    -0.346 OA
BRANCH  34  39
ATOM     39  N   LIG    1       26.120 -26.907  12.396  0.00  0.00    -0.303 NA
ATOM     40  C   LIG    1       24.956 -27.777  12.345  0.00  0.00    +0.105 C 
ATOM     41  C   LIG    1       26.040 -25.681  11.603  0.00  0.00    +0.105 C 
ENDBRANCH  34  39
BRANCH  33  42
ATOM     42  O   LIG    1       28.363 -27.644  15.471  0.00  0.00    -0.385 OA
ATOM     43  H   LIG    1       28.462 -26.685  15.358  0.00  0.00    +0.210 HD
ENDBRANCH  33  42
ENDBRANCH  31  32
ENDBRANCH  14  31
BRANCH  17  44
ATOM     44  O   LIG    1       21.804 -32.665  13.765  0.00  0.00    -0.347 OA
BRANCH  44  45
ATOM     45  C   LIG    1       20.766 -33.401  13.115  0.00  0.00    +0.254 C 
ATOM     46  O   LIG    1       20.220 -32.731  11.991  0.00  0.00    -0.346 OA
ATOM     47  C   LIG    1       19.636 -31.468  12.334  0.00  0.00    +0.150 C 
ATOM     48  C   LIG    1       18.773 -31.021  11.170  0.00  0.00    +0.040 C 
ATOM     49  C   LIG    1       18.878 -31.384  13.673  0.00  0.00    +0.175 C 
ATOM     50  C   LIG    1       18.385 -32.780  14.090  0.00  0.00    +0.099 C 
ATOM     51  C   LIG    1       17.234 -33.152  13.122  0.00  0.00    +0.044 C 
ATOM     52  C   LIG    1       19.571 -33.798  14.029  0.00  0.00    +0.098 C 
BRANCH  50  53
ATOM     53  O   LIG    1       17.804 -32.656  15.410  0.00  0.00    -0.374 OA
ATOM     54  C   LIG    1       16.496 -32.101  15.476  0.00  0.00    +0.195 C 
ENDBRANCH  50  53
BRANCH  49  55
ATOM     55  O   LIG    1       19.734 -30.813  14.679  0.00  0.00    -0.386 OA
ATOM     56  H   LIG    1       20.071 -29.974  14.316  0.00  0.00    +0.210 HD
ENDBRANCH  49  55
ENDBRANCH  44  45
ENDBRANCH  17  44
BRANCH   8  57
ATOM     57  O   LIG    1       27.097 -28.450   9.119  0.00  0.00    -0.365 OA
BRANCH  57  58
ATOM     58  C   LIG    1       26.820 -27.065   8.851  0.00  0.00    +0.426 C 
BRANCH  58  59
ATOM     59  O   LIG    1       26.489 -26.859   7.475  0.00  0.00    -0.340 OA
BRANCH  59  60
ATOM     60  C   LIG    1       25.914 -25.589   7.218  0.00  0.00    +0.192 C 
BRANCH  60  61
ATOM     61  C   LIG    1       25.617 -25.368   5.790  0.00  0.00    +0.187 C 
BRANCH  61  62
ATOM     62  O   LIG    1       24.202 -25.271   5.702  0.00  0.00    -0.381 OA
ATOM     63  C   LIG    1       23.940 -23.913   5.711  0.00  0.00    +0.194 C 
ENDBRANCH  61  62
ENDBRANCH  60  61
ENDBRANCH  59  60
ENDBRANCH  58  59
ENDBRANCH  57  58
ENDBRANCH   8  57
TORSDOF 18
ENDMDL
MODEL 2
REMARK VINA RESULT:       1.7      2.570      7.015
REMARK  Name = *****
REMARK                            x       y       z     vdW  Elec       q    Type
REMARK                         _______ _______ _______ _____ _____    ______ ____
ROOT
ATOM      1  C   LIG    1       25.735 -26.599   6.879  0.00  0.00    +0.210 C 
ATOM      2  C   LIG    1       25.029 -27.575   5.867  0.00  0.00    +0.126 C 
ATOM      3  C   LIG    1       23.533 -27.803   6.133  0.00  0.00    +0.048 C 
ATOM      4  C   LIG    1       25.745 -28.946   5.899  0.00  0.00    +0.158 C 
ATOM      5  C   LIG    1       24.967 -30.064   5.185  0.00  0.00    +0.065 C 
ATOM      6  C   LIG    1       25.234 -30.089   3.678  0.00  0.00    +0.016 C 
ATOM      7  C   LIG    1       25.312 -31.366   5.899  0.00  0.00    +0.066 C 
ATOM      8  N   LIG    1       26.387 -31.920   5.419  0.00  0.00    -0.091 NA
ATOM      9  C   LIG    1       24.486 -31.847   7.206  0.00  0.00    +0.037 C 
ATOM     10  C   LIG    1       23.029 -31.377   7.235  0.00  0.00    +0.014 C 
ATOM     11  C   LIG    1       25.147 -31.354   8.538  0.00  0.00    +0.046 C 
ATOM     12  C   LIG    1       25.021 -32.111  10.081  0.00  0.00    +0.090 C 
ATOM     13  C   LIG    1       23.563 -32.009  10.550  0.00  0.00    +0.044 C 
ATOM     14  C   LIG    1       26.156 -31.920  11.495  0.00  0.00    +0.158 C 
ATOM     15  C   LIG    1       26.325 -30.428  12.189  0.00  0.00    +0.047 C 
ATOM     16  C   LIG    1       27.608 -30.450  13.083  0.00  0.00    +0.013 C 
ATOM     17  C   LIG    1       26.443 -28.890  11.482  0.00  0.00    +0.140 C 
ATOM     18  C   LIG    1       25.926 -28.686  10.043  0.00  0.00    +0.124 C 
ATOM     19  C   LIG    1       24.424 -28.617  10.032  0.00  0.00    +0.022 C 
ATOM     20  C   LIG    1       26.630 -27.830   8.876  0.00  0.00    +0.313 C 
ATOM     21  O   LIG    1       27.699 -28.002   8.454  0.00  0.00    -0.250 OA
ATOM     22  O   LIG    1       25.613 -27.074   8.272  0.00  0.00    -0.458 OA
ENDROOT
BRANCH   1  24
ATOM     23  C   LIG    1       25.918 -24.041   7.506  0.00  0.00    +0.007 C 
ATOM     24  C   LIG    1       25.162 -25.159   6.796  0.00  0.00    +0.044 C 
ENDBRANCH   1  24
BRANCH  12  25
ATOM     25  O   LIG    1       25.200 -33.495   9.723  0.00  0.00    -0.386 OA
ATOM     26  H   LIG    1       25.881 -33.524   9.036  0.00  0.00    +0.210 HD
ENDBRANCH  12  25
BRANCH   4  27
ATOM     27  O   LIG    1       27.059 -28.770   5.347  0.00  0.00    -0.388 OA
ATOM     28  H   LIG    1       27.204 -29.492   4.704  0.00  0.00    +0.210 HD
ENDBRANCH   4  27
BRANCH   2  29
ATOM     29  O   LIG    1       25.172 -27.038   4.539  0.00  0.00    -0.383 OA
ATOM     30  H   LIG    1       25.583 -27.760   4.016  0.00  0.00    +0.210 HD
ENDBRANCH   2  29
BRANCH  14  31
ATOM     31  O   LIG    1       26.086 -33.101  12.419  0.00  0.00    -0.342 OA
BRANCH  31  32
ATOM     32  C   LIG    1       24.782 -33.514  13.089  0.00  0.00    +0.281 C 
ATOM     33  C   LIG    1       24.672 -32.625  14.347  0.00  0.00    +0.187 C 
ATOM     34  C   LIG    1       23.399 -31.694  14.427  0.00  0.00    +0.092 C 
ATOM     35  C   LIG    1       22.206 -32.631  14.487  0.00  0.00    +0.053 C 
ATOM     36  C   LIG    1       22.352 -33.741  13.426  0.00  0.00    +0.120 C 
ATOM     37  C   LIG    1       20.992 -33.816  12.724  0.00  0.00    +0.038 C 
ATOM     38  O   LIG    1       23.460 -33.546  12.456  0.00  0.00    -0.346 OA
BRANCH  34  39
ATOM     39  N   LIG    1       23.090 -30.559  13.533  0.00  0.00    -0.303 NA
ATOM     40  C   LIG    1       21.897 -30.514  12.701  0.00  0.00    +0.105 C 
ATOM     41  C   LIG    1       23.668 -29.265  13.895  0.00  0.00    +0.105 C 
ENDBRANCH  34  39
BRANCH  33  42
ATOM     42  O   LIG    1       24.600 -33.551  15.481  0.00  0.00    -0.385 OA
ATOM     43  H   LIG    1       24.198 -34.368  15.146  0.00  0.00    +0.210 HD
ENDBRANCH  33  42
ENDBRANCH  31  32
ENDBRANCH  14  31
BRANCH  17  44
ATOM     44  O   LIG    1       25.702 -28.060  12.441  0.00  0.00    -0.347 OA
BRANCH  44  45
ATOM     45  C   LIG    1       25.995 -26.662  12.487  0.00  0.00    +0.254 C 
ATOM     46  O   LIG    1       27.240 -26.367  13.096  0.00  0.00    -0.346 OA
ATOM     47  C   LIG    1       27.308 -26.816  14.455  0.00  0.00    +0.150 C 
ATOM     48  C   LIG    1       28.495 -26.139  15.113  0.00  0.00    +0.040 C 
ATOM     49  C   LIG    1       26.029 -26.681  15.305  0.00  0.00    +0.175 C 
ATOM     50  C   LIG    1       25.132 -25.569  14.738  0.00  0.00    +0.099 C 
ATOM     51  C   LIG    1       25.838 -24.226  15.051  0.00  0.00    +0.044 C 
ATOM     52  C   LIG    1       24.923 -25.791  13.203  0.00  0.00    +0.098 C 
BRANCH  50  53
ATOM     53  O   LIG    1       23.897 -25.583  15.492  0.00  0.00    -0.374 OA
ATOM     54  C   LIG    1       22.779 -26.200  14.865  0.00  0.00    +0.195 C 
ENDBRANCH  50  53
BRANCH  49  55
ATOM     55  O   LIG    1       25.336 -27.942  15.340  0.00  0.00    -0.386 OA
ATOM     56  H   LIG    1       25.472 -28.311  16.231  0.00  0.00    +0.210 HD
ENDBRANCH  49  55
ENDBRANCH  44  45
ENDBRANCH  17  44
BRANCH   8  57
ATOM     57  O   LIG    1       26.716 -33.105   6.047  0.00  0.00    -0.365 OA
BRANCH  57  58
ATOM     58  C   LIG    1       27.825 -33.718   5.365  0.00  0.00    +0.426 C 
BRANCH  58  59
ATOM     59  O   LIG    1       27.999 -33.166   4.057  0.00  0.00    -0.340 OA
BRANCH  59  60
ATOM     60  C   LIG    1       27.230 -33.821   3.064  0.00  0.00    +0.192 C 
BRANCH  60  61
ATOM     61  C   LIG    1       26.773 -32.912   1.995  0.00  0.00    +0.187 C 
BRANCH  61  62
ATOM     62  O   LIG    1       25.410 -32.632   2.284  0.00  0.00    -0.381 OA
ATOM     63  C   LIG    1       24.912 -33.812   2.807  0.00  0.00    +0.194 C 
ENDBRANCH  61  62
ENDBRANCH  60  61
ENDBRANCH  59  60
ENDBRANCH  58  59
ENDBRANCH  57  58
ENDBRANCH   8  57
TORSDOF 18
ENDMDL
