MODEL 1
REMARK VINA RESULT:      -5.6      0.000      0.000
REMARK  Name = *****
REMARK                            x       y       z     vdW  Elec       q    Type
REMARK                         _______ _______ _______ _____ _____    ______ ____
ROOT
ATOM      1  C   LIG    1       29.402 -18.278   7.136  0.00  0.00    +0.015 C 
ATOM      2  C   LIG    1       29.584 -19.409   8.157  0.00  0.00    +0.009 C 
ATOM      3  C   LIG    1       30.951 -19.265   8.915  0.00  0.00    +0.130 C 
ATOM      4  C   LIG    1       31.149 -20.657   9.544  0.00  0.00    +0.043 C 
ATOM      5  C   LIG    1       30.399 -21.639   8.623  0.00  0.00    +0.007 C 
ATOM      6  C   LIG    1       29.788 -20.788   7.487  0.00  0.00    +0.002 C 
ATOM      7  C   LIG    1       28.547 -21.421   6.822  0.00  0.00    -0.001 C 
ATOM      8  C   LIG    1       28.363 -20.910   5.369  0.00  0.00    +0.008 C 
ATOM      9  C   LIG    1       26.992 -20.379   4.941  0.00  0.00    +0.032 C 
ATOM     10  C   LIG    1       25.791 -20.810   5.745  0.00  0.00    -0.060 C 
ATOM     11  C   LIG    1       25.998 -21.850   6.833  0.00  0.00    -0.005 C 
ATOM     12  C   LIG    1       26.263 -23.229   6.154  0.00  0.00    +0.016 C 
ATOM     13  C   LIG    1       24.716 -22.091   7.699  0.00  0.00    +0.019 C 
ATOM     14  C   LIG    1       23.710 -20.950   7.764  0.00  0.00    +0.080 C 
ATOM     15  C   LIG    1       23.457 -20.374   6.402  0.00  0.00    +0.156 C 
ATOM     16  O   LIG    1       22.351 -19.956   6.049  0.00  0.00    -0.293 OA
ATOM     17  C   LIG    1       24.623 -20.179   5.520  0.00  0.00    +0.046 C 
ATOM     18  C   LIG    1       27.259 -21.407   7.689  0.00  0.00    +0.031 C 
ATOM     19  C   LIG    1       27.080 -20.059   8.436  0.00  0.00    +0.119 C 
ATOM     20  C   LIG    1       28.351 -19.492   9.089  0.00  0.00    +0.042 C 
ENDROOT
BRANCH   3  21
ATOM     21  C   LIG    1       31.002 -18.124   9.965  0.00  0.00    +0.175 C 
ATOM     22  O   LIG    1       30.772 -18.323  11.161  0.00  0.00    -0.293 OA
BRANCH  21  23
ATOM     23  C   LIG    1       31.444 -16.744   9.496  0.00  0.00    +0.142 C 
BRANCH  23  24
ATOM     24  S   LIG    1       33.025 -16.322  10.284  0.00  0.00    -0.171 S 
ATOM     25  H   LIG    1       33.717 -17.372   9.810  0.00  0.00    +0.102 HD
ENDBRANCH  23  24
ENDBRANCH  21  23
ENDBRANCH   3  21
BRANCH   3  26
ATOM     26  O   LIG    1       31.993 -19.089   7.943  0.00  0.00    -0.381 OA
ATOM     27  H   LIG    1       31.590 -19.080   7.054  0.00  0.00    +0.211 HD
ENDBRANCH   3  26
BRANCH  19  28
ATOM     28  O   LIG    1       26.130 -20.222   9.491  0.00  0.00    -0.392 OA
ATOM     29  H   LIG    1       25.559 -19.433   9.516  0.00  0.00    +0.210 HD
ENDBRANCH  19  28
TORSDOF 5
ENDMDL
MODEL 2
REMARK VINA RESULT:      -5.3     10.146     12.638
REMARK  Name = *****
REMARK                            x       y       z     vdW  Elec       q    Type
REMARK                         _______ _______ _______ _____ _____    ______ ____
ROOT
ATOM      1  C   LIG    1       24.262 -29.664   8.127  0.00  0.00    +0.015 C 
ATOM      2  C   LIG    1       24.940 -31.012   8.411  0.00  0.00    +0.009 C 
ATOM      3  C   LIG    1       24.805 -31.977   7.180  0.00  0.00    +0.130 C 
ATOM      4  C   LIG    1       25.136 -33.356   7.781  0.00  0.00    +0.043 C 
ATOM      5  C   LIG    1       24.743 -33.265   9.268  0.00  0.00    +0.007 C 
ATOM      6  C   LIG    1       24.196 -31.836   9.487  0.00  0.00    +0.002 C 
ATOM      7  C   LIG    1       24.310 -31.333  10.942  0.00  0.00    -0.001 C 
ATOM      8  C   LIG    1       23.242 -30.250  11.248  0.00  0.00    +0.008 C 
ATOM      9  C   LIG    1       23.688 -28.934  11.893  0.00  0.00    +0.032 C 
ATOM     10  C   LIG    1       25.003 -28.925  12.632  0.00  0.00    -0.060 C 
ATOM     11  C   LIG    1       25.728 -30.250  12.812  0.00  0.00    -0.005 C 
ATOM     12  C   LIG    1       24.941 -31.104  13.854  0.00  0.00    +0.016 C 
ATOM     13  C   LIG    1       27.149 -30.086  13.448  0.00  0.00    +0.019 C 
ATOM     14  C   LIG    1       27.831 -28.738  13.259  0.00  0.00    +0.080 C 
ATOM     15  C   LIG    1       26.881 -27.609  13.530  0.00  0.00    +0.156 C 
ATOM     16  O   LIG    1       27.234 -26.551  14.059  0.00  0.00    -0.293 OA
ATOM     17  C   LIG    1       25.509 -27.735  13.004  0.00  0.00    +0.046 C 
ATOM     18  C   LIG    1       25.750 -30.982  11.405  0.00  0.00    +0.031 C 
ATOM     19  C   LIG    1       26.541 -30.226  10.305  0.00  0.00    +0.119 C 
ATOM     20  C   LIG    1       26.397 -30.789   8.882  0.00  0.00    +0.042 C 
ENDROOT
BRANCH   3  21
ATOM     21  C   LIG    1       25.706 -31.623   5.967  0.00  0.00    +0.175 C 
ATOM     22  O   LIG    1       25.594 -30.555   5.358  0.00  0.00    -0.293 OA
BRANCH  21  23
ATOM     23  C   LIG    1       26.816 -32.597   5.596  0.00  0.00    +0.142 C 
BRANCH  23  24
ATOM     24  S   LIG    1       26.574 -33.155   3.885  0.00  0.00    -0.171 S 
ATOM     25  H   LIG    1       27.052 -34.399   4.061  0.00  0.00    +0.102 HD
ENDBRANCH  23  24
ENDBRANCH  21  23
ENDBRANCH   3  21
BRANCH   3  26
ATOM     26  O   LIG    1       23.427 -32.010   6.779  0.00  0.00    -0.381 OA
ATOM     27  H   LIG    1       23.338 -31.532   5.932  0.00  0.00    +0.211 HD
ENDBRANCH   3  26
BRANCH  19  28
ATOM     28  O   LIG    1       27.937 -30.267  10.610  0.00  0.00    -0.392 OA
ATOM     29  H   LIG    1       28.235 -31.193  10.565  0.00  0.00    +0.210 HD
ENDBRANCH  19  28
TORSDOF 5
ENDMDL
MODEL 3
REMARK VINA RESULT:      -5.3      9.459     11.891
REMARK  Name = *****
REMARK                            x       y       z     vdW  Elec       q    Type
REMARK                         _______ _______ _______ _____ _____    ______ ____
ROOT
ATOM      1  C   LIG    1       23.893 -27.881  12.925  0.00  0.00    +0.015 C 
ATOM      2  C   LIG    1       23.614 -29.390  12.975  0.00  0.00    +0.009 C 
ATOM      3  C   LIG    1       23.000 -29.800  14.360  0.00  0.00    +0.130 C 
ATOM      4  C   LIG    1       23.192 -31.327  14.387  0.00  0.00    +0.043 C 
ATOM      5  C   LIG    1       24.423 -31.607  13.504  0.00  0.00    +0.007 C 
ATOM      6  C   LIG    1       24.910 -30.234  12.990  0.00  0.00    +0.002 C 
ATOM      7  C   LIG    1       25.705 -30.300  11.669  0.00  0.00    -0.001 C 
ATOM      8  C   LIG    1       26.671 -29.094  11.531  0.00  0.00    +0.008 C 
ATOM      9  C   LIG    1       26.658 -28.281  10.233  0.00  0.00    +0.032 C 
ATOM     10  C   LIG    1       26.096 -28.941   8.999  0.00  0.00    -0.060 C 
ATOM     11  C   LIG    1       25.715 -30.410   9.086  0.00  0.00    -0.005 C 
ATOM     12  C   LIG    1       27.024 -31.255   9.163  0.00  0.00    +0.016 C 
ATOM     13  C   LIG    1       24.997 -30.932   7.797  0.00  0.00    +0.019 C 
ATOM     14  C   LIG    1       24.278 -29.894   6.947  0.00  0.00    +0.080 C 
ATOM     15  C   LIG    1       25.127 -28.673   6.750  0.00  0.00    +0.156 C 
ATOM     16  O   LIG    1       25.128 -28.022   5.702  0.00  0.00    -0.293 OA
ATOM     17  C   LIG    1       25.873 -28.170   7.918  0.00  0.00    +0.046 C 
ATOM     18  C   LIG    1       24.856 -30.606  10.406  0.00  0.00    +0.031 C 
ATOM     19  C   LIG    1       23.512 -29.830  10.413  0.00  0.00    +0.119 C 
ATOM     20  C   LIG    1       22.763 -29.817  11.755  0.00  0.00    +0.042 C 
ENDROOT
BRANCH   3  21
ATOM     21  C   LIG    1       21.522 -29.380  14.572  0.00  0.00    +0.175 C 
ATOM     22  O   LIG    1       20.586 -30.166  14.396  0.00  0.00    -0.293 OA
BRANCH  21  23
ATOM     23  C   LIG    1       21.248 -27.980  15.105  0.00  0.00    +0.142 C 
BRANCH  23  24
ATOM     24  S   LIG    1       20.257 -27.061  13.891  0.00  0.00    -0.171 S 
ATOM     25  H   LIG    1       20.544 -25.834  14.356  0.00  0.00    +0.102 HD
ENDBRANCH  23  24
ENDBRANCH  21  23
ENDBRANCH   3  21
BRANCH   3  26
ATOM     26  O   LIG    1       23.823 -29.252  15.401  0.00  0.00    -0.381 OA
ATOM     27  H   LIG    1       24.758 -29.327  15.130  0.00  0.00    +0.211 HD
ENDBRANCH   3  26
BRANCH  19  28
ATOM     28  O   LIG    1       22.619 -30.418   9.464  0.00  0.00    -0.392 OA
ATOM     29  H   LIG    1       23.128 -31.022   8.894  0.00  0.00    +0.210 HD
ENDBRANCH  19  28
TORSDOF 5
ENDMDL
MODEL 4
REMARK VINA RESULT:      -5.2      9.514     12.270
REMARK  Name = *****
REMARK                            x       y       z     vdW  Elec       q    Type
REMARK                         _______ _______ _______ _____ _____    ______ ____
ROOT
ATOM      1  C   LIG    1       22.892 -30.082   9.916  0.00  0.00    +0.015 C 
ATOM      2  C   LIG    1       24.218 -30.837  10.072  0.00  0.00    +0.009 C 
ATOM      3  C   LIG    1       24.252 -32.107   9.149  0.00  0.00    +0.130 C 
ATOM      4  C   LIG    1       25.408 -32.935   9.739  0.00  0.00    +0.043 C 
ATOM      5  C   LIG    1       25.480 -32.548  11.228  0.00  0.00    +0.007 C 
ATOM      6  C   LIG    1       24.363 -31.505  11.459  0.00  0.00    +0.002 C 
ATOM      7  C   LIG    1       24.617 -30.562  12.655  0.00  0.00    -0.001 C 
ATOM      8  C   LIG    1       23.286 -30.006  13.228  0.00  0.00    +0.008 C 
ATOM      9  C   LIG    1       23.150 -28.497  13.447  0.00  0.00    +0.032 C 
ATOM     10  C   LIG    1       24.417 -27.688  13.567  0.00  0.00    -0.060 C 
ATOM     11  C   LIG    1       25.739 -28.438  13.608  0.00  0.00    -0.005 C 
ATOM     12  C   LIG    1       25.855 -29.160  14.986  0.00  0.00    +0.016 C 
ATOM     13  C   LIG    1       26.981 -27.486  13.570  0.00  0.00    +0.019 C 
ATOM     14  C   LIG    1       26.775 -26.116  12.937  0.00  0.00    +0.080 C 
ATOM     15  C   LIG    1       25.505 -25.483  13.423  0.00  0.00    +0.156 C 
ATOM     16  O   LIG    1       25.393 -24.268  13.611  0.00  0.00    -0.293 OA
ATOM     17  C   LIG    1       24.314 -26.346  13.534  0.00  0.00    +0.046 C 
ATOM     18  C   LIG    1       25.726 -29.500  12.429  0.00  0.00    +0.031 C 
ATOM     19  C   LIG    1       25.649 -28.877  11.011  0.00  0.00    +0.119 C 
ATOM     20  C   LIG    1       25.411 -29.873   9.864  0.00  0.00    +0.042 C 
ENDROOT
BRANCH   3  21
ATOM     21  C   LIG    1       24.438 -31.813   7.637  0.00  0.00    +0.175 C 
ATOM     22  O   LIG    1       23.549 -31.292   6.957  0.00  0.00    -0.293 OA
BRANCH  21  23
ATOM     23  C   LIG    1       25.799 -32.099   7.018  0.00  0.00    +0.142 C 
BRANCH  23  24
ATOM     24  S   LIG    1       25.778 -31.603   5.271  0.00  0.00    -0.171 S 
ATOM     25  H   LIG    1       26.804 -32.378   4.880  0.00  0.00    +0.102 HD
ENDBRANCH  23  24
ENDBRANCH  21  23
ENDBRANCH   3  21
BRANCH   3  26
ATOM     26  O   LIG    1       23.045 -32.855   9.362  0.00  0.00    -0.381 OA
ATOM     27  H   LIG    1       22.845 -33.360   8.551  0.00  0.00    +0.211 HD
ENDBRANCH   3  26
BRANCH  19  28
ATOM     28  O   LIG    1       26.881 -28.216  10.713  0.00  0.00    -0.392 OA
ATOM     29  H   LIG    1       27.415 -28.800  10.145  0.00  0.00    +0.210 HD
ENDBRANCH  19  28
TORSDOF 5
ENDMDL
MODEL 5
REMARK VINA RESULT:      -5.2      9.534     12.326
REMARK  Name = *****
REMARK                            x       y       z     vdW  Elec       q    Type
REMARK                         _______ _______ _______ _____ _____    ______ ____
ROOT
ATOM      1  C   LIG    1       23.155 -30.479   9.120  0.00  0.00    +0.015 C 
ATOM      2  C   LIG    1       24.577 -31.035   8.965  0.00  0.00    +0.009 C 
ATOM      3  C   LIG    1       24.652 -32.058   7.778  0.00  0.00    +0.130 C 
ATOM      4  C   LIG    1       25.974 -32.803   8.042  0.00  0.00    +0.043 C 
ATOM      5  C   LIG    1       26.192 -32.734   9.566  0.00  0.00    +0.007 C 
ATOM      6  C   LIG    1       24.990 -31.951  10.141  0.00  0.00    +0.002 C 
ATOM      7  C   LIG    1       25.276 -31.255  11.489  0.00  0.00    -0.001 C 
ATOM      8  C   LIG    1       23.973 -31.047  12.304  0.00  0.00    +0.008 C 
ATOM      9  C   LIG    1       23.673 -29.658  12.876  0.00  0.00    +0.032 C 
ATOM     10  C   LIG    1       24.829 -28.707  13.051  0.00  0.00    -0.060 C 
ATOM     11  C   LIG    1       26.231 -29.233  12.785  0.00  0.00    -0.005 C 
ATOM     12  C   LIG    1       26.620 -30.204  13.942  0.00  0.00    +0.016 C 
ATOM     13  C   LIG    1       27.324 -28.113  12.842  0.00  0.00    +0.019 C 
ATOM     14  C   LIG    1       26.860 -26.690  12.564  0.00  0.00    +0.080 C 
ATOM     15  C   LIG    1       25.594 -26.379  13.307  0.00  0.00    +0.156 C 
ATOM     16  O   LIG    1       25.353 -25.265  13.778  0.00  0.00    -0.293 OA
ATOM     17  C   LIG    1       24.551 -27.421  13.336  0.00  0.00    +0.046 C 
ATOM     18  C   LIG    1       26.200 -30.010  11.402  0.00  0.00    +0.031 C 
ATOM     19  C   LIG    1       25.855 -29.120  10.179  0.00  0.00    +0.119 C 
ATOM     20  C   LIG    1       25.597 -29.875   8.864  0.00  0.00    +0.042 C 
ENDROOT
BRANCH   3  21
ATOM     21  C   LIG    1       24.597 -31.426   6.362  0.00  0.00    +0.175 C 
ATOM     22  O   LIG    1       23.596 -30.832   5.949  0.00  0.00    -0.293 OA
BRANCH  21  23
ATOM     23  C   LIG    1       25.859 -31.469   5.512  0.00  0.00    +0.142 C 
BRANCH  23  24
ATOM     24  S   LIG    1       25.645 -32.690   4.185  0.00  0.00    -0.171 S 
ATOM     25  H   LIG    1       26.560 -33.566   4.633  0.00  0.00    +0.102 HD
ENDBRANCH  23  24
ENDBRANCH  21  23
ENDBRANCH   3  21
BRANCH   3  26
ATOM     26  O   LIG    1       23.591 -33.013   7.934  0.00  0.00    -0.381 OA
ATOM     27  H   LIG    1       22.839 -32.735   7.377  0.00  0.00    +0.211 HD
ENDBRANCH   3  26
BRANCH  19  28
ATOM     28  O   LIG    1       26.940 -28.228   9.919  0.00  0.00    -0.392 OA
ATOM     29  H   LIG    1       27.643 -28.723   9.461  0.00  0.00    +0.210 HD
ENDBRANCH  19  28
TORSDOF 5
ENDMDL
MODEL 6
REMARK VINA RESULT:      -5.1     10.773     13.004
REMARK  Name = *****
REMARK                            x       y       z     vdW  Elec       q    Type
REMARK                         _______ _______ _______ _____ _____    ______ ____
ROOT
ATOM      1  C   LIG    1       25.493 -32.703   8.890  0.00  0.00    +0.015 C 
ATOM      2  C   LIG    1       24.882 -31.455   8.238  0.00  0.00    +0.009 C 
ATOM      3  C   LIG    1       25.242 -31.388   6.712  0.00  0.00    +0.130 C 
ATOM      4  C   LIG    1       24.937 -29.924   6.345  0.00  0.00    +0.043 C 
ATOM      5  C   LIG    1       25.129 -29.122   7.647  0.00  0.00    +0.007 C 
ATOM      6  C   LIG    1       25.539 -30.145   8.730  0.00  0.00    +0.002 C 
ATOM      7  C   LIG    1       25.204 -29.705  10.172  0.00  0.00    -0.001 C 
ATOM      8  C   LIG    1       26.144 -30.386  11.202  0.00  0.00    +0.008 C 
ATOM      9  C   LIG    1       25.525 -31.085  12.416  0.00  0.00    +0.032 C 
ATOM     10  C   LIG    1       24.130 -30.683  12.822  0.00  0.00    -0.060 C 
ATOM     11  C   LIG    1       23.485 -29.515  12.092  0.00  0.00    -0.005 C 
ATOM     12  C   LIG    1       24.190 -28.200  12.546  0.00  0.00    +0.016 C 
ATOM     13  C   LIG    1       21.986 -29.301  12.489  0.00  0.00    +0.019 C 
ATOM     14  C   LIG    1       21.238 -30.517  13.021  0.00  0.00    +0.080 C 
ATOM     15  C   LIG    1       22.063 -31.258  14.031  0.00  0.00    +0.156 C 
ATOM     16  O   LIG    1       21.570 -31.814  15.017  0.00  0.00    -0.293 OA
ATOM     17  C   LIG    1       23.496 -31.440  13.737  0.00  0.00    +0.046 C 
ATOM     18  C   LIG    1       23.696 -29.744  10.536  0.00  0.00    +0.031 C 
ATOM     19  C   LIG    1       23.000 -31.013   9.979  0.00  0.00    +0.119 C 
ATOM     20  C   LIG    1       23.365 -31.385   8.532  0.00  0.00    +0.042 C 
ENDROOT
BRANCH   3  21
ATOM     21  C   LIG    1       24.482 -32.399   5.813  0.00  0.00    +0.175 C 
ATOM     22  O   LIG    1       23.275 -32.286   5.577  0.00  0.00    -0.293 OA
BRANCH  21  23
ATOM     23  C   LIG    1       25.288 -33.500   5.138  0.00  0.00    +0.142 C 
BRANCH  23  24
ATOM     24  S   LIG    1       25.532 -33.075   3.389  0.00  0.00    -0.171 S 
ATOM     25  H   LIG    1       24.294 -33.401   2.979  0.00  0.00    +0.102 HD
ENDBRANCH  23  24
ENDBRANCH  21  23
ENDBRANCH   3  21
BRANCH   3  26
ATOM     26  O   LIG    1       26.659 -31.572   6.571  0.00  0.00    -0.381 OA
ATOM     27  H   LIG    1       26.859 -32.524   6.657  0.00  0.00    +0.211 HD
ENDBRANCH   3  26
BRANCH  19  28
ATOM     28  O   LIG    1       21.583 -30.825   9.996  0.00  0.00    -0.392 OA
ATOM     29  H   LIG    1       21.367 -30.057   9.436  0.00  0.00    +0.210 HD
ENDBRANCH  19  28
TORSDOF 5
ENDMDL
MODEL 7
REMARK VINA RESULT:      -5.0     10.943     13.021
REMARK  Name = *****
REMARK                            x       y       z     vdW  Elec       q    Type
REMARK                         _______ _______ _______ _____ _____    ______ ____
ROOT
ATOM      1  C   LIG    1       21.949 -26.698  12.888  0.00  0.00    +0.015 C 
ATOM      2  C   LIG    1       21.325 -27.920  13.575  0.00  0.00    +0.009 C 
ATOM      3  C   LIG    1       20.271 -27.480  14.652  0.00  0.00    +0.130 C 
ATOM      4  C   LIG    1       20.086 -28.752  15.499  0.00  0.00    +0.043 C 
ATOM      5  C   LIG    1       21.415 -29.524  15.384  0.00  0.00    +0.007 C 
ATOM      6  C   LIG    1       22.331 -28.677  14.472  0.00  0.00    +0.002 C 
ATOM      7  C   LIG    1       23.425 -29.490  13.747  0.00  0.00    -0.001 C 
ATOM      8  C   LIG    1       24.644 -28.600  13.388  0.00  0.00    +0.008 C 
ATOM      9  C   LIG    1       25.182 -28.627  11.954  0.00  0.00    +0.032 C 
ATOM     10  C   LIG    1       24.850 -29.827  11.103  0.00  0.00    -0.060 C 
ATOM     11  C   LIG    1       24.128 -30.991  11.763  0.00  0.00    -0.005 C 
ATOM     12  C   LIG    1       25.130 -31.717  12.714  0.00  0.00    +0.016 C 
ATOM     13  C   LIG    1       23.698 -32.099  10.744  0.00  0.00    +0.019 C 
ATOM     14  C   LIG    1       23.505 -31.661   9.299  0.00  0.00    +0.080 C 
ATOM     15  C   LIG    1       24.636 -30.786   8.844  0.00  0.00    +0.156 C 
ATOM     16  O   LIG    1       25.080 -30.812   7.693  0.00  0.00    -0.293 OA
ATOM     17  C   LIG    1       25.122 -29.761   9.787  0.00  0.00    +0.046 C 
ATOM     18  C   LIG    1       22.915 -30.396  12.594  0.00  0.00    +0.031 C 
ATOM     19  C   LIG    1       21.841 -29.682  11.731  0.00  0.00    +0.119 C 
ATOM     20  C   LIG    1       20.772 -28.904  12.516  0.00  0.00    +0.042 C 
ENDROOT
BRANCH   3  21
ATOM     21  C   LIG    1       18.932 -26.945  14.079  0.00  0.00    +0.175 C 
ATOM     22  O   LIG    1       18.879 -25.932  13.375  0.00  0.00    -0.293 OA
BRANCH  21  23
ATOM     23  C   LIG    1       17.673 -27.764  14.328  0.00  0.00    +0.142 C 
BRANCH  23  24
ATOM     24  S   LIG    1       16.234 -26.655  14.358  0.00  0.00    -0.171 S 
ATOM     25  H   LIG    1       16.910 -25.521  14.107  0.00  0.00    +0.102 HD
ENDBRANCH  23  24
ENDBRANCH  21  23
ENDBRANCH   3  21
BRANCH   3  26
ATOM     26  O   LIG    1       20.875 -26.491  15.500  0.00  0.00    -0.381 OA
ATOM     27  H   LIG    1       21.056 -26.896  16.369  0.00  0.00    +0.211 HD
ENDBRANCH   3  26
BRANCH  19  28
ATOM     28  O   LIG    1       21.136 -30.650  10.951  0.00  0.00    -0.392 OA
ATOM     29  H   LIG    1       20.181 -30.520  11.089  0.00  0.00    +0.210 HD
ENDBRANCH  19  28
TORSDOF 5
ENDMDL
MODEL 8
REMARK VINA RESULT:      -4.9      5.540      7.807
REMARK  Name = *****
REMARK                            x       y       z     vdW  Elec       q    Type
REMARK                         _______ _______ _______ _____ _____    ______ ____
ROOT
ATOM      1  C   LIG    1       23.338 -25.285   6.824  0.00  0.00    +0.015 C 
ATOM      2  C   LIG    1       24.711 -25.339   6.140  0.00  0.00    +0.009 C 
ATOM      3  C   LIG    1       25.301 -26.793   6.182  0.00  0.00    +0.130 C 
ATOM      4  C   LIG    1       26.791 -26.574   5.863  0.00  0.00    +0.043 C 
ATOM      5  C   LIG    1       27.114 -25.147   6.346  0.00  0.00    +0.007 C 
ATOM      6  C   LIG    1       25.800 -24.580   6.932  0.00  0.00    +0.002 C 
ATOM      7  C   LIG    1       25.716 -23.038   6.916  0.00  0.00    -0.001 C 
ATOM      8  C   LIG    1       24.760 -22.515   8.020  0.00  0.00    +0.008 C 
ATOM      9  C   LIG    1       23.672 -21.507   7.638  0.00  0.00    +0.032 C 
ATOM     10  C   LIG    1       23.865 -20.713   6.372  0.00  0.00    -0.060 C 
ATOM     11  C   LIG    1       25.187 -20.857   5.635  0.00  0.00    -0.005 C 
ATOM     12  C   LIG    1       26.296 -20.141   6.467  0.00  0.00    +0.016 C 
ATOM     13  C   LIG    1       25.202 -20.112   4.258  0.00  0.00    +0.019 C 
ATOM     14  C   LIG    1       23.854 -19.880   3.591  0.00  0.00    +0.080 C 
ATOM     15  C   LIG    1       22.844 -19.371   4.576  0.00  0.00    +0.156 C 
ATOM     16  O   LIG    1       21.972 -18.551   4.276  0.00  0.00    -0.293 OA
ATOM     17  C   LIG    1       22.822 -19.997   5.911  0.00  0.00    +0.046 C 
ATOM     18  C   LIG    1       25.504 -22.407   5.514  0.00  0.00    +0.031 C 
ATOM     19  C   LIG    1       24.474 -23.204   4.672  0.00  0.00    +0.119 C 
ATOM     20  C   LIG    1       24.624 -24.734   4.718  0.00  0.00    +0.042 C 
ENDROOT
BRANCH   3  21
ATOM     21  C   LIG    1       24.626 -27.803   5.216  0.00  0.00    +0.175 C 
ATOM     22  O   LIG    1       24.669 -27.665   3.990  0.00  0.00    -0.293 OA
BRANCH  21  23
ATOM     23  C   LIG    1       23.980 -29.042   5.819  0.00  0.00    +0.142 C 
BRANCH  23  24
ATOM     24  S   LIG    1       25.150 -30.429   5.732  0.00  0.00    -0.171 S 
ATOM     25  H   LIG    1       26.240 -29.693   5.459  0.00  0.00    +0.102 HD
ENDBRANCH  23  24
ENDBRANCH  21  23
ENDBRANCH   3  21
BRANCH   3  26
ATOM     26  O   LIG    1       25.224 -27.275   7.532  0.00  0.00    -0.381 OA
ATOM     27  H   LIG    1       26.056 -27.739   7.744  0.00  0.00    +0.211 HD
ENDBRANCH   3  26
BRANCH  19  28
ATOM     28  O   LIG    1       24.596 -22.834   3.296  0.00  0.00    -0.392 OA
ATOM     29  H   LIG    1       25.329 -22.199   3.212  0.00  0.00    +0.210 HD
ENDBRANCH  19  28
TORSDOF 5
ENDMDL
MODEL 9
REMARK VINA RESULT:      -4.9     10.453     12.717
REMARK  Name = *****
REMARK                            x       y       z     vdW  Elec       q    Type
REMARK                         _______ _______ _______ _____ _____    ______ ____
ROOT
ATOM      1  C   LIG    1       22.675 -27.675  12.876  0.00  0.00    +0.015 C 
ATOM      2  C   LIG    1       22.191 -29.104  13.159  0.00  0.00    +0.009 C 
ATOM      3  C   LIG    1       21.277 -29.144  14.434  0.00  0.00    +0.130 C 
ATOM      4  C   LIG    1       21.252 -30.640  14.798  0.00  0.00    +0.043 C 
ATOM      5  C   LIG    1       22.578 -31.218  14.268  0.00  0.00    +0.007 C 
ATOM      6  C   LIG    1       23.334 -30.041  13.613  0.00  0.00    +0.002 C 
ATOM      7  C   LIG    1       24.348 -30.466  12.529  0.00  0.00    -0.001 C 
ATOM      8  C   LIG    1       25.476 -29.414  12.368  0.00  0.00    +0.008 C 
ATOM      9  C   LIG    1       25.817 -28.906  10.964  0.00  0.00    +0.032 C 
ATOM     10  C   LIG    1       25.415 -29.763   9.790  0.00  0.00    -0.060 C 
ATOM     11  C   LIG    1       24.829 -31.136  10.079  0.00  0.00    -0.005 C 
ATOM     12  C   LIG    1       25.974 -32.062  10.595  0.00  0.00    +0.016 C 
ATOM     13  C   LIG    1       24.304 -31.858   8.793  0.00  0.00    +0.019 C 
ATOM     14  C   LIG    1       23.903 -30.968   7.625  0.00  0.00    +0.080 C 
ATOM     15  C   LIG    1       24.931 -29.903   7.379  0.00  0.00    +0.156 C 
ATOM     16  O   LIG    1       25.217 -29.499   6.249  0.00  0.00    -0.293 OA
ATOM     17  C   LIG    1       25.505 -29.229   8.558  0.00  0.00    +0.046 C 
ATOM     18  C   LIG    1       23.718 -30.960  11.198  0.00  0.00    +0.031 C 
ATOM     19  C   LIG    1       22.514 -30.080  10.769  0.00  0.00    +0.119 C 
ATOM     20  C   LIG    1       21.535 -29.706  11.893  0.00  0.00    +0.042 C 
ENDROOT
BRANCH   3  21
ATOM     21  C   LIG    1       19.855 -28.553  14.242  0.00  0.00    +0.175 C 
ATOM     22  O   LIG    1       18.879 -29.265  13.990  0.00  0.00    -0.293 OA
BRANCH  21  23
ATOM     23  C   LIG    1       19.668 -27.059  14.468  0.00  0.00    +0.142 C 
BRANCH  23  24
ATOM     24  S   LIG    1       17.895 -26.666  14.428  0.00  0.00    -0.171 S 
ATOM     25  H   LIG    1       17.631 -27.020  15.697  0.00  0.00    +0.102 HD
ENDBRANCH  23  24
ENDBRANCH  21  23
ENDBRANCH   3  21
BRANCH   3  26
ATOM     26  O   LIG    1       21.955 -28.462  15.500  0.00  0.00    -0.381 OA
ATOM     27  H   LIG    1       21.289 -28.132  16.132  0.00  0.00    +0.211 HD
ENDBRANCH   3  26
BRANCH  19  28
ATOM     28  O   LIG    1       21.745 -30.776   9.785  0.00  0.00    -0.392 OA
ATOM     29  H   LIG    1       21.568 -30.167   9.046  0.00  0.00    +0.210 HD
ENDBRANCH  19  28
TORSDOF 5
ENDMDL
