MODEL 1
REMARK VINA RESULT:       3.4      0.000      0.000
REMARK  Name = *****
REMARK                            x       y       z     vdW  Elec       q    Type
REMARK                         _______ _______ _______ _____ _____    ______ ____
ROOT
ATOM      1  C   LIG    1       26.184 -29.804  12.958  0.00  0.00    +0.163 C 
ATOM      2  C   LIG    1       26.523 -30.800  11.830  0.00  0.00    +0.234 C 
ATOM      3  O   LIG    1       27.674 -31.236  11.690  0.00  0.00    -0.274 OA
ATOM      4  N   LIG    1       25.621 -31.189  10.876  0.00  0.00    -0.302 N 
ATOM      5  H   LIG    1       26.090 -31.824  10.242  0.00  0.00    +0.149 HD
ATOM      6  C   LIG    1       24.559 -30.397  10.214  0.00  0.00    +0.162 C 
ATOM      7  C   LIG    1       25.344 -29.258   9.545  0.00  0.00    +0.234 C 
ATOM      8  O   LIG    1       25.497 -28.150  10.046  0.00  0.00    -0.274 OA
ATOM      9  N   LIG    1       26.148 -29.578   8.464  0.00  0.00    -0.300 N 
ATOM     10  H   LIG    1       26.915 -28.925   8.473  0.00  0.00    +0.150 HD
ATOM     11  C   LIG    1       25.563 -29.672   7.118  0.00  0.00    +0.187 C 
ATOM     12  C   LIG    1       24.473 -28.600   6.946  0.00  0.00    +0.236 C 
ATOM     13  O   LIG    1       23.278 -28.910   6.937  0.00  0.00    -0.274 OA
ATOM     14  N   LIG    1       24.738 -27.273   6.906  0.00  0.00    -0.302 N 
ATOM     15  H   LIG    1       23.850 -26.790   6.806  0.00  0.00    +0.149 HD
ATOM     16  C   LIG    1       25.885 -26.342   6.994  0.00  0.00    +0.168 C 
ATOM     17  C   LIG    1       25.719 -25.413   5.780  0.00  0.00    +0.234 C 
ATOM     18  O   LIG    1       25.434 -25.832   4.660  0.00  0.00    -0.274 OA
ATOM     19  N   LIG    1       26.097 -24.110   5.926  0.00  0.00    -0.302 N 
ATOM     20  H   LIG    1       26.181 -23.681   5.001  0.00  0.00    +0.149 HD
ATOM     21  C   LIG    1       25.440 -23.179   6.885  0.00  0.00    +0.170 C 
ATOM     22  C   LIG    1       26.337 -22.908   8.102  0.00  0.00    +0.112 C 
ATOM     23  S   LIG    1       25.351 -22.788   9.653  0.00  0.00    -0.091 S 
ATOM     24  S   LIG    1       26.598 -23.577  11.105  0.00  0.00    -0.093 S 
ATOM     25  C   LIG    1       25.841 -25.213  11.484  0.00  0.00    +0.090 C 
ATOM     26  C   LIG    1       26.767 -26.072  12.346  0.00  0.00    +0.107 C 
ATOM     27  C   LIG    1       26.054 -27.326  12.820  0.00  0.00    +0.214 C 
ATOM     28  O   LIG    1       24.967 -27.290  13.394  0.00  0.00    -0.276 OA
ATOM     29  N   LIG    1       26.749 -28.498  12.617  0.00  0.00    -0.304 N 
ATOM     30  H   LIG    1       27.602 -28.482  12.073  0.00  0.00    +0.149 HD
ENDROOT
BRANCH  21  31
ATOM     31  C   LIG    1       25.210 -21.942   5.979  0.00  0.00    +0.237 C 
ATOM     32  N   LIG    1       23.956 -21.449   5.710  0.00  0.00    -0.288 N 
ATOM     33  C   LIG    1       23.758 -20.718   4.445  0.00  0.00    +0.162 C 
ATOM     34  C   LIG    1       22.253 -20.460   4.385  0.00  0.00    +0.033 C 
ATOM     35  C   LIG    1       21.673 -21.664   5.107  0.00  0.00    +0.021 C 
ATOM     36  C   LIG    1       22.680 -21.932   6.221  0.00  0.00    +0.109 C 
ATOM     37  O   LIG    1       26.191 -21.420   5.428  0.00  0.00    -0.274 OA
BRANCH  33  38
ATOM     38  C   LIG    1       24.490 -19.386   4.229  0.00  0.00    +0.234 C 
ATOM     39  N   LIG    1       25.811 -19.459   3.857  0.00  0.00    -0.302 N 
ATOM     40  H   LIG    1       26.115 -20.353   3.493  0.00  0.00    +0.149 HD
ATOM     41  O   LIG    1       23.916 -18.320   4.468  0.00  0.00    -0.274 OA
BRANCH  39  42
ATOM     42  C   LIG    1       26.632 -18.273   3.520  0.00  0.00    +0.159 C 
BRANCH  42  43
ATOM     43  C   LIG    1       27.797 -18.096   4.525  0.00  0.00    +0.234 C 
ATOM     44  N   LIG    1       28.177 -19.222   5.177  0.00  0.00    -0.305 N 
ATOM     45  H   LIG    1       27.532 -20.022   5.127  0.00  0.00    +0.149 HD
ATOM     46  O   LIG    1       28.389 -17.007   4.721  0.00  0.00    -0.274 OA
BRANCH  44  47
ATOM     47  C   LIG    1       29.243 -19.324   6.152  0.00  0.00    +0.200 C 
BRANCH  47  48
ATOM     48  C   LIG    1       28.800 -20.236   7.297  0.00  0.00    +0.228 C 
ATOM     49  O   LIG    1       27.920 -19.953   8.111  0.00  0.00    -0.274 OA
ATOM     50  N   LIG    1       29.429 -21.445   7.381  0.00  0.00    -0.328 N 
ATOM     51  H   LIG    1       29.131 -22.069   8.120  0.00  0.00    +0.145 HD
ATOM     52  H   LIG    1       30.087 -21.782   6.693  0.00  0.00    +0.145 HD
ENDBRANCH  47  48
ENDBRANCH  44  47
ENDBRANCH  42  43
BRANCH  42  53
ATOM     53  C   LIG    1       25.687 -17.044   3.430  0.00  0.00    +0.033 C 
BRANCH  53  54
ATOM     54  C   LIG    1       26.395 -15.715   3.114  0.00  0.00    +0.017 C 
BRANCH  54  55
ATOM     55  C   LIG    1       25.840 -14.542   3.924  0.00  0.00    +0.078 C 
BRANCH  55  56
ATOM     56  N   LIG    1       26.823 -14.041   4.879  0.00  0.00    -0.330 NA
ATOM     57  H   LIG    1       27.451 -14.792   5.159  0.00  0.00    +0.118 HD
ATOM     58  H   LIG    1       26.346 -13.729   5.725  0.00  0.00    +0.118 HD
ENDBRANCH  55  56
ENDBRANCH  54  55
ENDBRANCH  53  54
ENDBRANCH  42  53
ENDBRANCH  39  42
ENDBRANCH  33  38
ENDBRANCH  21  31
BRANCH  11  59
ATOM     59  C   LIG    1       25.083 -31.085   6.711  0.00  0.00    +0.141 C 
ATOM     60  C   LIG    1       25.951 -32.181   7.328  0.00  0.00    +0.040 C 
BRANCH  59  61
ATOM     61  O   LIG    1       25.164 -31.256   5.288  0.00  0.00    -0.390 OA
ATOM     62  H   LIG    1       25.735 -32.014   5.081  0.00  0.00    +0.210 HD
ENDBRANCH  59  61
ENDBRANCH  11  59
BRANCH   6  63
ATOM     63  C   LIG    1       23.350 -29.980  11.084  0.00  0.00    +0.015 C 
ATOM     64  C   LIG    1       23.337 -30.816  12.374  0.00  0.00    +0.010 C 
BRANCH  63  65
ATOM     65  C   LIG    1       22.010 -30.159  10.329  0.00  0.00    +0.002 C 
ATOM     66  C   LIG    1       20.803 -30.305  11.254  0.00  0.00    +0.004 C 
ENDBRANCH  63  65
ENDBRANCH   6  63
BRANCH  16  67
ATOM     67  C   LIG    1       27.334 -26.843   6.886  0.00  0.00    +0.127 C 
BRANCH  67  68
ATOM     68  C   LIG    1       27.729 -27.201   5.485  0.00  0.00    +0.213 C 
ATOM     69  O   LIG    1       28.756 -26.857   4.939  0.00  0.00    -0.276 OA
ATOM     70  N   LIG    1       26.804 -27.964   4.823  0.00  0.00    -0.329 N 
ATOM     71  H   LIG    1       27.010 -28.123   3.840  0.00  0.00    +0.145 HD
ATOM     72  H   LIG    1       25.822 -27.908   5.054  0.00  0.00    +0.145 HD
ENDBRANCH  67  68
ENDBRANCH  16  67
BRANCH   1  73
ATOM     73  C   LIG    1       26.778 -30.297  14.292  0.00  0.00    +0.067 C 
BRANCH  73  77
ATOM     74  C   LIG    1       30.387 -28.046  14.983  0.00  0.00    +0.120 A 
ATOM     75  C   LIG    1       30.473 -29.378  14.567  0.00  0.00    +0.046 A 
ATOM     76  C   LIG    1       29.307 -30.131  14.378  0.00  0.00    +0.007 A 
ATOM     77  C   LIG    1       28.051 -29.557  14.613  0.00  0.00    -0.045 A 
ATOM     78  C   LIG    1       27.974 -28.246  15.073  0.00  0.00    +0.007 A 
ATOM     79  C   LIG    1       29.131 -27.508  15.264  0.00  0.00    +0.046 A 
BRANCH  74  80
ATOM     80  O   LIG    1       31.560 -27.341  15.078  0.00  0.00    -0.492 OA
BRANCH  80  82
ATOM     81  C   LIG    1       33.022 -28.117  13.307  0.00  0.00    +0.048 C 
ATOM     82  C   LIG    1       32.764 -28.075  14.806  0.00  0.00    +0.226 C 
ENDBRANCH  80  82
ENDBRANCH  74  80
ENDBRANCH  73  77
ENDBRANCH   1  73
TORSDOF 20
ENDMDL
MODEL 2
REMARK VINA RESULT:       6.1      1.319      3.089
REMARK  Name = *****
REMARK                            x       y       z     vdW  Elec       q    Type
REMARK                         _______ _______ _______ _____ _____    ______ ____
ROOT
ATOM      1  C   LIG    1       25.943 -30.162  12.727  0.00  0.00    +0.163 C 
ATOM      2  C   LIG    1       26.230 -31.108  11.543  0.00  0.00    +0.234 C 
ATOM      3  O   LIG    1       27.350 -31.615  11.391  0.00  0.00    -0.274 OA
ATOM      4  N   LIG    1       25.320 -31.373  10.555  0.00  0.00    -0.302 N 
ATOM      5  H   LIG    1       25.753 -31.999   9.888  0.00  0.00    +0.149 HD
ATOM      6  C   LIG    1       24.327 -30.468   9.931  0.00  0.00    +0.162 C 
ATOM      7  C   LIG    1       25.201 -29.348   9.345  0.00  0.00    +0.234 C 
ATOM      8  O   LIG    1       25.422 -28.286   9.916  0.00  0.00    -0.274 OA
ATOM      9  N   LIG    1       25.998 -29.657   8.256  0.00  0.00    -0.300 N 
ATOM     10  H   LIG    1       26.809 -29.061   8.315  0.00  0.00    +0.150 HD
ATOM     11  C   LIG    1       25.431 -29.626   6.899  0.00  0.00    +0.187 C 
ATOM     12  C   LIG    1       24.422 -28.471   6.781  0.00  0.00    +0.236 C 
ATOM     13  O   LIG    1       23.208 -28.694   6.739  0.00  0.00    -0.274 OA
ATOM     14  N   LIG    1       24.779 -27.166   6.828  0.00  0.00    -0.302 N 
ATOM     15  H   LIG    1       23.929 -26.616   6.747  0.00  0.00    +0.149 HD
ATOM     16  C   LIG    1       25.987 -26.326   6.989  0.00  0.00    +0.168 C 
ATOM     17  C   LIG    1       25.907 -25.314   5.833  0.00  0.00    +0.234 C 
ATOM     18  O   LIG    1       25.612 -25.642   4.685  0.00  0.00    -0.274 OA
ATOM     19  N   LIG    1       26.373 -24.053   6.065  0.00  0.00    -0.302 N 
ATOM     20  H   LIG    1       26.501 -23.574   5.170  0.00  0.00    +0.149 HD
ATOM     21  C   LIG    1       25.766 -23.139   7.073  0.00  0.00    +0.170 C 
ATOM     22  C   LIG    1       26.659 -23.007   8.316  0.00  0.00    +0.112 C 
ATOM     23  S   LIG    1       25.658 -22.914   9.858  0.00  0.00    -0.091 S 
ATOM     24  S   LIG    1       26.822 -23.877  11.273  0.00  0.00    -0.093 S 
ATOM     25  C   LIG    1       25.946 -25.476  11.539  0.00  0.00    +0.090 C 
ATOM     26  C   LIG    1       26.795 -26.450  12.358  0.00  0.00    +0.107 C 
ATOM     27  C   LIG    1       25.988 -27.677  12.743  0.00  0.00    +0.214 C 
ATOM     28  O   LIG    1       24.897 -27.600  13.304  0.00  0.00    -0.276 OA
ATOM     29  N   LIG    1       26.603 -28.881  12.476  0.00  0.00    -0.304 N 
ATOM     30  H   LIG    1       27.465 -28.891  11.944  0.00  0.00    +0.149 HD
ENDROOT
BRANCH  21  31
ATOM     31  C   LIG    1       25.638 -21.835   6.243  0.00  0.00    +0.237 C 
ATOM     32  N   LIG    1       26.732 -21.127   5.809  0.00  0.00    -0.288 N 
ATOM     33  C   LIG    1       26.573 -19.679   5.583  0.00  0.00    +0.162 C 
ATOM     34  C   LIG    1       27.986 -19.184   5.275  0.00  0.00    +0.033 C 
ATOM     35  C   LIG    1       28.859 -20.119   6.092  0.00  0.00    +0.021 C 
ATOM     36  C   LIG    1       28.139 -21.460   5.992  0.00  0.00    +0.109 C 
ATOM     37  O   LIG    1       24.505 -21.383   6.021  0.00  0.00    -0.274 OA
BRANCH  33  38
ATOM     38  C   LIG    1       25.633 -19.195   4.470  0.00  0.00    +0.234 C 
ATOM     39  N   LIG    1       24.617 -18.348   4.843  0.00  0.00    -0.302 N 
ATOM     40  H   LIG    1       24.728 -17.900   5.743  0.00  0.00    +0.149 HD
ATOM     41  O   LIG    1       25.760 -19.630   3.322  0.00  0.00    -0.274 OA
BRANCH  39  42
ATOM     42  C   LIG    1       23.683 -17.720   3.881  0.00  0.00    +0.159 C 
BRANCH  42  43
ATOM     43  C   LIG    1       23.863 -16.182   3.849  0.00  0.00    +0.234 C 
ATOM     44  N   LIG    1       25.082 -15.749   3.445  0.00  0.00    -0.305 N 
ATOM     45  H   LIG    1       25.833 -16.451   3.419  0.00  0.00    +0.149 HD
ATOM     46  O   LIG    1       22.953 -15.368   4.140  0.00  0.00    -0.274 OA
BRANCH  44  47
ATOM     47  C   LIG    1       25.496 -14.367   3.319  0.00  0.00    +0.200 C 
BRANCH  47  48
ATOM     48  C   LIG    1       26.766 -14.139   4.141  0.00  0.00    +0.228 C 
ATOM     49  O   LIG    1       26.776 -13.778   5.319  0.00  0.00    -0.274 OA
ATOM     50  N   LIG    1       27.947 -14.380   3.502  0.00  0.00    -0.328 N 
ATOM     51  H   LIG    1       28.796 -14.255   4.039  0.00  0.00    +0.145 HD
ATOM     52  H   LIG    1       28.011 -14.769   2.573  0.00  0.00    +0.145 HD
ENDBRANCH  47  48
ENDBRANCH  44  47
ENDBRANCH  42  43
BRANCH  42  53
ATOM     53  C   LIG    1       22.243 -18.177   4.241  0.00  0.00    +0.033 C 
BRANCH  53  54
ATOM     54  C   LIG    1       22.175 -19.359   5.224  0.00  0.00    +0.017 C 
BRANCH  54  55
ATOM     55  C   LIG    1       21.883 -20.690   4.528  0.00  0.00    +0.078 C 
BRANCH  55  56
ATOM     56  N   LIG    1       23.044 -21.169   3.785  0.00  0.00    -0.330 NA
ATOM     57  H   LIG    1       23.287 -22.111   4.085  0.00  0.00    +0.118 HD
ATOM     58  H   LIG    1       23.849 -20.579   3.997  0.00  0.00    +0.118 HD
ENDBRANCH  55  56
ENDBRANCH  54  55
ENDBRANCH  53  54
ENDBRANCH  42  53
ENDBRANCH  39  42
ENDBRANCH  33  38
ENDBRANCH  21  31
BRANCH  11  59
ATOM     59  C   LIG    1       24.860 -30.974   6.399  0.00  0.00    +0.141 C 
ATOM     60  C   LIG    1       25.963 -31.914   5.913  0.00  0.00    +0.040 C 
BRANCH  59  61
ATOM     61  O   LIG    1       23.982 -30.767   5.282  0.00  0.00    -0.390 OA
ATOM     62  H   LIG    1       23.588 -29.881   5.335  0.00  0.00    +0.210 HD
ENDBRANCH  59  61
ENDBRANCH  11  59
BRANCH   6  63
ATOM     63  C   LIG    1       23.136 -30.020  10.810  0.00  0.00    +0.015 C 
ATOM     64  C   LIG    1       23.349 -30.517  12.250  0.00  0.00    +0.010 C 
BRANCH  63  65
ATOM     65  C   LIG    1       21.788 -30.553  10.266  0.00  0.00    +0.002 C 
ATOM     66  C   LIG    1       21.852 -32.005   9.792  0.00  0.00    +0.004 C 
ENDBRANCH  63  65
ENDBRANCH   6  63
BRANCH  16  67
ATOM     67  C   LIG    1       27.399 -26.920   6.868  0.00  0.00    +0.127 C 
BRANCH  67  68
ATOM     68  C   LIG    1       27.812 -27.168   5.447  0.00  0.00    +0.213 C 
ATOM     69  O   LIG    1       27.075 -27.551   4.563  0.00  0.00    -0.276 OA
ATOM     70  N   LIG    1       29.140 -26.939   5.204  0.00  0.00    -0.329 N 
ATOM     71  H   LIG    1       29.454 -27.204   4.274  0.00  0.00    +0.145 HD
ATOM     72  H   LIG    1       29.828 -27.041   5.938  0.00  0.00    +0.145 HD
ENDBRANCH  67  68
ENDBRANCH  16  67
BRANCH   1  73
ATOM     73  C   LIG    1       26.479 -30.777  14.034  0.00  0.00    +0.067 C 
BRANCH  73  77
ATOM     74  C   LIG    1       29.966 -28.514  15.167  0.00  0.00    +0.120 A 
ATOM     75  C   LIG    1       30.122 -29.757  14.548  0.00  0.00    +0.046 A 
ATOM     76  C   LIG    1       28.995 -30.519  14.212  0.00  0.00    +0.007 A 
ATOM     77  C   LIG    1       27.709 -30.044  14.502  0.00  0.00    -0.045 A 
ATOM     78  C   LIG    1       27.563 -28.827  15.161  0.00  0.00    +0.007 A 
ATOM     79  C   LIG    1       28.681 -28.080  15.497  0.00  0.00    +0.046 A 
BRANCH  74  80
ATOM     80  O   LIG    1       31.103 -27.783  15.403  0.00  0.00    -0.492 OA
BRANCH  80  82
ATOM     81  C   LIG    1       32.615 -28.471  13.639  0.00  0.00    +0.048 C 
ATOM     82  C   LIG    1       32.348 -28.446  15.136  0.00  0.00    +0.226 C 
ENDBRANCH  80  82
ENDBRANCH  74  80
ENDBRANCH  73  77
ENDBRANCH   1  73
TORSDOF 20
ENDMDL
