MODEL 1
REMARK VINA RESULT:      -6.0      0.000      0.000
REMARK  Name = *****
REMARK                            x       y       z     vdW  Elec       q    Type
REMARK                         _______ _______ _______ _____ _____    ______ ____
ROOT
ATOM      1  C   LIG    1       23.175 -22.732   6.974  0.00  0.00    +0.022 C 
ENDROOT
BRANCH   1   2
ATOM      2  C   LIG    1       24.129 -23.754   6.311  0.00  0.00    +0.051 C 
ATOM      3  C   LIG    1       25.471 -23.734   7.055  0.00  0.00    +0.024 C 
BRANCH   2   5
ATOM      4  C   LIG    1       24.310 -26.110   5.655  0.00  0.00    +0.101 C 
ATOM      5  N   LIG    1       23.509 -25.085   6.309  0.00  0.00    -0.317 NA
ATOM      6  H   LIG    1       23.305 -25.375   7.265  0.00  0.00    +0.122 HD
ENDBRANCH   2   5
ENDBRANCH   1   2
BRANCH   1   7
ATOM      7  C   LIG    1       23.776 -21.331   7.147  0.00  0.00    +0.029 C 
BRANCH   7   8
ATOM      8  C   LIG    1       23.006 -20.290   6.366  0.00  0.00    -0.028 C 
ATOM      9  C   LIG    1       23.177 -19.898   5.091  0.00  0.00    -0.080 C 
ATOM     10  C   LIG    1       22.324 -18.803   4.504  0.00  0.00    +0.038 C 
ATOM     11  C   LIG    1       24.176 -20.474   4.123  0.00  0.00    +0.038 C 
ENDBRANCH   7   8
ENDBRANCH   1   7
TORSDOF 4
ENDMDL
MODEL 2
REMARK VINA RESULT:      -5.7      2.354      3.119
REMARK  Name = *****
REMARK                            x       y       z     vdW  Elec       q    Type
REMARK                         _______ _______ _______ _____ _____    ______ ____
ROOT
ATOM      1  C   LIG    1       24.906 -20.884   7.629  0.00  0.00    +0.022 C 
ENDROOT
BRANCH   1   2
ATOM      2  C   LIG    1       25.801 -21.972   8.269  0.00  0.00    +0.051 C 
ATOM      3  C   LIG    1       25.982 -23.117   7.263  0.00  0.00    +0.024 C 
BRANCH   2   5
ATOM      4  C   LIG    1       27.631 -20.431   7.733  0.00  0.00    +0.101 C 
ATOM      5  N   LIG    1       27.080 -21.384   8.685  0.00  0.00    -0.317 NA
ATOM      6  H   LIG    1       26.977 -20.933   9.594  0.00  0.00    +0.122 HD
ENDBRANCH   2   5
ENDBRANCH   1   2
BRANCH   1   7
ATOM      7  C   LIG    1       23.675 -21.432   6.896  0.00  0.00    +0.029 C 
BRANCH   7   8
ATOM      8  C   LIG    1       22.906 -20.337   6.193  0.00  0.00    -0.028 C 
ATOM      9  C   LIG    1       23.115 -19.814   4.971  0.00  0.00    -0.080 C 
ATOM     10  C   LIG    1       22.253 -18.687   4.462  0.00  0.00    +0.038 C 
ATOM     11  C   LIG    1       24.167 -20.264   3.992  0.00  0.00    +0.038 C 
ENDBRANCH   7   8
ENDBRANCH   1   7
TORSDOF 4
ENDMDL
MODEL 3
REMARK VINA RESULT:      -5.7      2.065      2.511
REMARK  Name = *****
REMARK                            x       y       z     vdW  Elec       q    Type
REMARK                         _______ _______ _______ _____ _____    ______ ____
ROOT
ATOM      1  C   LIG    1       24.044 -21.039   7.312  0.00  0.00    +0.022 C 
ENDROOT
BRANCH   1   2
ATOM      2  C   LIG    1       25.549 -20.815   7.030  0.00  0.00    +0.051 C 
ATOM      3  C   LIG    1       26.267 -20.554   8.362  0.00  0.00    +0.024 C 
BRANCH   2   5
ATOM      4  C   LIG    1       26.141 -23.194   7.107  0.00  0.00    +0.101 C 
ATOM      5  N   LIG    1       26.100 -21.972   6.314  0.00  0.00    -0.317 NA
ATOM      6  H   LIG    1       25.567 -22.140   5.462  0.00  0.00    +0.122 HD
ENDBRANCH   2   5
ENDBRANCH   1   2
BRANCH   1   7
ATOM      7  C   LIG    1       23.205 -21.322   6.059  0.00  0.00    +0.029 C 
BRANCH   7   8
ATOM      8  C   LIG    1       22.520 -20.074   5.548  0.00  0.00    -0.028 C 
ATOM      9  C   LIG    1       22.929 -19.222   4.591  0.00  0.00    -0.080 C 
ATOM     10  C   LIG    1       22.113 -18.001   4.253  0.00  0.00    +0.038 C 
ATOM     11  C   LIG    1       24.177 -19.367   3.762  0.00  0.00    +0.038 C 
ENDBRANCH   7   8
ENDBRANCH   1   7
TORSDOF 4
ENDMDL
MODEL 4
REMARK VINA RESULT:      -5.6      1.625      4.633
REMARK  Name = *****
REMARK                            x       y       z     vdW  Elec       q    Type
REMARK                         _______ _______ _______ _____ _____    ______ ____
ROOT
ATOM      1  C   LIG    1       23.826 -20.851   6.614  0.00  0.00    +0.022 C 
ENDROOT
BRANCH   1   2
ATOM      2  C   LIG    1       23.253 -20.827   5.177  0.00  0.00    +0.051 C 
ATOM      3  C   LIG    1       22.556 -19.480   4.945  0.00  0.00    +0.024 C 
BRANCH   2   5
ATOM      4  C   LIG    1       24.808 -19.875   3.536  0.00  0.00    +0.101 C 
ATOM      5  N   LIG    1       24.329 -21.075   4.208  0.00  0.00    -0.317 NA
ATOM      6  H   LIG    1       25.111 -21.540   4.668  0.00  0.00    +0.122 HD
ENDBRANCH   2   5
ENDBRANCH   1   2
BRANCH   1   7
ATOM      7  C   LIG    1       23.234 -21.948   7.508  0.00  0.00    +0.029 C 
BRANCH   7   8
ATOM      8  C   LIG    1       23.256 -23.299   6.829  0.00  0.00    -0.028 C 
ATOM      9  C   LIG    1       24.296 -24.134   6.650  0.00  0.00    -0.080 C 
ATOM     10  C   LIG    1       24.118 -25.430   5.902  0.00  0.00    +0.038 C 
ATOM     11  C   LIG    1       25.697 -23.911   7.153  0.00  0.00    +0.038 C 
ENDBRANCH   7   8
ENDBRANCH   1   7
TORSDOF 4
ENDMDL
MODEL 5
REMARK VINA RESULT:      -5.5      3.103      3.817
REMARK  Name = *****
REMARK                            x       y       z     vdW  Elec       q    Type
REMARK                         _______ _______ _______ _____ _____    ______ ____
ROOT
ATOM      1  C   LIG    1       25.788 -20.654   8.006  0.00  0.00    +0.022 C 
ENDROOT
BRANCH   1   2
ATOM      2  C   LIG    1       27.075 -21.181   7.325  0.00  0.00    +0.051 C 
ATOM      3  C   LIG    1       27.442 -20.241   6.169  0.00  0.00    +0.024 C 
BRANCH   2   5
ATOM      4  C   LIG    1       29.474 -20.987   7.793  0.00  0.00    +0.101 C 
ATOM      5  N   LIG    1       28.151 -21.296   8.317  0.00  0.00    -0.317 NA
ATOM      6  H   LIG    1       27.955 -20.693   9.116  0.00  0.00    +0.122 HD
ENDBRANCH   2   5
ENDBRANCH   1   2
BRANCH   1   7
ATOM      7  C   LIG    1       24.516 -21.421   7.623  0.00  0.00    +0.029 C 
BRANCH   7   8
ATOM      8  C   LIG    1       23.537 -20.545   6.874  0.00  0.00    -0.028 C 
ATOM      9  C   LIG    1       23.431 -20.344   5.549  0.00  0.00    -0.080 C 
ATOM     10  C   LIG    1       22.403 -19.389   4.997  0.00  0.00    +0.038 C 
ATOM     11  C   LIG    1       24.266 -21.014   4.490  0.00  0.00    +0.038 C 
ENDBRANCH   7   8
ENDBRANCH   1   7
TORSDOF 4
ENDMDL
MODEL 6
REMARK VINA RESULT:      -5.5      2.122      2.591
REMARK  Name = *****
REMARK                            x       y       z     vdW  Elec       q    Type
REMARK                         _______ _______ _______ _____ _____    ______ ____
ROOT
ATOM      1  C   LIG    1       23.459 -23.983   6.644  0.00  0.00    +0.022 C 
ENDROOT
BRANCH   1   2
ATOM      2  C   LIG    1       24.755 -24.335   5.874  0.00  0.00    +0.051 C 
ATOM      3  C   LIG    1       25.831 -24.755   6.884  0.00  0.00    +0.024 C 
BRANCH   2   5
ATOM      4  C   LIG    1       25.515 -26.399   4.790  0.00  0.00    +0.101 C 
ATOM      5  N   LIG    1       24.477 -25.383   4.884  0.00  0.00    -0.317 NA
ATOM      6  H   LIG    1       23.583 -25.829   5.091  0.00  0.00    +0.122 HD
ENDBRANCH   2   5
ENDBRANCH   1   2
BRANCH   1   7
ATOM      7  C   LIG    1       23.179 -22.479   6.749  0.00  0.00    +0.029 C 
BRANCH   7   8
ATOM      8  C   LIG    1       24.116 -21.799   7.721  0.00  0.00    -0.028 C 
ATOM      9  C   LIG    1       25.212 -21.064   7.459  0.00  0.00    -0.080 C 
ATOM     10  C   LIG    1       26.044 -20.500   8.582  0.00  0.00    +0.038 C 
ATOM     11  C   LIG    1       25.722 -20.709   6.088  0.00  0.00    +0.038 C 
ENDBRANCH   7   8
ENDBRANCH   1   7
TORSDOF 4
ENDMDL
MODEL 7
REMARK VINA RESULT:      -5.4      2.316      5.052
REMARK  Name = *****
REMARK                            x       y       z     vdW  Elec       q    Type
REMARK                         _______ _______ _______ _____ _____    ______ ____
ROOT
ATOM      1  C   LIG    1       25.793 -20.849   6.802  0.00  0.00    +0.022 C 
ENDROOT
BRANCH   1   2
ATOM      2  C   LIG    1       25.117 -20.956   5.414  0.00  0.00    +0.051 C 
ATOM      3  C   LIG    1       23.688 -20.404   5.517  0.00  0.00    +0.024 C 
BRANCH   2   5
ATOM      4  C   LIG    1       25.166 -19.280   3.624  0.00  0.00    +0.101 C 
ATOM      5  N   LIG    1       25.921 -20.244   4.412  0.00  0.00    -0.317 NA
ATOM      6  H   LIG    1       26.703 -19.772   4.865  0.00  0.00    +0.122 HD
ENDBRANCH   2   5
ENDBRANCH   1   2
BRANCH   1   7
ATOM      7  C   LIG    1       25.423 -21.980   7.770  0.00  0.00    +0.029 C 
BRANCH   7   8
ATOM      8  C   LIG    1       25.931 -23.320   7.289  0.00  0.00    -0.028 C 
ATOM      9  C   LIG    1       25.231 -24.362   6.807  0.00  0.00    -0.080 C 
ATOM     10  C   LIG    1       25.928 -25.640   6.416  0.00  0.00    +0.038 C 
ATOM     11  C   LIG    1       23.741 -24.392   6.590  0.00  0.00    +0.038 C 
ENDBRANCH   7   8
ENDBRANCH   1   7
TORSDOF 4
ENDMDL
MODEL 8
REMARK VINA RESULT:      -5.4      6.028      7.389
REMARK  Name = *****
REMARK                            x       y       z     vdW  Elec       q    Type
REMARK                         _______ _______ _______ _____ _____    ______ ____
ROOT
ATOM      1  C   LIG    1       30.324 -20.196   7.520  0.00  0.00    +0.022 C 
ENDROOT
BRANCH   1   2
ATOM      2  C   LIG    1       30.902 -20.428   8.937  0.00  0.00    +0.051 C 
ATOM      3  C   LIG    1       31.279 -21.909   9.080  0.00  0.00    +0.024 C 
BRANCH   2   5
ATOM      4  C   LIG    1       31.675 -18.154   9.434  0.00  0.00    +0.101 C 
ATOM      5  N   LIG    1       32.046 -19.535   9.161  0.00  0.00    -0.317 NA
ATOM      6  H   LIG    1       32.620 -19.889   9.926  0.00  0.00    +0.122 HD
ENDBRANCH   2   5
ENDBRANCH   1   2
BRANCH   1   7
ATOM      7  C   LIG    1       28.817 -19.915   7.495  0.00  0.00    +0.029 C 
BRANCH   7   8
ATOM      8  C   LIG    1       28.016 -21.172   7.236  0.00  0.00    -0.028 C 
ATOM      9  C   LIG    1       26.807 -21.513   7.716  0.00  0.00    -0.080 C 
ATOM     10  C   LIG    1       26.191 -22.843   7.367  0.00  0.00    +0.038 C 
ATOM     11  C   LIG    1       25.943 -20.658   8.605  0.00  0.00    +0.038 C 
ENDBRANCH   7   8
ENDBRANCH   1   7
TORSDOF 4
ENDMDL
MODEL 9
REMARK VINA RESULT:      -5.3      4.341      5.321
REMARK  Name = *****
REMARK                            x       y       z     vdW  Elec       q    Type
REMARK                         _______ _______ _______ _____ _____    ______ ____
ROOT
ATOM      1  C   LIG    1       27.863 -21.450   7.630  0.00  0.00    +0.022 C 
ENDROOT
BRANCH   1   2
ATOM      2  C   LIG    1       29.027 -20.943   6.745  0.00  0.00    +0.051 C 
ATOM      3  C   LIG    1       28.615 -19.612   6.102  0.00  0.00    +0.024 C 
BRANCH   2   5
ATOM      4  C   LIG    1       30.880 -19.511   7.474  0.00  0.00    +0.101 C 
ATOM      5  N   LIG    1       30.248 -20.821   7.551  0.00  0.00    -0.317 NA
ATOM      6  H   LIG    1       30.046 -21.042   8.526  0.00  0.00    +0.122 HD
ENDBRANCH   2   5
ENDBRANCH   1   2
BRANCH   1   7
ATOM      7  C   LIG    1       26.912 -20.348   8.111  0.00  0.00    +0.029 C 
BRANCH   7   8
ATOM      8  C   LIG    1       25.466 -20.783   8.039  0.00  0.00    -0.028 C 
ATOM      9  C   LIG    1       24.665 -20.867   6.961  0.00  0.00    -0.080 C 
ATOM     10  C   LIG    1       23.225 -21.289   7.106  0.00  0.00    +0.038 C 
ATOM     11  C   LIG    1       25.073 -20.582   5.540  0.00  0.00    +0.038 C 
ENDBRANCH   7   8
ENDBRANCH   1   7
TORSDOF 4
ENDMDL
