MODEL 1
REMARK VINA RESULT:      -7.8      0.000      0.000
REMARK  Name = *****
REMARK                            x       y       z     vdW  Elec       q    Type
REMARK                         _______ _______ _______ _____ _____    ______ ____
ROOT
ATOM      1  N   LIG    1       24.833 -30.635   6.840  0.00  0.00    +0.251 N 
ATOM      2  C   LIG    1       23.833 -31.660   6.210  0.00  0.00    +0.162 C 
ATOM      3  C   LIG    1       24.486 -32.643   5.228  0.00  0.00    +0.210 C 
ATOM      4  O   LIG    1       25.596 -33.308   5.828  0.00  0.00    -0.369 OA
ATOM      5  C   LIG    1       26.623 -32.375   6.155  0.00  0.00    +0.210 C 
ATOM      6  C   LIG    1       26.143 -31.370   7.204  0.00  0.00    +0.162 C 
ENDROOT
BRANCH   1   7
ATOM      7  C   LIG    1       24.219 -30.017   8.150  0.00  0.00    +0.171 C 
BRANCH   7  11
ATOM      8  C   LIG    1       26.231 -30.396  11.947  0.00  0.00    +0.163 A 
ATOM      9  C   LIG    1       26.537 -29.343  11.065  0.00  0.00    +0.162 A 
ATOM     10  C   LIG    1       25.868 -29.284   9.846  0.00  0.00    +0.059 A 
ATOM     11  C   LIG    1       24.934 -30.235   9.448  0.00  0.00    +0.015 A 
ATOM     12  C   LIG    1       24.744 -31.350  10.275  0.00  0.00    +0.030 A 
ATOM     13 BR   LIG    1       23.667 -32.846   9.775  0.00  0.00    -0.050 Br
ATOM     14  C   LIG    1       25.366 -31.406  11.518  0.00  0.00    +0.065 A 
BRANCH   8  16
ATOM     15  C   LIG    1       26.010 -30.136  14.299  0.00  0.00    +0.277 C 
ATOM     16  O   LIG    1       26.758 -30.604  13.180  0.00  0.00    -0.491 OA
ENDBRANCH   8  16
BRANCH   9  17
ATOM     17  O   LIG    1       27.424 -28.372  11.417  0.00  0.00    -0.491 OA
ATOM     18  C   LIG    1       26.897 -27.222  12.090  0.00  0.00    +0.277 C 
ENDBRANCH   9  17
ENDBRANCH   7  11
ENDBRANCH   1   7
BRANCH   1  19
ATOM     19  C   LIG    1       25.054 -29.444   5.846  0.00  0.00    +0.162 C 
BRANCH  19  20
ATOM     20  C   LIG    1       24.709 -28.037   6.402  0.00  0.00    +0.210 C 
BRANCH  20  21
ATOM     21  O   LIG    1       25.021 -26.997   5.469  0.00  0.00    -0.374 OA
BRANCH  21  22
ATOM     22  C   LIG    1       24.214 -25.837   5.687  0.00  0.00    +0.160 C 
BRANCH  22  23
ATOM     23  C   LIG    1       25.051 -24.557   5.589  0.00  0.00    +0.032 C 
BRANCH  23  24
ATOM     24  C   LIG    1       24.705 -23.596   6.741  0.00  0.00    -0.005 C 
ATOM     25  C   LIG    1       23.503 -22.697   6.399  0.00  0.00    -0.002 C 
ATOM     26  C   LIG    1       23.757 -21.301   5.682  0.00  0.00    -0.029 C 
ATOM     27  C   LIG    1       24.225 -20.858   7.129  0.00  0.00    -0.005 C 
ATOM     28  C   LIG    1       25.613 -21.309   7.599  0.00  0.00    +0.004 C 
ATOM     29  C   LIG    1       22.462 -20.634   5.171  0.00  0.00    +0.011 C 
ATOM     30  C   LIG    1       24.790 -21.197   4.561  0.00  0.00    +0.011 C 
ATOM     31  C   LIG    1       23.171 -21.857   7.676  0.00  0.00    +0.008 C 
ATOM     32  C   LIG    1       25.926 -22.746   7.162  0.00  0.00    +0.004 C 
ENDBRANCH  23  24
ENDBRANCH  22  23
ENDBRANCH  21  22
ENDBRANCH  20  21
ENDBRANCH  19  20
ENDBRANCH   1  19
TORSDOF 10
ENDMDL
MODEL 2
REMARK VINA RESULT:      -7.7      1.714      2.411
REMARK  Name = *****
REMARK                            x       y       z     vdW  Elec       q    Type
REMARK                         _______ _______ _______ _____ _____    ______ ____
ROOT
ATOM      1  N   LIG    1       24.881 -30.526   6.658  0.00  0.00    +0.251 N 
ATOM      2  C   LIG    1       23.823 -31.562   6.151  0.00  0.00    +0.162 C 
ATOM      3  C   LIG    1       24.433 -32.758   5.405  0.00  0.00    +0.210 C 
ATOM      4  O   LIG    1       25.441 -33.393   6.188  0.00  0.00    -0.369 OA
ATOM      5  C   LIG    1       26.533 -32.504   6.416  0.00  0.00    +0.210 C 
ATOM      6  C   LIG    1       26.094 -31.289   7.236  0.00  0.00    +0.162 C 
ENDROOT
BRANCH   1   7
ATOM      7  C   LIG    1       24.258 -29.632   7.793  0.00  0.00    +0.171 C 
BRANCH   7  11
ATOM      8  C   LIG    1       24.182 -31.379  11.736  0.00  0.00    +0.163 A 
ATOM      9  C   LIG    1       23.122 -31.581  10.832  0.00  0.00    +0.162 A 
ATOM     10  C   LIG    1       23.196 -30.976   9.580  0.00  0.00    +0.059 A 
ATOM     11  C   LIG    1       24.252 -30.157   9.195  0.00  0.00    +0.015 A 
ATOM     12  C   LIG    1       25.227 -29.854  10.155  0.00  0.00    +0.030 A 
ATOM     13 BR   LIG    1       26.618 -28.580   9.859  0.00  0.00    -0.050 Br
ATOM     14  C   LIG    1       25.200 -30.484  11.395  0.00  0.00    +0.065 A 
BRANCH   8  16
ATOM     15  C   LIG    1       24.659 -31.012  14.034  0.00  0.00    +0.277 C 
ATOM     16  O   LIG    1       24.299 -31.902  12.983  0.00  0.00    -0.491 OA
ENDBRANCH   8  16
BRANCH   9  17
ATOM     17  O   LIG    1       22.078 -32.394  11.150  0.00  0.00    -0.491 OA
ATOM     18  C   LIG    1       20.973 -32.420  10.239  0.00  0.00    +0.277 C 
ENDBRANCH   9  17
ENDBRANCH   7  11
ENDBRANCH   1   7
BRANCH   1  19
ATOM     19  C   LIG    1       25.266 -29.558   5.487  0.00  0.00    +0.162 C 
BRANCH  19  20
ATOM     20  C   LIG    1       24.380 -28.292   5.350  0.00  0.00    +0.210 C 
BRANCH  20  21
ATOM     21  O   LIG    1       25.144 -27.085   5.459  0.00  0.00    -0.374 OA
BRANCH  21  22
ATOM     22  C   LIG    1       24.355 -26.009   5.970  0.00  0.00    +0.160 C 
BRANCH  22  23
ATOM     23  C   LIG    1       25.011 -24.656   5.673  0.00  0.00    +0.032 C 
BRANCH  23  24
ATOM     24  C   LIG    1       24.679 -23.639   6.781  0.00  0.00    -0.005 C 
ATOM     25  C   LIG    1       23.455 -22.777   6.423  0.00  0.00    -0.002 C 
ATOM     26  C   LIG    1       23.670 -21.418   5.627  0.00  0.00    -0.029 C 
ATOM     27  C   LIG    1       24.167 -20.891   7.036  0.00  0.00    -0.005 C 
ATOM     28  C   LIG    1       25.572 -21.298   7.494  0.00  0.00    +0.004 C 
ATOM     29  C   LIG    1       22.352 -20.797   5.114  0.00  0.00    +0.011 C 
ATOM     30  C   LIG    1       24.673 -21.359   4.476  0.00  0.00    +0.011 C 
ATOM     31  C   LIG    1       23.142 -21.874   7.662  0.00  0.00    +0.008 C 
ATOM     32  C   LIG    1       25.896 -22.751   7.126  0.00  0.00    +0.004 C 
ENDBRANCH  23  24
ENDBRANCH  22  23
ENDBRANCH  21  22
ENDBRANCH  20  21
ENDBRANCH  19  20
ENDBRANCH   1  19
TORSDOF 10
ENDMDL
MODEL 3
REMARK VINA RESULT:      -7.3      1.794      1.845
REMARK  Name = *****
REMARK                            x       y       z     vdW  Elec       q    Type
REMARK                         _______ _______ _______ _____ _____    ______ ____
ROOT
ATOM      1  N   LIG    1       24.934 -30.778   6.613  0.00  0.00    +0.251 N 
ATOM      2  C   LIG    1       23.827 -31.835   6.939  0.00  0.00    +0.162 C 
ATOM      3  C   LIG    1       23.392 -32.674   5.729  0.00  0.00    +0.210 C 
ATOM      4  O   LIG    1       24.515 -33.282   5.095  0.00  0.00    -0.369 OA
ATOM      5  C   LIG    1       25.389 -32.290   4.562  0.00  0.00    +0.210 C 
ATOM      6  C   LIG    1       25.980 -31.419   5.673  0.00  0.00    +0.162 C 
ENDROOT
BRANCH   1   7
ATOM      7  C   LIG    1       25.654 -30.325   7.936  0.00  0.00    +0.171 C 
BRANCH   7  11
ATOM      8  C   LIG    1       23.962 -31.769  11.632  0.00  0.00    +0.163 A 
ATOM      9  C   LIG    1       23.715 -30.458  11.184  0.00  0.00    +0.162 A 
ATOM     10  C   LIG    1       24.303 -30.043   9.993  0.00  0.00    +0.059 A 
ATOM     11  C   LIG    1       25.149 -30.854   9.243  0.00  0.00    +0.015 A 
ATOM     12  C   LIG    1       25.496 -32.104   9.774  0.00  0.00    +0.030 A 
ATOM     13 BR   LIG    1       26.808 -33.243   8.983  0.00  0.00    -0.050 Br
ATOM     14  C   LIG    1       24.883 -32.558  10.938  0.00  0.00    +0.065 A 
BRANCH   8  16
ATOM     15  C   LIG    1       24.331 -32.479  13.869  0.00  0.00    +0.277 C 
ATOM     16  O   LIG    1       23.461 -32.356  12.749  0.00  0.00    -0.491 OA
ENDBRANCH   8  16
BRANCH   9  17
ATOM     17  O   LIG    1       22.874 -29.633  11.866  0.00  0.00    -0.491 OA
ATOM     18  C   LIG    1       23.467 -28.743  12.820  0.00  0.00    +0.277 C 
ENDBRANCH   9  17
ENDBRANCH   7  11
ENDBRANCH   1   7
BRANCH   1  19
ATOM     19  C   LIG    1       24.268 -29.496   6.005  0.00  0.00    +0.162 C 
BRANCH  19  20
ATOM     20  C   LIG    1       25.192 -28.255   5.891  0.00  0.00    +0.210 C 
BRANCH  20  21
ATOM     21  O   LIG    1       24.515 -27.131   5.316  0.00  0.00    -0.374 OA
BRANCH  21  22
ATOM     22  C   LIG    1       24.281 -26.107   6.286  0.00  0.00    +0.160 C 
BRANCH  22  23
ATOM     23  C   LIG    1       24.496 -24.716   5.681  0.00  0.00    +0.032 C 
BRANCH  23  24
ATOM     24  C   LIG    1       24.455 -23.637   6.779  0.00  0.00    -0.005 C 
ATOM     25  C   LIG    1       23.355 -22.593   6.519  0.00  0.00    -0.002 C 
ATOM     26  C   LIG    1       23.697 -21.303   5.655  0.00  0.00    -0.029 C 
ATOM     27  C   LIG    1       24.423 -20.837   6.984  0.00  0.00    -0.005 C 
ATOM     28  C   LIG    1       25.786 -21.460   7.306  0.00  0.00    +0.004 C 
ATOM     29  C   LIG    1       22.448 -20.485   5.261  0.00  0.00    +0.011 C 
ATOM     30  C   LIG    1       24.564 -21.432   4.404  0.00  0.00    +0.011 C 
ATOM     31  C   LIG    1       23.328 -21.627   7.749  0.00  0.00    +0.008 C 
ATOM     32  C   LIG    1       25.830 -22.954   6.960  0.00  0.00    +0.004 C 
ENDBRANCH  23  24
ENDBRANCH  22  23
ENDBRANCH  21  22
ENDBRANCH  20  21
ENDBRANCH  19  20
ENDBRANCH   1  19
TORSDOF 10
ENDMDL
MODEL 4
REMARK VINA RESULT:      -7.2      2.261      2.697
REMARK  Name = *****
REMARK                            x       y       z     vdW  Elec       q    Type
REMARK                         _______ _______ _______ _____ _____    ______ ____
ROOT
ATOM      1  N   LIG    1       24.847 -30.910   7.875  0.00  0.00    +0.251 N 
ATOM      2  C   LIG    1       23.719 -31.900   7.432  0.00  0.00    +0.162 C 
ATOM      3  C   LIG    1       23.599 -32.065   5.910  0.00  0.00    +0.210 C 
ATOM      4  O   LIG    1       24.853 -32.420   5.331  0.00  0.00    -0.369 OA
ATOM      5  C   LIG    1       25.804 -31.374   5.515  0.00  0.00    +0.210 C 
ATOM      6  C   LIG    1       26.098 -31.150   7.000  0.00  0.00    +0.162 C 
ENDROOT
BRANCH   1   7
ATOM      7  C   LIG    1       25.227 -31.163   9.380  0.00  0.00    +0.171 C 
BRANCH   7  11
ATOM      8  C   LIG    1       23.341 -28.867  12.508  0.00  0.00    +0.163 A 
ATOM      9  C   LIG    1       22.603 -29.780  11.731  0.00  0.00    +0.162 A 
ATOM     10  C   LIG    1       23.263 -30.478  10.724  0.00  0.00    +0.059 A 
ATOM     11  C   LIG    1       24.610 -30.292  10.430  0.00  0.00    +0.015 A 
ATOM     12  C   LIG    1       25.295 -29.281  11.118  0.00  0.00    +0.030 A 
ATOM     13 BR   LIG    1       27.078 -28.752  10.686  0.00  0.00    -0.050 Br
ATOM     14  C   LIG    1       24.669 -28.604  12.160  0.00  0.00    +0.065 A 
BRANCH   8  16
ATOM     15  C   LIG    1       23.512 -26.863  13.771  0.00  0.00    +0.277 C 
ATOM     16  O   LIG    1       22.880 -28.119  13.541  0.00  0.00    -0.491 OA
ENDBRANCH   8  16
BRANCH   9  17
ATOM     17  O   LIG    1       21.289 -30.018  11.993  0.00  0.00    -0.491 OA
ATOM     18  C   LIG    1       20.993 -31.002  12.992  0.00  0.00    +0.277 C 
ENDBRANCH   9  17
ENDBRANCH   7  11
ENDBRANCH   1   7
BRANCH   1  19
ATOM     19  C   LIG    1       24.312 -29.439   7.790  0.00  0.00    +0.162 C 
BRANCH  19  20
ATOM     20  C   LIG    1       25.061 -28.513   6.795  0.00  0.00    +0.210 C 
BRANCH  20  21
ATOM     21  O   LIG    1       24.234 -27.441   6.331  0.00  0.00    -0.374 OA
BRANCH  21  22
ATOM     22  C   LIG    1       24.983 -26.235   6.163  0.00  0.00    +0.160 C 
BRANCH  22  23
ATOM     23  C   LIG    1       24.070 -25.068   5.774  0.00  0.00    +0.032 C 
BRANCH  23  24
ATOM     24  C   LIG    1       24.103 -23.971   6.855  0.00  0.00    -0.005 C 
ATOM     25  C   LIG    1       23.119 -22.829   6.545  0.00  0.00    -0.002 C 
ATOM     26  C   LIG    1       23.613 -21.594   5.675  0.00  0.00    -0.029 C 
ATOM     27  C   LIG    1       24.341 -21.179   7.019  0.00  0.00    -0.005 C 
ATOM     28  C   LIG    1       25.626 -21.927   7.394  0.00  0.00    +0.004 C 
ATOM     29  C   LIG    1       22.463 -20.664   5.230  0.00  0.00    +0.011 C 
ATOM     30  C   LIG    1       24.500 -21.829   4.454  0.00  0.00    +0.011 C 
ATOM     31  C   LIG    1       23.151 -21.844   7.761  0.00  0.00    +0.008 C 
ATOM     32  C   LIG    1       25.532 -23.424   7.070  0.00  0.00    +0.004 C 
ENDBRANCH  23  24
ENDBRANCH  22  23
ENDBRANCH  21  22
ENDBRANCH  20  21
ENDBRANCH  19  20
ENDBRANCH   1  19
TORSDOF 10
ENDMDL
MODEL 5
REMARK VINA RESULT:      -7.0      5.365      9.796
REMARK  Name = *****
REMARK                            x       y       z     vdW  Elec       q    Type
REMARK                         _______ _______ _______ _____ _____    ______ ____
ROOT
ATOM      1  N   LIG    1       26.586 -21.232   6.605  0.00  0.00    +0.251 N 
ATOM      2  C   LIG    1       26.187 -20.150   7.663  0.00  0.00    +0.162 C 
ATOM      3  C   LIG    1       25.270 -20.677   8.776  0.00  0.00    +0.210 C 
ATOM      4  O   LIG    1       25.832 -21.828   9.403  0.00  0.00    -0.369 OA
ATOM      5  C   LIG    1       25.939 -22.903   8.473  0.00  0.00    +0.210 C 
ATOM      6  C   LIG    1       26.903 -22.556   7.336  0.00  0.00    +0.162 C 
ENDROOT
BRANCH   1   7
ATOM      7  C   LIG    1       27.866 -20.770   5.817  0.00  0.00    +0.171 C 
BRANCH   7  11
ATOM      8  C   LIG    1       31.201 -19.135   8.012  0.00  0.00    +0.163 A 
ATOM      9  C   LIG    1       30.575 -20.327   8.423  0.00  0.00    +0.162 A 
ATOM     10  C   LIG    1       29.492 -20.795   7.684  0.00  0.00    +0.059 A 
ATOM     11  C   LIG    1       28.981 -20.123   6.579  0.00  0.00    +0.015 A 
ATOM     12  C   LIG    1       29.525 -18.869   6.269  0.00  0.00    +0.030 A 
ATOM     13 BR   LIG    1       28.799 -17.723   4.925  0.00  0.00    -0.050 Br
ATOM     14  C   LIG    1       30.638 -18.404   6.962  0.00  0.00    +0.065 A 
BRANCH   8  16
ATOM     15  C   LIG    1       32.082 -17.254   9.165  0.00  0.00    +0.277 C 
ATOM     16  O   LIG    1       32.277 -18.541   8.587  0.00  0.00    -0.491 OA
ENDBRANCH   8  16
BRANCH   9  17
ATOM     17  O   LIG    1       31.052 -21.038   9.482  0.00  0.00    -0.491 OA
ATOM     18  C   LIG    1       31.483 -22.380   9.225  0.00  0.00    +0.277 C 
ENDBRANCH   9  17
ENDBRANCH   7  11
ENDBRANCH   1   7
BRANCH   1  19
ATOM     19  C   LIG    1       25.438 -21.375   5.547  0.00  0.00    +0.162 C 
BRANCH  19  20
ATOM     20  C   LIG    1       23.997 -21.239   6.105  0.00  0.00    +0.210 C 
BRANCH  20  21
ATOM     21  O   LIG    1       23.324 -22.501   6.173  0.00  0.00    -0.374 OA
BRANCH  21  22
ATOM     22  C   LIG    1       24.133 -23.556   5.648  0.00  0.00    +0.160 C 
BRANCH  22  23
ATOM     23  C   LIG    1       23.896 -24.864   6.410  0.00  0.00    +0.032 C 
BRANCH  23  24
ATOM     24  C   LIG    1       24.173 -26.077   5.502  0.00  0.00    -0.005 C 
ATOM     25  C   LIG    1       24.082 -27.406   6.274  0.00  0.00    -0.002 C 
ATOM     26  C   LIG    1       25.385 -27.987   6.975  0.00  0.00    -0.029 C 
ATOM     27  C   LIG    1       25.779 -28.379   5.492  0.00  0.00    -0.005 C 
ATOM     28  C   LIG    1       26.297 -27.266   4.574  0.00  0.00    +0.004 C 
ATOM     29  C   LIG    1       25.091 -29.173   7.919  0.00  0.00    +0.011 C 
ATOM     30  C   LIG    1       26.335 -27.047   7.716  0.00  0.00    +0.011 C 
ATOM     31  C   LIG    1       24.259 -28.562   5.235  0.00  0.00    +0.008 C 
ATOM     32  C   LIG    1       25.534 -25.952   4.781  0.00  0.00    +0.004 C 
ENDBRANCH  23  24
ENDBRANCH  22  23
ENDBRANCH  21  22
ENDBRANCH  20  21
ENDBRANCH  19  20
ENDBRANCH   1  19
TORSDOF 10
ENDMDL
MODEL 6
REMARK VINA RESULT:      -6.9      1.651      1.798
REMARK  Name = *****
REMARK                            x       y       z     vdW  Elec       q    Type
REMARK                         _______ _______ _______ _____ _____    ______ ____
ROOT
ATOM      1  N   LIG    1       24.828 -31.119   8.029  0.00  0.00    +0.251 N 
ATOM      2  C   LIG    1       23.741 -32.115   7.505  0.00  0.00    +0.162 C 
ATOM      3  C   LIG    1       23.640 -32.176   5.974  0.00  0.00    +0.210 C 
ATOM      4  O   LIG    1       24.910 -32.443   5.385  0.00  0.00    -0.369 OA
ATOM      5  C   LIG    1       25.821 -31.380   5.653  0.00  0.00    +0.210 C 
ATOM      6  C   LIG    1       26.094 -31.251   7.153  0.00  0.00    +0.162 C 
ENDROOT
BRANCH   1   7
ATOM      7  C   LIG    1       25.204 -31.465   9.517  0.00  0.00    +0.171 C 
BRANCH   7  11
ATOM      8  C   LIG    1       24.418 -28.417  12.467  0.00  0.00    +0.163 A 
ATOM      9  C   LIG    1       25.728 -28.680  12.026  0.00  0.00    +0.162 A 
ATOM     10  C   LIG    1       25.921 -29.688  11.085  0.00  0.00    +0.059 A 
ATOM     11  C   LIG    1       24.883 -30.468  10.587  0.00  0.00    +0.015 A 
ATOM     12  C   LIG    1       23.607 -30.288  11.139  0.00  0.00    +0.030 A 
ATOM     13 BR   LIG    1       22.125 -31.418  10.725  0.00  0.00    -0.050 Br
ATOM     14  C   LIG    1       23.382 -29.255  12.044  0.00  0.00    +0.065 A 
BRANCH   8  16
ATOM     15  C   LIG    1       22.639 -27.190  13.453  0.00  0.00    +0.277 C 
ATOM     16  O   LIG    1       24.032 -27.465  13.354  0.00  0.00    -0.491 OA
ENDBRANCH   8  16
BRANCH   9  17
ATOM     17  O   LIG    1       26.776 -27.929  12.462  0.00  0.00    -0.491 OA
ATOM     18  C   LIG    1       27.231 -28.162  13.801  0.00  0.00    +0.277 C 
ENDBRANCH   9  17
ENDBRANCH   7  11
ENDBRANCH   1   7
BRANCH   1  19
ATOM     19  C   LIG    1       24.241 -29.666   8.043  0.00  0.00    +0.162 C 
BRANCH  19  20
ATOM     20  C   LIG    1       25.089 -28.596   7.307  0.00  0.00    +0.210 C 
BRANCH  20  21
ATOM     21  O   LIG    1       24.273 -27.623   6.645  0.00  0.00    -0.374 OA
BRANCH  21  22
ATOM     22  C   LIG    1       25.044 -26.501   6.209  0.00  0.00    +0.160 C 
BRANCH  22  23
ATOM     23  C   LIG    1       24.139 -25.318   5.847  0.00  0.00    +0.032 C 
BRANCH  23  24
ATOM     24  C   LIG    1       24.276 -24.194   6.889  0.00  0.00    -0.005 C 
ATOM     25  C   LIG    1       23.305 -23.032   6.612  0.00  0.00    -0.002 C 
ATOM     26  C   LIG    1       23.773 -21.837   5.674  0.00  0.00    -0.029 C 
ATOM     27  C   LIG    1       24.602 -21.406   6.953  0.00  0.00    -0.005 C 
ATOM     28  C   LIG    1       25.888 -22.181   7.263  0.00  0.00    +0.004 C 
ATOM     29  C   LIG    1       22.622 -20.886   5.279  0.00  0.00    +0.011 C 
ATOM     30  C   LIG    1       24.569 -22.132   4.404  0.00  0.00    +0.011 C 
ATOM     31  C   LIG    1       23.447 -22.014   7.793  0.00  0.00    +0.008 C 
ATOM     32  C   LIG    1       25.731 -23.683   6.992  0.00  0.00    +0.004 C 
ENDBRANCH  23  24
ENDBRANCH  22  23
ENDBRANCH  21  22
ENDBRANCH  20  21
ENDBRANCH  19  20
ENDBRANCH   1  19
TORSDOF 10
ENDMDL
MODEL 7
REMARK VINA RESULT:      -6.8      2.564      4.051
REMARK  Name = *****
REMARK                            x       y       z     vdW  Elec       q    Type
REMARK                         _______ _______ _______ _____ _____    ______ ____
ROOT
ATOM      1  N   LIG    1       25.700 -29.360   9.347  0.00  0.00    +0.251 N 
ATOM      2  C   LIG    1       26.743 -30.527   9.379  0.00  0.00    +0.162 C 
ATOM      3  C   LIG    1       27.734 -30.444  10.548  0.00  0.00    +0.210 C 
ATOM      4  O   LIG    1       27.051 -30.329  11.795  0.00  0.00    -0.369 OA
ATOM      5  C   LIG    1       26.311 -29.112  11.850  0.00  0.00    +0.210 C 
ATOM      6  C   LIG    1       25.211 -29.085  10.786  0.00  0.00    +0.162 C 
ENDROOT
BRANCH   1   7
ATOM      7  C   LIG    1       24.465 -29.764   8.461  0.00  0.00    +0.171 C 
BRANCH   7  11
ATOM      8  C   LIG    1       21.638 -32.690   9.894  0.00  0.00    +0.163 A 
ATOM      9  C   LIG    1       21.778 -31.443  10.531  0.00  0.00    +0.162 A 
ATOM     10  C   LIG    1       22.720 -30.547  10.033  0.00  0.00    +0.059 A 
ATOM     11  C   LIG    1       23.551 -30.841   8.956  0.00  0.00    +0.015 A 
ATOM     12  C   LIG    1       23.496 -32.136   8.424  0.00  0.00    +0.030 A 
ATOM     13 BR   LIG    1       24.713 -32.767   7.095  0.00  0.00    -0.050 Br
ATOM     14  C   LIG    1       22.530 -33.031   8.873  0.00  0.00    +0.065 A 
BRANCH   8  16
ATOM     15  C   LIG    1       19.552 -33.747   9.471  0.00  0.00    +0.277 C 
ATOM     16  O   LIG    1       20.763 -33.676  10.218  0.00  0.00    -0.491 OA
ENDBRANCH   8  16
BRANCH   9  17
ATOM     17  O   LIG    1       20.972 -31.095  11.571  0.00  0.00    -0.491 OA
ATOM     18  C   LIG    1       21.009 -29.727  11.996  0.00  0.00    +0.277 C 
ENDBRANCH   9  17
ENDBRANCH   7  11
ENDBRANCH   1   7
BRANCH   1  19
ATOM     19  C   LIG    1       26.346 -28.104   8.667  0.00  0.00    +0.162 C 
BRANCH  19  20
ATOM     20  C   LIG    1       25.743 -27.705   7.295  0.00  0.00    +0.210 C 
BRANCH  20  21
ATOM     21  O   LIG    1       25.815 -26.293   7.065  0.00  0.00    -0.374 OA
BRANCH  21  22
ATOM     22  C   LIG    1       24.955 -25.891   5.996  0.00  0.00    +0.160 C 
BRANCH  22  23
ATOM     23  C   LIG    1       25.159 -24.412   5.651  0.00  0.00    +0.032 C 
BRANCH  23  24
ATOM     24  C   LIG    1       24.721 -23.517   6.825  0.00  0.00    -0.005 C 
ATOM     25  C   LIG    1       23.563 -22.582   6.434  0.00  0.00    -0.002 C 
ATOM     26  C   LIG    1       23.892 -21.149   5.830  0.00  0.00    -0.029 C 
ATOM     27  C   LIG    1       24.234 -20.800   7.337  0.00  0.00    -0.005 C 
ATOM     28  C   LIG    1       25.570 -21.300   7.899  0.00  0.00    +0.004 C 
ATOM     29  C   LIG    1       22.653 -20.434   5.249  0.00  0.00    +0.011 C 
ATOM     30  C   LIG    1       25.021 -20.992   4.813  0.00  0.00    +0.011 C 
ATOM     31  C   LIG    1       23.126 -21.815   7.727  0.00  0.00    +0.008 C 
ATOM     32  C   LIG    1       25.908 -22.712   7.403  0.00  0.00    +0.004 C 
ENDBRANCH  23  24
ENDBRANCH  22  23
ENDBRANCH  21  22
ENDBRANCH  20  21
ENDBRANCH  19  20
ENDBRANCH   1  19
TORSDOF 10
ENDMDL
MODEL 8
REMARK VINA RESULT:      -6.6      5.003      9.911
REMARK  Name = *****
REMARK                            x       y       z     vdW  Elec       q    Type
REMARK                         _______ _______ _______ _____ _____    ______ ____
ROOT
ATOM      1  N   LIG    1       25.962 -21.463   6.376  0.00  0.00    +0.251 N 
ATOM      2  C   LIG    1       24.745 -21.558   5.396  0.00  0.00    +0.162 C 
ATOM      3  C   LIG    1       23.383 -21.633   6.101  0.00  0.00    +0.210 C 
ATOM      4  O   LIG    1       23.220 -20.555   7.021  0.00  0.00    -0.369 OA
ATOM      5  C   LIG    1       24.184 -20.641   8.068  0.00  0.00    +0.210 C 
ATOM      6  C   LIG    1       25.606 -20.492   7.524  0.00  0.00    +0.162 C 
ENDROOT
BRANCH   1   7
ATOM      7  C   LIG    1       27.223 -20.908   5.617  0.00  0.00    +0.171 C 
BRANCH   7  11
ATOM      8  C   LIG    1       30.665 -19.724   7.932  0.00  0.00    +0.163 A 
ATOM      9  C   LIG    1       29.913 -20.862   8.279  0.00  0.00    +0.162 A 
ATOM     10  C   LIG    1       28.802 -21.183   7.504  0.00  0.00    +0.059 A 
ATOM     11  C   LIG    1       28.383 -20.414   6.424  0.00  0.00    +0.015 A 
ATOM     12  C   LIG    1       29.059 -19.210   6.178  0.00  0.00    +0.030 A 
ATOM     13 BR   LIG    1       28.479 -17.938   4.878  0.00  0.00    -0.050 Br
ATOM     14  C   LIG    1       30.200 -18.893   6.908  0.00  0.00    +0.065 A 
BRANCH   8  16
ATOM     15  C   LIG    1       31.877 -17.868   8.786  0.00  0.00    +0.277 C 
ATOM     16  O   LIG    1       31.785 -19.269   8.548  0.00  0.00    -0.491 OA
ENDBRANCH   8  16
BRANCH   9  17
ATOM     17  O   LIG    1       30.295 -21.663   9.311  0.00  0.00    -0.491 OA
ATOM     18  C   LIG    1       31.476 -22.452   9.121  0.00  0.00    +0.277 C 
ENDBRANCH   9  17
ENDBRANCH   7  11
ENDBRANCH   1   7
BRANCH   1  19
ATOM     19  C   LIG    1       26.338 -22.898   6.880  0.00  0.00    +0.162 C 
BRANCH  19  20
ATOM     20  C   LIG    1       25.538 -24.062   6.238  0.00  0.00    +0.210 C 
BRANCH  20  21
ATOM     21  O   LIG    1       26.256 -25.299   6.283  0.00  0.00    -0.374 OA
BRANCH  21  22
ATOM     22  C   LIG    1       25.664 -26.281   5.429  0.00  0.00    +0.160 C 
BRANCH  22  23
ATOM     23  C   LIG    1       24.376 -26.840   6.042  0.00  0.00    +0.032 C 
BRANCH  23  24
ATOM     24  C   LIG    1       24.295 -28.364   5.834  0.00  0.00    -0.005 C 
ATOM     25  C   LIG    1       23.914 -29.102   7.130  0.00  0.00    -0.002 C 
ATOM     26  C   LIG    1       25.064 -29.580   8.117  0.00  0.00    -0.029 C 
ATOM     27  C   LIG    1       25.272 -30.710   7.027  0.00  0.00    -0.005 C 
ATOM     28  C   LIG    1       26.005 -30.327   5.736  0.00  0.00    +0.004 C 
ATOM     29  C   LIG    1       24.532 -30.066   9.483  0.00  0.00    +0.011 C 
ATOM     30  C   LIG    1       26.255 -28.666   8.399  0.00  0.00    +0.011 C 
ATOM     31  C   LIG    1       23.744 -30.616   6.772  0.00  0.00    +0.008 C 
ATOM     32  C   LIG    1       25.606 -28.931   5.243  0.00  0.00    +0.004 C 
ENDBRANCH  23  24
ENDBRANCH  22  23
ENDBRANCH  21  22
ENDBRANCH  20  21
ENDBRANCH  19  20
ENDBRANCH   1  19
TORSDOF 10
ENDMDL
MODEL 9
REMARK VINA RESULT:      -6.6      3.927     10.353
REMARK  Name = *****
REMARK                            x       y       z     vdW  Elec       q    Type
REMARK                         _______ _______ _______ _____ _____    ______ ____
ROOT
ATOM      1  N   LIG    1       25.931 -22.328   6.747  0.00  0.00    +0.251 N 
ATOM      2  C   LIG    1       25.126 -21.473   7.781  0.00  0.00    +0.162 C 
ATOM      3  C   LIG    1       25.952 -21.025   8.995  0.00  0.00    +0.210 C 
ATOM      4  O   LIG    1       27.143 -20.355   8.588  0.00  0.00    -0.369 OA
ATOM      5  C   LIG    1       27.996 -21.241   7.867  0.00  0.00    +0.210 C 
ATOM      6  C   LIG    1       27.335 -21.709   6.568  0.00  0.00    +0.162 C 
ENDROOT
BRANCH   1   7
ATOM      7  C   LIG    1       25.196 -22.325   5.356  0.00  0.00    +0.171 C 
BRANCH   7  11
ATOM      8  C   LIG    1       22.514 -19.127   4.266  0.00  0.00    +0.163 A 
ATOM      9  C   LIG    1       23.902 -19.012   4.062  0.00  0.00    +0.162 A 
ATOM     10  C   LIG    1       24.718 -20.070   4.452  0.00  0.00    +0.059 A 
ATOM     11  C   LIG    1       24.229 -21.221   5.060  0.00  0.00    +0.015 A 
ATOM     12  C   LIG    1       22.865 -21.260   5.382  0.00  0.00    +0.030 A 
ATOM     13 BR   LIG    1       22.078 -22.666   6.408  0.00  0.00    -0.050 Br
ATOM     14  C   LIG    1       22.023 -20.237   4.960  0.00  0.00    +0.065 A 
BRANCH   8  16
ATOM     15  C   LIG    1       20.367 -18.711   3.337  0.00  0.00    +0.277 C 
ATOM     16  O   LIG    1       21.564 -18.218   3.932  0.00  0.00    -0.491 OA
ENDBRANCH   8  16
BRANCH   9  17
ATOM     17  O   LIG    1       24.429 -17.918   3.448  0.00  0.00    -0.491 OA
ATOM     18  C   LIG    1       25.856 -17.857   3.339  0.00  0.00    +0.277 C 
ENDBRANCH   9  17
ENDBRANCH   7  11
ENDBRANCH   1   7
BRANCH   1  19
ATOM     19  C   LIG    1       25.975 -23.820   7.226  0.00  0.00    +0.162 C 
BRANCH  19  20
ATOM     20  C   LIG    1       25.312 -24.847   6.270  0.00  0.00    +0.210 C 
BRANCH  20  21
ATOM     21  O   LIG    1       26.258 -25.786   5.749  0.00  0.00    -0.374 OA
BRANCH  21  22
ATOM     22  C   LIG    1       25.611 -26.950   5.228  0.00  0.00    +0.160 C 
BRANCH  22  23
ATOM     23  C   LIG    1       24.404 -27.340   6.088  0.00  0.00    +0.032 C 
BRANCH  23  24
ATOM     24  C   LIG    1       24.297 -28.871   6.208  0.00  0.00    -0.005 C 
ATOM     25  C   LIG    1       24.069 -29.320   7.662  0.00  0.00    -0.002 C 
ATOM     26  C   LIG    1       25.327 -29.615   8.589  0.00  0.00    -0.029 C 
ATOM     27  C   LIG    1       25.404 -30.949   7.737  0.00  0.00    -0.005 C 
ATOM     28  C   LIG    1       25.981 -30.856   6.320  0.00  0.00    +0.004 C 
ATOM     29  C   LIG    1       24.957 -29.800  10.077  0.00  0.00    +0.011 C 
ATOM     30  C   LIG    1       26.544 -28.693   8.539  0.00  0.00    +0.011 C 
ATOM     31  C   LIG    1       23.857 -30.870   7.644  0.00  0.00    +0.008 C 
ATOM     32  C   LIG    1       25.529 -29.579   5.600  0.00  0.00    +0.004 C 
ENDBRANCH  23  24
ENDBRANCH  22  23
ENDBRANCH  21  22
ENDBRANCH  20  21
ENDBRANCH  19  20
ENDBRANCH   1  19
TORSDOF 10
ENDMDL
