MODEL 1
REMARK VINA RESULT:      -4.1      0.000      0.000
REMARK  Name = *****
REMARK                            x       y       z     vdW  Elec       q    Type
REMARK                         _______ _______ _______ _____ _____    ______ ____
ROOT
ATOM      1  C   LIG    1       25.877 -13.342   2.974  0.00  0.00    +0.180 C 
ENDROOT
BRANCH   1   2
ATOM      2  O   LIG    1       26.309 -14.139   1.853  0.00  0.00    -0.386 OA
ATOM      3  H   LIG    1       26.722 -13.522   1.216  0.00  0.00    +0.210 HD
ENDBRANCH   1   2
BRANCH   1   4
ATOM      4  C   LIG    1       24.342 -13.278   3.018  0.00  0.00    +0.208 C 
BRANCH   4   6
ATOM      5  O   LIG    1       23.739 -11.554   4.585  0.00  0.00    -0.298 OA
ATOM      6  C   LIG    1       23.800 -11.911   3.420  0.00  0.00    +0.257 C 
ENDBRANCH   4   6
BRANCH   4   7
ATOM      7  O   LIG    1       23.866 -14.267   3.940  0.00  0.00    -0.382 OA
ATOM      8  H   LIG    1       23.965 -13.869   4.832  0.00  0.00    +0.210 HD
ENDBRANCH   4   7
ENDBRANCH   1   4
BRANCH   1   9
ATOM      9  C   LIG    1       26.559 -13.921   4.221  0.00  0.00    +0.171 C 
BRANCH   9  10
ATOM     10  O   LIG    1       26.322 -13.084   5.366  0.00  0.00    -0.387 OA
ATOM     11  H   LIG    1       25.370 -12.851   5.326  0.00  0.00    +0.210 HD
ENDBRANCH   9  10
BRANCH   9  12
ATOM     12  C   LIG    1       28.068 -14.105   4.067  0.00  0.00    +0.190 C 
BRANCH  12  13
ATOM     13  O   LIG    1       28.590 -13.039   3.276  0.00  0.00    -0.392 OA
ATOM     14  H   LIG    1       28.321 -12.216   3.732  0.00  0.00    +0.209 HD
ENDBRANCH  12  13
ENDBRANCH   9  12
ENDBRANCH   1   9
TORSDOF 8
ENDMDL
MODEL 2
REMARK VINA RESULT:      -4.0      1.518      2.225
REMARK  Name = *****
REMARK                            x       y       z     vdW  Elec       q    Type
REMARK                         _______ _______ _______ _____ _____    ______ ____
ROOT
ATOM      1  C   LIG    1       26.070 -13.722   4.082  0.00  0.00    +0.180 C 
ENDROOT
BRANCH   1   2
ATOM      2  O   LIG    1       25.112 -12.913   4.793  0.00  0.00    -0.386 OA
ATOM      3  H   LIG    1       24.773 -13.463   5.527  0.00  0.00    +0.210 HD
ENDBRANCH   1   2
BRANCH   1   4
ATOM      4  C   LIG    1       26.159 -13.269   2.615  0.00  0.00    +0.208 C 
BRANCH   4   6
ATOM      5  O   LIG    1       24.238 -11.841   2.371  0.00  0.00    -0.298 OA
ATOM      6  C   LIG    1       24.817 -12.856   2.022  0.00  0.00    +0.257 C 
ENDBRANCH   4   6
BRANCH   4   7
ATOM      7  O   LIG    1       26.713 -14.337   1.837  0.00  0.00    -0.382 OA
ATOM      8  H   LIG    1       27.133 -13.909   1.059  0.00  0.00    +0.210 HD
ENDBRANCH   4   7
ENDBRANCH   1   4
BRANCH   1   9
ATOM      9  C   LIG    1       27.379 -13.667   4.880  0.00  0.00    +0.171 C 
BRANCH   9  10
ATOM     10  O   LIG    1       27.118 -13.415   6.271  0.00  0.00    -0.387 OA
ATOM     11  H   LIG    1       26.141 -13.431   6.360  0.00  0.00    +0.210 HD
ENDBRANCH   9  10
BRANCH   9  12
ATOM     12  C   LIG    1       28.361 -12.608   4.379  0.00  0.00    +0.190 C 
BRANCH  12  13
ATOM     13  O   LIG    1       28.938 -11.938   5.498  0.00  0.00    -0.392 OA
ATOM     14  H   LIG    1       29.212 -11.059   5.167  0.00  0.00    +0.209 HD
ENDBRANCH  12  13
ENDBRANCH   9  12
ENDBRANCH   1   9
TORSDOF 8
ENDMDL
MODEL 3
REMARK VINA RESULT:      -3.9      0.750      1.824
REMARK  Name = *****
REMARK                            x       y       z     vdW  Elec       q    Type
REMARK                         _______ _______ _______ _____ _____    ______ ____
ROOT
ATOM      1  C   LIG    1       25.888 -14.016   4.050  0.00  0.00    +0.180 C 
ENDROOT
BRANCH   1   2
ATOM      2  O   LIG    1       26.099 -13.379   5.326  0.00  0.00    -0.386 OA
ATOM      3  H   LIG    1       25.593 -12.543   5.308  0.00  0.00    +0.210 HD
ENDBRANCH   1   2
BRANCH   1   4
ATOM      4  C   LIG    1       24.437 -13.805   3.587  0.00  0.00    +0.208 C 
BRANCH   4   6
ATOM      5  O   LIG    1       23.817 -11.765   4.704  0.00  0.00    -0.298 OA
ATOM      6  C   LIG    1       23.984 -12.350   3.647  0.00  0.00    +0.257 C 
ENDBRANCH   4   6
BRANCH   4   7
ATOM      7  O   LIG    1       23.572 -14.605   4.403  0.00  0.00    -0.382 OA
ATOM      8  H   LIG    1       24.165 -15.168   4.947  0.00  0.00    +0.210 HD
ENDBRANCH   4   7
ENDBRANCH   1   4
BRANCH   1   9
ATOM      9  C   LIG    1       26.975 -13.490   3.104  0.00  0.00    +0.171 C 
BRANCH   9  10
ATOM     10  O   LIG    1       26.903 -14.150   1.829  0.00  0.00    -0.387 OA
ATOM     11  H   LIG    1       26.431 -13.525   1.238  0.00  0.00    +0.210 HD
ENDBRANCH   9  10
BRANCH   9  12
ATOM     12  C   LIG    1       28.394 -13.653   3.648  0.00  0.00    +0.190 C 
BRANCH  12  13
ATOM     13  O   LIG    1       28.756 -12.477   4.369  0.00  0.00    -0.392 OA
ATOM     14  H   LIG    1       28.500 -11.726   3.796  0.00  0.00    +0.209 HD
ENDBRANCH  12  13
ENDBRANCH   9  12
ENDBRANCH   1   9
TORSDOF 8
ENDMDL
MODEL 4
REMARK VINA RESULT:      -3.9      1.360      3.867
REMARK  Name = *****
REMARK                            x       y       z     vdW  Elec       q    Type
REMARK                         _______ _______ _______ _____ _____    ______ ____
ROOT
ATOM      1  C   LIG    1       26.391 -13.295   4.494  0.00  0.00    +0.180 C 
ENDROOT
BRANCH   1   2
ATOM      2  O   LIG    1       26.815 -13.460   5.862  0.00  0.00    -0.386 OA
ATOM      3  H   LIG    1       26.976 -14.416   5.990  0.00  0.00    +0.210 HD
ENDBRANCH   1   2
BRANCH   1   4
ATOM      4  C   LIG    1       27.430 -13.905   3.540  0.00  0.00    +0.208 C 
BRANCH   4   6
ATOM      5  O   LIG    1       29.033 -12.333   4.406  0.00  0.00    -0.298 OA
ATOM      6  C   LIG    1       28.803 -13.248   3.634  0.00  0.00    +0.257 C 
ENDBRANCH   4   6
BRANCH   4   7
ATOM      7  O   LIG    1       26.943 -13.794   2.197  0.00  0.00    -0.382 OA
ATOM      8  H   LIG    1       26.214 -14.447   2.124  0.00  0.00    +0.210 HD
ENDBRANCH   4   7
ENDBRANCH   1   4
BRANCH   1   9
ATOM      9  C   LIG    1       24.972 -13.871   4.395  0.00  0.00    +0.171 C 
BRANCH   9  10
ATOM     10  O   LIG    1       24.972 -15.099   3.648  0.00  0.00    -0.387 OA
ATOM     11  H   LIG    1       24.238 -15.011   3.002  0.00  0.00    +0.210 HD
ENDBRANCH   9  10
BRANCH   9  12
ATOM     12  C   LIG    1       23.966 -12.918   3.750  0.00  0.00    +0.190 C 
BRANCH  12  13
ATOM     13  O   LIG    1       23.994 -13.098   2.335  0.00  0.00    -0.392 OA
ATOM     14  H   LIG    1       23.254 -13.705   2.131  0.00  0.00    +0.209 HD
ENDBRANCH  12  13
ENDBRANCH   9  12
ENDBRANCH   1   9
TORSDOF 8
ENDMDL
MODEL 5
REMARK VINA RESULT:      -3.9      1.494      3.764
REMARK  Name = *****
REMARK                            x       y       z     vdW  Elec       q    Type
REMARK                         _______ _______ _______ _____ _____    ______ ____
ROOT
ATOM      1  C   LIG    1       26.147 -14.389   3.079  0.00  0.00    +0.180 C 
ENDROOT
BRANCH   1   2
ATOM      2  O   LIG    1       26.811 -14.079   1.838  0.00  0.00    -0.386 OA
ATOM      3  H   LIG    1       26.575 -13.156   1.618  0.00  0.00    +0.210 HD
ENDBRANCH   1   2
BRANCH   1   4
ATOM      4  C   LIG    1       27.167 -14.430   4.229  0.00  0.00    +0.208 C 
BRANCH   4   6
ATOM      5  O   LIG    1       29.082 -13.096   3.645  0.00  0.00    -0.298 OA
ATOM      6  C   LIG    1       28.057 -13.195   4.298  0.00  0.00    +0.257 C 
ENDBRANCH   4   6
BRANCH   4   7
ATOM      7  O   LIG    1       27.985 -15.597   4.078  0.00  0.00    -0.382 OA
ATOM      8  H   LIG    1       27.475 -16.333   4.481  0.00  0.00    +0.210 HD
ENDBRANCH   4   7
ENDBRANCH   1   4
BRANCH   1   9
ATOM      9  C   LIG    1       25.002 -13.380   3.236  0.00  0.00    +0.171 C 
BRANCH   9  10
ATOM     10  O   LIG    1       23.821 -14.024   3.744  0.00  0.00    -0.387 OA
ATOM     11  H   LIG    1       23.233 -13.296   4.038  0.00  0.00    +0.210 HD
ENDBRANCH   9  10
BRANCH   9  12
ATOM     12  C   LIG    1       24.633 -12.662   1.938  0.00  0.00    +0.190 C 
BRANCH  12  13
ATOM     13  O   LIG    1       23.766 -11.570   2.238  0.00  0.00    -0.392 OA
ATOM     14  H   LIG    1       23.058 -11.942   2.801  0.00  0.00    +0.209 HD
ENDBRANCH  12  13
ENDBRANCH   9  12
ENDBRANCH   1   9
TORSDOF 8
ENDMDL
MODEL 6
REMARK VINA RESULT:      -3.9      1.359      1.832
REMARK  Name = *****
REMARK                            x       y       z     vdW  Elec       q    Type
REMARK                         _______ _______ _______ _____ _____    ______ ____
ROOT
ATOM      1  C   LIG    1       26.567 -13.396   3.107  0.00  0.00    +0.180 C 
ENDROOT
BRANCH   1   2
ATOM      2  O   LIG    1       26.225 -13.933   1.814  0.00  0.00    -0.386 OA
ATOM      3  H   LIG    1       26.924 -14.578   1.585  0.00  0.00    +0.210 HD
ENDBRANCH   1   2
BRANCH   1   4
ATOM      4  C   LIG    1       25.508 -13.801   4.146  0.00  0.00    +0.208 C 
BRANCH   4   6
ATOM      5  O   LIG    1       23.860 -12.445   3.034  0.00  0.00    -0.298 OA
ATOM      6  C   LIG    1       24.090 -13.399   3.758  0.00  0.00    +0.257 C 
ENDBRANCH   4   6
BRANCH   4   7
ATOM      7  O   LIG    1       25.844 -13.203   5.403  0.00  0.00    -0.382 OA
ATOM      8  H   LIG    1       25.047 -12.700   5.680  0.00  0.00    +0.210 HD
ENDBRANCH   4   7
ENDBRANCH   1   4
BRANCH   1   9
ATOM      9  C   LIG    1       28.004 -13.842   3.409  0.00  0.00    +0.171 C 
BRANCH   9  10
ATOM     10  O   LIG    1       28.013 -14.952   4.322  0.00  0.00    -0.387 OA
ATOM     11  H   LIG    1       28.780 -15.502   4.057  0.00  0.00    +0.210 HD
ENDBRANCH   9  10
BRANCH   9  12
ATOM     12  C   LIG    1       28.881 -12.734   3.993  0.00  0.00    +0.190 C 
BRANCH  12  13
ATOM     13  O   LIG    1       28.483 -12.486   5.340  0.00  0.00    -0.392 OA
ATOM     14  H   LIG    1       28.610 -11.526   5.480  0.00  0.00    +0.209 HD
ENDBRANCH  12  13
ENDBRANCH   9  12
ENDBRANCH   1   9
TORSDOF 8
ENDMDL
MODEL 7
REMARK VINA RESULT:      -3.8      6.885      7.477
REMARK  Name = *****
REMARK                            x       y       z     vdW  Elec       q    Type
REMARK                         _______ _______ _______ _____ _____    ______ ____
ROOT
ATOM      1  C   LIG    1       25.260 -20.014   4.910  0.00  0.00    +0.180 C 
ENDROOT
BRANCH   1   2
ATOM      2  O   LIG    1       26.481 -20.245   4.181  0.00  0.00    -0.386 OA
ATOM      3  H   LIG    1       26.353 -21.074   3.677  0.00  0.00    +0.210 HD
ENDBRANCH   1   2
BRANCH   1   4
ATOM      4  C   LIG    1       24.045 -20.255   3.999  0.00  0.00    +0.208 C 
BRANCH   4   6
ATOM      5  O   LIG    1       22.398 -19.050   5.274  0.00  0.00    -0.298 OA
ATOM      6  C   LIG    1       22.927 -19.237   4.191  0.00  0.00    +0.257 C 
ENDBRANCH   4   6
BRANCH   4   7
ATOM      7  O   LIG    1       23.536 -21.571   4.249  0.00  0.00    -0.382 OA
ATOM      8  H   LIG    1       22.811 -21.457   4.902  0.00  0.00    +0.210 HD
ENDBRANCH   4   7
ENDBRANCH   1   4
BRANCH   1   9
ATOM      9  C   LIG    1       25.327 -20.876   6.178  0.00  0.00    +0.171 C 
BRANCH   9  10
ATOM     10  O   LIG    1       24.139 -20.710   6.970  0.00  0.00    -0.387 OA
ATOM     11  H   LIG    1       24.450 -20.655   7.899  0.00  0.00    +0.210 HD
ENDBRANCH   9  10
BRANCH   9  12
ATOM     12  C   LIG    1       26.537 -20.575   7.062  0.00  0.00    +0.190 C 
BRANCH  12  13
ATOM     13  O   LIG    1       27.683 -21.231   6.524  0.00  0.00    -0.392 OA
ATOM     14  H   LIG    1       28.277 -20.516   6.218  0.00  0.00    +0.209 HD
ENDBRANCH  12  13
ENDBRANCH   9  12
ENDBRANCH   1   9
TORSDOF 8
ENDMDL
MODEL 8
REMARK VINA RESULT:      -3.6      6.210      7.340
REMARK  Name = *****
REMARK                            x       y       z     vdW  Elec       q    Type
REMARK                         _______ _______ _______ _____ _____    ______ ____
ROOT
ATOM      1  C   LIG    1       25.370 -20.061   4.731  0.00  0.00    +0.180 C 
ENDROOT
BRANCH   1   2
ATOM      2  O   LIG    1       26.770 -20.407   4.733  0.00  0.00    -0.386 OA
ATOM      3  H   LIG    1       27.256 -19.605   4.457  0.00  0.00    +0.210 HD
ENDBRANCH   1   2
BRANCH   1   4
ATOM      4  C   LIG    1       25.053 -19.144   3.539  0.00  0.00    +0.208 C 
BRANCH   4   6
ATOM      5  O   LIG    1       25.713 -16.864   3.138  0.00  0.00    -0.298 OA
ATOM      6  C   LIG    1       26.060 -18.013   3.355  0.00  0.00    +0.257 C 
ENDBRANCH   4   6
BRANCH   4   7
ATOM      7  O   LIG    1       23.745 -18.589   3.720  0.00  0.00    -0.382 OA
ATOM      8  H   LIG    1       23.774 -18.110   4.577  0.00  0.00    +0.210 HD
ENDBRANCH   4   7
ENDBRANCH   1   4
BRANCH   1   9
ATOM      9  C   LIG    1       24.585 -21.378   4.790  0.00  0.00    +0.171 C 
BRANCH   9  10
ATOM     10  O   LIG    1       23.825 -21.572   3.585  0.00  0.00    -0.387 OA
ATOM     11  H   LIG    1       22.936 -21.862   3.881  0.00  0.00    +0.210 HD
ENDBRANCH   9  10
BRANCH   9  12
ATOM     12  C   LIG    1       23.629 -21.471   5.978  0.00  0.00    +0.190 C 
BRANCH  12  13
ATOM     13  O   LIG    1       22.847 -20.280   6.043  0.00  0.00    -0.392 OA
ATOM     14  H   LIG    1       22.015 -20.535   6.491  0.00  0.00    +0.209 HD
ENDBRANCH  12  13
ENDBRANCH   9  12
ENDBRANCH   1   9
TORSDOF 8
ENDMDL
MODEL 9
REMARK VINA RESULT:      -3.6      6.827      7.506
REMARK  Name = *****
REMARK                            x       y       z     vdW  Elec       q    Type
REMARK                         _______ _______ _______ _____ _____    ______ ____
ROOT
ATOM      1  C   LIG    1       24.257 -21.041   5.395  0.00  0.00    +0.180 C 
ENDROOT
BRANCH   1   2
ATOM      2  O   LIG    1       24.090 -21.079   6.827  0.00  0.00    -0.386 OA
ATOM      3  H   LIG    1       24.512 -20.270   7.178  0.00  0.00    +0.210 HD
ENDBRANCH   1   2
BRANCH   1   4
ATOM      4  C   LIG    1       22.939 -20.632   4.718  0.00  0.00    +0.208 C 
BRANCH   4   6
ATOM      5  O   LIG    1       22.492 -18.309   4.273  0.00  0.00    -0.298 OA
ATOM      6  C   LIG    1       22.481 -19.223   5.080  0.00  0.00    +0.257 C 
ENDBRANCH   4   6
BRANCH   4   7
ATOM      7  O   LIG    1       21.921 -21.571   5.086  0.00  0.00    -0.382 OA
ATOM      8  H   LIG    1       21.233 -21.048   5.552  0.00  0.00    +0.210 HD
ENDBRANCH   4   7
ENDBRANCH   1   4
BRANCH   1   9
ATOM      9  C   LIG    1       25.464 -20.137   5.112  0.00  0.00    +0.171 C 
BRANCH   9  10
ATOM     10  O   LIG    1       25.839 -20.207   3.726  0.00  0.00    -0.387 OA
ATOM     11  H   LIG    1       26.262 -21.085   3.614  0.00  0.00    +0.210 HD
ENDBRANCH   9  10
BRANCH   9  12
ATOM     12  C   LIG    1       26.694 -20.470   5.957  0.00  0.00    +0.190 C 
BRANCH  12  13
ATOM     13  O   LIG    1       27.870 -20.157   5.214  0.00  0.00    -0.392 OA
ATOM     14  H   LIG    1       28.559 -19.961   5.880  0.00  0.00    +0.209 HD
ENDBRANCH  12  13
ENDBRANCH   9  12
ENDBRANCH   1   9
TORSDOF 8
ENDMDL
