MODEL 1
REMARK VINA RESULT:      -9.7      0.000      0.000
REMARK  Name = *****
REMARK                            x       y       z     vdW  Elec       q    Type
REMARK                         _______ _______ _______ _____ _____    ______ ____
ROOT
ATOM      1  C   LIG    1       24.160 -22.466   6.883  0.00  0.00    +0.159 C 
ENDROOT
BRANCH   1   2
ATOM      2  C   LIG    1       24.627 -23.854   6.627  0.00  0.00    -0.028 A 
ATOM      3  C   LIG    1       23.732 -24.766   6.194  0.00  0.00    +0.006 A 
ATOM      4  C   LIG    1       23.783 -26.128   6.182  0.00  0.00    +0.009 A 
ATOM      5  C   LIG    1       24.972 -26.704   6.479  0.00  0.00    -0.017 A 
ATOM      6  C   LIG    1       25.977 -25.767   6.893  0.00  0.00    +0.009 A 
ATOM      7  C   LIG    1       25.834 -24.373   6.936  0.00  0.00    +0.006 A 
BRANCH   5   8
ATOM      8  C   LIG    1       25.185 -28.172   6.424  0.00  0.00    -0.007 A 
ATOM      9  C   LIG    1       25.568 -29.068   7.476  0.00  0.00    +0.028 A 
ATOM     10  C   LIG    1       25.755 -30.432   7.122  0.00  0.00    +0.012 A 
ATOM     11  C   LIG    1       25.558 -30.922   5.829  0.00  0.00    +0.001 A 
ATOM     12  C   LIG    1       25.169 -30.068   4.829  0.00  0.00    +0.001 A 
ATOM     13  C   LIG    1       24.990 -28.735   5.134  0.00  0.00    +0.009 A 
BRANCH   9  14
ATOM     14  C   LIG    1       25.837 -28.800   8.919  0.00  0.00    +0.180 A 
ATOM     15  N   LIG    1       25.187 -29.283  10.031  0.00  0.00    -0.239 N 
ATOM     16  H   LIG    1       24.333 -29.818  10.108  0.00  0.00    +0.192 HD
ATOM     17  N   LIG    1       25.722 -28.794  11.159  0.00  0.00    -0.046 NA
ATOM     18  N   LIG    1       26.774 -28.103  10.762  0.00  0.00    -0.023 NA
ATOM     19  N   LIG    1       26.864 -28.101   9.392  0.00  0.00    -0.108 NA
ENDBRANCH   9  14
ENDBRANCH   5   8
ENDBRANCH   1   2
BRANCH   1  21
ATOM     20  C   LIG    1       25.060 -20.679   5.253  0.00  0.00    +0.111 A 
ATOM     21  N   LIG    1       25.051 -21.390   6.454  0.00  0.00    -0.318 N 
ATOM     22  C   LIG    1       26.086 -20.897   7.252  0.00  0.00    +0.153 A 
ATOM     23  C   LIG    1       26.963 -20.352   6.307  0.00  0.00    +0.104 A 
ATOM     24  N   LIG    1       26.273 -20.165   5.107  0.00  0.00    -0.234 NA
BRANCH  23  25
ATOM     25  C   LIG    1       28.442 -19.941   6.364  0.00  0.00    +0.104 C 
ATOM     26  C   LIG    1       28.898 -19.503   7.757  0.00  0.00    +0.048 C 
ATOM     27  C   LIG    1       28.818 -18.877   5.330  0.00  0.00    +0.048 C 
BRANCH  25  28
ATOM     28  O   LIG    1       29.274 -21.085   6.059  0.00  0.00    -0.383 OA
ATOM     29  H   LIG    1       29.752 -20.839   5.245  0.00  0.00    +0.211 HD
ENDBRANCH  25  28
ENDBRANCH  23  25
BRANCH  22  30
ATOM     30  C   LIG    1       26.256 -21.025   8.707  0.00  0.00    +0.355 C 
ATOM     31  O   LIG    1       25.801 -20.343   9.551  0.00  0.00    -0.243 OA
BRANCH  30  32
ATOM     32  O   LIG    1       26.976 -22.136   9.071  0.00  0.00    -0.476 OA
ATOM     33  H   LIG    1       26.594 -22.978   8.804  0.00  0.00    +0.295 HD
ENDBRANCH  30  32
ENDBRANCH  22  30
BRANCH  20  34
ATOM     34  C   LIG    1       23.922 -20.403   4.239  0.00  0.00    +0.074 C 
BRANCH  34  36
ATOM     35  C   LIG    1       22.199 -18.354   4.501  0.00  0.00    +0.004 C 
ATOM     36  C   LIG    1       22.639 -19.757   4.716  0.00  0.00    +0.004 C 
ENDBRANCH  34  36
ENDBRANCH  20  34
ENDBRANCH   1  21
TORSDOF 10
ENDMDL
MODEL 2
REMARK VINA RESULT:      -8.8      3.770      9.279
REMARK  Name = *****
REMARK                            x       y       z     vdW  Elec       q    Type
REMARK                         _______ _______ _______ _____ _____    ______ ____
ROOT
ATOM      1  C   LIG    1       25.748 -28.518   6.122  0.00  0.00    +0.159 C 
ENDROOT
BRANCH   1   2
ATOM      2  C   LIG    1       25.543 -27.070   6.390  0.00  0.00    -0.028 A 
ATOM      3  C   LIG    1       24.283 -26.588   6.398  0.00  0.00    +0.006 A 
ATOM      4  C   LIG    1       23.819 -25.311   6.298  0.00  0.00    +0.009 A 
ATOM      5  C   LIG    1       24.731 -24.313   6.376  0.00  0.00    -0.017 A 
ATOM      6  C   LIG    1       26.088 -24.777   6.426  0.00  0.00    +0.009 A 
ATOM      7  C   LIG    1       26.497 -26.118   6.469  0.00  0.00    +0.006 A 
BRANCH   5   8
ATOM      8  C   LIG    1       24.350 -22.878   6.362  0.00  0.00    -0.007 A 
ATOM      9  C   LIG    1       25.128 -21.734   6.739  0.00  0.00    +0.028 A 
ATOM     10  C   LIG    1       24.484 -20.469   6.676  0.00  0.00    +0.012 A 
ATOM     11  C   LIG    1       23.166 -20.302   6.245  0.00  0.00    +0.001 A 
ATOM     12  C   LIG    1       22.431 -21.394   5.861  0.00  0.00    +0.001 A 
ATOM     13  C   LIG    1       23.021 -22.639   5.922  0.00  0.00    +0.009 A 
BRANCH   9  14
ATOM     14  C   LIG    1       26.535 -21.646   7.228  0.00  0.00    +0.180 A 
ATOM     15  N   LIG    1       27.691 -21.411   6.518  0.00  0.00    -0.239 N 
ATOM     16  H   LIG    1       27.848 -21.365   5.521  0.00  0.00    +0.192 HD
ATOM     17  N   LIG    1       28.765 -21.421   7.320  0.00  0.00    -0.046 NA
ATOM     18  N   LIG    1       28.276 -21.543   8.540  0.00  0.00    -0.023 NA
ATOM     19  N   LIG    1       26.909 -21.676   8.503  0.00  0.00    -0.108 NA
ENDBRANCH   9  14
ENDBRANCH   5   8
ENDBRANCH   1   2
BRANCH   1  21
ATOM     20  C   LIG    1       25.992 -29.372   8.545  0.00  0.00    +0.111 A 
ATOM     21  N   LIG    1       25.504 -29.429   7.238  0.00  0.00    -0.318 N 
ATOM     22  C   LIG    1       24.688 -30.557   7.134  0.00  0.00    +0.153 A 
ATOM     23  C   LIG    1       25.173 -31.377   8.159  0.00  0.00    +0.104 A 
ATOM     24  N   LIG    1       25.913 -30.596   9.049  0.00  0.00    -0.234 NA
BRANCH  23  25
ATOM     25  C   LIG    1       25.028 -32.876   8.459  0.00  0.00    +0.104 C 
ATOM     26  C   LIG    1       25.517 -33.269   9.854  0.00  0.00    +0.048 C 
ATOM     27  C   LIG    1       25.680 -33.773   7.403  0.00  0.00    +0.048 C 
BRANCH  25  28
ATOM     28  O   LIG    1       23.627 -33.238   8.457  0.00  0.00    -0.383 OA
ATOM     29  H   LIG    1       23.486 -33.706   9.302  0.00  0.00    +0.211 HD
ENDBRANCH  25  28
ENDBRANCH  23  25
BRANCH  22  30
ATOM     30  C   LIG    1       23.658 -30.848   6.124  0.00  0.00    +0.355 C 
ATOM     31  O   LIG    1       23.225 -31.896   5.815  0.00  0.00    -0.243 OA
BRANCH  30  32
ATOM     32  O   LIG    1       23.118 -29.717   5.564  0.00  0.00    -0.476 OA
ATOM     33  H   LIG    1       23.755 -29.085   5.218  0.00  0.00    +0.295 HD
ENDBRANCH  30  32
ENDBRANCH  22  30
BRANCH  20  34
ATOM     34  C   LIG    1       26.486 -28.167   9.384  0.00  0.00    +0.074 C 
BRANCH  34  36
ATOM     35  C   LIG    1       26.834 -27.397  11.938  0.00  0.00    +0.004 C 
ATOM     36  C   LIG    1       26.893 -28.381  10.826  0.00  0.00    +0.004 C 
ENDBRANCH  34  36
ENDBRANCH  20  34
ENDBRANCH   1  21
TORSDOF 10
ENDMDL
MODEL 3
REMARK VINA RESULT:      -8.6      3.011      8.895
REMARK  Name = *****
REMARK                            x       y       z     vdW  Elec       q    Type
REMARK                         _______ _______ _______ _____ _____    ______ ____
ROOT
ATOM      1  C   LIG    1       25.711 -28.571   6.520  0.00  0.00    +0.159 C 
ENDROOT
BRANCH   1   2
ATOM      2  C   LIG    1       25.397 -27.136   6.747  0.00  0.00    -0.028 A 
ATOM      3  C   LIG    1       24.223 -26.652   6.290  0.00  0.00    +0.006 A 
ATOM      4  C   LIG    1       23.814 -25.371   6.071  0.00  0.00    +0.009 A 
ATOM      5  C   LIG    1       24.611 -24.379   6.534  0.00  0.00    -0.017 A 
ATOM      6  C   LIG    1       25.852 -24.848   7.082  0.00  0.00    +0.009 A 
ATOM      7  C   LIG    1       26.233 -26.190   7.225  0.00  0.00    +0.006 A 
BRANCH   5   8
ATOM      8  C   LIG    1       24.244 -22.944   6.432  0.00  0.00    -0.007 A 
ATOM      9  C   LIG    1       25.027 -21.787   6.756  0.00  0.00    +0.028 A 
ATOM     10  C   LIG    1       24.395 -20.522   6.611  0.00  0.00    +0.012 A 
ATOM     11  C   LIG    1       23.085 -20.369   6.152  0.00  0.00    +0.001 A 
ATOM     12  C   LIG    1       22.346 -21.475   5.819  0.00  0.00    +0.001 A 
ATOM     13  C   LIG    1       22.923 -22.720   5.960  0.00  0.00    +0.009 A 
BRANCH   9  14
ATOM     14  C   LIG    1       26.428 -21.683   7.260  0.00  0.00    +0.180 A 
ATOM     15  N   LIG    1       27.590 -21.455   6.560  0.00  0.00    -0.239 N 
ATOM     16  H   LIG    1       27.759 -21.426   5.564  0.00  0.00    +0.192 HD
ATOM     17  N   LIG    1       28.655 -21.445   7.375  0.00  0.00    -0.046 NA
ATOM     18  N   LIG    1       28.152 -21.548   8.591  0.00  0.00    -0.023 NA
ATOM     19  N   LIG    1       26.786 -21.689   8.539  0.00  0.00    -0.108 NA
ENDBRANCH   9  14
ENDBRANCH   5   8
ENDBRANCH   1   2
BRANCH   1  21
ATOM     20  C   LIG    1       24.186 -30.544   7.185  0.00  0.00    +0.111 A 
ATOM     21  N   LIG    1       25.104 -29.525   7.446  0.00  0.00    -0.318 N 
ATOM     22  C   LIG    1       25.386 -29.541   8.813  0.00  0.00    +0.153 A 
ATOM     23  C   LIG    1       24.248 -30.156   9.349  0.00  0.00    +0.104 A 
ATOM     24  N   LIG    1       23.572 -30.825   8.326  0.00  0.00    -0.234 NA
BRANCH  23  25
ATOM     25  C   LIG    1       23.666 -30.227  10.769  0.00  0.00    +0.104 C 
ATOM     26  C   LIG    1       24.312 -31.307  11.638  0.00  0.00    +0.048 C 
ATOM     27  C   LIG    1       22.143 -30.373  10.796  0.00  0.00    +0.048 C 
BRANCH  25  28
ATOM     28  O   LIG    1       23.946 -28.991  11.469  0.00  0.00    -0.383 OA
ATOM     29  H   LIG    1       23.344 -28.995  12.237  0.00  0.00    +0.211 HD
ENDBRANCH  25  28
ENDBRANCH  23  25
BRANCH  22  30
ATOM     30  C   LIG    1       26.538 -28.955   9.514  0.00  0.00    +0.355 C 
ATOM     31  O   LIG    1       26.577 -27.955  10.130  0.00  0.00    -0.243 OA
BRANCH  30  32
ATOM     32  O   LIG    1       27.655 -29.753   9.477  0.00  0.00    -0.476 OA
ATOM     33  H   LIG    1       27.681 -30.390   8.756  0.00  0.00    +0.295 HD
ENDBRANCH  30  32
ENDBRANCH  22  30
BRANCH  20  34
ATOM     34  C   LIG    1       23.899 -31.331   5.881  0.00  0.00    +0.074 C 
BRANCH  34  36
ATOM     35  C   LIG    1       26.363 -32.406   5.792  0.00  0.00    +0.004 C 
ATOM     36  C   LIG    1       24.997 -32.166   5.258  0.00  0.00    +0.004 C 
ENDBRANCH  34  36
ENDBRANCH  20  34
ENDBRANCH   1  21
TORSDOF 10
ENDMDL
MODEL 4
REMARK VINA RESULT:      -7.7      5.796      9.161
REMARK  Name = *****
REMARK                            x       y       z     vdW  Elec       q    Type
REMARK                         _______ _______ _______ _____ _____    ______ ____
ROOT
ATOM      1  C   LIG    1       24.357 -30.900   9.174  0.00  0.00    +0.159 C 
ENDROOT
BRANCH   1   2
ATOM      2  C   LIG    1       23.540 -30.499  10.350  0.00  0.00    -0.028 A 
ATOM      3  C   LIG    1       22.195 -30.541  10.245  0.00  0.00    +0.006 A 
ATOM      4  C   LIG    1       21.226 -29.955  11.002  0.00  0.00    +0.009 A 
ATOM      5  C   LIG    1       21.613 -29.371  12.161  0.00  0.00    -0.017 A 
ATOM      6  C   LIG    1       23.037 -29.351  12.346  0.00  0.00    +0.009 A 
ATOM      7  C   LIG    1       23.985 -29.928  11.489  0.00  0.00    +0.006 A 
BRANCH   5   8
ATOM      8  C   LIG    1       20.650 -28.769  13.115  0.00  0.00    -0.007 A 
ATOM      9  C   LIG    1       19.406 -29.296  13.595  0.00  0.00    +0.028 A 
ATOM     10  C   LIG    1       18.652 -28.469  14.471  0.00  0.00    +0.012 A 
ATOM     11  C   LIG    1       19.080 -27.208  14.892  0.00  0.00    +0.001 A 
ATOM     12  C   LIG    1       20.282 -26.715  14.451  0.00  0.00    +0.001 A 
ATOM     13  C   LIG    1       21.034 -27.486  13.589  0.00  0.00    +0.009 A 
BRANCH   9  14
ATOM     14  C   LIG    1       18.734 -30.596  13.301  0.00  0.00    +0.180 A 
ATOM     15  N   LIG    1       17.614 -30.845  12.541  0.00  0.00    -0.239 N 
ATOM     16  H   LIG    1       16.952 -30.207  12.122  0.00  0.00    +0.192 HD
ATOM     17  N   LIG    1       17.314 -32.152  12.530  0.00  0.00    -0.046 NA
ATOM     18  N   LIG    1       18.305 -32.732  13.181  0.00  0.00    -0.023 NA
ATOM     19  N   LIG    1       19.188 -31.793  13.656  0.00  0.00    -0.108 NA
ENDBRANCH   9  14
ENDBRANCH   5   8
ENDBRANCH   1   2
BRANCH   1  21
ATOM     20  C   LIG    1       26.151 -29.047   9.066  0.00  0.00    +0.111 A 
ATOM     21  N   LIG    1       25.136 -29.843   8.532  0.00  0.00    -0.318 N 
ATOM     22  C   LIG    1       24.951 -29.466   7.200  0.00  0.00    +0.153 A 
ATOM     23  C   LIG    1       25.437 -28.153   7.188  0.00  0.00    +0.104 A 
ATOM     24  N   LIG    1       26.231 -27.954   8.319  0.00  0.00    -0.234 NA
BRANCH  23  25
ATOM     25  C   LIG    1       25.268 -26.983   6.207  0.00  0.00    +0.104 C 
ATOM     26  C   LIG    1       25.936 -27.223   4.852  0.00  0.00    +0.048 C 
ATOM     27  C   LIG    1       25.717 -25.637   6.782  0.00  0.00    +0.048 C 
BRANCH  25  28
ATOM     28  O   LIG    1       23.866 -26.816   5.889  0.00  0.00    -0.383 OA
ATOM     29  H   LIG    1       23.849 -26.569   4.945  0.00  0.00    +0.211 HD
ENDBRANCH  25  28
ENDBRANCH  23  25
BRANCH  22  30
ATOM     30  C   LIG    1       24.305 -30.224   6.119  0.00  0.00    +0.355 C 
ATOM     31  O   LIG    1       24.603 -31.281   5.698  0.00  0.00    -0.243 OA
BRANCH  30  32
ATOM     32  O   LIG    1       23.176 -29.613   5.631  0.00  0.00    -0.476 OA
ATOM     33  H   LIG    1       22.345 -30.037   5.866  0.00  0.00    +0.295 HD
ENDBRANCH  30  32
ENDBRANCH  22  30
BRANCH  20  34
ATOM     34  C   LIG    1       27.119 -29.309  10.248  0.00  0.00    +0.074 C 
BRANCH  34  36
ATOM     35  C   LIG    1       26.516 -27.528  12.172  0.00  0.00    +0.004 C 
ATOM     36  C   LIG    1       27.439 -28.185  11.210  0.00  0.00    +0.004 C 
ENDBRANCH  34  36
ENDBRANCH  20  34
ENDBRANCH   1  21
TORSDOF 10
ENDMDL
MODEL 5
REMARK VINA RESULT:      -7.5      5.198      8.769
REMARK  Name = *****
REMARK                            x       y       z     vdW  Elec       q    Type
REMARK                         _______ _______ _______ _____ _____    ______ ____
ROOT
ATOM      1  C   LIG    1       24.504 -31.089   9.028  0.00  0.00    +0.159 C 
ENDROOT
BRANCH   1   2
ATOM      2  C   LIG    1       23.699 -30.795  10.242  0.00  0.00    -0.028 A 
ATOM      3  C   LIG    1       22.388 -30.510  10.095  0.00  0.00    +0.006 A 
ATOM      4  C   LIG    1       21.506 -29.912  10.943  0.00  0.00    +0.009 A 
ATOM      5  C   LIG    1       21.915 -29.709  12.218  0.00  0.00    -0.017 A 
ATOM      6  C   LIG    1       23.292 -30.050  12.441  0.00  0.00    +0.009 A 
ATOM      7  C   LIG    1       24.162 -30.613  11.497  0.00  0.00    +0.006 A 
BRANCH   5   8
ATOM      8  C   LIG    1       21.027 -29.141  13.263  0.00  0.00    -0.007 A 
ATOM      9  C   LIG    1       21.260 -28.031  14.140  0.00  0.00    +0.028 A 
ATOM     10  C   LIG    1       20.246 -27.739  15.092  0.00  0.00    +0.012 A 
ATOM     11  C   LIG    1       19.051 -28.457  15.182  0.00  0.00    +0.001 A 
ATOM     12  C   LIG    1       18.819 -29.502  14.326  0.00  0.00    +0.001 A 
ATOM     13  C   LIG    1       19.788 -29.822  13.398  0.00  0.00    +0.009 A 
BRANCH   9  14
ATOM     14  C   LIG    1       22.436 -27.118  14.245  0.00  0.00    +0.180 A 
ATOM     15  N   LIG    1       23.424 -27.077  15.202  0.00  0.00    -0.239 N 
ATOM     16  H   LIG    1       23.503 -27.567  16.082  0.00  0.00    +0.192 HD
ATOM     17  N   LIG    1       24.303 -26.096  14.952  0.00  0.00    -0.046 NA
ATOM     18  N   LIG    1       23.937 -25.602  13.784  0.00  0.00    -0.023 NA
ATOM     19  N   LIG    1       22.796 -26.221  13.333  0.00  0.00    -0.108 NA
ENDBRANCH   9  14
ENDBRANCH   5   8
ENDBRANCH   1   2
BRANCH   1  21
ATOM     20  C   LIG    1       26.210 -29.152   9.025  0.00  0.00    +0.111 A 
ATOM     21  N   LIG    1       25.236 -29.966   8.444  0.00  0.00    -0.318 N 
ATOM     22  C   LIG    1       25.041 -29.533   7.132  0.00  0.00    +0.153 A 
ATOM     23  C   LIG    1       25.465 -28.200   7.188  0.00  0.00    +0.104 A 
ATOM     24  N   LIG    1       26.243 -28.021   8.334  0.00  0.00    -0.234 NA
BRANCH  23  25
ATOM     25  C   LIG    1       25.247 -26.992   6.264  0.00  0.00    +0.104 C 
ATOM     26  C   LIG    1       25.880 -27.161   4.882  0.00  0.00    +0.048 C 
ATOM     27  C   LIG    1       25.689 -25.664   6.885  0.00  0.00    +0.048 C 
BRANCH  25  28
ATOM     28  O   LIG    1       23.834 -26.837   5.994  0.00  0.00    -0.383 OA
ATOM     29  H   LIG    1       23.726 -25.900   5.746  0.00  0.00    +0.211 HD
ENDBRANCH  25  28
ENDBRANCH  23  25
BRANCH  22  30
ATOM     30  C   LIG    1       24.437 -30.266   6.009  0.00  0.00    +0.355 C 
ATOM     31  O   LIG    1       24.835 -31.240   5.484  0.00  0.00    -0.243 OA
BRANCH  30  32
ATOM     32  O   LIG    1       23.226 -29.752   5.619  0.00  0.00    -0.476 OA
ATOM     33  H   LIG    1       22.675 -30.346   5.099  0.00  0.00    +0.295 HD
ENDBRANCH  30  32
ENDBRANCH  22  30
BRANCH  20  34
ATOM     34  C   LIG    1       27.182 -29.427  10.200  0.00  0.00    +0.074 C 
BRANCH  34  36
ATOM     35  C   LIG    1       26.285 -27.745  12.099  0.00  0.00    +0.004 C 
ATOM     36  C   LIG    1       27.351 -28.384  11.285  0.00  0.00    +0.004 C 
ENDBRANCH  34  36
ENDBRANCH  20  34
ENDBRANCH   1  21
TORSDOF 10
ENDMDL
MODEL 6
REMARK VINA RESULT:      -7.5      5.291      8.150
REMARK  Name = *****
REMARK                            x       y       z     vdW  Elec       q    Type
REMARK                         _______ _______ _______ _____ _____    ______ ____
ROOT
ATOM      1  C   LIG    1       25.851 -29.819  12.847  0.00  0.00    +0.159 C 
ENDROOT
BRANCH   1   2
ATOM      2  C   LIG    1       25.720 -29.658  11.376  0.00  0.00    -0.028 A 
ATOM      3  C   LIG    1       26.695 -29.007  10.708  0.00  0.00    +0.006 A 
ATOM      4  C   LIG    1       26.701 -28.446   9.466  0.00  0.00    +0.009 A 
ATOM      5  C   LIG    1       25.643 -28.708   8.663  0.00  0.00    -0.017 A 
ATOM      6  C   LIG    1       24.598 -29.449   9.313  0.00  0.00    +0.009 A 
ATOM      7  C   LIG    1       24.638 -29.949  10.622  0.00  0.00    +0.006 A 
BRANCH   5   8
ATOM      8  C   LIG    1       25.562 -28.226   7.262  0.00  0.00    -0.007 A 
ATOM      9  C   LIG    1       25.128 -28.928   6.089  0.00  0.00    +0.028 A 
ATOM     10  C   LIG    1       25.209 -28.229   4.855  0.00  0.00    +0.012 A 
ATOM     11  C   LIG    1       25.658 -26.910   4.749  0.00  0.00    +0.001 A 
ATOM     12  C   LIG    1       26.050 -26.232   5.874  0.00  0.00    +0.001 A 
ATOM     13  C   LIG    1       25.997 -26.885   7.089  0.00  0.00    +0.009 A 
BRANCH   9  14
ATOM     14  C   LIG    1       24.613 -30.320   5.936  0.00  0.00    +0.180 A 
ATOM     15  N   LIG    1       25.179 -31.390   5.282  0.00  0.00    -0.239 N 
ATOM     16  H   LIG    1       25.988 -31.435   4.678  0.00  0.00    +0.192 HD
ATOM     17  N   LIG    1       24.396 -32.476   5.358  0.00  0.00    -0.046 NA
ATOM     18  N   LIG    1       23.404 -32.124   6.154  0.00  0.00    -0.023 NA
ATOM     19  N   LIG    1       23.525 -30.806   6.523  0.00  0.00    -0.108 NA
ENDBRANCH   9  14
ENDBRANCH   5   8
ENDBRANCH   1   2
BRANCH   1  21
ATOM     20  C   LIG    1       24.740 -27.785  13.985  0.00  0.00    +0.111 A 
ATOM     21  N   LIG    1       25.827 -28.592  13.641  0.00  0.00    -0.318 N 
ATOM     22  C   LIG    1       26.974 -28.026  14.201  0.00  0.00    +0.153 A 
ATOM     23  C   LIG    1       26.609 -26.683  14.348  0.00  0.00    +0.104 A 
ATOM     24  N   LIG    1       25.217 -26.584  14.280  0.00  0.00    -0.234 NA
BRANCH  23  25
ATOM     25  C   LIG    1       27.417 -25.395  14.568  0.00  0.00    +0.104 C 
ATOM     26  C   LIG    1       28.635 -25.589  15.472  0.00  0.00    +0.048 C 
ATOM     27  C   LIG    1       26.570 -24.224  15.072  0.00  0.00    +0.048 C 
BRANCH  25  28
ATOM     28  O   LIG    1       27.974 -24.952  13.308  0.00  0.00    -0.383 OA
ATOM     29  H   LIG    1       27.529 -25.495  12.630  0.00  0.00    +0.211 HD
ENDBRANCH  25  28
ENDBRANCH  23  25
BRANCH  22  30
ATOM     30  C   LIG    1       28.273 -28.666  14.461  0.00  0.00    +0.355 C 
ATOM     31  O   LIG    1       28.631 -29.201  15.445  0.00  0.00    -0.243 OA
BRANCH  30  32
ATOM     32  O   LIG    1       29.097 -28.680  13.363  0.00  0.00    -0.476 OA
ATOM     33  H   LIG    1       29.893 -28.145  13.440  0.00  0.00    +0.295 HD
ENDBRANCH  30  32
ENDBRANCH  22  30
BRANCH  20  34
ATOM     34  C   LIG    1       23.234 -28.126  14.110  0.00  0.00    +0.074 C 
BRANCH  34  36
ATOM     35  C   LIG    1       21.103 -26.811  13.128  0.00  0.00    +0.004 C 
ATOM     36  C   LIG    1       22.282 -27.707  13.011  0.00  0.00    +0.004 C 
ENDBRANCH  34  36
ENDBRANCH  20  34
ENDBRANCH   1  21
TORSDOF 10
ENDMDL
MODEL 7
REMARK VINA RESULT:      -7.1      2.060      3.406
REMARK  Name = *****
REMARK                            x       y       z     vdW  Elec       q    Type
REMARK                         _______ _______ _______ _____ _____    ______ ____
ROOT
ATOM      1  C   LIG    1       24.837 -22.471   6.912  0.00  0.00    +0.159 C 
ENDROOT
BRANCH   1   2
ATOM      2  C   LIG    1       25.083 -23.917   6.673  0.00  0.00    -0.028 A 
ATOM      3  C   LIG    1       24.035 -24.706   6.353  0.00  0.00    +0.006 A 
ATOM      4  C   LIG    1       23.896 -26.060   6.392  0.00  0.00    +0.009 A 
ATOM      5  C   LIG    1       25.015 -26.791   6.612  0.00  0.00    -0.017 A 
ATOM      6  C   LIG    1       26.173 -25.994   6.903  0.00  0.00    +0.009 A 
ATOM      7  C   LIG    1       26.229 -24.593   6.901  0.00  0.00    +0.006 A 
BRANCH   5   8
ATOM      8  C   LIG    1       25.017 -28.275   6.599  0.00  0.00    -0.007 A 
ATOM      9  C   LIG    1       25.356 -29.186   7.653  0.00  0.00    +0.028 A 
ATOM     10  C   LIG    1       25.323 -30.572   7.340  0.00  0.00    +0.012 A 
ATOM     11  C   LIG    1       24.956 -31.066   6.086  0.00  0.00    +0.001 A 
ATOM     12  C   LIG    1       24.609 -30.194   5.086  0.00  0.00    +0.001 A 
ATOM     13  C   LIG    1       24.643 -28.840   5.351  0.00  0.00    +0.009 A 
BRANCH   9  14
ATOM     14  C   LIG    1       25.776 -28.918   9.060  0.00  0.00    +0.180 A 
ATOM     15  N   LIG    1       25.148 -29.259  10.236  0.00  0.00    -0.239 N 
ATOM     16  H   LIG    1       24.231 -29.651  10.398  0.00  0.00    +0.192 HD
ATOM     17  N   LIG    1       25.839 -28.824  11.300  0.00  0.00    -0.046 NA
ATOM     18  N   LIG    1       26.950 -28.318  10.798  0.00  0.00    -0.023 NA
ATOM     19  N   LIG    1       26.931 -28.374   9.426  0.00  0.00    -0.108 NA
ENDBRANCH   9  14
ENDBRANCH   5   8
ENDBRANCH   1   2
BRANCH   1  21
ATOM     20  C   LIG    1       26.747 -20.896   6.180  0.00  0.00    +0.111 A 
ATOM     21  N   LIG    1       25.519 -21.538   6.016  0.00  0.00    -0.318 N 
ATOM     22  C   LIG    1       24.989 -21.142   4.786  0.00  0.00    +0.153 A 
ATOM     23  C   LIG    1       25.621 -19.912   4.567  0.00  0.00    +0.104 A 
ATOM     24  N   LIG    1       26.743 -19.828   5.395  0.00  0.00    -0.234 NA
BRANCH  23  25
ATOM     25  C   LIG    1       25.321 -18.732   3.631  0.00  0.00    +0.104 C 
ATOM     26  C   LIG    1       26.346 -17.601   3.729  0.00  0.00    +0.048 C 
ATOM     27  C   LIG    1       23.905 -18.173   3.790  0.00  0.00    +0.048 C 
BRANCH  25  28
ATOM     28  O   LIG    1       25.407 -19.172   2.254  0.00  0.00    -0.383 OA
ATOM     29  H   LIG    1       26.235 -18.782   1.916  0.00  0.00    +0.211 HD
ENDBRANCH  25  28
ENDBRANCH  23  25
BRANCH  22  30
ATOM     30  C   LIG    1       23.945 -21.801   3.987  0.00  0.00    +0.355 C 
ATOM     31  O   LIG    1       24.086 -22.558   3.098  0.00  0.00    -0.243 OA
BRANCH  30  32
ATOM     32  O   LIG    1       22.674 -21.526   4.426  0.00  0.00    -0.476 OA
ATOM     33  H   LIG    1       22.268 -22.212   4.965  0.00  0.00    +0.295 HD
ENDBRANCH  30  32
ENDBRANCH  22  30
BRANCH  20  34
ATOM     34  C   LIG    1       27.985 -21.291   7.025  0.00  0.00    +0.074 C 
BRANCH  34  36
ATOM     35  C   LIG    1       29.962 -19.472   6.879  0.00  0.00    +0.004 C 
ATOM     36  C   LIG    1       28.880 -20.207   7.585  0.00  0.00    +0.004 C 
ENDBRANCH  34  36
ENDBRANCH  20  34
ENDBRANCH   1  21
TORSDOF 10
ENDMDL
MODEL 8
REMARK VINA RESULT:      -7.0      6.505      9.977
REMARK  Name = *****
REMARK                            x       y       z     vdW  Elec       q    Type
REMARK                         _______ _______ _______ _____ _____    ______ ____
ROOT
ATOM      1  C   LIG    1       24.432 -30.645  10.804  0.00  0.00    +0.159 C 
ENDROOT
BRANCH   1   2
ATOM      2  C   LIG    1       23.170 -30.002  11.254  0.00  0.00    -0.028 A 
ATOM      3  C   LIG    1       23.244 -28.969  12.120  0.00  0.00    +0.006 A 
ATOM      4  C   LIG    1       22.296 -28.413  12.925  0.00  0.00    +0.009 A 
ATOM      5  C   LIG    1       21.015 -28.808  12.736  0.00  0.00    -0.017 A 
ATOM      6  C   LIG    1       20.876 -29.871  11.781  0.00  0.00    +0.009 A 
ATOM      7  C   LIG    1       21.913 -30.437  11.025  0.00  0.00    +0.006 A 
BRANCH   5   8
ATOM      8  C   LIG    1       19.878 -28.224  13.490  0.00  0.00    -0.007 A 
ATOM      9  C   LIG    1       18.858 -28.890  14.246  0.00  0.00    +0.028 A 
ATOM     10  C   LIG    1       17.849 -28.073  14.824  0.00  0.00    +0.012 A 
ATOM     11  C   LIG    1       17.831 -26.681  14.709  0.00  0.00    +0.001 A 
ATOM     12  C   LIG    1       18.820 -26.044  14.005  0.00  0.00    +0.001 A 
ATOM     13  C   LIG    1       19.808 -26.807  13.420  0.00  0.00    +0.009 A 
BRANCH   9  14
ATOM     14  C   LIG    1       18.655 -30.344  14.516  0.00  0.00    +0.180 A 
ATOM     15  N   LIG    1       19.258 -31.147  15.456  0.00  0.00    -0.239 N 
ATOM     16  H   LIG    1       20.035 -30.961  16.075  0.00  0.00    +0.192 HD
ATOM     17  N   LIG    1       18.814 -32.410  15.374  0.00  0.00    -0.046 NA
ATOM     18  N   LIG    1       17.855 -32.373  14.468  0.00  0.00    -0.023 NA
ATOM     19  N   LIG    1       17.739 -31.112  13.936  0.00  0.00    -0.108 NA
ENDBRANCH   9  14
ENDBRANCH   5   8
ENDBRANCH   1   2
BRANCH   1  21
ATOM     20  C   LIG    1       25.895 -29.045   9.404  0.00  0.00    +0.111 A 
ATOM     21  N   LIG    1       25.026 -30.124   9.575  0.00  0.00    -0.318 N 
ATOM     22  C   LIG    1       24.783 -30.682   8.318  0.00  0.00    +0.153 A 
ATOM     23  C   LIG    1       25.044 -29.610   7.456  0.00  0.00    +0.104 A 
ATOM     24  N   LIG    1       25.794 -28.652   8.142  0.00  0.00    -0.234 NA
BRANCH  23  25
ATOM     25  C   LIG    1       24.685 -29.335   5.988  0.00  0.00    +0.104 C 
ATOM     26  C   LIG    1       25.480 -30.187   4.997  0.00  0.00    +0.048 C 
ATOM     27  C   LIG    1       24.783 -27.856   5.605  0.00  0.00    +0.048 C 
BRANCH  25  28
ATOM     28  O   LIG    1       23.306 -29.703   5.750  0.00  0.00    -0.383 OA
ATOM     29  H   LIG    1       23.327 -30.248   4.940  0.00  0.00    +0.211 HD
ENDBRANCH  25  28
ENDBRANCH  23  25
BRANCH  22  30
ATOM     30  C   LIG    1       24.271 -32.023   7.999  0.00  0.00    +0.355 C 
ATOM     31  O   LIG    1       24.883 -33.021   7.884  0.00  0.00    -0.243 OA
BRANCH  30  32
ATOM     32  O   LIG    1       22.902 -32.072   7.913  0.00  0.00    -0.476 OA
ATOM     33  H   LIG    1       22.524 -32.957   7.892  0.00  0.00    +0.295 HD
ENDBRANCH  30  32
ENDBRANCH  22  30
BRANCH  20  34
ATOM     34  C   LIG    1       26.892 -28.388  10.393  0.00  0.00    +0.074 C 
BRANCH  34  36
ATOM     35  C   LIG    1       26.645 -26.735  12.501  0.00  0.00    +0.004 C 
ATOM     36  C   LIG    1       26.425 -28.018  11.784  0.00  0.00    +0.004 C 
ENDBRANCH  34  36
ENDBRANCH  20  34
ENDBRANCH   1  21
TORSDOF 10
ENDMDL
MODEL 9
REMARK VINA RESULT:      -6.8      5.589      7.893
REMARK  Name = *****
REMARK                            x       y       z     vdW  Elec       q    Type
REMARK                         _______ _______ _______ _____ _____    ______ ____
ROOT
ATOM      1  C   LIG    1       24.615 -29.374  13.078  0.00  0.00    +0.159 C 
ENDROOT
BRANCH   1   2
ATOM      2  C   LIG    1       24.837 -29.387  11.608  0.00  0.00    -0.028 A 
ATOM      3  C   LIG    1       23.979 -30.080  10.831  0.00  0.00    +0.006 A 
ATOM      4  C   LIG    1       24.100 -30.525   9.549  0.00  0.00    +0.009 A 
ATOM      5  C   LIG    1       25.160 -30.076   8.836  0.00  0.00    -0.017 A 
ATOM      6  C   LIG    1       26.077 -29.284   9.606  0.00  0.00    +0.009 A 
ATOM      7  C   LIG    1       25.915 -28.911  10.948  0.00  0.00    +0.006 A 
BRANCH   5   8
ATOM      8  C   LIG    1       25.366 -30.419   7.407  0.00  0.00    -0.007 A 
ATOM      9  C   LIG    1       25.428 -29.548   6.269  0.00  0.00    +0.028 A 
ATOM     10  C   LIG    1       25.581 -30.162   4.997  0.00  0.00    +0.012 A 
ATOM     11  C   LIG    1       25.697 -31.543   4.822  0.00  0.00    +0.001 A 
ATOM     12  C   LIG    1       25.661 -32.373   5.912  0.00  0.00    +0.001 A 
ATOM     13  C   LIG    1       25.501 -31.811   7.162  0.00  0.00    +0.009 A 
BRANCH   9  14
ATOM     14  C   LIG    1       25.331 -28.061   6.189  0.00  0.00    +0.180 A 
ATOM     15  N   LIG    1       26.327 -27.132   5.996  0.00  0.00    -0.239 N 
ATOM     16  H   LIG    1       27.332 -27.243   5.984  0.00  0.00    +0.192 HD
ATOM     17  N   LIG    1       25.836 -25.884   5.999  0.00  0.00    -0.046 NA
ATOM     18  N   LIG    1       24.527 -26.035   6.074  0.00  0.00    -0.023 NA
ATOM     19  N   LIG    1       24.199 -27.364   6.185  0.00  0.00    -0.108 NA
ENDBRANCH   9  14
ENDBRANCH   5   8
ENDBRANCH   1   2
BRANCH   1  21
ATOM     20  C   LIG    1       23.605 -27.183  13.995  0.00  0.00    +0.111 A 
ATOM     21  N   LIG    1       24.653 -28.067  13.731  0.00  0.00    -0.318 N 
ATOM     22  C   LIG    1       25.831 -27.493  14.213  0.00  0.00    +0.153 A 
ATOM     23  C   LIG    1       25.522 -26.127  14.214  0.00  0.00    +0.104 A 
ATOM     24  N   LIG    1       24.135 -25.978  14.151  0.00  0.00    -0.234 NA
BRANCH  23  25
ATOM     25  C   LIG    1       26.385 -24.859  14.282  0.00  0.00    +0.104 C 
ATOM     26  C   LIG    1       27.311 -24.817  15.499  0.00  0.00    +0.048 C 
ATOM     27  C   LIG    1       25.573 -23.564  14.197  0.00  0.00    +0.048 C 
BRANCH  25  28
ATOM     28  O   LIG    1       27.285 -24.823  13.149  0.00  0.00    -0.383 OA
ATOM     29  H   LIG    1       28.038 -25.386  13.407  0.00  0.00    +0.211 HD
ENDBRANCH  25  28
ENDBRANCH  23  25
BRANCH  22  30
ATOM     30  C   LIG    1       27.106 -28.154  14.528  0.00  0.00    +0.355 C 
ATOM     31  O   LIG    1       27.315 -28.962  15.357  0.00  0.00    -0.243 OA
BRANCH  30  32
ATOM     32  O   LIG    1       28.120 -27.808  13.670  0.00  0.00    -0.476 OA
ATOM     33  H   LIG    1       28.768 -28.498  13.501  0.00  0.00    +0.295 HD
ENDBRANCH  30  32
ENDBRANCH  22  30
BRANCH  20  34
ATOM     34  C   LIG    1       22.088 -27.444  14.173  0.00  0.00    +0.074 C 
BRANCH  34  36
ATOM     35  C   LIG    1       21.004 -29.231  12.480  0.00  0.00    +0.004 C 
ATOM     36  C   LIG    1       21.258 -27.854  12.976  0.00  0.00    +0.004 C 
ENDBRANCH  34  36
ENDBRANCH  20  34
ENDBRANCH   1  21
TORSDOF 10
ENDMDL
