MODEL 1
REMARK VINA RESULT:      -7.9      0.000      0.000
REMARK  Name = *****
REMARK                            x       y       z     vdW  Elec       q    Type
REMARK                         _______ _______ _______ _____ _____    ______ ____
ROOT
ATOM      1  C   LIG    1       24.438 -21.372   6.480  0.00  0.00    +0.127 C 
ATOM      2  C   LIG    1       24.985 -21.305   5.069  0.00  0.00    +0.236 C 
ATOM      3  O   LIG    1       24.379 -21.749   4.092  0.00  0.00    -0.274 OA
ATOM      4  N   LIG    1       26.170 -20.653   4.894  0.00  0.00    -0.239 N 
ATOM      5  H   LIG    1       26.498 -20.553   3.943  0.00  0.00    +0.159 HD
ATOM      6  C   LIG    1       26.962 -20.132   5.869  0.00  0.00    +0.312 C 
ATOM      7  O   LIG    1       28.000 -19.543   5.608  0.00  0.00    -0.252 OA
ATOM      8  N   LIG    1       26.554 -20.323   7.152  0.00  0.00    -0.239 N 
ATOM      9  H   LIG    1       27.191 -20.015   7.876  0.00  0.00    +0.159 HD
ATOM     10  C   LIG    1       25.438 -20.998   7.556  0.00  0.00    +0.236 C 
ATOM     11  O   LIG    1       25.249 -21.207   8.755  0.00  0.00    -0.274 OA
ENDROOT
BRANCH   1  12
ATOM     12  C   LIG    1       23.284 -20.322   6.570  0.00  0.00    +0.052 C 
BRANCH  12  14
ATOM     13  C   LIG    1       22.366 -18.841   4.748  0.00  0.00    +0.004 C 
ATOM     14  C   LIG    1       22.539 -20.056   5.278  0.00  0.00    -0.033 C 
ENDBRANCH  12  14
ENDBRANCH   1  12
BRANCH   1  15
ATOM     15  C   LIG    1       23.842 -22.790   6.737  0.00  0.00    +0.028 C 
BRANCH  15  16
ATOM     16  C   LIG    1       24.659 -24.018   6.250  0.00  0.00    -0.016 C 
ATOM     17  C   LIG    1       23.763 -25.265   6.277  0.00  0.00    +0.007 C 
ATOM     18  C   LIG    1       25.913 -24.304   7.074  0.00  0.00    +0.007 C 
ENDBRANCH  15  16
ENDBRANCH   1  15
TORSDOF 4
ENDMDL
MODEL 2
REMARK VINA RESULT:      -7.9      1.079      3.879
REMARK  Name = *****
REMARK                            x       y       z     vdW  Elec       q    Type
REMARK                         _______ _______ _______ _____ _____    ______ ____
ROOT
ATOM      1  C   LIG    1       25.064 -20.895   6.147  0.00  0.00    +0.127 C 
ATOM      2  C   LIG    1       25.765 -20.669   7.471  0.00  0.00    +0.236 C 
ATOM      3  O   LIG    1       25.218 -20.855   8.559  0.00  0.00    -0.274 OA
ATOM      4  N   LIG    1       27.080 -20.315   7.423  0.00  0.00    -0.239 N 
ATOM      5  H   LIG    1       27.561 -20.230   8.308  0.00  0.00    +0.159 HD
ATOM      6  C   LIG    1       27.812 -20.053   6.306  0.00  0.00    +0.312 C 
ATOM      7  O   LIG    1       28.997 -19.764   6.367  0.00  0.00    -0.252 OA
ATOM      8  N   LIG    1       27.149 -20.103   5.119  0.00  0.00    -0.239 N 
ATOM      9  H   LIG    1       27.673 -19.819   4.301  0.00  0.00    +0.159 HD
ATOM     10  C   LIG    1       25.823 -20.374   4.941  0.00  0.00    +0.236 C 
ATOM     11  O   LIG    1       25.320 -20.265   3.823  0.00  0.00    -0.274 OA
ENDROOT
BRANCH   1  12
ATOM     12  C   LIG    1       24.943 -22.441   5.955  0.00  0.00    +0.052 C 
BRANCH  12  14
ATOM     13  C   LIG    1       23.518 -24.408   6.632  0.00  0.00    +0.004 C 
ATOM     14  C   LIG    1       23.830 -23.111   6.733  0.00  0.00    -0.033 C 
ENDBRANCH  12  14
ENDBRANCH   1  12
BRANCH   1  15
ATOM     15  C   LIG    1       23.629 -20.286   6.210  0.00  0.00    +0.028 C 
BRANCH  15  16
ATOM     16  C   LIG    1       22.841 -20.151   4.879  0.00  0.00    -0.016 C 
ATOM     17  C   LIG    1       22.350 -18.703   4.726  0.00  0.00    +0.007 C 
ATOM     18  C   LIG    1       21.638 -21.086   4.764  0.00  0.00    +0.007 C 
ENDBRANCH  15  16
ENDBRANCH   1  15
TORSDOF 4
ENDMDL
MODEL 3
REMARK VINA RESULT:      -7.5      1.493      4.280
REMARK  Name = *****
REMARK                            x       y       z     vdW  Elec       q    Type
REMARK                         _______ _______ _______ _____ _____    ______ ____
ROOT
ATOM      1  C   LIG    1       24.795 -21.534   5.862  0.00  0.00    +0.127 C 
ATOM      2  C   LIG    1       23.915 -21.611   7.093  0.00  0.00    +0.236 C 
ATOM      3  O   LIG    1       22.771 -22.068   7.071  0.00  0.00    -0.274 OA
ATOM      4  N   LIG    1       24.468 -21.220   8.276  0.00  0.00    -0.239 N 
ATOM      5  H   LIG    1       23.900 -21.336   9.104  0.00  0.00    +0.159 HD
ATOM      6  C   LIG    1       25.702 -20.678   8.456  0.00  0.00    +0.312 C 
ATOM      7  O   LIG    1       26.118 -20.379   9.565  0.00  0.00    -0.252 OA
ATOM      8  N   LIG    1       26.441 -20.460   7.334  0.00  0.00    -0.239 N 
ATOM      9  H   LIG    1       27.319 -19.974   7.463  0.00  0.00    +0.159 HD
ATOM     10  C   LIG    1       26.060 -20.718   6.049  0.00  0.00    +0.236 C 
ATOM     11  O   LIG    1       26.775 -20.358   5.114  0.00  0.00    -0.274 OA
ENDROOT
BRANCH   1  12
ATOM     12  C   LIG    1       25.256 -22.991   5.539  0.00  0.00    +0.052 C 
BRANCH  12  14
ATOM     13  C   LIG    1       25.795 -25.153   6.719  0.00  0.00    +0.004 C 
ATOM     14  C   LIG    1       25.686 -23.819   6.731  0.00  0.00    -0.033 C 
ENDBRANCH  12  14
ENDBRANCH   1  12
BRANCH   1  15
ATOM     15  C   LIG    1       23.957 -20.998   4.660  0.00  0.00    +0.028 C 
BRANCH  15  16
ATOM     16  C   LIG    1       23.580 -19.491   4.655  0.00  0.00    -0.016 C 
ATOM     17  C   LIG    1       22.050 -19.352   4.617  0.00  0.00    +0.007 C 
ATOM     18  C   LIG    1       24.168 -18.702   3.486  0.00  0.00    +0.007 C 
ENDBRANCH  15  16
ENDBRANCH   1  15
TORSDOF 4
ENDMDL
MODEL 4
REMARK VINA RESULT:      -7.5      1.863      4.059
REMARK  Name = *****
REMARK                            x       y       z     vdW  Elec       q    Type
REMARK                         _______ _______ _______ _____ _____    ______ ____
ROOT
ATOM      1  C   LIG    1       25.284 -21.318   6.719  0.00  0.00    +0.127 C 
ATOM      2  C   LIG    1       25.449 -22.527   7.617  0.00  0.00    +0.236 C 
ATOM      3  O   LIG    1       25.718 -22.440   8.816  0.00  0.00    -0.274 OA
ATOM      4  N   LIG    1       25.209 -23.749   7.061  0.00  0.00    -0.239 N 
ATOM      5  H   LIG    1       25.255 -24.547   7.679  0.00  0.00    +0.159 HD
ATOM      6  C   LIG    1       24.924 -24.006   5.755  0.00  0.00    +0.312 C 
ATOM      7  O   LIG    1       24.702 -25.139   5.357  0.00  0.00    -0.252 OA
ATOM      8  N   LIG    1       24.927 -22.940   4.910  0.00  0.00    -0.239 N 
ATOM      9  H   LIG    1       24.806 -23.147   3.927  0.00  0.00    +0.159 HD
ATOM     10  C   LIG    1       25.201 -21.644   5.240  0.00  0.00    +0.236 C 
ATOM     11  O   LIG    1       25.293 -20.793   4.355  0.00  0.00    -0.274 OA
ENDROOT
BRANCH   1  12
ATOM     12  C   LIG    1       23.922 -20.652   7.098  0.00  0.00    +0.052 C 
BRANCH  12  14
ATOM     13  C   LIG    1       22.488 -19.483   5.387  0.00  0.00    +0.004 C 
ATOM     14  C   LIG    1       22.888 -20.605   5.994  0.00  0.00    -0.033 C 
ENDBRANCH  12  14
ENDBRANCH   1  12
BRANCH   1  15
ATOM     15  C   LIG    1       26.433 -20.302   7.004  0.00  0.00    +0.028 C 
BRANCH  15  16
ATOM     16  C   LIG    1       27.854 -20.651   6.485  0.00  0.00    -0.016 C 
ATOM     17  C   LIG    1       28.751 -21.021   7.676  0.00  0.00    +0.007 C 
ATOM     18  C   LIG    1       28.529 -19.527   5.700  0.00  0.00    +0.007 C 
ENDBRANCH  15  16
ENDBRANCH   1  15
TORSDOF 4
ENDMDL
MODEL 5
REMARK VINA RESULT:      -7.5      1.317      1.540
REMARK  Name = *****
REMARK                            x       y       z     vdW  Elec       q    Type
REMARK                         _______ _______ _______ _____ _____    ______ ____
ROOT
ATOM      1  C   LIG    1       25.500 -21.394   5.988  0.00  0.00    +0.127 C 
ATOM      2  C   LIG    1       26.084 -20.473   4.935  0.00  0.00    +0.236 C 
ATOM      3  O   LIG    1       25.470 -20.142   3.920  0.00  0.00    -0.274 OA
ATOM      4  N   LIG    1       27.315 -19.945   5.188  0.00  0.00    -0.239 N 
ATOM      5  H   LIG    1       27.672 -19.280   4.515  0.00  0.00    +0.159 HD
ATOM      6  C   LIG    1       28.120 -20.229   6.247  0.00  0.00    +0.312 C 
ATOM      7  O   LIG    1       29.202 -19.683   6.397  0.00  0.00    -0.252 OA
ATOM      8  N   LIG    1       27.670 -21.173   7.117  0.00  0.00    -0.239 N 
ATOM      9  H   LIG    1       28.310 -21.446   7.852  0.00  0.00    +0.159 HD
ATOM     10  C   LIG    1       26.500 -21.870   7.024  0.00  0.00    +0.236 C 
ATOM     11  O   LIG    1       26.269 -22.788   7.812  0.00  0.00    -0.274 OA
ENDROOT
BRANCH   1  12
ATOM     12  C   LIG    1       24.422 -20.572   6.764  0.00  0.00    +0.052 C 
BRANCH  12  14
ATOM     13  C   LIG    1       22.528 -19.608   5.408  0.00  0.00    +0.004 C 
ATOM     14  C   LIG    1       23.031 -20.589   6.166  0.00  0.00    -0.033 C 
ENDBRANCH  12  14
ENDBRANCH   1  12
BRANCH   1  15
ATOM     15  C   LIG    1       24.801 -22.600   5.289  0.00  0.00    +0.028 C 
BRANCH  15  16
ATOM     16  C   LIG    1       24.744 -23.948   6.057  0.00  0.00    -0.016 C 
ATOM     17  C   LIG    1       25.148 -25.088   5.110  0.00  0.00    +0.007 C 
ATOM     18  C   LIG    1       23.375 -24.275   6.652  0.00  0.00    +0.007 C 
ENDBRANCH  15  16
ENDBRANCH   1  15
TORSDOF 4
ENDMDL
MODEL 6
REMARK VINA RESULT:      -7.5      2.061      4.468
REMARK  Name = *****
REMARK                            x       y       z     vdW  Elec       q    Type
REMARK                         _______ _______ _______ _____ _____    ______ ____
ROOT
ATOM      1  C   LIG    1       26.617 -20.891   7.270  0.00  0.00    +0.127 C 
ATOM      2  C   LIG    1       26.173 -20.458   5.888  0.00  0.00    +0.236 C 
ATOM      3  O   LIG    1       26.963 -20.242   4.968  0.00  0.00    -0.274 OA
ATOM      4  N   LIG    1       24.830 -20.384   5.664  0.00  0.00    -0.239 N 
ATOM      5  H   LIG    1       24.538 -20.159   4.722  0.00  0.00    +0.159 HD
ATOM      6  C   LIG    1       23.841 -20.570   6.579  0.00  0.00    +0.312 C 
ATOM      7  O   LIG    1       22.661 -20.504   6.273  0.00  0.00    -0.252 OA
ATOM      8  N   LIG    1       24.234 -20.808   7.859  0.00  0.00    -0.239 N 
ATOM      9  H   LIG    1       23.498 -20.855   8.553  0.00  0.00    +0.159 HD
ATOM     10  C   LIG    1       25.519 -20.862   8.317  0.00  0.00    +0.236 C 
ATOM     11  O   LIG    1       25.736 -20.961   9.525  0.00  0.00    -0.274 OA
ENDROOT
BRANCH   1  12
ATOM     12  C   LIG    1       27.074 -22.381   7.155  0.00  0.00    +0.052 C 
BRANCH  12  14
ATOM     13  C   LIG    1       25.501 -24.141   6.270  0.00  0.00    +0.004 C 
ATOM     14  C   LIG    1       25.974 -23.414   7.287  0.00  0.00    -0.033 C 
ENDBRANCH  12  14
ENDBRANCH   1  12
BRANCH   1  15
ATOM     15  C   LIG    1       27.838 -20.029   7.716  0.00  0.00    +0.028 C 
BRANCH  15  16
ATOM     16  C   LIG    1       29.234 -20.404   7.150  0.00  0.00    -0.016 C 
ATOM     17  C   LIG    1       30.107 -20.963   8.284  0.00  0.00    +0.007 C 
ATOM     18  C   LIG    1       29.978 -19.241   6.494  0.00  0.00    +0.007 C 
ENDBRANCH  15  16
ENDBRANCH   1  15
TORSDOF 4
ENDMDL
MODEL 7
REMARK VINA RESULT:      -7.3      1.954      4.026
REMARK  Name = *****
REMARK                            x       y       z     vdW  Elec       q    Type
REMARK                         _______ _______ _______ _____ _____    ______ ____
ROOT
ATOM      1  C   LIG    1       24.745 -21.495   5.773  0.00  0.00    +0.127 C 
ATOM      2  C   LIG    1       25.061 -20.450   4.723  0.00  0.00    +0.236 C 
ATOM      3  O   LIG    1       26.141 -20.399   4.131  0.00  0.00    -0.274 OA
ATOM      4  N   LIG    1       24.061 -19.587   4.386  0.00  0.00    -0.239 N 
ATOM      5  H   LIG    1       24.255 -18.935   3.638  0.00  0.00    +0.159 HD
ATOM      6  C   LIG    1       22.830 -19.505   4.960  0.00  0.00    +0.312 C 
ATOM      7  O   LIG    1       21.990 -18.709   4.570  0.00  0.00    -0.252 OA
ATOM      8  N   LIG    1       22.592 -20.337   6.009  0.00  0.00    -0.239 N 
ATOM      9  H   LIG    1       21.711 -20.210   6.491  0.00  0.00    +0.159 HD
ATOM     10  C   LIG    1       23.469 -21.232   6.550  0.00  0.00    +0.236 C 
ATOM     11  O   LIG    1       23.170 -21.838   7.580  0.00  0.00    -0.274 OA
ENDROOT
BRANCH   1  12
ATOM     12  C   LIG    1       24.531 -22.847   5.020  0.00  0.00    +0.052 C 
BRANCH  12  14
ATOM     13  C   LIG    1       24.216 -24.991   6.308  0.00  0.00    +0.004 C 
ATOM     14  C   LIG    1       25.020 -24.083   5.744  0.00  0.00    -0.033 C 
ENDBRANCH  12  14
ENDBRANCH   1  12
BRANCH   1  15
ATOM     15  C   LIG    1       25.964 -21.647   6.734  0.00  0.00    +0.028 C 
BRANCH  15  16
ATOM     16  C   LIG    1       26.400 -20.402   7.554  0.00  0.00    -0.016 C 
ATOM     17  C   LIG    1       27.921 -20.223   7.430  0.00  0.00    +0.007 C 
ATOM     18  C   LIG    1       26.039 -20.468   9.037  0.00  0.00    +0.007 C 
ENDBRANCH  15  16
ENDBRANCH   1  15
TORSDOF 4
ENDMDL
MODEL 8
REMARK VINA RESULT:      -7.1      2.022      4.006
REMARK  Name = *****
REMARK                            x       y       z     vdW  Elec       q    Type
REMARK                         _______ _______ _______ _____ _____    ______ ____
ROOT
ATOM      1  C   LIG    1       23.895 -21.574   6.080  0.00  0.00    +0.127 C 
ATOM      2  C   LIG    1       23.446 -22.571   7.129  0.00  0.00    +0.236 C 
ATOM      3  O   LIG    1       22.971 -22.234   8.214  0.00  0.00    -0.274 OA
ATOM      4  N   LIG    1       23.515 -23.892   6.797  0.00  0.00    -0.239 N 
ATOM      5  H   LIG    1       23.153 -24.550   7.473  0.00  0.00    +0.159 HD
ATOM      6  C   LIG    1       24.032 -24.417   5.654  0.00  0.00    +0.312 C 
ATOM      7  O   LIG    1       24.027 -25.620   5.439  0.00  0.00    -0.252 OA
ATOM      8  N   LIG    1       24.579 -23.537   4.773  0.00  0.00    -0.239 N 
ATOM      9  H   LIG    1       25.043 -23.938   3.968  0.00  0.00    +0.159 HD
ATOM     10  C   LIG    1       24.673 -22.184   4.930  0.00  0.00    +0.236 C 
ATOM     11  O   LIG    1       25.305 -21.515   4.113  0.00  0.00    -0.274 OA
ENDROOT
BRANCH   1  12
ATOM     12  C   LIG    1       22.602 -20.956   5.456  0.00  0.00    +0.052 C 
BRANCH  12  14
ATOM     13  C   LIG    1       22.279 -18.731   4.317  0.00  0.00    +0.004 C 
ATOM     14  C   LIG    1       22.555 -19.444   5.415  0.00  0.00    -0.033 C 
ENDBRANCH  12  14
ENDBRANCH   1  12
BRANCH   1  15
ATOM     15  C   LIG    1       24.711 -20.435   6.765  0.00  0.00    +0.028 C 
BRANCH  15  16
ATOM     16  C   LIG    1       26.066 -20.810   7.423  0.00  0.00    -0.016 C 
ATOM     17  C   LIG    1       26.039 -20.404   8.905  0.00  0.00    +0.007 C 
ATOM     18  C   LIG    1       27.284 -20.163   6.765  0.00  0.00    +0.007 C 
ENDBRANCH  15  16
ENDBRANCH   1  15
TORSDOF 4
ENDMDL
MODEL 9
REMARK VINA RESULT:      -7.1      1.888      4.256
REMARK  Name = *****
REMARK                            x       y       z     vdW  Elec       q    Type
REMARK                         _______ _______ _______ _____ _____    ______ ____
ROOT
ATOM      1  C   LIG    1       24.215 -21.111   6.590  0.00  0.00    +0.127 C 
ATOM      2  C   LIG    1       25.036 -21.429   5.357  0.00  0.00    +0.236 C 
ATOM      3  O   LIG    1       25.526 -20.559   4.636  0.00  0.00    -0.274 OA
ATOM      4  N   LIG    1       25.289 -22.744   5.103  0.00  0.00    -0.239 N 
ATOM      5  H   LIG    1       25.893 -22.949   4.319  0.00  0.00    +0.159 HD
ATOM      6  C   LIG    1       24.804 -23.813   5.791  0.00  0.00    +0.312 C 
ATOM      7  O   LIG    1       25.109 -24.959   5.498  0.00  0.00    -0.252 OA
ATOM      8  N   LIG    1       23.940 -23.542   6.806  0.00  0.00    -0.239 N 
ATOM      9  H   LIG    1       23.511 -24.342   7.255  0.00  0.00    +0.159 HD
ATOM     10  C   LIG    1       23.502 -22.308   7.191  0.00  0.00    +0.236 C 
ATOM     11  O   LIG    1       22.621 -22.209   8.045  0.00  0.00    -0.274 OA
ENDROOT
BRANCH   1  12
ATOM     12  C   LIG    1       25.210 -20.600   7.681  0.00  0.00    +0.052 C 
BRANCH  12  14
ATOM     13  C   LIG    1       27.631 -21.266   7.898  0.00  0.00    +0.004 C 
ATOM     14  C   LIG    1       26.332 -21.551   8.039  0.00  0.00    -0.033 C 
ENDBRANCH  12  14
ENDBRANCH   1  12
BRANCH   1  15
ATOM     15  C   LIG    1       23.207 -19.968   6.259  0.00  0.00    +0.028 C 
BRANCH  15  16
ATOM     16  C   LIG    1       22.613 -19.918   4.825  0.00  0.00    -0.016 C 
ATOM     17  C   LIG    1       22.157 -18.484   4.515  0.00  0.00    +0.007 C 
ATOM     18  C   LIG    1       21.432 -20.862   4.601  0.00  0.00    +0.007 C 
ENDBRANCH  15  16
ENDBRANCH   1  15
TORSDOF 4
ENDMDL
