MODEL 1
REMARK VINA RESULT:      -8.2      0.000      0.000
REMARK  Name = *****
REMARK                            x       y       z     vdW  Elec       q    Type
REMARK                         _______ _______ _______ _____ _____    ______ ____
ROOT
ATOM      1  C   LIG    1       26.826 -21.305   6.897  0.00  0.00    +0.213 C 
ATOM      2  C   LIG    1       26.087 -20.707   5.702  0.00  0.00    +0.015 A 
ATOM      3  C   LIG    1       24.798 -21.070   5.232  0.00  0.00    +0.050 A 
ATOM      4  C   LIG    1       24.282 -20.359   4.122  0.00  0.00    +0.024 A 
ATOM      5  C   LIG    1       24.995 -19.345   3.480  0.00  0.00    +0.002 A 
ATOM      6  C   LIG    1       26.259 -19.008   3.926  0.00  0.00    +0.001 A 
ATOM      7  N   LIG    1       24.000 -22.158   5.763  0.00  0.00    -0.224 N 
ATOM      8  C   LIG    1       22.594 -22.098   5.768  0.00  0.00    +0.308 C 
ATOM      9  O   LIG    1       21.890 -21.146   5.437  0.00  0.00    -0.252 OA
ATOM     10  N   LIG    1       21.950 -23.195   6.272  0.00  0.00    -0.313 N 
ATOM     11  H   LIG    1       20.958 -23.068   6.424  0.00  0.00    +0.146 HD
ATOM     12  H   LIG    1       22.434 -23.793   6.926  0.00  0.00    +0.146 HD
ATOM     13  C   LIG    1       24.694 -23.398   5.921  0.00  0.00    +0.046 A 
ATOM     14  C   LIG    1       25.712 -23.525   6.872  0.00  0.00    -0.022 A 
ATOM     15  C   LIG    1       26.367 -24.755   7.033  0.00  0.00    +0.005 A 
ATOM     16  C   LIG    1       25.985 -25.862   6.275  0.00  0.00    +0.000 A 
ATOM     17  C   LIG    1       24.955 -25.749   5.347  0.00  0.00    +0.002 A 
ATOM     18  C   LIG    1       24.318 -24.521   5.165  0.00  0.00    +0.024 A 
ATOM     19  C   LIG    1       26.795 -19.681   5.020  0.00  0.00    +0.009 A 
ATOM     20  C   LIG    1       26.073 -22.344   7.722  0.00  0.00    +0.086 C 
ENDROOT
BRANCH   1  21
ATOM     21  O   LIG    1       27.199 -20.214   7.784  0.00  0.00    -0.456 OA
BRANCH  21  23
ATOM     22  C   LIG    1       29.310 -21.157   7.348  0.00  0.00    +0.136 C 
ATOM     23  C   LIG    1       28.528 -20.077   8.031  0.00  0.00    +0.304 C 
ATOM     24  O   LIG    1       29.032 -19.211   8.739  0.00  0.00    -0.251 OA
ENDBRANCH  21  23
ENDBRANCH   1  21
TORSDOF 2
ENDMDL
MODEL 2
REMARK VINA RESULT:      -7.1      1.952      5.512
REMARK  Name = *****
REMARK                            x       y       z     vdW  Elec       q    Type
REMARK                         _______ _______ _______ _____ _____    ______ ____
ROOT
ATOM      1  C   LIG    1       24.987 -21.288   4.421  0.00  0.00    +0.213 C 
ATOM      2  C   LIG    1       25.140 -22.519   5.312  0.00  0.00    +0.015 A 
ATOM      3  C   LIG    1       25.600 -22.544   6.654  0.00  0.00    +0.050 A 
ATOM      4  C   LIG    1       25.632 -23.796   7.312  0.00  0.00    +0.024 A 
ATOM      5  C   LIG    1       25.248 -24.985   6.688  0.00  0.00    +0.002 A 
ATOM      6  C   LIG    1       24.821 -24.962   5.374  0.00  0.00    +0.001 A 
ATOM      7  N   LIG    1       26.102 -21.392   7.378  0.00  0.00    -0.224 N 
ATOM      8  C   LIG    1       25.934 -21.274   8.770  0.00  0.00    +0.308 C 
ATOM      9  O   LIG    1       25.299 -22.025   9.508  0.00  0.00    -0.252 OA
ATOM     10  N   LIG    1       26.471 -20.154   9.345  0.00  0.00    -0.313 N 
ATOM     11  H   LIG    1       26.196 -20.002  10.306  0.00  0.00    +0.146 HD
ATOM     12  H   LIG    1       26.611 -19.329   8.780  0.00  0.00    +0.146 HD
ATOM     13  C   LIG    1       27.068 -20.608   6.675  0.00  0.00    +0.046 A 
ATOM     14  C   LIG    1       26.700 -19.880   5.538  0.00  0.00    -0.022 A 
ATOM     15  C   LIG    1       27.654 -19.096   4.873  0.00  0.00    +0.005 A 
ATOM     16  C   LIG    1       28.958 -19.008   5.359  0.00  0.00    +0.000 A 
ATOM     17  C   LIG    1       29.323 -19.707   6.504  0.00  0.00    +0.002 A 
ATOM     18  C   LIG    1       28.385 -20.510   7.154  0.00  0.00    +0.024 A 
ATOM     19  C   LIG    1       24.769 -23.747   4.698  0.00  0.00    +0.009 A 
ATOM     20  C   LIG    1       25.280 -19.935   5.060  0.00  0.00    +0.086 C 
ENDROOT
BRANCH   1  21
ATOM     21  O   LIG    1       23.619 -21.263   3.926  0.00  0.00    -0.456 OA
BRANCH  21  23
ATOM     22  C   LIG    1       22.340 -19.386   4.541  0.00  0.00    +0.136 C 
ATOM     23  C   LIG    1       22.678 -20.822   4.802  0.00  0.00    +0.304 C 
ATOM     24  O   LIG    1       22.185 -21.487   5.707  0.00  0.00    -0.251 OA
ENDBRANCH  21  23
ENDBRANCH   1  21
TORSDOF 2
ENDMDL
MODEL 3
REMARK VINA RESULT:      -6.4      6.750      9.338
REMARK  Name = *****
REMARK                            x       y       z     vdW  Elec       q    Type
REMARK                         _______ _______ _______ _____ _____    ______ ____
ROOT
ATOM      1  C   LIG    1       25.802 -29.268  10.326  0.00  0.00    +0.213 C 
ATOM      2  C   LIG    1       24.436 -29.950  10.319  0.00  0.00    +0.015 A 
ATOM      3  C   LIG    1       23.776 -30.517   9.197  0.00  0.00    +0.050 A 
ATOM      4  C   LIG    1       22.523 -31.135   9.420  0.00  0.00    +0.024 A 
ATOM      5  C   LIG    1       21.921 -31.188  10.679  0.00  0.00    +0.002 A 
ATOM      6  C   LIG    1       22.555 -30.615  11.765  0.00  0.00    +0.001 A 
ATOM      7  N   LIG    1       24.260 -30.452   7.831  0.00  0.00    -0.224 N 
ATOM      8  C   LIG    1       23.999 -31.486   6.914  0.00  0.00    +0.308 C 
ATOM      9  O   LIG    1       23.448 -32.561   7.143  0.00  0.00    -0.252 OA
ATOM     10  N   LIG    1       24.487 -31.302   5.649  0.00  0.00    -0.313 N 
ATOM     11  H   LIG    1       24.440 -32.119   5.056  0.00  0.00    +0.146 HD
ATOM     12  H   LIG    1       25.278 -30.689   5.511  0.00  0.00    +0.146 HD
ATOM     13  C   LIG    1       24.671 -29.155   7.396  0.00  0.00    +0.046 A 
ATOM     14  C   LIG    1       25.802 -28.545   7.950  0.00  0.00    -0.022 A 
ATOM     15  C   LIG    1       26.207 -27.282   7.494  0.00  0.00    +0.005 A 
ATOM     16  C   LIG    1       25.511 -26.646   6.466  0.00  0.00    +0.000 A 
ATOM     17  C   LIG    1       24.402 -27.260   5.892  0.00  0.00    +0.002 A 
ATOM     18  C   LIG    1       23.980 -28.504   6.361  0.00  0.00    +0.024 A 
ATOM     19  C   LIG    1       23.793 -30.005  11.585  0.00  0.00    +0.009 A 
ATOM     20  C   LIG    1       26.577 -29.265   9.012  0.00  0.00    +0.086 C 
ENDROOT
BRANCH   1  21
ATOM     21  O   LIG    1       26.624 -29.926  11.329  0.00  0.00    -0.456 OA
BRANCH  21  23
ATOM     22  C   LIG    1       27.326 -27.952  12.401  0.00  0.00    +0.136 C 
ATOM     23  C   LIG    1       27.721 -29.239  11.743  0.00  0.00    +0.304 C 
ATOM     24  O   LIG    1       28.884 -29.595  11.581  0.00  0.00    -0.251 OA
ENDBRANCH  21  23
ENDBRANCH   1  21
TORSDOF 2
ENDMDL
MODEL 4
REMARK VINA RESULT:      -6.1      8.411      9.774
REMARK  Name = *****
REMARK                            x       y       z     vdW  Elec       q    Type
REMARK                         _______ _______ _______ _____ _____    ______ ____
ROOT
ATOM      1  C   LIG    1       24.867 -26.808  13.250  0.00  0.00    +0.213 C 
ATOM      2  C   LIG    1       23.432 -27.323  13.168  0.00  0.00    +0.015 A 
ATOM      3  C   LIG    1       23.023 -28.651  12.875  0.00  0.00    +0.050 A 
ATOM      4  C   LIG    1       21.634 -28.923  12.884  0.00  0.00    +0.024 A 
ATOM      5  C   LIG    1       20.675 -27.944  13.150  0.00  0.00    +0.002 A 
ATOM      6  C   LIG    1       21.076 -26.647  13.412  0.00  0.00    +0.001 A 
ATOM      7  N   LIG    1       23.917 -29.730  12.504  0.00  0.00    -0.224 N 
ATOM      8  C   LIG    1       23.633 -31.065  12.846  0.00  0.00    +0.308 C 
ATOM      9  O   LIG    1       22.704 -31.472  13.542  0.00  0.00    -0.252 OA
ATOM     10  N   LIG    1       24.538 -31.998  12.421  0.00  0.00    -0.313 N 
ATOM     11  H   LIG    1       24.410 -32.920  12.816  0.00  0.00    +0.146 HD
ATOM     12  H   LIG    1       25.490 -31.714  12.239  0.00  0.00    +0.146 HD
ATOM     13  C   LIG    1       24.865 -29.408  11.485  0.00  0.00    +0.046 A 
ATOM     14  C   LIG    1       25.890 -28.488  11.734  0.00  0.00    -0.022 A 
ATOM     15  C   LIG    1       26.828 -28.200  10.731  0.00  0.00    +0.005 A 
ATOM     16  C   LIG    1       26.768 -28.853   9.500  0.00  0.00    +0.000 A 
ATOM     17  C   LIG    1       25.768 -29.789   9.256  0.00  0.00    +0.002 A 
ATOM     18  C   LIG    1       24.817 -30.059  10.241  0.00  0.00    +0.024 A 
ATOM     19  C   LIG    1       22.434 -26.344  13.419  0.00  0.00    +0.009 A 
ATOM     20  C   LIG    1       25.980 -27.838  13.081  0.00  0.00    +0.086 C 
ENDROOT
BRANCH   1  21
ATOM     21  O   LIG    1       25.039 -26.171  14.546  0.00  0.00    -0.456 OA
BRANCH  21  23
ATOM     22  C   LIG    1       26.928 -25.143  15.500  0.00  0.00    +0.136 C 
ATOM     23  C   LIG    1       25.771 -25.026  14.555  0.00  0.00    +0.304 C 
ATOM     24  O   LIG    1       25.517 -24.017  13.906  0.00  0.00    -0.251 OA
ENDBRANCH  21  23
ENDBRANCH   1  21
TORSDOF 2
ENDMDL
MODEL 5
REMARK VINA RESULT:      -6.1      9.464     11.221
REMARK  Name = *****
REMARK                            x       y       z     vdW  Elec       q    Type
REMARK                         _______ _______ _______ _____ _____    ______ ____
ROOT
ATOM      1  C   LIG    1       22.293 -30.168  10.526  0.00  0.00    +0.213 C 
ATOM      2  C   LIG    1       23.762 -30.128  10.108  0.00  0.00    +0.015 A 
ATOM      3  C   LIG    1       24.880 -29.911  10.955  0.00  0.00    +0.050 A 
ATOM      4  C   LIG    1       26.165 -29.949  10.365  0.00  0.00    +0.024 A 
ATOM      5  C   LIG    1       26.362 -30.172   9.001  0.00  0.00    +0.002 A 
ATOM      6  C   LIG    1       25.270 -30.361   8.174  0.00  0.00    +0.001 A 
ATOM      7  N   LIG    1       24.798 -29.588  12.367  0.00  0.00    -0.224 N 
ATOM      8  C   LIG    1       25.794 -30.004  13.270  0.00  0.00    +0.308 C 
ATOM      9  O   LIG    1       26.757 -30.730  13.031  0.00  0.00    -0.252 OA
ATOM     10  N   LIG    1       25.620 -29.619  14.572  0.00  0.00    -0.313 N 
ATOM     11  H   LIG    1       26.246 -30.064  15.230  0.00  0.00    +0.146 HD
ATOM     12  H   LIG    1       24.689 -29.412  14.904  0.00  0.00    +0.146 HD
ATOM     13  C   LIG    1       23.881 -28.544  12.698  0.00  0.00    +0.046 A 
ATOM     14  C   LIG    1       22.503 -28.733  12.541  0.00  0.00    -0.022 A 
ATOM     15  C   LIG    1       21.614 -27.707  12.893  0.00  0.00    +0.005 A 
ATOM     16  C   LIG    1       22.092 -26.512  13.433  0.00  0.00    +0.000 A 
ATOM     17  C   LIG    1       23.458 -26.329  13.616  0.00  0.00    +0.002 A 
ATOM     18  C   LIG    1       24.349 -27.336  13.243  0.00  0.00    +0.024 A 
ATOM     19  C   LIG    1       23.991 -30.338   8.721  0.00  0.00    +0.009 A 
ATOM     20  C   LIG    1       21.998 -30.043  12.017  0.00  0.00    +0.086 C 
ENDROOT
BRANCH   1  21
ATOM     21  O   LIG    1       21.732 -31.428  10.062  0.00  0.00    -0.456 OA
BRANCH  21  23
ATOM     22  C   LIG    1       20.165 -32.961  10.917  0.00  0.00    +0.136 C 
ATOM     23  C   LIG    1       20.408 -31.614  10.306  0.00  0.00    +0.304 C 
ATOM     24  O   LIG    1       19.518 -30.813  10.040  0.00  0.00    -0.251 OA
ENDBRANCH  21  23
ENDBRANCH   1  21
TORSDOF 2
ENDMDL
MODEL 6
REMARK VINA RESULT:      -6.0      6.984      9.883
REMARK  Name = *****
REMARK                            x       y       z     vdW  Elec       q    Type
REMARK                         _______ _______ _______ _____ _____    ______ ____
ROOT
ATOM      1  C   LIG    1       24.794 -31.354   6.122  0.00  0.00    +0.213 C 
ATOM      2  C   LIG    1       25.049 -29.859   6.303  0.00  0.00    +0.015 A 
ATOM      3  C   LIG    1       25.339 -29.189   7.520  0.00  0.00    +0.050 A 
ATOM      4  C   LIG    1       25.578 -27.796   7.459  0.00  0.00    +0.024 A 
ATOM      5  C   LIG    1       25.523 -27.074   6.265  0.00  0.00    +0.002 A 
ATOM      6  C   LIG    1       25.218 -27.725   5.084  0.00  0.00    +0.001 A 
ATOM      7  N   LIG    1       25.343 -29.814   8.829  0.00  0.00    -0.224 N 
ATOM      8  C   LIG    1       26.206 -29.371   9.848  0.00  0.00    +0.308 C 
ATOM      9  O   LIG    1       27.085 -28.516   9.757  0.00  0.00    -0.252 OA
ATOM     10  N   LIG    1       26.102 -30.022  11.047  0.00  0.00    -0.313 N 
ATOM     11  H   LIG    1       26.837 -29.809  11.707  0.00  0.00    +0.146 HD
ATOM     12  H   LIG    1       25.738 -30.964  11.065  0.00  0.00    +0.146 HD
ATOM     13  C   LIG    1       24.199 -30.620   9.119  0.00  0.00    +0.046 A 
ATOM     14  C   LIG    1       23.974 -31.812   8.421  0.00  0.00    -0.022 A 
ATOM     15  C   LIG    1       22.860 -32.604   8.734  0.00  0.00    +0.005 A 
ATOM     16  C   LIG    1       21.994 -32.230   9.762  0.00  0.00    +0.000 A 
ATOM     17  C   LIG    1       22.228 -31.061  10.478  0.00  0.00    +0.002 A 
ATOM     18  C   LIG    1       23.320 -30.256  10.152  0.00  0.00    +0.024 A 
ATOM     19  C   LIG    1       24.985 -29.096   5.106  0.00  0.00    +0.009 A 
ATOM     20  C   LIG    1       24.945 -32.233   7.359  0.00  0.00    +0.086 C 
ENDROOT
BRANCH   1  21
ATOM     21  O   LIG    1       25.716 -31.844   5.109  0.00  0.00    -0.456 OA
BRANCH  21  23
ATOM     22  C   LIG    1       26.051 -32.801   2.986  0.00  0.00    +0.136 C 
ATOM     23  C   LIG    1       25.204 -32.736   4.220  0.00  0.00    +0.304 C 
ATOM     24  O   LIG    1       24.176 -33.384   4.379  0.00  0.00    -0.251 OA
ENDBRANCH  21  23
ENDBRANCH   1  21
TORSDOF 2
ENDMDL
MODEL 7
REMARK VINA RESULT:      -6.0      6.447      9.457
REMARK  Name = *****
REMARK                            x       y       z     vdW  Elec       q    Type
REMARK                         _______ _______ _______ _____ _____    ______ ____
ROOT
ATOM      1  C   LIG    1       25.535 -29.121   6.411  0.00  0.00    +0.213 C 
ATOM      2  C   LIG    1       25.255 -30.612   6.233  0.00  0.00    +0.015 A 
ATOM      3  C   LIG    1       24.651 -31.481   7.178  0.00  0.00    +0.050 A 
ATOM      4  C   LIG    1       24.452 -32.828   6.794  0.00  0.00    +0.024 A 
ATOM      5  C   LIG    1       24.840 -33.321   5.547  0.00  0.00    +0.002 A 
ATOM      6  C   LIG    1       25.449 -32.478   4.636  0.00  0.00    +0.001 A 
ATOM      7  N   LIG    1       24.282 -31.106   8.530  0.00  0.00    -0.224 N 
ATOM      8  C   LIG    1       23.178 -31.693   9.175  0.00  0.00    +0.308 C 
ATOM      9  O   LIG    1       22.366 -32.479   8.691  0.00  0.00    -0.252 OA
ATOM     10  N   LIG    1       22.943 -31.276  10.457  0.00  0.00    -0.313 N 
ATOM     11  H   LIG    1       22.057 -31.577  10.842  0.00  0.00    +0.146 HD
ATOM     12  H   LIG    1       23.278 -30.370  10.749  0.00  0.00    +0.146 HD
ATOM     13  C   LIG    1       25.294 -30.415   9.264  0.00  0.00    +0.046 A 
ATOM     14  C   LIG    1       25.689 -29.126   8.889  0.00  0.00    -0.022 A 
ATOM     15  C   LIG    1       26.667 -28.451   9.635  0.00  0.00    +0.005 A 
ATOM     16  C   LIG    1       27.222 -29.043  10.770  0.00  0.00    +0.000 A 
ATOM     17  C   LIG    1       26.813 -30.313  11.164  0.00  0.00    +0.002 A 
ATOM     18  C   LIG    1       25.861 -30.999  10.410  0.00  0.00    +0.024 A 
ATOM     19  C   LIG    1       25.653 -31.145   4.977  0.00  0.00    +0.009 A 
ATOM     20  C   LIG    1       25.042 -28.477   7.703  0.00  0.00    +0.086 C 
ENDROOT
BRANCH   1  21
ATOM     21  O   LIG    1       24.921 -28.416   5.297  0.00  0.00    -0.456 OA
BRANCH  21  23
ATOM     22  C   LIG    1       24.332 -26.137   5.302  0.00  0.00    +0.136 C 
ATOM     23  C   LIG    1       25.393 -27.166   5.051  0.00  0.00    +0.304 C 
ATOM     24  O   LIG    1       26.521 -26.900   4.649  0.00  0.00    -0.251 OA
ENDBRANCH  21  23
ENDBRANCH   1  21
TORSDOF 2
ENDMDL
MODEL 8
REMARK VINA RESULT:      -5.9      8.748     10.743
REMARK  Name = *****
REMARK                            x       y       z     vdW  Elec       q    Type
REMARK                         _______ _______ _______ _____ _____    ______ ____
ROOT
ATOM      1  C   LIG    1       23.419 -29.704  11.952  0.00  0.00    +0.213 C 
ATOM      2  C   LIG    1       24.298 -29.724  10.703  0.00  0.00    +0.015 A 
ATOM      3  C   LIG    1       25.679 -29.404  10.631  0.00  0.00    +0.050 A 
ATOM      4  C   LIG    1       26.313 -29.524   9.372  0.00  0.00    +0.024 A 
ATOM      5  C   LIG    1       25.633 -29.922   8.220  0.00  0.00    +0.002 A 
ATOM      6  C   LIG    1       24.283 -30.211   8.288  0.00  0.00    +0.001 A 
ATOM      7  N   LIG    1       26.471 -28.902  11.738  0.00  0.00    -0.224 N 
ATOM      8  C   LIG    1       27.840 -29.202  11.851  0.00  0.00    +0.308 C 
ATOM      9  O   LIG    1       28.497 -29.957  11.137  0.00  0.00    -0.252 OA
ATOM     10  N   LIG    1       28.487 -28.652  12.925  0.00  0.00    -0.313 N 
ATOM     11  H   LIG    1       29.418 -29.012  13.084  0.00  0.00    +0.146 HD
ATOM     12  H   LIG    1       27.954 -28.401  13.744  0.00  0.00    +0.146 HD
ATOM     13  C   LIG    1       25.882 -27.820  12.462  0.00  0.00    +0.046 A 
ATOM     14  C   LIG    1       24.727 -28.022  13.226  0.00  0.00    -0.022 A 
ATOM     15  C   LIG    1       24.175 -26.955  13.951  0.00  0.00    +0.005 A 
ATOM     16  C   LIG    1       24.791 -25.703  13.944  0.00  0.00    +0.000 A 
ATOM     17  C   LIG    1       25.954 -25.504  13.208  0.00  0.00    +0.002 A 
ATOM     18  C   LIG    1       26.492 -26.555  12.464  0.00  0.00    +0.024 A 
ATOM     19  C   LIG    1       23.627 -30.112   9.511  0.00  0.00    +0.009 A 
ATOM     20  C   LIG    1       24.109 -29.386  13.274  0.00  0.00    +0.086 C 
ENDROOT
BRANCH   1  21
ATOM     21  O   LIG    1       22.791 -31.010  12.076  0.00  0.00    -0.456 OA
BRANCH  21  23
ATOM     22  C   LIG    1       20.680 -29.977  11.960  0.00  0.00    +0.136 C 
ATOM     23  C   LIG    1       21.540 -31.020  12.607  0.00  0.00    +0.304 C 
ATOM     24  O   LIG    1       21.159 -31.755  13.512  0.00  0.00    -0.251 OA
ENDBRANCH  21  23
ENDBRANCH   1  21
TORSDOF 2
ENDMDL
MODEL 9
REMARK VINA RESULT:      -5.8      7.401     10.136
REMARK  Name = *****
REMARK                            x       y       z     vdW  Elec       q    Type
REMARK                         _______ _______ _______ _____ _____    ______ ____
ROOT
ATOM      1  C   LIG    1       24.400 -32.148   9.124  0.00  0.00    +0.213 C 
ATOM      2  C   LIG    1       25.193 -30.846   9.224  0.00  0.00    +0.015 A 
ATOM      3  C   LIG    1       25.300 -29.839   8.229  0.00  0.00    +0.050 A 
ATOM      4  C   LIG    1       26.062 -28.689   8.543  0.00  0.00    +0.024 A 
ATOM      5  C   LIG    1       26.712 -28.526   9.768  0.00  0.00    +0.002 A 
ATOM      6  C   LIG    1       26.625 -29.519  10.726  0.00  0.00    +0.001 A 
ATOM      7  N   LIG    1       24.741 -29.931   6.894  0.00  0.00    -0.224 N 
ATOM      8  C   LIG    1       24.296 -28.786   6.208  0.00  0.00    +0.308 C 
ATOM      9  O   LIG    1       24.230 -27.638   6.644  0.00  0.00    -0.252 OA
ATOM     10  N   LIG    1       23.810 -28.995   4.946  0.00  0.00    -0.313 N 
ATOM     11  H   LIG    1       23.343 -28.197   4.537  0.00  0.00    +0.146 HD
ATOM     12  H   LIG    1       23.446 -29.905   4.704  0.00  0.00    +0.146 HD
ATOM     13  C   LIG    1       25.013 -31.153   6.206  0.00  0.00    +0.046 A 
ATOM     14  C   LIG    1       24.455 -32.357   6.650  0.00  0.00    -0.022 A 
ATOM     15  C   LIG    1       24.712 -33.545   5.950  0.00  0.00    +0.005 A 
ATOM     16  C   LIG    1       25.491 -33.528   4.793  0.00  0.00    +0.000 A 
ATOM     17  C   LIG    1       26.026 -32.330   4.331  0.00  0.00    +0.002 A 
ATOM     18  C   LIG    1       25.795 -31.150   5.039  0.00  0.00    +0.024 A 
ATOM     19  C   LIG    1       25.877 -30.660  10.455  0.00  0.00    +0.009 A 
ATOM     20  C   LIG    1       23.571 -32.353   7.860  0.00  0.00    +0.086 C 
ENDROOT
BRANCH   1  21
ATOM     21  O   LIG    1       23.501 -32.210  10.265  0.00  0.00    -0.456 OA
BRANCH  21  23
ATOM     22  C   LIG    1       21.197 -32.688  10.211  0.00  0.00    +0.136 C 
ATOM     23  C   LIG    1       22.274 -31.653  10.087  0.00  0.00    +0.304 C 
ATOM     24  O   LIG    1       22.062 -30.473   9.830  0.00  0.00    -0.251 OA
ENDBRANCH  21  23
ENDBRANCH   1  21
TORSDOF 2
ENDMDL
