MODEL 1
REMARK VINA RESULT:      -4.5      0.000      0.000
REMARK  Name = *****
REMARK                            x       y       z     vdW  Elec       q    Type
REMARK                         _______ _______ _______ _____ _____    ______ ____
ROOT
ATOM      1  C   LIG    1       25.342 -21.213   5.176  0.00  0.00    +0.045 C 
ATOM      2  C   LIG    1       24.201 -20.601   4.342  0.00  0.00    +0.107 C 
ATOM      3  C   LIG    1       24.747 -19.361   3.609  0.00  0.00    +0.045 C 
ENDROOT
BRANCH   2   4
ATOM      4  C   LIG    1       22.923 -20.275   5.214  0.00  0.00    +0.218 C 
ATOM      5 CL   LIG    1       23.246 -20.460   6.981  0.00  0.00    -0.080 Cl
ATOM      6 CL   LIG    1       21.542 -21.366   4.811  0.00  0.00    -0.080 Cl
ATOM      7 CL   LIG    1       22.351 -18.582   4.954  0.00  0.00    -0.080 Cl
ENDBRANCH   2   4
BRANCH   2   8
ATOM      8  O   LIG    1       23.879 -21.572   3.318  0.00  0.00    -0.385 OA
ATOM      9  H   LIG    1       24.652 -21.679   2.736  0.00  0.00    +0.210 HD
ENDBRANCH   2   8
TORSDOF 2
ENDMDL
MODEL 2
REMARK VINA RESULT:      -4.5      0.098      1.779
REMARK  Name = *****
REMARK                            x       y       z     vdW  Elec       q    Type
REMARK                         _______ _______ _______ _____ _____    ______ ____
ROOT
ATOM      1  C   LIG    1       25.248 -21.385   5.149  0.00  0.00    +0.045 C 
ATOM      2  C   LIG    1       24.158 -20.671   4.329  0.00  0.00    +0.107 C 
ATOM      3  C   LIG    1       24.786 -19.431   3.662  0.00  0.00    +0.045 C 
ENDROOT
BRANCH   2   4
ATOM      4  C   LIG    1       22.887 -20.311   5.197  0.00  0.00    +0.218 C 
ATOM      5 CL   LIG    1       21.485 -21.384   4.818  0.00  0.00    -0.080 Cl
ATOM      6 CL   LIG    1       22.343 -18.612   4.917  0.00  0.00    -0.080 Cl
ATOM      7 CL   LIG    1       23.216 -20.473   6.965  0.00  0.00    -0.080 Cl
ENDBRANCH   2   4
BRANCH   2   8
ATOM      8  O   LIG    1       23.798 -21.572   3.256  0.00  0.00    -0.385 OA
ATOM      9  H   LIG    1       24.609 -21.844   2.791  0.00  0.00    +0.210 HD
ENDBRANCH   2   8
TORSDOF 2
ENDMDL
MODEL 3
REMARK VINA RESULT:      -4.5      0.121      1.798
REMARK  Name = *****
REMARK                            x       y       z     vdW  Elec       q    Type
REMARK                         _______ _______ _______ _____ _____    ______ ____
ROOT
ATOM      1  C   LIG    1       25.232 -21.373   5.241  0.00  0.00    +0.045 C 
ATOM      2  C   LIG    1       24.184 -20.656   4.370  0.00  0.00    +0.107 C 
ATOM      3  C   LIG    1       24.856 -19.440   3.703  0.00  0.00    +0.045 C 
ENDROOT
BRANCH   2   4
ATOM      4  C   LIG    1       22.889 -20.259   5.185  0.00  0.00    +0.218 C 
ATOM      5 CL   LIG    1       22.348 -18.577   4.816  0.00  0.00    -0.080 Cl
ATOM      6 CL   LIG    1       23.167 -20.346   6.967  0.00  0.00    -0.080 Cl
ATOM      7 CL   LIG    1       21.503 -21.355   4.815  0.00  0.00    -0.080 Cl
ENDBRANCH   2   4
BRANCH   2   8
ATOM      8  O   LIG    1       23.846 -21.572   3.302  0.00  0.00    -0.385 OA
ATOM      9  H   LIG    1       24.554 -22.237   3.225  0.00  0.00    +0.210 HD
ENDBRANCH   2   8
TORSDOF 2
ENDMDL
MODEL 4
REMARK VINA RESULT:      -4.4      5.994      7.144
REMARK  Name = *****
REMARK                            x       y       z     vdW  Elec       q    Type
REMARK                         _______ _______ _______ _____ _____    ______ ____
ROOT
ATOM      1  C   LIG    1       26.389 -15.937   3.358  0.00  0.00    +0.045 C 
ATOM      2  C   LIG    1       26.476 -14.407   3.208  0.00  0.00    +0.107 C 
ATOM      3  C   LIG    1       27.706 -13.911   3.994  0.00  0.00    +0.045 C 
ENDROOT
BRANCH   2   4
ATOM      4  C   LIG    1       25.144 -13.680   3.649  0.00  0.00    +0.218 C 
ATOM      5 CL   LIG    1       23.846 -14.856   4.088  0.00  0.00    -0.080 Cl
ATOM      6 CL   LIG    1       24.486 -12.631   2.334  0.00  0.00    -0.080 Cl
ATOM      7 CL   LIG    1       25.405 -12.619   5.087  0.00  0.00    -0.080 Cl
ENDBRANCH   2   4
BRANCH   2   8
ATOM      8  O   LIG    1       26.754 -14.149   1.812  0.00  0.00    -0.385 OA
ATOM      9  H   LIG    1       25.908 -14.059   1.337  0.00  0.00    +0.210 HD
ENDBRANCH   2   8
TORSDOF 2
ENDMDL
MODEL 5
REMARK VINA RESULT:      -4.4      6.059      7.346
REMARK  Name = *****
REMARK                            x       y       z     vdW  Elec       q    Type
REMARK                         _______ _______ _______ _____ _____    ______ ____
ROOT
ATOM      1  C   LIG    1       26.460 -15.900   3.312  0.00  0.00    +0.045 C 
ATOM      2  C   LIG    1       26.562 -14.367   3.204  0.00  0.00    +0.107 C 
ATOM      3  C   LIG    1       27.808 -13.907   3.985  0.00  0.00    +0.045 C 
ENDROOT
BRANCH   2   4
ATOM      4  C   LIG    1       25.244 -13.639   3.685  0.00  0.00    +0.218 C 
ATOM      5 CL   LIG    1       24.593 -12.519   2.428  0.00  0.00    -0.080 Cl
ATOM      6 CL   LIG    1       25.526 -12.657   5.174  0.00  0.00    -0.080 Cl
ATOM      7 CL   LIG    1       23.932 -14.818   4.074  0.00  0.00    -0.080 Cl
ENDBRANCH   2   4
BRANCH   2   8
ATOM      8  O   LIG    1       26.822 -14.072   1.812  0.00  0.00    -0.385 OA
ATOM      9  H   LIG    1       25.971 -13.947   1.355  0.00  0.00    +0.210 HD
ENDBRANCH   2   8
TORSDOF 2
ENDMDL
MODEL 6
REMARK VINA RESULT:      -4.4      6.059      7.102
REMARK  Name = *****
REMARK                            x       y       z     vdW  Elec       q    Type
REMARK                         _______ _______ _______ _____ _____    ______ ____
ROOT
ATOM      1  C   LIG    1       26.460 -15.900   3.312  0.00  0.00    +0.045 C 
ATOM      2  C   LIG    1       26.562 -14.367   3.204  0.00  0.00    +0.107 C 
ATOM      3  C   LIG    1       27.808 -13.907   3.985  0.00  0.00    +0.045 C 
ENDROOT
BRANCH   2   4
ATOM      4  C   LIG    1       25.244 -13.639   3.686  0.00  0.00    +0.218 C 
ATOM      5 CL   LIG    1       25.520 -12.658   5.176  0.00  0.00    -0.080 Cl
ATOM      6 CL   LIG    1       23.928 -14.816   4.063  0.00  0.00    -0.080 Cl
ATOM      7 CL   LIG    1       24.601 -12.518   2.425  0.00  0.00    -0.080 Cl
ENDBRANCH   2   4
BRANCH   2   8
ATOM      8  O   LIG    1       26.822 -14.072   1.812  0.00  0.00    -0.385 OA
ATOM      9  H   LIG    1       26.531 -14.829   1.273  0.00  0.00    +0.210 HD
ENDBRANCH   2   8
TORSDOF 2
ENDMDL
MODEL 7
REMARK VINA RESULT:      -4.4      6.469      7.608
REMARK  Name = *****
REMARK                            x       y       z     vdW  Elec       q    Type
REMARK                         _______ _______ _______ _____ _____    ______ ____
ROOT
ATOM      1  C   LIG    1       24.034 -12.310   4.683  0.00  0.00    +0.045 C 
ATOM      2  C   LIG    1       24.312 -13.562   3.830  0.00  0.00    +0.107 C 
ATOM      3  C   LIG    1       23.453 -14.720   4.373  0.00  0.00    +0.045 C 
ENDROOT
BRANCH   2   4
ATOM      4  C   LIG    1       25.849 -13.925   3.774  0.00  0.00    +0.218 C 
ATOM      5 CL   LIG    1       26.118 -15.673   3.412  0.00  0.00    -0.080 Cl
ATOM      6 CL   LIG    1       26.678 -13.575   5.340  0.00  0.00    -0.080 Cl
ATOM      7 CL   LIG    1       26.713 -12.981   2.499  0.00  0.00    -0.080 Cl
ENDBRANCH   2   4
BRANCH   2   8
ATOM      8  O   LIG    1       23.813 -13.271   2.504  0.00  0.00    -0.385 OA
ATOM      9  H   LIG    1       23.985 -14.040   1.930  0.00  0.00    +0.210 HD
ENDBRANCH   2   8
TORSDOF 2
ENDMDL
MODEL 8
REMARK VINA RESULT:      -4.3      6.468      7.620
REMARK  Name = *****
REMARK                            x       y       z     vdW  Elec       q    Type
REMARK                         _______ _______ _______ _____ _____    ______ ____
ROOT
ATOM      1  C   LIG    1       24.022 -12.323   4.699  0.00  0.00    +0.045 C 
ATOM      2  C   LIG    1       24.308 -13.567   3.837  0.00  0.00    +0.107 C 
ATOM      3  C   LIG    1       23.457 -14.734   4.374  0.00  0.00    +0.045 C 
ENDROOT
BRANCH   2   4
ATOM      4  C   LIG    1       25.847 -13.919   3.776  0.00  0.00    +0.218 C 
ATOM      5 CL   LIG    1       26.683 -13.570   5.338  0.00  0.00    -0.080 Cl
ATOM      6 CL   LIG    1       26.701 -12.972   2.497  0.00  0.00    -0.080 Cl
ATOM      7 CL   LIG    1       26.120 -15.665   3.407  0.00  0.00    -0.080 Cl
ENDBRANCH   2   4
BRANCH   2   8
ATOM      8  O   LIG    1       23.804 -13.271   2.513  0.00  0.00    -0.385 OA
ATOM      9  H   LIG    1       23.674 -12.309   2.437  0.00  0.00    +0.210 HD
ENDBRANCH   2   8
TORSDOF 2
ENDMDL
MODEL 9
REMARK VINA RESULT:      -4.3      6.463      7.598
REMARK  Name = *****
REMARK                            x       y       z     vdW  Elec       q    Type
REMARK                         _______ _______ _______ _____ _____    ______ ____
ROOT
ATOM      1  C   LIG    1       24.023 -12.329   4.703  0.00  0.00    +0.045 C 
ATOM      2  C   LIG    1       24.305 -13.572   3.839  0.00  0.00    +0.107 C 
ATOM      3  C   LIG    1       23.456 -14.739   4.376  0.00  0.00    +0.045 C 
ENDROOT
BRANCH   2   4
ATOM      4  C   LIG    1       25.844 -13.925   3.772  0.00  0.00    +0.218 C 
ATOM      5 CL   LIG    1       26.699 -12.981   2.492  0.00  0.00    -0.080 Cl
ATOM      6 CL   LIG    1       26.115 -15.673   3.410  0.00  0.00    -0.080 Cl
ATOM      7 CL   LIG    1       26.680 -13.576   5.334  0.00  0.00    -0.080 Cl
ENDBRANCH   2   4
BRANCH   2   8
ATOM      8  O   LIG    1       23.798 -13.273   2.517  0.00  0.00    -0.385 OA
ATOM      9  H   LIG    1       23.043 -12.663   2.603  0.00  0.00    +0.210 HD
ENDBRANCH   2   8
TORSDOF 2
ENDMDL
