MODEL 1
REMARK VINA RESULT:      -6.6      0.000      0.000
REMARK  Name = *****
REMARK                            x       y       z     vdW  Elec       q    Type
REMARK                         _______ _______ _______ _____ _____    ______ ____
ROOT
ATOM      1  C   LIG    1       23.609 -24.608   6.524  0.00  0.00    +0.024 C 
ATOM      2  C   LIG    1       24.328 -23.257   6.441  0.00  0.00    +0.055 C 
ENDROOT
BRANCH   2   3
ATOM      3  N   LIG    1       25.352 -23.126   7.509  0.00  0.00    -0.312 NA
ATOM      4  H   LIG    1       25.379 -23.986   8.059  0.00  0.00    +0.122 HD
BRANCH   3   5
ATOM      5  C   LIG    1       26.698 -22.802   7.003  0.00  0.00    +0.096 C 
BRANCH   5   6
ATOM      6  C   LIG    1       27.037 -21.324   7.213  0.00  0.00    +0.133 C 
BRANCH   6   7
ATOM      7  C   LIG    1       26.397 -20.805   8.432  0.00  0.00    +0.064 C 
ATOM      8  N   LIG    1       25.881 -20.402   9.394  0.00  0.00    -0.197 NA
ENDBRANCH   6   7
ENDBRANCH   5   6
ENDBRANCH   3   5
ENDBRANCH   2   3
BRANCH   2   9
ATOM      9  C   LIG    1       23.297 -22.098   6.575  0.00  0.00    +0.053 C 
BRANCH   9  10
ATOM     10  C   LIG    1       23.438 -20.976   5.561  0.00  0.00    -0.046 A 
ATOM     11  C   LIG    1       24.446 -21.022   4.585  0.00  0.00    +0.003 A 
ATOM     12  C   LIG    1       24.565 -20.010   3.626  0.00  0.00    +0.000 A 
ATOM     13  C   LIG    1       23.678 -18.937   3.631  0.00  0.00    +0.000 A 
ATOM     14  C   LIG    1       22.674 -18.875   4.595  0.00  0.00    +0.000 A 
ATOM     15  C   LIG    1       22.551 -19.890   5.551  0.00  0.00    +0.003 A 
ENDBRANCH   9  10
ENDBRANCH   2   9
TORSDOF 6
ENDMDL
MODEL 2
REMARK VINA RESULT:      -6.6      2.643      4.442
REMARK  Name = *****
REMARK                            x       y       z     vdW  Elec       q    Type
REMARK                         _______ _______ _______ _____ _____    ______ ____
ROOT
ATOM      1  C   LIG    1       26.646 -20.417   6.219  0.00  0.00    +0.024 C 
ATOM      2  C   LIG    1       26.944 -20.355   7.722  0.00  0.00    +0.055 C 
ENDROOT
BRANCH   2   3
ATOM      3  N   LIG    1       28.250 -20.987   8.039  0.00  0.00    -0.312 NA
ATOM      4  H   LIG    1       28.111 -21.986   8.201  0.00  0.00    +0.122 HD
BRANCH   3   5
ATOM      5  C   LIG    1       29.277 -20.778   7.003  0.00  0.00    +0.096 C 
BRANCH   5   6
ATOM      6  C   LIG    1       30.108 -19.521   7.281  0.00  0.00    +0.133 C 
BRANCH   6   7
ATOM      7  C   LIG    1       31.102 -19.771   8.336  0.00  0.00    +0.064 C 
ATOM      8  N   LIG    1       31.897 -19.973   9.162  0.00  0.00    -0.197 NA
ENDBRANCH   6   7
ENDBRANCH   5   6
ENDBRANCH   3   5
ENDBRANCH   2   3
BRANCH   2   9
ATOM      9  C   LIG    1       25.818 -21.078   8.517  0.00  0.00    +0.053 C 
BRANCH   9  10
ATOM     10  C   LIG    1       25.110 -22.200   7.778  0.00  0.00    -0.046 A 
ATOM     11  C   LIG    1       25.799 -23.377   7.446  0.00  0.00    +0.003 A 
ATOM     12  C   LIG    1       25.149 -24.431   6.794  0.00  0.00    +0.000 A 
ATOM     13  C   LIG    1       23.802 -24.320   6.463  0.00  0.00    +0.000 A 
ATOM     14  C   LIG    1       23.104 -23.158   6.783  0.00  0.00    +0.000 A 
ATOM     15  C   LIG    1       23.753 -22.105   7.440  0.00  0.00    +0.003 A 
ENDBRANCH   9  10
ENDBRANCH   2   9
TORSDOF 6
ENDMDL
MODEL 3
REMARK VINA RESULT:      -6.5      2.052      2.704
REMARK  Name = *****
REMARK                            x       y       z     vdW  Elec       q    Type
REMARK                         _______ _______ _______ _____ _____    ______ ____
ROOT
ATOM      1  C   LIG    1       25.903 -23.640   7.275  0.00  0.00    +0.024 C 
ATOM      2  C   LIG    1       26.077 -22.122   7.149  0.00  0.00    +0.055 C 
ENDROOT
BRANCH   2   3
ATOM      3  N   LIG    1       26.975 -21.593   8.207  0.00  0.00    -0.312 NA
ATOM      4  H   LIG    1       27.661 -22.308   8.457  0.00  0.00    +0.122 HD
BRANCH   3   5
ATOM      5  C   LIG    1       27.658 -20.341   7.834  0.00  0.00    +0.096 C 
BRANCH   5   6
ATOM      6  C   LIG    1       28.610 -20.551   6.653  0.00  0.00    +0.133 C 
BRANCH   6   7
ATOM      7  C   LIG    1       29.309 -19.303   6.311  0.00  0.00    +0.064 C 
ATOM      8  N   LIG    1       29.858 -18.317   6.029  0.00  0.00    -0.197 NA
ENDBRANCH   6   7
ENDBRANCH   5   6
ENDBRANCH   3   5
ENDBRANCH   2   3
BRANCH   2   9
ATOM      9  C   LIG    1       24.692 -21.419   7.254  0.00  0.00    +0.053 C 
BRANCH   9  10
ATOM     10  C   LIG    1       24.262 -20.631   6.029  0.00  0.00    -0.046 A 
ATOM     11  C   LIG    1       22.962 -20.109   5.940  0.00  0.00    +0.003 A 
ATOM     12  C   LIG    1       22.565 -19.354   4.831  0.00  0.00    +0.000 A 
ATOM     13  C   LIG    1       23.462 -19.114   3.794  0.00  0.00    +0.000 A 
ATOM     14  C   LIG    1       24.754 -19.628   3.864  0.00  0.00    +0.000 A 
ATOM     15  C   LIG    1       25.154 -20.378   4.977  0.00  0.00    +0.003 A 
ENDBRANCH   9  10
ENDBRANCH   2   9
TORSDOF 6
ENDMDL
MODEL 4
REMARK VINA RESULT:      -6.5      2.019      2.341
REMARK  Name = *****
REMARK                            x       y       z     vdW  Elec       q    Type
REMARK                         _______ _______ _______ _____ _____    ______ ____
ROOT
ATOM      1  C   LIG    1       25.872 -23.704   7.123  0.00  0.00    +0.024 C 
ATOM      2  C   LIG    1       26.005 -22.180   7.029  0.00  0.00    +0.055 C 
ENDROOT
BRANCH   2   3
ATOM      3  N   LIG    1       26.896 -21.650   8.093  0.00  0.00    -0.312 NA
ATOM      4  H   LIG    1       27.601 -22.352   8.324  0.00  0.00    +0.122 HD
BRANCH   3   5
ATOM      5  C   LIG    1       27.543 -20.373   7.743  0.00  0.00    +0.096 C 
BRANCH   5   6
ATOM      6  C   LIG    1       28.450 -20.520   6.517  0.00  0.00    +0.133 C 
BRANCH   6   7
ATOM      7  C   LIG    1       29.279 -19.320   6.329  0.00  0.00    +0.064 C 
ATOM      8  N   LIG    1       29.933 -18.371   6.169  0.00  0.00    -0.197 NA
ENDBRANCH   6   7
ENDBRANCH   5   6
ENDBRANCH   3   5
ENDBRANCH   2   3
BRANCH   2   9
ATOM      9  C   LIG    1       24.603 -21.516   7.157  0.00  0.00    +0.053 C 
BRANCH   9  10
ATOM     10  C   LIG    1       24.186 -20.635   5.992  0.00  0.00    -0.046 A 
ATOM     11  C   LIG    1       25.077 -20.384   4.936  0.00  0.00    +0.003 A 
ATOM     12  C   LIG    1       24.692 -19.602   3.842  0.00  0.00    +0.000 A 
ATOM     13  C   LIG    1       23.412 -19.056   3.791  0.00  0.00    +0.000 A 
ATOM     14  C   LIG    1       22.518 -19.293   4.832  0.00  0.00    +0.000 A 
ATOM     15  C   LIG    1       22.899 -20.081   5.924  0.00  0.00    +0.003 A 
ENDBRANCH   9  10
ENDBRANCH   2   9
TORSDOF 6
ENDMDL
MODEL 5
REMARK VINA RESULT:      -6.5      1.578      3.353
REMARK  Name = *****
REMARK                            x       y       z     vdW  Elec       q    Type
REMARK                         _______ _______ _______ _____ _____    ______ ____
ROOT
ATOM      1  C   LIG    1       25.772 -21.955   8.486  0.00  0.00    +0.024 C 
ATOM      2  C   LIG    1       24.981 -22.397   7.249  0.00  0.00    +0.055 C 
ENDROOT
BRANCH   2   3
ATOM      3  N   LIG    1       25.076 -23.865   7.046  0.00  0.00    -0.312 NA
ATOM      4  H   LIG    1       25.317 -24.314   7.931  0.00  0.00    +0.122 HD
BRANCH   3   5
ATOM      5  C   LIG    1       23.852 -24.467   6.486  0.00  0.00    +0.096 C 
BRANCH   5   6
ATOM      6  C   LIG    1       24.130 -25.847   5.884  0.00  0.00    +0.133 C 
BRANCH   6   7
ATOM      7  C   LIG    1       25.577 -26.092   5.775  0.00  0.00    +0.064 C 
ATOM      8  N   LIG    1       26.719 -26.298   5.693  0.00  0.00    -0.197 NA
ENDBRANCH   6   7
ENDBRANCH   5   6
ENDBRANCH   3   5
ENDBRANCH   2   3
BRANCH   2   9
ATOM      9  C   LIG    1       25.522 -21.668   5.985  0.00  0.00    +0.053 C 
BRANCH   9  10
ATOM     10  C   LIG    1       24.580 -20.654   5.360  0.00  0.00    -0.046 A 
ATOM     11  C   LIG    1       24.955 -19.956   4.201  0.00  0.00    +0.003 A 
ATOM     12  C   LIG    1       24.083 -19.043   3.598  0.00  0.00    +0.000 A 
ATOM     13  C   LIG    1       22.824 -18.815   4.146  0.00  0.00    +0.000 A 
ATOM     14  C   LIG    1       22.437 -19.498   5.297  0.00  0.00    +0.000 A 
ATOM     15  C   LIG    1       23.307 -20.416   5.897  0.00  0.00    +0.003 A 
ENDBRANCH   9  10
ENDBRANCH   2   9
TORSDOF 6
ENDMDL
MODEL 6
REMARK VINA RESULT:      -6.3      2.418      3.003
REMARK  Name = *****
REMARK                            x       y       z     vdW  Elec       q    Type
REMARK                         _______ _______ _______ _____ _____    ______ ____
ROOT
ATOM      1  C   LIG    1       25.885 -20.591   8.281  0.00  0.00    +0.024 C 
ATOM      2  C   LIG    1       26.527 -21.583   7.305  0.00  0.00    +0.055 C 
ENDROOT
BRANCH   2   3
ATOM      3  N   LIG    1       27.648 -20.957   6.559  0.00  0.00    -0.312 NA
ATOM      4  H   LIG    1       27.460 -19.960   6.441  0.00  0.00    +0.122 HD
BRANCH   3   5
ATOM      5  C   LIG    1       28.965 -21.155   7.191  0.00  0.00    +0.096 C 
BRANCH   5   6
ATOM      6  C   LIG    1       29.569 -19.827   7.657  0.00  0.00    +0.133 C 
BRANCH   6   7
ATOM      7  C   LIG    1       30.798 -20.052   8.434  0.00  0.00    +0.064 C 
ATOM      8  N   LIG    1       31.764 -20.230   9.058  0.00  0.00    -0.197 NA
ENDBRANCH   6   7
ENDBRANCH   5   6
ENDBRANCH   3   5
ENDBRANCH   2   3
BRANCH   2   9
ATOM      9  C   LIG    1       25.462 -22.097   6.293  0.00  0.00    +0.053 C 
BRANCH   9  10
ATOM     10  C   LIG    1       24.649 -21.021   5.594  0.00  0.00    -0.046 A 
ATOM     11  C   LIG    1       25.160 -20.366   4.463  0.00  0.00    +0.003 A 
ATOM     12  C   LIG    1       24.407 -19.396   3.792  0.00  0.00    +0.000 A 
ATOM     13  C   LIG    1       23.133 -19.067   4.245  0.00  0.00    +0.000 A 
ATOM     14  C   LIG    1       22.612 -19.705   5.368  0.00  0.00    +0.000 A 
ATOM     15  C   LIG    1       23.362 -20.680   6.036  0.00  0.00    +0.003 A 
ENDBRANCH   9  10
ENDBRANCH   2   9
TORSDOF 6
ENDMDL
MODEL 7
REMARK VINA RESULT:      -6.3      1.209      3.140
REMARK  Name = *****
REMARK                            x       y       z     vdW  Elec       q    Type
REMARK                         _______ _______ _______ _____ _____    ______ ____
ROOT
ATOM      1  C   LIG    1       27.061 -20.961   8.299  0.00  0.00    +0.024 C 
ATOM      2  C   LIG    1       25.731 -21.275   7.605  0.00  0.00    +0.055 C 
ENDROOT
BRANCH   2   3
ATOM      3  N   LIG    1       25.278 -22.656   7.907  0.00  0.00    -0.312 NA
ATOM      4  H   LIG    1       24.276 -22.731   7.724  0.00  0.00    +0.122 HD
BRANCH   3   5
ATOM      5  C   LIG    1       26.011 -23.697   7.164  0.00  0.00    +0.096 C 
BRANCH   5   6
ATOM      6  C   LIG    1       25.068 -24.538   6.299  0.00  0.00    +0.133 C 
BRANCH   6   7
ATOM      7  C   LIG    1       23.662 -24.203   6.574  0.00  0.00    +0.064 C 
ATOM      8  N   LIG    1       22.549 -23.934   6.780  0.00  0.00    -0.197 NA
ENDBRANCH   6   7
ENDBRANCH   5   6
ENDBRANCH   3   5
ENDBRANCH   2   3
BRANCH   2   9
ATOM      9  C   LIG    1       25.884 -21.111   6.065  0.00  0.00    +0.053 C 
BRANCH   9  10
ATOM     10  C   LIG    1       24.768 -20.349   5.372  0.00  0.00    -0.046 A 
ATOM     11  C   LIG    1       23.484 -20.297   5.940  0.00  0.00    +0.003 A 
ATOM     12  C   LIG    1       22.457 -19.571   5.327  0.00  0.00    +0.000 A 
ATOM     13  C   LIG    1       22.698 -18.889   4.138  0.00  0.00    +0.000 A 
ATOM     14  C   LIG    1       23.964 -18.933   3.561  0.00  0.00    +0.000 A 
ATOM     15  C   LIG    1       24.995 -19.654   4.176  0.00  0.00    +0.003 A 
ENDBRANCH   9  10
ENDBRANCH   2   9
TORSDOF 6
ENDMDL
MODEL 8
REMARK VINA RESULT:      -6.3      2.930      4.306
REMARK  Name = *****
REMARK                            x       y       z     vdW  Elec       q    Type
REMARK                         _______ _______ _______ _____ _____    ______ ____
ROOT
ATOM      1  C   LIG    1       28.649 -19.560   5.815  0.00  0.00    +0.024 C 
ATOM      2  C   LIG    1       27.960 -19.983   7.118  0.00  0.00    +0.055 C 
ENDROOT
BRANCH   2   3
ATOM      3  N   LIG    1       28.954 -20.307   8.172  0.00  0.00    -0.312 NA
ATOM      4  H   LIG    1       29.277 -21.268   8.048  0.00  0.00    +0.122 HD
BRANCH   3   5
ATOM      5  C   LIG    1       30.102 -19.384   8.209  0.00  0.00    +0.096 C 
BRANCH   5   6
ATOM      6  C   LIG    1       31.417 -20.132   8.448  0.00  0.00    +0.133 C 
BRANCH   6   7
ATOM      7  C   LIG    1       31.187 -21.367   9.214  0.00  0.00    +0.064 C 
ATOM      8  N   LIG    1       30.995 -22.339   9.824  0.00  0.00    -0.197 NA
ENDBRANCH   6   7
ENDBRANCH   5   6
ENDBRANCH   3   5
ENDBRANCH   2   3
BRANCH   2   9
ATOM      9  C   LIG    1       27.060 -21.227   6.862  0.00  0.00    +0.053 C 
BRANCH   9  10
ATOM     10  C   LIG    1       25.622 -20.928   6.474  0.00  0.00    -0.046 A 
ATOM     11  C   LIG    1       24.597 -21.007   7.431  0.00  0.00    +0.003 A 
ATOM     12  C   LIG    1       23.274 -20.702   7.093  0.00  0.00    +0.000 A 
ATOM     13  C   LIG    1       22.958 -20.316   5.794  0.00  0.00    +0.000 A 
ATOM     14  C   LIG    1       23.962 -20.235   4.833  0.00  0.00    +0.000 A 
ATOM     15  C   LIG    1       25.287 -20.534   5.171  0.00  0.00    +0.003 A 
ENDBRANCH   9  10
ENDBRANCH   2   9
TORSDOF 6
ENDMDL
MODEL 9
REMARK VINA RESULT:      -6.2      5.117      8.033
REMARK  Name = *****
REMARK                            x       y       z     vdW  Elec       q    Type
REMARK                         _______ _______ _______ _____ _____    ______ ____
ROOT
ATOM      1  C   LIG    1       30.264 -18.963   6.464  0.00  0.00    +0.024 C 
ATOM      2  C   LIG    1       30.177 -19.340   7.948  0.00  0.00    +0.055 C 
ENDROOT
BRANCH   2   3
ATOM      3  N   LIG    1       29.234 -20.468   8.162  0.00  0.00    -0.312 NA
ATOM      4  H   LIG    1       28.517 -20.186   8.833  0.00  0.00    +0.122 HD
BRANCH   3   5
ATOM      5  C   LIG    1       28.606 -20.960   6.922  0.00  0.00    +0.096 C 
BRANCH   5   6
ATOM      6  C   LIG    1       27.127 -20.570   6.849  0.00  0.00    +0.133 C 
BRANCH   6   7
ATOM      7  C   LIG    1       26.525 -20.537   8.191  0.00  0.00    +0.064 C 
ATOM      8  N   LIG    1       26.054 -20.521   9.255  0.00  0.00    -0.197 NA
ENDBRANCH   6   7
ENDBRANCH   5   6
ENDBRANCH   3   5
ENDBRANCH   2   3
BRANCH   2   9
ATOM      9  C   LIG    1       29.705 -18.113   8.781  0.00  0.00    +0.053 C 
BRANCH   9  10
ATOM     10  C   LIG    1       30.758 -17.486   9.678  0.00  0.00    -0.046 A 
ATOM     11  C   LIG    1       31.938 -16.960   9.129  0.00  0.00    +0.003 A 
ATOM     12  C   LIG    1       32.900 -16.351   9.943  0.00  0.00    +0.000 A 
ATOM     13  C   LIG    1       32.696 -16.263  11.317  0.00  0.00    +0.000 A 
ATOM     14  C   LIG    1       31.532 -16.783  11.878  0.00  0.00    +0.000 A 
ATOM     15  C   LIG    1       30.566 -17.387  11.064  0.00  0.00    +0.003 A 
ENDBRANCH   9  10
ENDBRANCH   2   9
TORSDOF 6
ENDMDL
