MODEL 1
REMARK VINA RESULT:      -8.7      0.000      0.000
REMARK  Name = *****
REMARK                            x       y       z     vdW  Elec       q    Type
REMARK                         _______ _______ _______ _____ _____    ______ ____
ROOT
ATOM      1  C   LIG    1       24.987 -21.144   6.872  0.00  0.00    +0.094 C 
ATOM      2  C   LIG    1       23.649 -20.378   7.071  0.00  0.00    +0.038 C 
ATOM      3  C   LIG    1       22.691 -20.331   5.874  0.00  0.00    +0.085 C 
ATOM      4  N   LIG    1       23.077 -19.285   4.932  0.00  0.00    -0.305 NA
ATOM      5  C   LIG    1       21.889 -18.716   4.286  0.00  0.00    +0.105 C 
ATOM      6  C   LIG    1       24.039 -19.710   3.909  0.00  0.00    +0.084 C 
ATOM      7  C   LIG    1       25.098 -20.747   4.295  0.00  0.00    +0.017 C 
ATOM      8  C   LIG    1       25.755 -20.529   5.657  0.00  0.00    +0.024 C 
ENDROOT
BRANCH   1   9
ATOM      9  C   LIG    1       24.831 -22.679   6.735  0.00  0.00    -0.031 A 
ATOM     10  C   LIG    1       25.968 -23.507   6.682  0.00  0.00    +0.005 A 
ATOM     11  C   LIG    1       25.849 -24.894   6.530  0.00  0.00    +0.000 A 
ATOM     12  C   LIG    1       24.593 -25.484   6.429  0.00  0.00    +0.000 A 
ATOM     13  C   LIG    1       23.456 -24.692   6.505  0.00  0.00    +0.000 A 
ATOM     14  C   LIG    1       23.575 -23.311   6.676  0.00  0.00    +0.005 A 
ENDBRANCH   1   9
BRANCH   1  15
ATOM     15  C   LIG    1       25.828 -20.841   8.143  0.00  0.00    +0.318 C 
ATOM     16  O   LIG    1       25.517 -21.150   9.283  0.00  0.00    -0.250 OA
BRANCH  15  17
ATOM     17  O   LIG    1       26.997 -20.211   7.811  0.00  0.00    -0.464 OA
BRANCH  17  19
ATOM     18  C   LIG    1       29.216 -20.638   6.965  0.00  0.00    +0.048 C 
ATOM     19  C   LIG    1       28.199 -20.957   8.047  0.00  0.00    +0.229 C 
ENDBRANCH  17  19
ENDBRANCH  15  17
ENDBRANCH   1  15
TORSDOF 4
ENDMDL
MODEL 2
REMARK VINA RESULT:      -8.7      1.600      4.392
REMARK  Name = *****
REMARK                            x       y       z     vdW  Elec       q    Type
REMARK                         _______ _______ _______ _____ _____    ______ ____
ROOT
ATOM      1  C   LIG    1       24.827 -21.607   6.907  0.00  0.00    +0.094 C 
ATOM      2  C   LIG    1       25.770 -22.727   6.384  0.00  0.00    +0.038 C 
ATOM      3  C   LIG    1       25.137 -23.809   5.500  0.00  0.00    +0.085 C 
ATOM      4  N   LIG    1       24.476 -24.829   6.308  0.00  0.00    -0.305 NA
ATOM      5  C   LIG    1       24.569 -26.139   5.653  0.00  0.00    +0.105 C 
ATOM      6  C   LIG    1       23.076 -24.537   6.631  0.00  0.00    +0.084 C 
ATOM      7  C   LIG    1       22.672 -23.076   6.858  0.00  0.00    +0.017 C 
ATOM      8  C   LIG    1       23.648 -22.256   7.700  0.00  0.00    +0.024 C 
ENDROOT
BRANCH   1   9
ATOM      9  C   LIG    1       24.318 -20.637   5.812  0.00  0.00    -0.031 A 
ATOM     10  C   LIG    1       23.047 -20.042   5.924  0.00  0.00    +0.005 A 
ATOM     11  C   LIG    1       22.557 -19.185   4.931  0.00  0.00    +0.000 A 
ATOM     12  C   LIG    1       23.324 -18.903   3.806  0.00  0.00    +0.000 A 
ATOM     13  C   LIG    1       24.591 -19.456   3.684  0.00  0.00    +0.000 A 
ATOM     14  C   LIG    1       25.087 -20.295   4.684  0.00  0.00    +0.005 A 
ENDBRANCH   1   9
BRANCH   1  15
ATOM     15  C   LIG    1       25.675 -20.800   7.930  0.00  0.00    +0.318 C 
ATOM     16  O   LIG    1       25.535 -20.836   9.143  0.00  0.00    -0.250 OA
BRANCH  15  17
ATOM     17  O   LIG    1       26.636 -20.066   7.289  0.00  0.00    -0.464 OA
BRANCH  17  19
ATOM     18  C   LIG    1       28.902 -20.429   6.546  0.00  0.00    +0.048 C 
ATOM     19  C   LIG    1       27.982 -20.267   7.743  0.00  0.00    +0.229 C 
ENDBRANCH  17  19
ENDBRANCH  15  17
ENDBRANCH   1  15
TORSDOF 4
ENDMDL
MODEL 3
REMARK VINA RESULT:      -7.6      1.940      4.121
REMARK  Name = *****
REMARK                            x       y       z     vdW  Elec       q    Type
REMARK                         _______ _______ _______ _____ _____    ______ ____
ROOT
ATOM      1  C   LIG    1       25.270 -21.451   6.887  0.00  0.00    +0.094 C 
ATOM      2  C   LIG    1       25.782 -20.429   5.834  0.00  0.00    +0.038 C 
ATOM      3  C   LIG    1       27.286 -20.437   5.533  0.00  0.00    +0.085 C 
ATOM      4  N   LIG    1       28.027 -19.679   6.536  0.00  0.00    -0.305 NA
ATOM      5  C   LIG    1       29.198 -19.036   5.929  0.00  0.00    +0.105 C 
ATOM      6  C   LIG    1       28.445 -20.461   7.705  0.00  0.00    +0.084 C 
ATOM      7  C   LIG    1       27.523 -21.582   8.196  0.00  0.00    +0.017 C 
ATOM      8  C   LIG    1       26.037 -21.231   8.232  0.00  0.00    +0.024 C 
ENDROOT
BRANCH   1   9
ATOM      9  C   LIG    1       25.330 -22.929   6.427  0.00  0.00    -0.031 A 
ATOM     10  C   LIG    1       24.868 -23.295   5.149  0.00  0.00    +0.005 A 
ATOM     11  C   LIG    1       24.888 -24.629   4.725  0.00  0.00    +0.000 A 
ATOM     12  C   LIG    1       25.370 -25.626   5.566  0.00  0.00    +0.000 A 
ATOM     13  C   LIG    1       25.855 -25.288   6.822  0.00  0.00    +0.000 A 
ATOM     14  C   LIG    1       25.853 -23.955   7.237  0.00  0.00    +0.005 A 
ENDBRANCH   1   9
BRANCH   1  15
ATOM     15  C   LIG    1       23.785 -21.070   7.143  0.00  0.00    +0.318 C 
ATOM     16  O   LIG    1       23.051 -21.607   7.960  0.00  0.00    -0.250 OA
BRANCH  15  17
ATOM     17  O   LIG    1       23.414 -20.016   6.353  0.00  0.00    -0.464 OA
BRANCH  17  19
ATOM     18  C   LIG    1       22.204 -19.063   4.495  0.00  0.00    +0.048 C 
ATOM     19  C   LIG    1       22.493 -20.321   5.296  0.00  0.00    +0.229 C 
ENDBRANCH  17  19
ENDBRANCH  15  17
ENDBRANCH   1  15
TORSDOF 4
ENDMDL
MODEL 4
REMARK VINA RESULT:      -7.5      1.737      4.237
REMARK  Name = *****
REMARK                            x       y       z     vdW  Elec       q    Type
REMARK                         _______ _______ _______ _____ _____    ______ ____
ROOT
ATOM      1  C   LIG    1       25.353 -21.775   6.976  0.00  0.00    +0.094 C 
ATOM      2  C   LIG    1       26.106 -23.091   6.634  0.00  0.00    +0.038 C 
ATOM      3  C   LIG    1       25.374 -24.096   5.735  0.00  0.00    +0.085 C 
ATOM      4  N   LIG    1       24.438 -24.907   6.508  0.00  0.00    -0.305 NA
ATOM      5  C   LIG    1       24.341 -26.256   5.939  0.00  0.00    +0.105 C 
ATOM      6  C   LIG    1       23.096 -24.329   6.639  0.00  0.00    +0.084 C 
ATOM      7  C   LIG    1       22.968 -22.806   6.736  0.00  0.00    +0.017 C 
ATOM      8  C   LIG    1       23.987 -22.126   7.649  0.00  0.00    +0.024 C 
ENDROOT
BRANCH   1   9
ATOM      9  C   LIG    1       25.172 -20.812   5.777  0.00  0.00    -0.031 A 
ATOM     10  C   LIG    1       26.286 -20.166   5.208  0.00  0.00    +0.005 A 
ATOM     11  C   LIG    1       26.140 -19.269   4.143  0.00  0.00    +0.000 A 
ATOM     12  C   LIG    1       24.879 -18.999   3.621  0.00  0.00    +0.000 A 
ATOM     13  C   LIG    1       23.767 -19.643   4.146  0.00  0.00    +0.000 A 
ATOM     14  C   LIG    1       23.916 -20.551   5.196  0.00  0.00    +0.005 A 
ENDBRANCH   1   9
BRANCH   1  15
ATOM     15  C   LIG    1       26.224 -21.070   8.053  0.00  0.00    +0.318 C 
ATOM     16  O   LIG    1       25.800 -20.323   8.922  0.00  0.00    -0.250 OA
BRANCH  15  17
ATOM     17  O   LIG    1       27.537 -21.431   7.924  0.00  0.00    -0.464 OA
BRANCH  17  19
ATOM     18  C   LIG    1       29.356 -20.334   6.779  0.00  0.00    +0.048 C 
ATOM     19  C   LIG    1       28.492 -20.365   8.027  0.00  0.00    +0.229 C 
ENDBRANCH  17  19
ENDBRANCH  15  17
ENDBRANCH   1  15
TORSDOF 4
ENDMDL
MODEL 5
REMARK VINA RESULT:      -7.1      2.129      4.506
REMARK  Name = *****
REMARK                            x       y       z     vdW  Elec       q    Type
REMARK                         _______ _______ _______ _____ _____    ______ ____
ROOT
ATOM      1  C   LIG    1       25.053 -21.349   6.154  0.00  0.00    +0.094 C 
ATOM      2  C   LIG    1       26.448 -20.869   5.666  0.00  0.00    +0.038 C 
ATOM      3  C   LIG    1       27.626 -21.064   6.630  0.00  0.00    +0.085 C 
ATOM      4  N   LIG    1       27.675 -19.996   7.624  0.00  0.00    -0.305 NA
ATOM      5  C   LIG    1       29.065 -19.708   7.995  0.00  0.00    +0.105 C 
ATOM      6  C   LIG    1       26.884 -20.252   8.832  0.00  0.00    +0.084 C 
ATOM      7  C   LIG    1       25.574 -21.033   8.691  0.00  0.00    +0.017 C 
ATOM      8  C   LIG    1       24.705 -20.634   7.500  0.00  0.00    +0.024 C 
ENDROOT
BRANCH   1   9
ATOM      9  C   LIG    1       24.910 -22.887   6.267  0.00  0.00    -0.031 A 
ATOM     10  C   LIG    1       23.635 -23.478   6.366  0.00  0.00    +0.005 A 
ATOM     11  C   LIG    1       23.486 -24.864   6.498  0.00  0.00    +0.000 A 
ATOM     12  C   LIG    1       24.604 -25.690   6.532  0.00  0.00    +0.000 A 
ATOM     13  C   LIG    1       25.871 -25.135   6.411  0.00  0.00    +0.000 A 
ATOM     14  C   LIG    1       26.018 -23.755   6.260  0.00  0.00    +0.005 A 
ENDBRANCH   1   9
BRANCH   1  15
ATOM     15  C   LIG    1       24.045 -20.833   5.091  0.00  0.00    +0.318 C 
ATOM     16  O   LIG    1       24.052 -21.138   3.907  0.00  0.00    -0.250 OA
BRANCH  15  17
ATOM     17  O   LIG    1       23.111 -20.014   5.666  0.00  0.00    -0.464 OA
BRANCH  17  19
ATOM     18  C   LIG    1       22.280 -18.047   4.544  0.00  0.00    +0.048 C 
ATOM     19  C   LIG    1       22.080 -19.531   4.794  0.00  0.00    +0.229 C 
ENDBRANCH  17  19
ENDBRANCH  15  17
ENDBRANCH   1  15
TORSDOF 4
ENDMDL
MODEL 6
REMARK VINA RESULT:      -6.6      1.872      4.283
REMARK  Name = *****
REMARK                            x       y       z     vdW  Elec       q    Type
REMARK                         _______ _______ _______ _____ _____    ______ ____
ROOT
ATOM      1  C   LIG    1       25.256 -22.247   6.251  0.00  0.00    +0.094 C 
ATOM      2  C   LIG    1       24.707 -21.959   4.825  0.00  0.00    +0.038 C 
ATOM      3  C   LIG    1       24.179 -20.544   4.557  0.00  0.00    +0.085 C 
ATOM      4  N   LIG    1       22.812 -20.391   5.046  0.00  0.00    -0.305 NA
ATOM      5  C   LIG    1       22.065 -19.463   4.191  0.00  0.00    +0.105 C 
ATOM      6  C   LIG    1       22.711 -19.964   6.445  0.00  0.00    +0.084 C 
ATOM      7  C   LIG    1       23.770 -20.459   7.435  0.00  0.00    +0.017 C 
ATOM      8  C   LIG    1       24.143 -21.934   7.303  0.00  0.00    +0.024 C 
ENDROOT
BRANCH   1   9
ATOM      9  C   LIG    1       26.582 -21.518   6.584  0.00  0.00    -0.031 A 
ATOM     10  C   LIG    1       27.045 -20.473   5.763  0.00  0.00    +0.005 A 
ATOM     11  C   LIG    1       28.255 -19.821   6.031  0.00  0.00    +0.000 A 
ATOM     12  C   LIG    1       29.028 -20.198   7.124  0.00  0.00    +0.000 A 
ATOM     13  C   LIG    1       28.581 -21.209   7.964  0.00  0.00    +0.000 A 
ATOM     14  C   LIG    1       27.365 -21.845   7.707  0.00  0.00    +0.005 A 
ENDBRANCH   1   9
BRANCH   1  15
ATOM     15  C   LIG    1       25.507 -23.780   6.294  0.00  0.00    +0.318 C 
ATOM     16  O   LIG    1       25.925 -24.398   7.262  0.00  0.00    -0.250 OA
BRANCH  15  17
ATOM     17  O   LIG    1       25.155 -24.361   5.106  0.00  0.00    -0.464 OA
BRANCH  17  19
ATOM     18  C   LIG    1       25.761 -26.658   4.682  0.00  0.00    +0.048 C 
ATOM     19  C   LIG    1       24.684 -25.714   5.187  0.00  0.00    +0.229 C 
ENDBRANCH  17  19
ENDBRANCH  15  17
ENDBRANCH   1  15
TORSDOF 4
ENDMDL
MODEL 7
REMARK VINA RESULT:      -6.1      2.260      4.923
REMARK  Name = *****
REMARK                            x       y       z     vdW  Elec       q    Type
REMARK                         _______ _______ _______ _____ _____    ______ ____
ROOT
ATOM      1  C   LIG    1       24.558 -22.017   6.381  0.00  0.00    +0.094 C 
ATOM      2  C   LIG    1       24.377 -23.168   7.410  0.00  0.00    +0.038 C 
ATOM      3  C   LIG    1       25.139 -24.471   7.135  0.00  0.00    +0.085 C 
ATOM      4  N   LIG    1       24.427 -25.305   6.172  0.00  0.00    -0.305 NA
ATOM      5  C   LIG    1       24.647 -26.725   6.465  0.00  0.00    +0.105 C 
ATOM      6  C   LIG    1       24.758 -25.033   4.769  0.00  0.00    +0.084 C 
ATOM      7  C   LIG    1       25.076 -23.590   4.365  0.00  0.00    +0.017 C 
ATOM      8  C   LIG    1       24.152 -22.529   4.961  0.00  0.00    +0.024 C 
ENDROOT
BRANCH   1   9
ATOM      9  C   LIG    1       25.968 -21.377   6.380  0.00  0.00    -0.031 A 
ATOM     10  C   LIG    1       26.274 -20.333   5.485  0.00  0.00    +0.005 A 
ATOM     11  C   LIG    1       27.551 -19.760   5.449  0.00  0.00    +0.000 A 
ATOM     12  C   LIG    1       28.549 -20.215   6.305  0.00  0.00    +0.000 A 
ATOM     13  C   LIG    1       28.265 -21.224   7.214  0.00  0.00    +0.000 A 
ATOM     14  C   LIG    1       26.986 -21.782   7.263  0.00  0.00    +0.005 A 
ENDBRANCH   1   9
BRANCH   1  15
ATOM     15  C   LIG    1       23.520 -20.935   6.788  0.00  0.00    +0.318 C 
ATOM     16  O   LIG    1       23.498 -20.347   7.860  0.00  0.00    -0.250 OA
BRANCH  15  17
ATOM     17  O   LIG    1       22.647 -20.692   5.762  0.00  0.00    -0.464 OA
BRANCH  17  19
ATOM     18  C   LIG    1       23.189 -19.073   4.057  0.00  0.00    +0.048 C 
ATOM     19  C   LIG    1       22.493 -19.317   5.384  0.00  0.00    +0.229 C 
ENDBRANCH  17  19
ENDBRANCH  15  17
ENDBRANCH   1  15
TORSDOF 4
ENDMDL
