MODEL 1
REMARK VINA RESULT:       3.9      0.000      0.000
REMARK  Name = *****
REMARK                            x       y       z     vdW  Elec       q    Type
REMARK                         _______ _______ _______ _____ _____    ______ ____
ROOT
ATOM      1  C   LIG    1       26.585 -13.291   3.583  0.00  0.00    +0.061 C 
ATOM      2  C   LIG    1       26.273 -14.639   4.293  0.00  0.00    -0.019 C 
ATOM      3  C   LIG    1       26.950 -14.703   5.675  0.00  0.00    +0.012 C 
ATOM      4  C   LIG    1       26.809 -15.685   3.283  0.00  0.00    -0.001 C 
ATOM      5  C   LIG    1       26.242 -17.121   3.397  0.00  0.00    +0.000 C 
ATOM      6  C   LIG    1       24.702 -17.165   3.584  0.00  0.00    +0.003 C 
ATOM      7  C   LIG    1       24.292 -16.231   4.740  0.00  0.00    +0.005 C 
ATOM      8  C   LIG    1       24.165 -18.656   3.665  0.00  0.00    -0.008 C 
ATOM      9  C   LIG    1       24.097 -19.202   2.211  0.00  0.00    +0.016 C 
ATOM     10  C   LIG    1       25.087 -19.581   4.461  0.00  0.00    -0.065 C 
ATOM     11  C   LIG    1       24.563 -20.968   4.795  0.00  0.00    +0.062 C 
ATOM     12  C   LIG    1       23.145 -20.949   5.374  0.00  0.00    +0.119 C 
ATOM     13  C   LIG    1       22.192 -20.113   4.523  0.00  0.00    +0.032 C 
ATOM     14  C   LIG    1       26.328 -19.223   4.833  0.00  0.00    -0.027 C 
ATOM     15  C   LIG    1       22.738 -18.701   4.284  0.00  0.00    +0.013 C 
ATOM     16  C   LIG    1       26.976 -17.920   4.489  0.00  0.00    +0.031 C 
ATOM     17  C   LIG    1       26.514 -15.068   1.900  0.00  0.00    +0.005 C 
ATOM     18  C   LIG    1       24.746 -14.790   4.485  0.00  0.00    +0.008 C 
ATOM     19  C   LIG    1       26.361 -13.561   2.095  0.00  0.00    +0.012 C 
ENDROOT
BRANCH   1  21
ATOM     20  C   LIG    1       28.298 -12.110   5.121  0.00  0.00    +0.086 C 
ATOM     21  C   LIG    1       28.010 -12.770   3.796  0.00  0.00    +0.134 C 
ATOM     22  O   LIG    1       28.884 -12.866   2.935  0.00  0.00    -0.297 OA
ENDBRANCH   1  21
BRANCH  12  23
ATOM     23  O   LIG    1       23.163 -20.451   6.713  0.00  0.00    -0.392 OA
ATOM     24  H   LIG    1       23.441 -21.180   7.295  0.00  0.00    +0.210 HD
ENDBRANCH  12  23
TORSDOF 2
ENDMDL
