MODEL 1
REMARK VINA RESULT:      11.7      0.000      0.000
REMARK  Name = *****
REMARK                            x       y       z     vdW  Elec       q    Type
REMARK                         _______ _______ _______ _____ _____    ______ ____
ROOT
ATOM      1  C   LIG    1       26.802 -28.694   9.753  0.00  0.00    +0.150 C 
ATOM      2  C   LIG    1       25.607 -29.709   9.896  0.00  0.00    +0.060 C 
ATOM      3  C   LIG    1       24.384 -29.200   9.124  0.00  0.00    +0.014 C 
ATOM      4  C   LIG    1       25.946 -31.248   9.695  0.00  0.00    +0.187 C 
ATOM      5  C   LIG    1       24.891 -32.225   9.012  0.00  0.00    +0.056 C 
ATOM      6  C   LIG    1       24.776 -32.014   7.502  0.00  0.00    +0.014 C 
ATOM      7  C   LIG    1       23.598 -32.395   9.856  0.00  0.00    +0.126 C 
ATOM      8  C   LIG    1       22.129 -32.471   9.298  0.00  0.00    +0.044 C 
ATOM      9  C   LIG    1       21.820 -31.809   7.954  0.00  0.00    +0.013 C 
ATOM     10  C   LIG    1       21.201 -31.888  10.414  0.00  0.00    +0.126 C 
ATOM     11  C   LIG    1       19.659 -31.948  10.207  0.00  0.00    +0.037 C 
ATOM     12  C   LIG    1       19.163 -33.343   9.831  0.00  0.00    +0.014 C 
ATOM     13  C   LIG    1       18.971 -31.478  11.485  0.00  0.00    -0.021 C 
ATOM     14  C   LIG    1       18.803 -30.181  11.797  0.00  0.00    -0.003 C 
ATOM     15  C   LIG    1       18.355 -29.741  13.102  0.00  0.00    +0.008 C 
ATOM     16  C   LIG    1       18.644 -28.569  13.699  0.00  0.00    +0.011 C 
ATOM     17  C   LIG    1       18.089 -28.183  15.036  0.00  0.00    +0.049 C 
ATOM     18  C   LIG    1       19.520 -27.524  13.102  0.00  0.00    +0.244 C 
ATOM     19  O   LIG    1       19.158 -26.357  12.973  0.00  0.00    -0.270 OA
ATOM     20  N   LIG    1       20.781 -27.928  12.724  0.00  0.00    -0.277 N 
ATOM     21  H   LIG    1       20.911 -27.418  11.849  0.00  0.00    +0.155 HD
ATOM     22  C   LIG    1       21.895 -27.484  13.513  0.00  0.00    +0.103 A 
ATOM     23  C   LIG    1       22.327 -26.132  13.467  0.00  0.00    +0.151 A 
ATOM     24  C   LIG    1       23.623 -25.710  13.863  0.00  0.00    +0.070 A 
ATOM     25  C   LIG    1       24.499 -26.699  14.370  0.00  0.00    +0.031 A 
ATOM     26  C   LIG    1       24.016 -28.009  14.612  0.00  0.00    +0.101 A 
ATOM     27  N   LIG    1       24.651 -29.040  15.238  0.00  0.00    -0.227 NA
ATOM     28  C   LIG    1       23.881 -30.084  15.089  0.00  0.00    +0.139 A 
ATOM     29  N   LIG    1       22.739 -29.772  14.363  0.00  0.00    -0.297 N 
ATOM     30  C   LIG    1       21.830 -30.752  13.979  0.00  0.00    +0.093 A 
ATOM     31  C   LIG    1       22.031 -32.034  14.331  0.00  0.00    +0.021 A 
ATOM     32  C   LIG    1       23.199 -32.384  15.132  0.00  0.00    -0.046 A 
ATOM     33  C   LIG    1       23.378 -33.824  15.499  0.00  0.00    +0.044 C 
ATOM     34  C   LIG    1       24.080 -31.430  15.495  0.00  0.00    +0.050 A 
ATOM     35  C   LIG    1       25.860 -26.389  14.469  0.00  0.00    +0.077 A 
ATOM     36  C   LIG    1       27.043 -27.243  14.528  0.00  0.00    +0.250 C 
ATOM     37  O   LIG    1       27.210 -28.240  15.187  0.00  0.00    -0.284 OA
ATOM     38  C   LIG    1       28.073 -26.551  13.643  0.00  0.00    +0.314 C 
ATOM     39  C   LIG    1       29.474 -26.698  14.217  0.00  0.00    +0.114 C 
ATOM     40  O   LIG    1       27.696 -25.138  13.767  0.00  0.00    -0.444 OA
ATOM     41  O   LIG    1       28.076 -27.112  12.297  0.00  0.00    -0.453 OA
ATOM     42  C   LIG    1       27.066 -26.715  11.471  0.00  0.00    +0.190 C 
ATOM     43  C   LIG    1       26.350 -25.150  14.091  0.00  0.00    +0.143 A 
ATOM     44  C   LIG    1       25.513 -24.081  13.822  0.00  0.00    +0.034 A 
ATOM     45  C   LIG    1       26.061 -22.724  13.500  0.00  0.00    +0.051 C 
ATOM     46  C   LIG    1       24.149 -24.387  13.685  0.00  0.00    +0.135 A 
ATOM     47  C   LIG    1       22.759 -28.401  14.138  0.00  0.00    +0.099 A 
ATOM     48  C   LIG    1       26.505 -27.379  10.452  0.00  0.00    +0.042 C 
ENDROOT
BRANCH   1  50
ATOM     49  C   LIG    1       26.267 -27.022   8.059  0.00  0.00    +0.194 C 
ATOM     50  O   LIG    1       26.949 -28.206   8.403  0.00  0.00    -0.375 OA
ENDBRANCH   1  50
BRANCH   7  51
ATOM     51  O   LIG    1       23.771 -33.623  10.611  0.00  0.00    -0.391 OA
ATOM     52  H   LIG    1       23.967 -34.339   9.981  0.00  0.00    +0.210 HD
ENDBRANCH   7  51
BRANCH  10  53
ATOM     53  O   LIG    1       21.569 -30.508  10.607  0.00  0.00    -0.391 OA
ATOM     54  H   LIG    1       21.581 -30.335  11.563  0.00  0.00    +0.210 HD
ENDBRANCH  10  53
BRANCH  23  55
ATOM     55  O   LIG    1       21.509 -25.172  12.895  0.00  0.00    -0.504 OA
ATOM     56  H   LIG    1       21.762 -25.055  11.949  0.00  0.00    +0.292 HD
ENDBRANCH  23  55
BRANCH  46  57
ATOM     57  O   LIG    1       23.337 -23.361  13.259  0.00  0.00    -0.506 OA
ATOM     58  H   LIG    1       23.278 -23.429  12.282  0.00  0.00    +0.292 HD
ENDBRANCH  46  57
BRANCH   4  59
ATOM     59  O   LIG    1       27.183 -31.452   8.971  0.00  0.00    -0.461 OA
BRANCH  59  60
ATOM     60  C   LIG    1       27.564 -32.754   8.846  0.00  0.00    +0.304 C 
ATOM     61  O   LIG    1       27.361 -33.626   9.678  0.00  0.00    -0.251 OA
ATOM     62  C   LIG    1       28.108 -33.018   7.470  0.00  0.00    +0.136 C 
ENDBRANCH  59  60
ENDBRANCH   4  59
TORSDOF 7
ENDMDL
MODEL 2
REMARK VINA RESULT:      13.3      2.496      8.854
REMARK  Name = *****
REMARK                            x       y       z     vdW  Elec       q    Type
REMARK                         _______ _______ _______ _____ _____    ______ ____
ROOT
ATOM      1  C   LIG    1       20.082 -28.388  13.374  0.00  0.00    +0.150 C 
ATOM      2  C   LIG    1       21.655 -28.371  13.302  0.00  0.00    +0.060 C 
ATOM      3  C   LIG    1       22.119 -27.720  11.993  0.00  0.00    +0.014 C 
ATOM      4  C   LIG    1       22.427 -27.898  14.607  0.00  0.00    +0.187 C 
ATOM      5  C   LIG    1       23.782 -27.072  14.489  0.00  0.00    +0.056 C 
ATOM      6  C   LIG    1       23.560 -25.624  14.049  0.00  0.00    +0.014 C 
ATOM      7  C   LIG    1       24.931 -27.895  13.843  0.00  0.00    +0.126 C 
ATOM      8  C   LIG    1       25.993 -27.357  12.814  0.00  0.00    +0.044 C 
ATOM      9  C   LIG    1       25.625 -26.155  11.942  0.00  0.00    +0.013 C 
ATOM     10  C   LIG    1       26.396 -28.573  11.917  0.00  0.00    +0.126 C 
ATOM     11  C   LIG    1       27.537 -28.385  10.875  0.00  0.00    +0.037 C 
ATOM     12  C   LIG    1       28.802 -27.778  11.482  0.00  0.00    +0.014 C 
ATOM     13  C   LIG    1       27.859 -29.737  10.246  0.00  0.00    -0.021 C 
ATOM     14  C   LIG    1       27.138 -30.274   9.247  0.00  0.00    -0.003 C 
ATOM     15  C   LIG    1       27.308 -31.643   8.807  0.00  0.00    +0.008 C 
ATOM     16  C   LIG    1       26.369 -32.432   8.248  0.00  0.00    +0.011 C 
ATOM     17  C   LIG    1       26.657 -33.824   7.778  0.00  0.00    +0.049 C 
ATOM     18  C   LIG    1       24.960 -32.012   8.017  0.00  0.00    +0.244 C 
ATOM     19  O   LIG    1       24.420 -32.095   6.917  0.00  0.00    -0.270 OA
ATOM     20  N   LIG    1       24.273 -31.548   9.117  0.00  0.00    -0.277 N 
ATOM     21  H   LIG    1       23.739 -30.774   8.719  0.00  0.00    +0.155 HD
ATOM     22  C   LIG    1       23.246 -32.384   9.672  0.00  0.00    +0.103 A 
ATOM     23  C   LIG    1       22.012 -32.568   8.994  0.00  0.00    +0.151 A 
ATOM     24  C   LIG    1       20.825 -33.010   9.634  0.00  0.00    +0.070 A 
ATOM     25  C   LIG    1       20.910 -33.321  11.011  0.00  0.00    +0.031 A 
ATOM     26  C   LIG    1       22.174 -33.338  11.652  0.00  0.00    +0.101 A 
ATOM     27  N   LIG    1       22.476 -33.763  12.912  0.00  0.00    -0.227 NA
ATOM     28  C   LIG    1       23.726 -33.446  13.111  0.00  0.00    +0.139 A 
ATOM     29  N   LIG    1       24.269 -32.805  12.005  0.00  0.00    -0.297 N 
ATOM     30  C   LIG    1       25.554 -32.271  12.031  0.00  0.00    +0.093 A 
ATOM     31  C   LIG    1       26.312 -32.389  13.134  0.00  0.00    +0.021 A 
ATOM     32  C   LIG    1       25.784 -33.097  14.296  0.00  0.00    -0.046 A 
ATOM     33  C   LIG    1       26.667 -33.203  15.500  0.00  0.00    +0.044 C 
ATOM     34  C   LIG    1       24.536 -33.607  14.266  0.00  0.00    +0.050 A 
ATOM     35  C   LIG    1       19.720 -33.450  11.735  0.00  0.00    +0.077 A 
ATOM     36  C   LIG    1       19.441 -33.338  13.165  0.00  0.00    +0.250 C 
ATOM     37  O   LIG    1       20.065 -33.810  14.084  0.00  0.00    -0.284 OA
ATOM     38  C   LIG    1       18.127 -32.572  13.251  0.00  0.00    +0.314 C 
ATOM     39  C   LIG    1       17.267 -33.087  14.396  0.00  0.00    +0.114 C 
ATOM     40  O   LIG    1       17.460 -32.947  11.999  0.00  0.00    -0.444 OA
ATOM     41  O   LIG    1       18.359 -31.148  13.467  0.00  0.00    -0.453 OA
ATOM     42  C   LIG    1       18.737 -30.421  12.378  0.00  0.00    +0.190 C 
ATOM     43  C   LIG    1       18.484 -33.286  11.132  0.00  0.00    +0.143 A 
ATOM     44  C   LIG    1       18.342 -33.223   9.756  0.00  0.00    +0.034 A 
ATOM     45  C   LIG    1       16.990 -33.135   9.116  0.00  0.00    +0.051 C 
ATOM     46  C   LIG    1       19.528 -33.058   9.023  0.00  0.00    +0.135 A 
ATOM     47  C   LIG    1       23.304 -32.824  11.006  0.00  0.00    +0.099 A 
ATOM     48  C   LIG    1       19.485 -29.312  12.327  0.00  0.00    +0.042 C 
ENDROOT
BRANCH   1  50
ATOM     49  C   LIG    1       18.155 -26.896  13.276  0.00  0.00    +0.194 C 
ATOM     50  O   LIG    1       19.500 -27.143  12.937  0.00  0.00    -0.375 OA
ENDBRANCH   1  50
BRANCH   7  51
ATOM     51  O   LIG    1       25.717 -28.420  14.945  0.00  0.00    -0.391 OA
ATOM     52  H   LIG    1       26.630 -28.548  14.630  0.00  0.00    +0.210 HD
ENDBRANCH   7  51
BRANCH  10  53
ATOM     53  O   LIG    1       25.215 -28.999  11.208  0.00  0.00    -0.391 OA
ATOM     54  H   LIG    1       24.441 -28.696  11.712  0.00  0.00    +0.210 HD
ENDBRANCH  10  53
BRANCH  23  55
ATOM     55  O   LIG    1       21.897 -32.187   7.667  0.00  0.00    -0.504 OA
ATOM     56  H   LIG    1       22.339 -32.860   7.099  0.00  0.00    +0.292 HD
ENDBRANCH  23  55
BRANCH  46  57
ATOM     57  O   LIG    1       19.380 -32.832   7.673  0.00  0.00    -0.506 OA
ATOM     58  H   LIG    1       18.704 -33.463   7.348  0.00  0.00    +0.292 HD
ENDBRANCH  46  57
BRANCH   4  59
ATOM     59  O   LIG    1       21.585 -27.129  15.499  0.00  0.00    -0.461 OA
BRANCH  59  60
ATOM     60  C   LIG    1       20.272 -27.492  15.500  0.00  0.00    +0.304 C 
ATOM     61  O   LIG    1       19.332 -26.721  15.378  0.00  0.00    -0.251 OA
ATOM     62  C   LIG    1       20.135 -28.989  15.488  0.00  0.00    +0.136 C 
ENDBRANCH  59  60
ENDBRANCH   4  59
TORSDOF 7
ENDMDL
