MODEL 1
REMARK VINA RESULT:      -6.0      0.000      0.000
REMARK  Name = *****
REMARK                            x       y       z     vdW  Elec       q    Type
REMARK                         _______ _______ _______ _____ _____    ______ ____
ROOT
ATOM      1  C   LIG    1       30.397 -20.981   8.160  0.00  0.00    +0.059 A 
ATOM      2  C   LIG    1       29.111 -21.335   7.739  0.00  0.00    +0.015 A 
ATOM      3  C   LIG    1       28.429 -20.521   6.835  0.00  0.00    +0.001 A 
ATOM      4  C   LIG    1       29.034 -19.363   6.346  0.00  0.00    +0.000 A 
ATOM      5  C   LIG    1       30.326 -19.019   6.749  0.00  0.00    +0.001 A 
ATOM      6  C   LIG    1       31.013 -19.830   7.654  0.00  0.00    +0.015 A 
ENDROOT
BRANCH   1   8
ATOM      7  O   LIG    1       30.745 -21.998  10.281  0.00  0.00    -0.245 OA
ATOM      8  C   LIG    1       31.094 -21.866   9.122  0.00  0.00    +0.337 C 
BRANCH   8   9
ATOM      9  O   LIG    1       32.182 -22.463   8.593  0.00  0.00    -0.477 OA
ATOM     10  H   LIG    1       32.984 -22.402   9.144  0.00  0.00    +0.295 HD
ENDBRANCH   8   9
ENDBRANCH   1   8
TORSDOF 2
ENDMDL
MODEL 2
REMARK VINA RESULT:      -6.0      0.039      1.616
REMARK  Name = *****
REMARK                            x       y       z     vdW  Elec       q    Type
REMARK                         _______ _______ _______ _____ _____    ______ ____
ROOT
ATOM      1  C   LIG    1       30.370 -21.016   8.157  0.00  0.00    +0.059 A 
ATOM      2  C   LIG    1       31.006 -19.857   7.701  0.00  0.00    +0.015 A 
ATOM      3  C   LIG    1       30.356 -19.022   6.791  0.00  0.00    +0.001 A 
ATOM      4  C   LIG    1       29.072 -19.339   6.348  0.00  0.00    +0.000 A 
ATOM      5  C   LIG    1       28.428 -20.486   6.818  0.00  0.00    +0.001 A 
ATOM      6  C   LIG    1       29.073 -21.324   7.728  0.00  0.00    +0.015 A 
ENDROOT
BRANCH   1   8
ATOM      7  O   LIG    1       30.749 -22.013  10.283  0.00  0.00    -0.245 OA
ATOM      8  C   LIG    1       31.088 -21.882   9.121  0.00  0.00    +0.337 C 
BRANCH   8   9
ATOM      9  O   LIG    1       32.184 -22.462   8.589  0.00  0.00    -0.477 OA
ATOM     10  H   LIG    1       32.693 -21.888   7.988  0.00  0.00    +0.295 HD
ENDBRANCH   8   9
ENDBRANCH   1   8
TORSDOF 2
ENDMDL
MODEL 3
REMARK VINA RESULT:      -5.9      4.916      6.198
REMARK  Name = *****
REMARK                            x       y       z     vdW  Elec       q    Type
REMARK                         _______ _______ _______ _____ _____    ______ ____
ROOT
ATOM      1  C   LIG    1       25.079 -22.080   7.667  0.00  0.00    +0.059 A 
ATOM      2  C   LIG    1       25.771 -23.255   7.355  0.00  0.00    +0.015 A 
ATOM      3  C   LIG    1       25.083 -24.343   6.818  0.00  0.00    +0.001 A 
ATOM      4  C   LIG    1       23.711 -24.254   6.585  0.00  0.00    +0.000 A 
ATOM      5  C   LIG    1       23.022 -23.075   6.877  0.00  0.00    +0.001 A 
ATOM      6  C   LIG    1       23.705 -21.983   7.414  0.00  0.00    +0.015 A 
ENDROOT
BRANCH   1   8
ATOM      7  O   LIG    1       25.837 -20.667   9.423  0.00  0.00    -0.245 OA
ATOM      8  C   LIG    1       25.839 -20.944   8.238  0.00  0.00    +0.337 C 
BRANCH   8   9
ATOM      9  O   LIG    1       26.485 -20.221   7.298  0.00  0.00    -0.477 OA
ATOM     10  H   LIG    1       27.365 -20.566   7.059  0.00  0.00    +0.295 HD
ENDBRANCH   8   9
ENDBRANCH   1   8
TORSDOF 2
ENDMDL
MODEL 4
REMARK VINA RESULT:      -5.8      4.427      5.437
REMARK  Name = *****
REMARK                            x       y       z     vdW  Elec       q    Type
REMARK                         _______ _______ _______ _____ _____    ______ ____
ROOT
ATOM      1  C   LIG    1       25.213 -20.694   7.190  0.00  0.00    +0.059 A 
ATOM      2  C   LIG    1       23.816 -20.744   7.242  0.00  0.00    +0.015 A 
ATOM      3  C   LIG    1       23.074 -20.597   6.070  0.00  0.00    +0.001 A 
ATOM      4  C   LIG    1       23.725 -20.411   4.850  0.00  0.00    +0.000 A 
ATOM      5  C   LIG    1       25.120 -20.381   4.794  0.00  0.00    +0.001 A 
ATOM      6  C   LIG    1       25.868 -20.528   5.964  0.00  0.00    +0.015 A 
ENDROOT
BRANCH   1   8
ATOM      7  O   LIG    1       25.538 -21.446   9.423  0.00  0.00    -0.245 OA
ATOM      8  C   LIG    1       25.972 -20.852   8.453  0.00  0.00    +0.337 C 
BRANCH   8   9
ATOM      9  O   LIG    1       27.165 -20.221   8.429  0.00  0.00    -0.477 OA
ATOM     10  H   LIG    1       27.931 -20.803   8.584  0.00  0.00    +0.295 HD
ENDBRANCH   8   9
ENDBRANCH   1   8
TORSDOF 2
ENDMDL
MODEL 5
REMARK VINA RESULT:      -5.8      4.377      5.541
REMARK  Name = *****
REMARK                            x       y       z     vdW  Elec       q    Type
REMARK                         _______ _______ _______ _____ _____    ______ ____
ROOT
ATOM      1  C   LIG    1       25.241 -20.727   7.248  0.00  0.00    +0.059 A 
ATOM      2  C   LIG    1       25.941 -20.525   6.054  0.00  0.00    +0.015 A 
ATOM      3  C   LIG    1       25.239 -20.349   4.861  0.00  0.00    +0.001 A 
ATOM      4  C   LIG    1       23.845 -20.364   4.863  0.00  0.00    +0.000 A 
ATOM      5  C   LIG    1       23.144 -20.545   6.058  0.00  0.00    +0.001 A 
ATOM      6  C   LIG    1       23.840 -20.721   7.255  0.00  0.00    +0.015 A 
ENDROOT
BRANCH   1   8
ATOM      7  O   LIG    1       25.614 -21.568   9.441  0.00  0.00    -0.245 OA
ATOM      8  C   LIG    1       26.015 -20.912   8.498  0.00  0.00    +0.337 C 
BRANCH   8   9
ATOM      9  O   LIG    1       27.181 -20.232   8.497  0.00  0.00    -0.477 OA
ATOM     10  H   LIG    1       27.155 -19.387   8.011  0.00  0.00    +0.295 HD
ENDBRANCH   8   9
ENDBRANCH   1   8
TORSDOF 2
ENDMDL
MODEL 6
REMARK VINA RESULT:      -5.8      6.637      7.387
REMARK  Name = *****
REMARK                            x       y       z     vdW  Elec       q    Type
REMARK                         _______ _______ _______ _____ _____    ______ ____
ROOT
ATOM      1  C   LIG    1       23.471 -20.764   5.646  0.00  0.00    +0.059 A 
ATOM      2  C   LIG    1       22.519 -19.798   5.301  0.00  0.00    +0.015 A 
ATOM      3  C   LIG    1       22.804 -18.873   4.296  0.00  0.00    +0.001 A 
ATOM      4  C   LIG    1       24.030 -18.919   3.633  0.00  0.00    +0.000 A 
ATOM      5  C   LIG    1       24.973 -19.895   3.962  0.00  0.00    +0.001 A 
ATOM      6  C   LIG    1       24.694 -20.823   4.966  0.00  0.00    +0.015 A 
ENDROOT
BRANCH   1   8
ATOM      7  O   LIG    1       23.303 -21.498   7.902  0.00  0.00    -0.245 OA
ATOM      8  C   LIG    1       23.139 -21.730   6.718  0.00  0.00    +0.337 C 
BRANCH   8   9
ATOM      9  O   LIG    1       22.690 -22.910   6.240  0.00  0.00    -0.477 OA
ATOM     10  H   LIG    1       21.786 -23.142   6.522  0.00  0.00    +0.295 HD
ENDBRANCH   8   9
ENDBRANCH   1   8
TORSDOF 2
ENDMDL
MODEL 7
REMARK VINA RESULT:      -5.8      5.757      6.847
REMARK  Name = *****
REMARK                            x       y       z     vdW  Elec       q    Type
REMARK                         _______ _______ _______ _____ _____    ______ ____
ROOT
ATOM      1  C   LIG    1       24.295 -23.095   7.055  0.00  0.00    +0.059 A 
ATOM      2  C   LIG    1       23.790 -21.811   7.284  0.00  0.00    +0.015 A 
ATOM      3  C   LIG    1       24.659 -20.778   7.639  0.00  0.00    +0.001 A 
ATOM      4  C   LIG    1       26.026 -21.025   7.752  0.00  0.00    +0.000 A 
ATOM      5  C   LIG    1       26.535 -22.301   7.503  0.00  0.00    +0.001 A 
ATOM      6  C   LIG    1       25.671 -23.339   7.148  0.00  0.00    +0.015 A 
ENDROOT
BRANCH   1   8
ATOM      7  O   LIG    1       23.695 -25.307   6.420  0.00  0.00    -0.245 OA
ATOM      8  C   LIG    1       23.347 -24.170   6.682  0.00  0.00    +0.337 C 
BRANCH   8   9
ATOM      9  O   LIG    1       22.069 -23.741   6.611  0.00  0.00    -0.477 OA
ATOM     10  H   LIG    1       21.476 -24.322   6.100  0.00  0.00    +0.295 HD
ENDBRANCH   8   9
ENDBRANCH   1   8
TORSDOF 2
ENDMDL
MODEL 8
REMARK VINA RESULT:      -5.8      6.684      7.469
REMARK  Name = *****
REMARK                            x       y       z     vdW  Elec       q    Type
REMARK                         _______ _______ _______ _____ _____    ______ ____
ROOT
ATOM      1  C   LIG    1       23.419 -20.756   5.644  0.00  0.00    +0.059 A 
ATOM      2  C   LIG    1       24.642 -20.844   4.970  0.00  0.00    +0.015 A 
ATOM      3  C   LIG    1       24.937 -19.939   3.950  0.00  0.00    +0.001 A 
ATOM      4  C   LIG    1       24.020 -18.945   3.612  0.00  0.00    +0.000 A 
ATOM      5  C   LIG    1       22.807 -18.843   4.297  0.00  0.00    +0.001 A 
ATOM      6  C   LIG    1       22.506 -19.745   5.319  0.00  0.00    +0.015 A 
ENDROOT
BRANCH   1   8
ATOM      7  O   LIG    1       23.239 -21.471   7.905  0.00  0.00    -0.245 OA
ATOM      8  C   LIG    1       23.135 -21.733   6.720  0.00  0.00    +0.337 C 
BRANCH   8   9
ATOM      9  O   LIG    1       22.805 -22.953   6.247  0.00  0.00    -0.477 OA
ATOM     10  H   LIG    1       23.425 -23.311   5.586  0.00  0.00    +0.295 HD
ENDBRANCH   8   9
ENDBRANCH   1   8
TORSDOF 2
ENDMDL
MODEL 9
REMARK VINA RESULT:      -5.8      2.016      2.454
REMARK  Name = *****
REMARK                            x       y       z     vdW  Elec       q    Type
REMARK                         _______ _______ _______ _____ _____    ______ ____
ROOT
ATOM      1  C   LIG    1       30.483 -19.346   7.551  0.00  0.00    +0.059 A 
ATOM      2  C   LIG    1       29.867 -20.565   7.852  0.00  0.00    +0.015 A 
ATOM      3  C   LIG    1       28.771 -20.992   7.102  0.00  0.00    +0.001 A 
ATOM      4  C   LIG    1       28.299 -20.209   6.049  0.00  0.00    +0.000 A 
ATOM      5  C   LIG    1       28.925 -19.001   5.733  0.00  0.00    +0.001 A 
ATOM      6  C   LIG    1       30.022 -18.569   6.480  0.00  0.00    +0.015 A 
ENDROOT
BRANCH   1   8
ATOM      7  O   LIG    1       32.106 -19.593   9.271  0.00  0.00    -0.245 OA
ATOM      8  C   LIG    1       31.643 -18.921   8.368  0.00  0.00    +0.337 C 
BRANCH   8   9
ATOM      9  O   LIG    1       32.092 -17.691   8.040  0.00  0.00    -0.477 OA
ATOM     10  H   LIG    1       31.535 -16.959   8.364  0.00  0.00    +0.295 HD
ENDBRANCH   8   9
ENDBRANCH   1   8
TORSDOF 2
ENDMDL
