MODEL 1
REMARK VINA RESULT:       3.4      0.000      0.000
REMARK  Name = *****
REMARK                            x       y       z     vdW  Elec       q    Type
REMARK                         _______ _______ _______ _____ _____    ______ ____
ROOT
ATOM      1  C   LIG    1       25.489 -13.922   4.222  0.00  0.00    +0.125 A 
ATOM      2  C   LIG    1       26.530 -14.688   3.696  0.00  0.00    +0.069 A 
ATOM      3 CL   LIG    1       28.120 -14.074   3.417  0.00  0.00    -0.082 Cl
ATOM      4  C   LIG    1       26.301 -16.034   3.360  0.00  0.00    +0.047 A 
ATOM      5  C   LIG    1       25.055 -16.645   3.567  0.00  0.00    +0.057 A 
ATOM      6  N   LIG    1       24.867 -17.959   3.157  0.00  0.00    -0.326 N 
ATOM      7  H   LIG    1       25.720 -18.495   3.033  0.00  0.00    +0.148 HD
ATOM      8  C   LIG    1       23.729 -18.739   3.605  0.00  0.00    +0.163 C 
ATOM      9  N   LIG    1       22.517 -17.963   3.423  0.00  0.00    -0.170 NA
ATOM     10  H   LIG    1       21.658 -18.493   3.549  0.00  0.00    +0.150 HD
ATOM     11  S   LIG    1       22.429 -16.519   4.252  0.00  0.00    +0.062 S 
ATOM     12  O   LIG    1       22.240 -16.826   5.652  0.00  0.00    -0.153 OA
ATOM     13  O   LIG    1       21.489 -15.682   3.542  0.00  0.00    -0.153 OA
ATOM     14  C   LIG    1       24.032 -15.839   4.063  0.00  0.00    +0.128 A 
ATOM     15  C   LIG    1       24.229 -14.495   4.399  0.00  0.00    +0.060 A 
ENDROOT
BRANCH   8  16
ATOM     16  C   LIG    1       23.929 -19.299   5.025  0.00  0.00    +0.033 C 
ATOM     17  C   LIG    1       25.209 -20.177   5.170  0.00  0.00    +0.018 C 
ATOM     18  C   LIG    1       24.698 -21.571   4.788  0.00  0.00    +0.015 C 
ATOM     19  C   LIG    1       23.602 -21.571   5.855  0.00  0.00    +0.012 C 
ATOM     20  C   LIG    1       24.446 -21.239   7.062  0.00  0.00    -0.027 C 
ATOM     21  C   LIG    1       25.419 -20.412   6.650  0.00  0.00    -0.027 C 
ATOM     22  C   LIG    1       22.809 -20.309   5.456  0.00  0.00    +0.015 C 
ENDBRANCH   8  16
BRANCH   1  23
ATOM     23  S   LIG    1       25.764 -12.236   4.654  0.00  0.00    +0.057 S 
ATOM     24  O   LIG    1       26.747 -12.185   5.709  0.00  0.00    -0.153 OA
ATOM     25  O   LIG    1       25.846 -11.453   3.445  0.00  0.00    -0.153 OA
BRANCH  23  26
ATOM     26  N   LIG    1       24.328 -11.747   5.385  0.00  0.00    -0.203 NA
ATOM     27  H   LIG    1       23.537 -12.047   4.811  0.00  0.00    +0.144 HD
ATOM     28  H   LIG    1       24.293 -12.110   6.340  0.00  0.00    +0.144 HD
ENDBRANCH  23  26
ENDBRANCH   1  23
TORSDOF 3
ENDMDL
