MODEL 1
REMARK VINA RESULT:      -7.9      0.000      0.000
REMARK  Name = *****
REMARK                            x       y       z     vdW  Elec       q    Type
REMARK                         _______ _______ _______ _____ _____    ______ ____
ROOT
ATOM      1  C   LIG    1       27.315 -16.637   3.804  0.00  0.00    +0.061 A 
ATOM      2  C   LIG    1       28.343 -17.240   4.570  0.00  0.00    +0.038 A 
ATOM      3  C   LIG    1       28.089 -18.525   5.041  0.00  0.00    +0.042 A 
ATOM      4  N   LIG    1       28.921 -19.251   5.871  0.00  0.00    -0.281 N 
ATOM      5  H   LIG    1       29.813 -18.949   6.228  0.00  0.00    +0.155 HD
ATOM      6  C   LIG    1       28.318 -20.419   6.301  0.00  0.00    +0.251 C 
ATOM      7  C   LIG    1       26.948 -20.452   5.651  0.00  0.00    +0.068 C 
ATOM      8  C   LIG    1       26.011 -21.373   6.008  0.00  0.00    +0.051 C 
ATOM      9  O   LIG    1       28.771 -21.139   7.164  0.00  0.00    -0.270 OA
ATOM     10  C   LIG    1       26.901 -19.232   4.793  0.00  0.00    +0.010 A 
ATOM     11  C   LIG    1       26.001 -18.695   3.889  0.00  0.00    +0.011 A 
ATOM     12  C   LIG    1       26.217 -17.389   3.415  0.00  0.00    +0.015 A 
ENDROOT
BRANCH   8  13
ATOM     13  C   LIG    1       24.601 -21.158   5.572  0.00  0.00    -0.003 A 
ATOM     14  C   LIG    1       23.682 -20.528   6.429  0.00  0.00    +0.010 A 
ATOM     15  C   LIG    1       22.397 -20.202   5.984  0.00  0.00    +0.001 A 
ATOM     16  C   LIG    1       22.059 -20.399   4.648  0.00  0.00    +0.000 A 
ATOM     17  C   LIG    1       22.953 -21.049   3.798  0.00  0.00    +0.001 A 
ATOM     18  C   LIG    1       24.185 -21.503   4.280  0.00  0.00    +0.010 A 
ENDBRANCH   8  13
BRANCH   1  19
ATOM     19  C   LIG    1       27.421 -15.149   3.561  0.00  0.00    +0.339 C 
ATOM     20  O   LIG    1       28.038 -14.364   4.230  0.00  0.00    -0.245 OA
BRANCH  19  22
ATOM     21  C   LIG    1       25.907 -13.667   2.495  0.00  0.00    +0.280 C 
ATOM     22  O   LIG    1       26.649 -14.906   2.475  0.00  0.00    -0.464 OA
ENDBRANCH  19  22
ENDBRANCH   1  19
BRANCH   8  23
ATOM     23  N   LIG    1       26.172 -22.522   6.786  0.00  0.00    -0.313 N 
ATOM     24  H   LIG    1       26.531 -22.362   7.721  0.00  0.00    +0.152 HD
BRANCH  23  25
ATOM     25  C   LIG    1       25.752 -23.840   6.493  0.00  0.00    +0.032 A 
ATOM     26  C   LIG    1       26.664 -24.852   6.191  0.00  0.00    +0.025 A 
ATOM     27  C   LIG    1       26.289 -26.208   6.103  0.00  0.00    +0.025 A 
ATOM     28  C   LIG    1       24.974 -26.612   6.335  0.00  0.00    +0.036 A 
ATOM     29  C   LIG    1       24.022 -25.597   6.539  0.00  0.00    +0.025 A 
ATOM     30  C   LIG    1       24.409 -24.229   6.631  0.00  0.00    +0.025 A 
BRANCH  28  31
ATOM     31  N   LIG    1       24.608 -28.016   6.389  0.00  0.00    -0.273 N 
ATOM     32  C   LIG    1       25.138 -28.852   7.408  0.00  0.00    +0.234 C 
ATOM     33  O   LIG    1       25.873 -28.425   8.306  0.00  0.00    -0.274 OA
ATOM     34  C   LIG    1       24.329 -28.625   5.096  0.00  0.00    +0.138 C 
BRANCH  32  35
ATOM     35  C   LIG    1       24.677 -30.364   7.466  0.00  0.00    +0.181 C 
BRANCH  35  36
ATOM     36  N   LIG    1       23.532 -30.618   8.377  0.00  0.00    -0.292 NA
ATOM     37  C   LIG    1       23.188 -32.043   8.519  0.00  0.00    +0.100 C 
ATOM     38  C   LIG    1       24.024 -32.874   9.521  0.00  0.00    +0.099 C 
ATOM     39  N   LIG    1       24.196 -32.311  10.869  0.00  0.00    -0.303 NA
ATOM     40  C   LIG    1       23.116 -32.680  11.778  0.00  0.00    +0.105 C 
ATOM     41  C   LIG    1       24.430 -30.860  10.835  0.00  0.00    +0.099 C 
ATOM     42  C   LIG    1       23.700 -30.036   9.732  0.00  0.00    +0.100 C 
ENDBRANCH  35  36
ENDBRANCH  32  35
ENDBRANCH  28  31
ENDBRANCH  23  25
ENDBRANCH   8  23
TORSDOF 8
ENDMDL
MODEL 2
REMARK VINA RESULT:      -7.8      2.322      3.399
REMARK  Name = *****
REMARK                            x       y       z     vdW  Elec       q    Type
REMARK                         _______ _______ _______ _____ _____    ______ ____
ROOT
ATOM      1  C   LIG    1       30.054 -19.068   7.368  0.00  0.00    +0.061 A 
ATOM      2  C   LIG    1       29.595 -20.130   8.185  0.00  0.00    +0.038 A 
ATOM      3  C   LIG    1       28.453 -20.795   7.749  0.00  0.00    +0.042 A 
ATOM      4  N   LIG    1       27.800 -21.798   8.440  0.00  0.00    -0.281 N 
ATOM      5  H   LIG    1       28.071 -22.177   9.333  0.00  0.00    +0.155 HD
ATOM      6  C   LIG    1       26.606 -22.140   7.832  0.00  0.00    +0.251 C 
ATOM      7  C   LIG    1       26.495 -21.267   6.596  0.00  0.00    +0.068 C 
ATOM      8  C   LIG    1       25.349 -21.208   5.865  0.00  0.00    +0.051 C 
ATOM      9  O   LIG    1       25.773 -22.866   8.331  0.00  0.00    -0.270 OA
ATOM     10  C   LIG    1       27.761 -20.477   6.570  0.00  0.00    +0.010 A 
ATOM     11  C   LIG    1       28.338 -19.567   5.702  0.00  0.00    +0.011 A 
ATOM     12  C   LIG    1       29.478 -18.860   6.124  0.00  0.00    +0.015 A 
ENDROOT
BRANCH   8  13
ATOM     13  C   LIG    1       25.197 -20.112   4.867  0.00  0.00    -0.003 A 
ATOM     14  C   LIG    1       23.938 -19.529   4.638  0.00  0.00    +0.010 A 
ATOM     15  C   LIG    1       23.807 -18.413   3.806  0.00  0.00    +0.001 A 
ATOM     16  C   LIG    1       24.944 -17.802   3.286  0.00  0.00    +0.000 A 
ATOM     17  C   LIG    1       26.194 -18.389   3.483  0.00  0.00    +0.001 A 
ATOM     18  C   LIG    1       26.309 -19.585   4.198  0.00  0.00    +0.010 A 
ENDBRANCH   8  13
BRANCH   1  19
ATOM     19  C   LIG    1       31.077 -18.130   7.968  0.00  0.00    +0.339 C 
ATOM     20  O   LIG    1       32.269 -18.208   7.842  0.00  0.00    -0.245 OA
BRANCH  19  22
ATOM     21  C   LIG    1       30.697 -17.155  10.096  0.00  0.00    +0.280 C 
ATOM     22  O   LIG    1       30.363 -17.236   8.693  0.00  0.00    -0.464 OA
ENDBRANCH  19  22
ENDBRANCH   1  19
BRANCH   8  23
ATOM     23  N   LIG    1       24.227 -22.038   5.937  0.00  0.00    -0.313 N 
ATOM     24  H   LIG    1       23.336 -21.556   5.977  0.00  0.00    +0.152 HD
BRANCH  23  25
ATOM     25  C   LIG    1       24.172 -23.445   5.799  0.00  0.00    +0.032 A 
ATOM     26  C   LIG    1       25.117 -24.148   5.051  0.00  0.00    +0.025 A 
ATOM     27  C   LIG    1       25.205 -25.554   5.070  0.00  0.00    +0.025 A 
ATOM     28  C   LIG    1       24.352 -26.322   5.863  0.00  0.00    +0.036 A 
ATOM     29  C   LIG    1       23.327 -25.639   6.543  0.00  0.00    +0.025 A 
ATOM     30  C   LIG    1       23.247 -24.217   6.522  0.00  0.00    +0.025 A 
BRANCH  28  31
ATOM     31  N   LIG    1       24.527 -27.757   6.001  0.00  0.00    -0.273 N 
ATOM     32  C   LIG    1       25.327 -28.279   7.052  0.00  0.00    +0.234 C 
ATOM     33  O   LIG    1       25.853 -27.560   7.911  0.00  0.00    -0.274 OA
ATOM     34  C   LIG    1       24.492 -28.500   4.749  0.00  0.00    +0.138 C 
BRANCH  32  35
ATOM     35  C   LIG    1       25.453 -29.848   7.203  0.00  0.00    +0.181 C 
BRANCH  35  36
ATOM     36  N   LIG    1       24.203 -30.523   7.636  0.00  0.00    -0.292 NA
ATOM     37  C   LIG    1       24.207 -31.979   7.422  0.00  0.00    +0.100 C 
ATOM     38  C   LIG    1       24.912 -32.848   8.491  0.00  0.00    +0.099 C 
ATOM     39  N   LIG    1       24.551 -32.595   9.894  0.00  0.00    -0.303 NA
ATOM     40  C   LIG    1       23.391 -33.367  10.327  0.00  0.00    +0.105 C 
ATOM     41  C   LIG    1       24.409 -31.160  10.177  0.00  0.00    +0.099 C 
ATOM     42  C   LIG    1       23.832 -30.255   9.047  0.00  0.00    +0.100 C 
ENDBRANCH  35  36
ENDBRANCH  32  35
ENDBRANCH  28  31
ENDBRANCH  23  25
ENDBRANCH   8  23
TORSDOF 8
ENDMDL
MODEL 3
REMARK VINA RESULT:      -7.2      4.129     12.431
REMARK  Name = *****
REMARK                            x       y       z     vdW  Elec       q    Type
REMARK                         _______ _______ _______ _____ _____    ______ ____
ROOT
ATOM      1  C   LIG    1       19.734 -29.882  14.227  0.00  0.00    +0.061 A 
ATOM      2  C   LIG    1       19.532 -30.428  12.935  0.00  0.00    +0.038 A 
ATOM      3  C   LIG    1       20.677 -30.659  12.177  0.00  0.00    +0.042 A 
ATOM      4  N   LIG    1       20.693 -31.105  10.869  0.00  0.00    -0.281 N 
ATOM      5  H   LIG    1       19.886 -31.327  10.309  0.00  0.00    +0.155 HD
ATOM      6  C   LIG    1       21.968 -31.072  10.336  0.00  0.00    +0.251 C 
ATOM      7  C   LIG    1       22.876 -30.566  11.442  0.00  0.00    +0.068 C 
ATOM      8  C   LIG    1       24.173 -30.232  11.202  0.00  0.00    +0.051 C 
ATOM      9  O   LIG    1       22.219 -31.251   9.164  0.00  0.00    -0.270 OA
ATOM     10  C   LIG    1       21.981 -30.391  12.623  0.00  0.00    +0.010 A 
ATOM     11  C   LIG    1       22.156 -30.040  13.950  0.00  0.00    +0.011 A 
ATOM     12  C   LIG    1       21.020 -29.775  14.734  0.00  0.00    +0.015 A 
ENDROOT
BRANCH   8  13
ATOM     13  C   LIG    1       24.910 -29.453  12.238  0.00  0.00    -0.003 A 
ATOM     14  C   LIG    1       25.945 -30.055  12.975  0.00  0.00    +0.010 A 
ATOM     15  C   LIG    1       26.731 -29.300  13.852  0.00  0.00    +0.001 A 
ATOM     16  C   LIG    1       26.563 -27.920  13.916  0.00  0.00    +0.000 A 
ATOM     17  C   LIG    1       25.520 -27.318  13.212  0.00  0.00    +0.001 A 
ATOM     18  C   LIG    1       24.645 -28.094  12.444  0.00  0.00    +0.010 A 
ENDBRANCH   8  13
BRANCH   1  19
ATOM     19  C   LIG    1       18.521 -29.323  14.934  0.00  0.00    +0.339 C 
ATOM     20  O   LIG    1       17.490 -29.905  15.140  0.00  0.00    -0.245 OA
BRANCH  19  22
ATOM     21  C   LIG    1       18.084 -27.027  14.534  0.00  0.00    +0.280 C 
ATOM     22  O   LIG    1       18.838 -28.041  15.233  0.00  0.00    -0.464 OA
ENDBRANCH  19  22
ENDBRANCH   1  19
BRANCH   8  23
ATOM     23  N   LIG    1       24.943 -30.490  10.065  0.00  0.00    -0.313 N 
ATOM     24  H   LIG    1       25.200 -31.461   9.929  0.00  0.00    +0.152 HD
BRANCH  23  25
ATOM     25  C   LIG    1       25.264 -29.605   9.009  0.00  0.00    +0.032 A 
ATOM     26  C   LIG    1       24.529 -29.578   7.823  0.00  0.00    +0.025 A 
ATOM     27  C   LIG    1       24.697 -28.571   6.851  0.00  0.00    +0.025 A 
ATOM     28  C   LIG    1       25.604 -27.529   7.038  0.00  0.00    +0.036 A 
ATOM     29  C   LIG    1       26.426 -27.595   8.177  0.00  0.00    +0.025 A 
ATOM     30  C   LIG    1       26.248 -28.613   9.157  0.00  0.00    +0.025 A 
BRANCH  28  31
ATOM     31  N   LIG    1       25.682 -26.412   6.112  0.00  0.00    -0.273 N 
ATOM     32  C   LIG    1       24.658 -25.427   6.098  0.00  0.00    +0.234 C 
ATOM     33  O   LIG    1       23.707 -25.442   6.888  0.00  0.00    -0.274 OA
ATOM     34  C   LIG    1       26.350 -26.707   4.853  0.00  0.00    +0.138 C 
BRANCH  32  35
ATOM     35  C   LIG    1       24.801 -24.198   5.113  0.00  0.00    +0.181 C 
BRANCH  35  36
ATOM     36  N   LIG    1       24.801 -22.873   5.785  0.00  0.00    -0.292 NA
ATOM     37  C   LIG    1       25.113 -21.749   4.887  0.00  0.00    +0.100 C 
ATOM     38  C   LIG    1       23.954 -21.188   4.030  0.00  0.00    +0.099 C 
ATOM     39  N   LIG    1       22.701 -20.874   4.733  0.00  0.00    -0.303 NA
ATOM     40  C   LIG    1       22.682 -19.521   5.277  0.00  0.00    +0.105 C 
ATOM     41  C   LIG    1       22.364 -21.890   5.740  0.00  0.00    +0.099 C 
ATOM     42  C   LIG    1       23.541 -22.565   6.507  0.00  0.00    +0.100 C 
ENDBRANCH  35  36
ENDBRANCH  32  35
ENDBRANCH  28  31
ENDBRANCH  23  25
ENDBRANCH   8  23
TORSDOF 8
ENDMDL
MODEL 4
REMARK VINA RESULT:      -6.5      4.253     12.781
REMARK  Name = *****
REMARK                            x       y       z     vdW  Elec       q    Type
REMARK                         _______ _______ _______ _____ _____    ______ ____
ROOT
ATOM      1  C   LIG    1       19.304 -31.678  13.079  0.00  0.00    +0.061 A 
ATOM      2  C   LIG    1       19.441 -32.257  11.793  0.00  0.00    +0.038 A 
ATOM      3  C   LIG    1       20.695 -32.144  11.196  0.00  0.00    +0.042 A 
ATOM      4  N   LIG    1       21.011 -32.564   9.919  0.00  0.00    -0.281 N 
ATOM      5  H   LIG    1       20.384 -33.009   9.268  0.00  0.00    +0.155 HD
ATOM      6  C   LIG    1       22.283 -32.163   9.552  0.00  0.00    +0.251 C 
ATOM      7  C   LIG    1       22.852 -31.417  10.745  0.00  0.00    +0.068 C 
ATOM      8  C   LIG    1       24.018 -30.721  10.661  0.00  0.00    +0.051 C 
ATOM      9  O   LIG    1       22.728 -32.258   8.429  0.00  0.00    -0.270 OA
ATOM     10  C   LIG    1       21.795 -31.511  11.795  0.00  0.00    +0.010 A 
ATOM     11  C   LIG    1       21.684 -31.127  13.119  0.00  0.00    +0.011 A 
ATOM     12  C   LIG    1       20.426 -31.204  13.742  0.00  0.00    +0.015 A 
ENDROOT
BRANCH   8  13
ATOM     13  C   LIG    1       24.355 -29.764  11.753  0.00  0.00    -0.003 A 
ATOM     14  C   LIG    1       25.569 -29.885  12.453  0.00  0.00    +0.010 A 
ATOM     15  C   LIG    1       25.957 -28.917  13.385  0.00  0.00    +0.001 A 
ATOM     16  C   LIG    1       25.191 -27.766  13.544  0.00  0.00    +0.000 A 
ATOM     17  C   LIG    1       23.971 -27.650  12.877  0.00  0.00    +0.001 A 
ATOM     18  C   LIG    1       23.515 -28.684  12.051  0.00  0.00    +0.010 A 
ENDBRANCH   8  13
BRANCH   1  19
ATOM     19  C   LIG    1       17.899 -31.496  13.604  0.00  0.00    +0.339 C 
ATOM     20  O   LIG    1       17.447 -30.492  14.086  0.00  0.00    -0.245 OA
BRANCH  19  22
ATOM     21  C   LIG    1       15.954 -32.672  12.928  0.00  0.00    +0.280 C 
ATOM     22  O   LIG    1       17.299 -32.700  13.453  0.00  0.00    -0.464 OA
ENDBRANCH  19  22
ENDBRANCH   1  19
BRANCH   8  23
ATOM     23  N   LIG    1       24.973 -30.742   9.641  0.00  0.00    -0.313 N 
ATOM     24  H   LIG    1       25.473 -31.619   9.538  0.00  0.00    +0.152 HD
BRANCH  23  25
ATOM     25  C   LIG    1       25.210 -29.765   8.647  0.00  0.00    +0.032 A 
ATOM     26  C   LIG    1       24.434 -29.690   7.489  0.00  0.00    +0.025 A 
ATOM     27  C   LIG    1       24.515 -28.607   6.592  0.00  0.00    +0.025 A 
ATOM     28  C   LIG    1       25.373 -27.533   6.830  0.00  0.00    +0.036 A 
ATOM     29  C   LIG    1       26.236 -27.639   7.935  0.00  0.00    +0.025 A 
ATOM     30  C   LIG    1       26.146 -28.735   8.840  0.00  0.00    +0.025 A 
BRANCH  28  31
ATOM     31  N   LIG    1       25.359 -26.348   5.990  0.00  0.00    -0.273 N 
ATOM     32  C   LIG    1       24.335 -25.376   6.147  0.00  0.00    +0.234 C 
ATOM     33  O   LIG    1       23.461 -25.461   7.018  0.00  0.00    -0.274 OA
ATOM     34  C   LIG    1       25.909 -26.538   4.655  0.00  0.00    +0.138 C 
BRANCH  32  35
ATOM     35  C   LIG    1       24.381 -24.073   5.250  0.00  0.00    +0.181 C 
BRANCH  35  36
ATOM     36  N   LIG    1       25.476 -23.131   5.598  0.00  0.00    -0.292 NA
ATOM     37  C   LIG    1       25.075 -21.715   5.566  0.00  0.00    +0.100 C 
ATOM     38  C   LIG    1       24.352 -21.159   6.816  0.00  0.00    +0.099 C 
ATOM     39  N   LIG    1       24.980 -21.425   8.119  0.00  0.00    -0.303 NA
ATOM     40  C   LIG    1       25.965 -20.414   8.490  0.00  0.00    +0.105 C 
ATOM     41  C   LIG    1       25.518 -22.791   8.203  0.00  0.00    +0.099 C 
ATOM     42  C   LIG    1       26.118 -23.412   6.906  0.00  0.00    +0.100 C 
ENDBRANCH  35  36
ENDBRANCH  32  35
ENDBRANCH  28  31
ENDBRANCH  23  25
ENDBRANCH   8  23
TORSDOF 8
ENDMDL
MODEL 5
REMARK VINA RESULT:      -6.3      3.879     12.603
REMARK  Name = *****
REMARK                            x       y       z     vdW  Elec       q    Type
REMARK                         _______ _______ _______ _____ _____    ______ ____
ROOT
ATOM      1  C   LIG    1       21.939 -32.865  12.641  0.00  0.00    +0.061 A 
ATOM      2  C   LIG    1       21.581 -33.104  11.292  0.00  0.00    +0.038 A 
ATOM      3  C   LIG    1       22.476 -32.653  10.326  0.00  0.00    +0.042 A 
ATOM      4  N   LIG    1       22.275 -32.711   8.961  0.00  0.00    -0.281 N 
ATOM      5  H   LIG    1       21.468 -33.094   8.496  0.00  0.00    +0.155 HD
ATOM      6  C   LIG    1       23.263 -32.032   8.272  0.00  0.00    +0.251 C 
ATOM      7  C   LIG    1       24.218 -31.494   9.321  0.00  0.00    +0.068 C 
ATOM      8  C   LIG    1       25.206 -30.614   9.003  0.00  0.00    +0.051 C 
ATOM      9  O   LIG    1       23.222 -31.794   7.084  0.00  0.00    -0.270 OA
ATOM     10  C   LIG    1       23.684 -31.999  10.620  0.00  0.00    +0.010 A 
ATOM     11  C   LIG    1       24.093 -31.951  11.940  0.00  0.00    +0.011 A 
ATOM     12  C   LIG    1       23.201 -32.376  12.941  0.00  0.00    +0.015 A 
ENDROOT
BRANCH   8  13
ATOM     13  C   LIG    1       25.895 -29.889  10.108  0.00  0.00    -0.003 A 
ATOM     14  C   LIG    1       27.272 -30.074  10.326  0.00  0.00    +0.010 A 
ATOM     15  C   LIG    1       27.956 -29.301  11.271  0.00  0.00    +0.001 A 
ATOM     16  C   LIG    1       27.296 -28.263  11.922  0.00  0.00    +0.000 A 
ATOM     17  C   LIG    1       25.925 -28.091  11.734  0.00  0.00    +0.001 A 
ATOM     18  C   LIG    1       25.212 -28.955  10.896  0.00  0.00    +0.010 A 
ENDBRANCH   8  13
BRANCH   1  19
ATOM     19  C   LIG    1       20.857 -33.043  13.682  0.00  0.00    +0.339 C 
ATOM     20  O   LIG    1       21.011 -33.453  14.801  0.00  0.00    -0.245 OA
BRANCH  19  22
ATOM     21  C   LIG    1       19.046 -31.516  13.593  0.00  0.00    +0.280 C 
ATOM     22  O   LIG    1       19.704 -32.688  13.067  0.00  0.00    -0.464 OA
ENDBRANCH  19  22
ENDBRANCH   1  19
BRANCH   8  23
ATOM     23  N   LIG    1       25.667 -30.244   7.737  0.00  0.00    -0.313 N 
ATOM     24  H   LIG    1       25.997 -31.008   7.158  0.00  0.00    +0.152 HD
BRANCH  23  25
ATOM     25  C   LIG    1       25.580 -28.978   7.112  0.00  0.00    +0.032 A 
ATOM     26  C   LIG    1       24.670 -28.725   6.085  0.00  0.00    +0.025 A 
ATOM     27  C   LIG    1       24.422 -27.428   5.595  0.00  0.00    +0.025 A 
ATOM     28  C   LIG    1       25.069 -26.315   6.132  0.00  0.00    +0.036 A 
ATOM     29  C   LIG    1       26.064 -26.560   7.096  0.00  0.00    +0.025 A 
ATOM     30  C   LIG    1       26.306 -27.873   7.589  0.00  0.00    +0.025 A 
BRANCH  28  31
ATOM     31  N   LIG    1       24.716 -24.963   5.734  0.00  0.00    -0.273 N 
ATOM     32  C   LIG    1       23.584 -24.325   6.309  0.00  0.00    +0.234 C 
ATOM     33  O   LIG    1       22.897 -24.853   7.191  0.00  0.00    -0.274 OA
ATOM     34  C   LIG    1       25.057 -24.622   4.361  0.00  0.00    +0.138 C 
BRANCH  32  35
ATOM     35  C   LIG    1       23.260 -22.835   5.890  0.00  0.00    +0.181 C 
BRANCH  35  36
ATOM     36  N   LIG    1       23.778 -21.809   6.832  0.00  0.00    -0.292 NA
ATOM     37  C   LIG    1       24.801 -22.317   7.761  0.00  0.00    +0.100 C 
ATOM     38  C   LIG    1       26.253 -22.402   7.232  0.00  0.00    +0.099 C 
ATOM     39  N   LIG    1       26.791 -21.202   6.573  0.00  0.00    -0.303 NA
ATOM     40  C   LIG    1       27.405 -20.269   7.512  0.00  0.00    +0.105 C 
ATOM     41  C   LIG    1       25.795 -20.556   5.707  0.00  0.00    +0.099 C 
ATOM     42  C   LIG    1       24.306 -20.593   6.166  0.00  0.00    +0.100 C 
ENDBRANCH  35  36
ENDBRANCH  32  35
ENDBRANCH  28  31
ENDBRANCH  23  25
ENDBRANCH   8  23
TORSDOF 8
ENDMDL
MODEL 6
REMARK VINA RESULT:      -6.1      7.377     11.011
REMARK  Name = *****
REMARK                            x       y       z     vdW  Elec       q    Type
REMARK                         _______ _______ _______ _____ _____    ______ ____
ROOT
ATOM      1  C   LIG    1       26.729 -32.925   4.640  0.00  0.00    +0.061 A 
ATOM      2  C   LIG    1       27.146 -33.374   5.917  0.00  0.00    +0.038 A 
ATOM      3  C   LIG    1       26.805 -32.565   6.997  0.00  0.00    +0.042 A 
ATOM      4  N   LIG    1       27.187 -32.779   8.308  0.00  0.00    -0.281 N 
ATOM      5  H   LIG    1       27.746 -33.546   8.645  0.00  0.00    +0.155 HD
ATOM      6  C   LIG    1       26.837 -31.716   9.120  0.00  0.00    +0.251 C 
ATOM      7  C   LIG    1       26.130 -30.714   8.225  0.00  0.00    +0.068 C 
ATOM      8  C   LIG    1       25.819 -29.463   8.661  0.00  0.00    +0.051 C 
ATOM      9  O   LIG    1       27.208 -31.586  10.266  0.00  0.00    -0.270 OA
ATOM     10  C   LIG    1       26.082 -31.367   6.884  0.00  0.00    +0.010 A 
ATOM     11  C   LIG    1       25.529 -31.055   5.655  0.00  0.00    +0.011 A 
ATOM     12  C   LIG    1       25.874 -31.837   4.539  0.00  0.00    +0.015 A 
ENDROOT
BRANCH   8  13
ATOM     13  C   LIG    1       25.421 -28.438   7.655  0.00  0.00    -0.003 A 
ATOM     14  C   LIG    1       26.259 -27.340   7.391  0.00  0.00    +0.010 A 
ATOM     15  C   LIG    1       25.962 -26.446   6.357  0.00  0.00    +0.001 A 
ATOM     16  C   LIG    1       24.890 -26.705   5.508  0.00  0.00    +0.000 A 
ATOM     17  C   LIG    1       24.036 -27.774   5.779  0.00  0.00    +0.001 A 
ATOM     18  C   LIG    1       24.252 -28.586   6.898  0.00  0.00    +0.010 A 
ENDBRANCH   8  13
BRANCH   1  19
ATOM     19  C   LIG    1       27.354 -33.594   3.437  0.00  0.00    +0.339 C 
ATOM     20  O   LIG    1       28.523 -33.825   3.283  0.00  0.00    -0.245 OA
BRANCH  19  22
ATOM     21  C   LIG    1       26.284 -32.978   1.413  0.00  0.00    +0.280 C 
ATOM     22  O   LIG    1       26.330 -33.825   2.581  0.00  0.00    -0.464 OA
ENDBRANCH  19  22
ENDBRANCH   1  19
BRANCH   8  23
ATOM     23  N   LIG    1       25.853 -28.963   9.965  0.00  0.00    -0.313 N 
ATOM     24  H   LIG    1       26.520 -28.216  10.124  0.00  0.00    +0.152 HD
BRANCH  23  25
ATOM     25  C   LIG    1       24.973 -29.253  11.034  0.00  0.00    +0.032 A 
ATOM     26  C   LIG    1       25.081 -28.612  12.270  0.00  0.00    +0.025 A 
ATOM     27  C   LIG    1       24.097 -28.728  13.271  0.00  0.00    +0.025 A 
ATOM     28  C   LIG    1       22.943 -29.484  13.068  0.00  0.00    +0.036 A 
ATOM     29  C   LIG    1       22.864 -30.219  11.871  0.00  0.00    +0.025 A 
ATOM     30  C   LIG    1       23.860 -30.094  10.861  0.00  0.00    +0.025 A 
BRANCH  28  31
ATOM     31  N   LIG    1       21.859 -29.494  14.035  0.00  0.00    -0.273 N 
ATOM     32  C   LIG    1       20.667 -28.765  13.776  0.00  0.00    +0.234 C 
ATOM     33  O   LIG    1       20.477 -28.150  12.720  0.00  0.00    -0.274 OA
ATOM     34  C   LIG    1       22.279 -29.626  15.423  0.00  0.00    +0.138 C 
BRANCH  32  35
ATOM     35  C   LIG    1       19.488 -28.840  14.827  0.00  0.00    +0.181 C 
BRANCH  35  36
ATOM     36  N   LIG    1       18.842 -30.174  14.927  0.00  0.00    -0.292 NA
ATOM     37  C   LIG    1       17.409 -30.118  15.261  0.00  0.00    +0.100 C 
ATOM     38  C   LIG    1       16.424 -29.853  14.098  0.00  0.00    +0.099 C 
ATOM     39  N   LIG    1       16.579 -30.684  12.894  0.00  0.00    -0.303 NA
ATOM     40  C   LIG    1       15.832 -31.935  12.971  0.00  0.00    +0.105 C 
ATOM     41  C   LIG    1       17.991 -30.893  12.547  0.00  0.00    +0.099 C 
ATOM     42  C   LIG    1       19.012 -31.017  13.717  0.00  0.00    +0.100 C 
ENDBRANCH  35  36
ENDBRANCH  32  35
ENDBRANCH  28  31
ENDBRANCH  23  25
ENDBRANCH   8  23
TORSDOF 8
ENDMDL
MODEL 7
REMARK VINA RESULT:      -6.0      3.383     12.221
REMARK  Name = *****
REMARK                            x       y       z     vdW  Elec       q    Type
REMARK                         _______ _______ _______ _____ _____    ______ ____
ROOT
ATOM      1  C   LIG    1       24.901 -32.517  11.593  0.00  0.00    +0.061 A 
ATOM      2  C   LIG    1       25.445 -31.214  11.708  0.00  0.00    +0.038 A 
ATOM      3  C   LIG    1       25.507 -30.466  10.535  0.00  0.00    +0.042 A 
ATOM      4  N   LIG    1       26.076 -29.213  10.416  0.00  0.00    -0.281 N 
ATOM      5  H   LIG    1       26.504 -28.683  11.158  0.00  0.00    +0.155 HD
ATOM      6  C   LIG    1       26.134 -28.804   9.096  0.00  0.00    +0.251 C 
ATOM      7  C   LIG    1       25.510 -29.920   8.279  0.00  0.00    +0.068 C 
ATOM      8  C   LIG    1       25.575 -29.931   6.920  0.00  0.00    +0.051 C 
ATOM      9  O   LIG    1       26.738 -27.825   8.715  0.00  0.00    -0.270 OA
ATOM     10  C   LIG    1       25.061 -30.926   9.286  0.00  0.00    +0.010 A 
ATOM     11  C   LIG    1       24.365 -32.121   9.243  0.00  0.00    +0.011 A 
ATOM     12  C   LIG    1       24.307 -32.912  10.404  0.00  0.00    +0.015 A 
ENDROOT
BRANCH   8  13
ATOM     13  C   LIG    1       25.230 -31.191   6.202  0.00  0.00    -0.003 A 
ATOM     14  C   LIG    1       26.229 -32.134   5.904  0.00  0.00    +0.010 A 
ATOM     15  C   LIG    1       25.898 -33.376   5.352  0.00  0.00    +0.001 A 
ATOM     16  C   LIG    1       24.560 -33.730   5.200  0.00  0.00    +0.000 A 
ATOM     17  C   LIG    1       23.564 -32.791   5.465  0.00  0.00    +0.001 A 
ATOM     18  C   LIG    1       23.901 -31.499   5.883  0.00  0.00    +0.010 A 
ENDBRANCH   8  13
BRANCH   1  19
ATOM     19  C   LIG    1       25.119 -33.458  12.756  0.00  0.00    +0.339 C 
ATOM     20  O   LIG    1       26.181 -33.819  13.186  0.00  0.00    -0.245 OA
BRANCH  19  22
ATOM     21  C   LIG    1       23.349 -33.104  14.294  0.00  0.00    +0.280 C 
ATOM     22  O   LIG    1       23.879 -33.823  13.160  0.00  0.00    -0.464 OA
ENDBRANCH  19  22
ENDBRANCH   1  19
BRANCH   8  23
ATOM     23  N   LIG    1       25.969 -28.904   6.059  0.00  0.00    -0.313 N 
ATOM     24  H   LIG    1       26.575 -29.188   5.297  0.00  0.00    +0.152 HD
BRANCH  23  25
ATOM     25  C   LIG    1       25.505 -27.568   6.024  0.00  0.00    +0.032 A 
ATOM     26  C   LIG    1       24.144 -27.264   5.952  0.00  0.00    +0.025 A 
ATOM     27  C   LIG    1       23.650 -25.956   6.126  0.00  0.00    +0.025 A 
ATOM     28  C   LIG    1       24.506 -24.890   6.401  0.00  0.00    +0.036 A 
ATOM     29  C   LIG    1       25.886 -25.157   6.376  0.00  0.00    +0.025 A 
ATOM     30  C   LIG    1       26.378 -26.482   6.204  0.00  0.00    +0.025 A 
BRANCH  28  31
ATOM     31  N   LIG    1       23.996 -23.569   6.724  0.00  0.00    -0.273 N 
ATOM     32  C   LIG    1       24.778 -22.674   7.502  0.00  0.00    +0.234 C 
ATOM     33  O   LIG    1       25.922 -22.948   7.885  0.00  0.00    -0.274 OA
ATOM     34  C   LIG    1       22.548 -23.488   6.857  0.00  0.00    +0.138 C 
BRANCH  32  35
ATOM     35  C   LIG    1       24.213 -21.225   7.791  0.00  0.00    +0.181 C 
BRANCH  35  36
ATOM     36  N   LIG    1       24.497 -20.235   6.721  0.00  0.00    -0.292 NA
ATOM     37  C   LIG    1       25.538 -20.664   5.773  0.00  0.00    +0.100 C 
ATOM     38  C   LIG    1       25.101 -21.608   4.627  0.00  0.00    +0.099 C 
ATOM     39  N   LIG    1       23.916 -21.207   3.853  0.00  0.00    -0.303 NA
ATOM     40  C   LIG    1       24.243 -20.331   2.732  0.00  0.00    +0.105 C 
ATOM     41  C   LIG    1       22.859 -20.653   4.710  0.00  0.00    +0.099 C 
ATOM     42  C   LIG    1       23.298 -19.820   5.951  0.00  0.00    +0.100 C 
ENDBRANCH  35  36
ENDBRANCH  32  35
ENDBRANCH  28  31
ENDBRANCH  23  25
ENDBRANCH   8  23
TORSDOF 8
ENDMDL
MODEL 8
REMARK VINA RESULT:      -6.0      2.829      4.192
REMARK  Name = *****
REMARK                            x       y       z     vdW  Elec       q    Type
REMARK                         _______ _______ _______ _____ _____    ______ ____
ROOT
ATOM      1  C   LIG    1       29.709 -19.000   7.493  0.00  0.00    +0.061 A 
ATOM      2  C   LIG    1       29.357 -20.183   8.187  0.00  0.00    +0.038 A 
ATOM      3  C   LIG    1       28.309 -20.926   7.650  0.00  0.00    +0.042 A 
ATOM      4  N   LIG    1       27.760 -22.059   8.218  0.00  0.00    -0.281 N 
ATOM      5  H   LIG    1       28.054 -22.494   9.078  0.00  0.00    +0.155 HD
ATOM      6  C   LIG    1       26.627 -22.470   7.540  0.00  0.00    +0.251 C 
ATOM      7  C   LIG    1       26.444 -21.495   6.392  0.00  0.00    +0.068 C 
ATOM      8  C   LIG    1       25.315 -21.493   5.632  0.00  0.00    +0.051 C 
ATOM      9  O   LIG    1       25.873 -23.332   7.937  0.00  0.00    -0.270 OA
ATOM     10  C   LIG    1       27.611 -20.570   6.485  0.00  0.00    +0.010 A 
ATOM     11  C   LIG    1       28.099 -19.518   5.730  0.00  0.00    +0.011 A 
ATOM     12  C   LIG    1       29.140 -18.734   6.256  0.00  0.00    +0.015 A 
ENDROOT
BRANCH   8  13
ATOM     13  C   LIG    1       25.061 -20.325   4.741  0.00  0.00    -0.003 A 
ATOM     14  C   LIG    1       23.792 -19.718   4.712  0.00  0.00    +0.010 A 
ATOM     15  C   LIG    1       23.578 -18.542   3.984  0.00  0.00    +0.001 A 
ATOM     16  C   LIG    1       24.654 -17.904   3.373  0.00  0.00    +0.000 A 
ATOM     17  C   LIG    1       25.909 -18.513   3.372  0.00  0.00    +0.001 A 
ATOM     18  C   LIG    1       26.091 -19.759   3.980  0.00  0.00    +0.010 A 
ENDBRANCH   8  13
BRANCH   1  19
ATOM     19  C   LIG    1       30.603 -18.018   8.215  0.00  0.00    +0.339 C 
ATOM     20  O   LIG    1       31.755 -17.789   7.960  0.00  0.00    -0.245 OA
BRANCH  19  22
ATOM     21  C   LIG    1       30.568 -16.925  10.319  0.00  0.00    +0.280 C 
ATOM     22  O   LIG    1       29.844 -17.507   9.213  0.00  0.00    -0.464 OA
ENDBRANCH  19  22
ENDBRANCH   1  19
BRANCH   8  23
ATOM     23  N   LIG    1       24.295 -22.446   5.585  0.00  0.00    -0.313 N 
ATOM     24  H   LIG    1       23.402 -22.106   5.246  0.00  0.00    +0.152 HD
BRANCH  23  25
ATOM     25  C   LIG    1       24.394 -23.841   5.795  0.00  0.00    +0.032 A 
ATOM     26  C   LIG    1       23.527 -24.520   6.652  0.00  0.00    +0.025 A 
ATOM     27  C   LIG    1       23.471 -25.926   6.716  0.00  0.00    +0.025 A 
ATOM     28  C   LIG    1       24.278 -26.720   5.901  0.00  0.00    +0.036 A 
ATOM     29  C   LIG    1       25.231 -26.057   5.107  0.00  0.00    +0.025 A 
ATOM     30  C   LIG    1       25.278 -24.635   5.044  0.00  0.00    +0.025 A 
BRANCH  28  31
ATOM     31  N   LIG    1       24.127 -28.164   5.855  0.00  0.00    -0.273 N 
ATOM     32  C   LIG    1       24.661 -28.969   6.896  0.00  0.00    +0.234 C 
ATOM     33  O   LIG    1       25.216 -28.491   7.893  0.00  0.00    -0.274 OA
ATOM     34  C   LIG    1       24.092 -28.732   4.515  0.00  0.00    +0.138 C 
BRANCH  32  35
ATOM     35  C   LIG    1       24.433 -30.534   6.839  0.00  0.00    +0.181 C 
BRANCH  35  36
ATOM     36  N   LIG    1       25.646 -31.315   6.484  0.00  0.00    -0.292 NA
ATOM     37  C   LIG    1       25.427 -32.770   6.447  0.00  0.00    +0.100 C 
ATOM     38  C   LIG    1       24.808 -33.358   5.156  0.00  0.00    +0.099 C 
ATOM     39  N   LIG    1       25.425 -32.958   3.883  0.00  0.00    -0.303 NA
ATOM     40  C   LIG    1       26.537 -33.820   3.497  0.00  0.00    +0.105 C 
ATOM     41  C   LIG    1       25.787 -31.533   3.869  0.00  0.00    +0.099 C 
ATOM     42  C   LIG    1       26.276 -30.899   5.206  0.00  0.00    +0.100 C 
ENDBRANCH  35  36
ENDBRANCH  32  35
ENDBRANCH  28  31
ENDBRANCH  23  25
ENDBRANCH   8  23
TORSDOF 8
ENDMDL
MODEL 9
REMARK VINA RESULT:      -6.0      1.588      2.300
REMARK  Name = *****
REMARK                            x       y       z     vdW  Elec       q    Type
REMARK                         _______ _______ _______ _____ _____    ______ ____
ROOT
ATOM      1  C   LIG    1       27.307 -16.749   3.793  0.00  0.00    +0.061 A 
ATOM      2  C   LIG    1       28.367 -17.285   4.565  0.00  0.00    +0.038 A 
ATOM      3  C   LIG    1       28.166 -18.559   5.090  0.00  0.00    +0.042 A 
ATOM      4  N   LIG    1       29.037 -19.221   5.934  0.00  0.00    -0.281 N 
ATOM      5  H   LIG    1       29.923 -18.874   6.264  0.00  0.00    +0.155 HD
ATOM      6  C   LIG    1       28.483 -20.392   6.419  0.00  0.00    +0.251 C 
ATOM      7  C   LIG    1       27.105 -20.499   5.794  0.00  0.00    +0.068 C 
ATOM      8  C   LIG    1       26.207 -21.437   6.201  0.00  0.00    +0.051 C 
ATOM      9  O   LIG    1       28.974 -21.061   7.303  0.00  0.00    -0.270 OA
ATOM     10  C   LIG    1       27.001 -19.316   4.889  0.00  0.00    +0.010 A 
ATOM     11  C   LIG    1       26.070 -18.847   3.980  0.00  0.00    +0.011 A 
ATOM     12  C   LIG    1       26.230 -17.554   3.452  0.00  0.00    +0.015 A 
ENDROOT
BRANCH   8  13
ATOM     13  C   LIG    1       24.785 -21.290   5.781  0.00  0.00    -0.003 A 
ATOM     14  C   LIG    1       24.390 -21.644   4.478  0.00  0.00    +0.010 A 
ATOM     15  C   LIG    1       23.039 -21.638   4.114  0.00  0.00    +0.001 A 
ATOM     16  C   LIG    1       22.066 -21.389   5.077  0.00  0.00    +0.000 A 
ATOM     17  C   LIG    1       22.448 -21.008   6.363  0.00  0.00    +0.001 A 
ATOM     18  C   LIG    1       23.802 -20.877   6.689  0.00  0.00    +0.010 A 
ENDBRANCH   8  13
BRANCH   1  19
ATOM     19  C   LIG    1       27.356 -15.270   3.490  0.00  0.00    +0.339 C 
ATOM     20  O   LIG    1       28.128 -14.476   3.956  0.00  0.00    -0.245 OA
BRANCH  19  22
ATOM     21  C   LIG    1       26.066 -13.659   2.322  0.00  0.00    +0.280 C 
ATOM     22  O   LIG    1       26.332 -15.044   2.633  0.00  0.00    -0.464 OA
ENDBRANCH  19  22
ENDBRANCH   1  19
BRANCH   8  23
ATOM     23  N   LIG    1       26.421 -22.548   7.021  0.00  0.00    -0.313 N 
ATOM     24  H   LIG    1       26.884 -22.351   7.902  0.00  0.00    +0.152 HD
BRANCH  23  25
ATOM     25  C   LIG    1       25.936 -23.865   6.851  0.00  0.00    +0.032 A 
ATOM     26  C   LIG    1       24.569 -24.148   6.829  0.00  0.00    +0.025 A 
ATOM     27  C   LIG    1       24.062 -25.408   6.455  0.00  0.00    +0.025 A 
ATOM     28  C   LIG    1       24.912 -26.443   6.064  0.00  0.00    +0.036 A 
ATOM     29  C   LIG    1       26.294 -26.210   6.178  0.00  0.00    +0.025 A 
ATOM     30  C   LIG    1       26.799 -24.933   6.553  0.00  0.00    +0.025 A 
BRANCH  28  31
ATOM     31  N   LIG    1       24.395 -27.695   5.540  0.00  0.00    -0.273 N 
ATOM     32  C   LIG    1       24.059 -28.753   6.426  0.00  0.00    +0.234 C 
ATOM     33  O   LIG    1       24.134 -28.643   7.656  0.00  0.00    -0.274 OA
ATOM     34  C   LIG    1       24.890 -28.055   4.219  0.00  0.00    +0.138 C 
BRANCH  32  35
ATOM     35  C   LIG    1       23.451 -30.083   5.824  0.00  0.00    +0.181 C 
BRANCH  35  36
ATOM     36  N   LIG    1       23.862 -31.320   6.537  0.00  0.00    -0.292 NA
ATOM     37  C   LIG    1       23.954 -32.505   5.668  0.00  0.00    +0.100 C 
ATOM     38  C   LIG    1       25.255 -32.680   4.849  0.00  0.00    +0.099 C 
ATOM     39  N   LIG    1       26.523 -32.553   5.582  0.00  0.00    -0.303 NA
ATOM     40  C   LIG    1       26.966 -33.814   6.169  0.00  0.00    +0.105 C 
ATOM     41  C   LIG    1       26.486 -31.460   6.563  0.00  0.00    +0.099 C 
ATOM     42  C   LIG    1       25.134 -31.186   7.289  0.00  0.00    +0.100 C 
ENDBRANCH  35  36
ENDBRANCH  32  35
ENDBRANCH  28  31
ENDBRANCH  23  25
ENDBRANCH   8  23
TORSDOF 8
ENDMDL
