MODEL 1
REMARK VINA RESULT:      -4.2      0.000      0.000
REMARK  Name = *****
REMARK                            x       y       z     vdW  Elec       q    Type
REMARK                         _______ _______ _______ _____ _____    ______ ____
ROOT
ATOM      1  C   LIG    1       27.405 -18.798   4.466  0.00  0.00    +0.132 C 
ENDROOT
BRANCH   1   2
ATOM      2  C   LIG    1       25.871 -19.061   4.792  0.00  0.00    +0.173 C 
ATOM      3  C   LIG    1       25.635 -20.061   5.959  0.00  0.00    +0.176 C 
ATOM      4  C   LIG    1       24.165 -20.484   6.123  0.00  0.00    +0.177 C 
ATOM      5  C   LIG    1       23.581 -20.942   4.787  0.00  0.00    +0.184 C 
ATOM      6  C   LIG    1       23.784 -19.825   3.744  0.00  0.00    +0.207 C 
ATOM      7  O   LIG    1       25.200 -19.543   3.591  0.00  0.00    -0.356 OA
BRANCH   3   8
ATOM      8  O   LIG    1       26.403 -21.266   5.786  0.00  0.00    -0.387 OA
ATOM      9  H   LIG    1       26.947 -21.179   4.982  0.00  0.00    +0.210 HD
ENDBRANCH   3   8
BRANCH   4  10
ATOM     10  O   LIG    1       24.046 -21.568   7.062  0.00  0.00    -0.387 OA
ATOM     11  H   LIG    1       23.246 -21.378   7.596  0.00  0.00    +0.210 HD
ENDBRANCH   4  10
BRANCH   5  12
ATOM     12  O   LIG    1       22.218 -21.347   4.954  0.00  0.00    -0.386 OA
ATOM     13  H   LIG    1       21.810 -21.259   4.067  0.00  0.00    +0.210 HD
ENDBRANCH   5  12
BRANCH   6  14
ATOM     14  S   LIG    1       22.786 -18.329   4.133  0.00  0.00    -0.131 S 
ATOM     15  C   LIG    1       21.160 -18.937   3.664  0.00  0.00    +0.087 C 
ENDBRANCH   6  14
ENDBRANCH   1   2
BRANCH   1  17
ATOM     16  C   LIG    1       26.660 -16.504   3.507  0.00  0.00    +0.231 C 
ATOM     17  N   LIG    1       27.605 -17.369   4.039  0.00  0.00    -0.306 N 
ATOM     18  H   LIG    1       28.381 -16.883   4.484  0.00  0.00    +0.149 HD
ATOM     19  O   LIG    1       25.513 -16.822   3.279  0.00  0.00    -0.274 OA
BRANCH  16  24
ATOM     20  C   LIG    1       25.742 -13.116   2.917  0.00  0.00    +0.005 C 
ATOM     21  C   LIG    1       26.230 -13.356   4.343  0.00  0.00    +0.088 C 
ATOM     22  N   LIG    1       27.398 -14.248   4.266  0.00  0.00    -0.294 NA
ATOM     23  C   LIG    1       28.627 -13.467   4.120  0.00  0.00    +0.105 C 
ATOM     24  C   LIG    1       27.164 -15.104   3.081  0.00  0.00    +0.143 C 
ATOM     25  C   LIG    1       26.113 -14.406   2.191  0.00  0.00    +0.033 C 
BRANCH  20  26
ATOM     26  C   LIG    1       24.245 -12.762   2.860  0.00  0.00    +0.004 C 
BRANCH  26  28
ATOM     27  C   LIG    1       23.587 -11.830   5.172  0.00  0.00    +0.004 C 
ATOM     28  C   LIG    1       23.850 -11.536   3.702  0.00  0.00    -0.003 C 
ENDBRANCH  26  28
ENDBRANCH  20  26
ENDBRANCH  16  24
ENDBRANCH   1  17
BRANCH   1  29
ATOM     29  C   LIG    1       28.366 -19.315   5.597  0.00  0.00    +0.134 C 
ATOM     30  C   LIG    1       29.467 -18.362   6.076  0.00  0.00    +0.039 C 
BRANCH  29  31
ATOM     31  O   LIG    1       28.940 -20.572   5.218  0.00  0.00    -0.390 OA
ATOM     32  H   LIG    1       29.367 -20.924   6.033  0.00  0.00    +0.210 HD
ENDBRANCH  29  31
ENDBRANCH   1  29
TORSDOF 11
ENDMDL
