MODEL 1
REMARK VINA RESULT:      -7.2      0.000      0.000
REMARK  Name = *****
REMARK                            x       y       z     vdW  Elec       q    Type
REMARK                         _______ _______ _______ _____ _____    ______ ____
ROOT
ATOM      1  C   LIG    1       30.481 -19.283   7.408  0.00  0.00    -0.014 A 
ATOM      2  C   LIG    1       30.109 -18.475   6.321  0.00  0.00    +0.055 A 
ATOM      3  C   LIG    1       29.000 -18.807   5.556  0.00  0.00    +0.159 A 
ATOM      4  C   LIG    1       28.264 -19.952   5.825  0.00  0.00    +0.158 A 
ATOM      5  C   LIG    1       28.634 -20.796   6.861  0.00  0.00    +0.049 A 
ATOM      6  C   LIG    1       29.745 -20.460   7.645  0.00  0.00    +0.010 A 
ENDROOT
BRANCH   3   7
ATOM      7  O   LIG    1       28.634 -17.976   4.536  0.00  0.00    -0.503 OA
ATOM      8  H   LIG    1       28.292 -18.578   3.843  0.00  0.00    +0.292 HD
ENDBRANCH   3   7
BRANCH   4   9
ATOM      9  O   LIG    1       27.175 -20.207   5.036  0.00  0.00    -0.503 OA
ATOM     10  H   LIG    1       27.130 -21.167   4.890  0.00  0.00    +0.292 HD
ENDBRANCH   4   9
BRANCH   1  11
ATOM     11  C   LIG    1       31.667 -18.924   8.289  0.00  0.00    +0.158 C 
BRANCH  11  12
ATOM     12  O   LIG    1       31.975 -20.041   9.135  0.00  0.00    -0.386 OA
ATOM     13  H   LIG    1       31.778 -20.825   8.583  0.00  0.00    +0.210 HD
ENDBRANCH  11  12
BRANCH  11  14
ATOM     14  C   LIG    1       31.488 -17.679   9.205  0.00  0.00    +0.117 C 
BRANCH  14  15
ATOM     15  N   LIG    1       32.042 -17.910  10.557  0.00  0.00    -0.311 NA
ATOM     16  H   LIG    1       31.270 -18.121  11.195  0.00  0.00    +0.122 HD
BRANCH  15  18
ATOM     17  C   LIG    1       32.881 -15.700   9.964  0.00  0.00    +0.024 C 
ATOM     18  C   LIG    1       32.766 -16.740  11.082  0.00  0.00    +0.048 C 
ATOM     19  C   LIG    1       32.065 -16.120  12.292  0.00  0.00    +0.024 C 
ENDBRANCH  15  18
ENDBRANCH  14  15
ENDBRANCH  11  14
ENDBRANCH   1  11
TORSDOF 7
ENDMDL
MODEL 2
REMARK VINA RESULT:      -7.1      3.312      6.252
REMARK  Name = *****
REMARK                            x       y       z     vdW  Elec       q    Type
REMARK                         _______ _______ _______ _____ _____    ______ ____
ROOT
ATOM      1  C   LIG    1       29.040 -20.246   6.669  0.00  0.00    -0.014 A 
ATOM      2  C   LIG    1       29.955 -19.185   6.770  0.00  0.00    +0.055 A 
ATOM      3  C   LIG    1       31.011 -19.263   7.668  0.00  0.00    +0.159 A 
ATOM      4  C   LIG    1       31.162 -20.362   8.501  0.00  0.00    +0.158 A 
ATOM      5  C   LIG    1       30.247 -21.404   8.458  0.00  0.00    +0.049 A 
ATOM      6  C   LIG    1       29.186 -21.338   7.546  0.00  0.00    +0.010 A 
ENDROOT
BRANCH   3   7
ATOM      7  O   LIG    1       31.912 -18.237   7.710  0.00  0.00    -0.503 OA
ATOM      8  H   LIG    1       31.567 -17.586   7.065  0.00  0.00    +0.292 HD
ENDBRANCH   3   7
BRANCH   4   9
ATOM      9  O   LIG    1       32.234 -20.373   9.350  0.00  0.00    -0.503 OA
ATOM     10  H   LIG    1       32.677 -19.511   9.285  0.00  0.00    +0.292 HD
ENDBRANCH   4   9
BRANCH   1  11
ATOM     11  C   LIG    1       27.897 -20.210   5.667  0.00  0.00    +0.158 C 
BRANCH  11  12
ATOM     12  O   LIG    1       27.950 -18.973   4.942  0.00  0.00    -0.386 OA
ATOM     13  H   LIG    1       28.844 -18.622   5.127  0.00  0.00    +0.210 HD
ENDBRANCH  11  12
BRANCH  11  14
ATOM     14  C   LIG    1       26.464 -20.345   6.257  0.00  0.00    +0.117 C 
BRANCH  14  15
ATOM     15  N   LIG    1       25.837 -21.633   5.885  0.00  0.00    -0.311 NA
ATOM     16  H   LIG    1       25.053 -21.444   5.254  0.00  0.00    +0.122 HD
BRANCH  15  18
ATOM     17  C   LIG    1       25.924 -23.779   7.036  0.00  0.00    +0.024 C 
ATOM     18  C   LIG    1       25.322 -22.372   7.050  0.00  0.00    +0.048 C 
ATOM     19  C   LIG    1       25.661 -21.679   8.371  0.00  0.00    +0.024 C 
ENDBRANCH  15  18
ENDBRANCH  14  15
ENDBRANCH  11  14
ENDBRANCH   1  11
TORSDOF 7
ENDMDL
MODEL 3
REMARK VINA RESULT:      -7.1      4.300      6.341
REMARK  Name = *****
REMARK                            x       y       z     vdW  Elec       q    Type
REMARK                         _______ _______ _______ _____ _____    ______ ____
ROOT
ATOM      1  C   LIG    1       24.924 -21.606   7.520  0.00  0.00    -0.014 A 
ATOM      2  C   LIG    1       24.014 -22.676   7.481  0.00  0.00    +0.055 A 
ATOM      3  C   LIG    1       22.946 -22.646   6.595  0.00  0.00    +0.159 A 
ATOM      4  C   LIG    1       22.737 -21.556   5.763  0.00  0.00    +0.158 A 
ATOM      5  C   LIG    1       23.591 -20.464   5.812  0.00  0.00    +0.049 A 
ATOM      6  C   LIG    1       24.677 -20.492   6.695  0.00  0.00    +0.010 A 
ENDROOT
BRANCH   3   7
ATOM      7  O   LIG    1       22.106 -23.722   6.545  0.00  0.00    -0.503 OA
ATOM      8  H   LIG    1       22.487 -24.295   5.849  0.00  0.00    +0.292 HD
ENDBRANCH   3   7
BRANCH   4   9
ATOM      9  O   LIG    1       21.671 -21.605   4.906  0.00  0.00    -0.503 OA
ATOM     10  H   LIG    1       20.867 -21.418   5.419  0.00  0.00    +0.292 HD
ENDBRANCH   4   9
BRANCH   1  11
ATOM     11  C   LIG    1       26.126 -21.626   8.450  0.00  0.00    +0.158 C 
BRANCH  11  12
ATOM     12  O   LIG    1       26.056 -20.494   9.329  0.00  0.00    -0.386 OA
ATOM     13  H   LIG    1       25.160 -20.544   9.718  0.00  0.00    +0.210 HD
ENDBRANCH  11  12
BRANCH  11  14
ATOM     14  C   LIG    1       27.523 -21.602   7.765  0.00  0.00    +0.117 C 
BRANCH  14  15
ATOM     15  N   LIG    1       28.307 -20.412   8.162  0.00  0.00    -0.311 NA
ATOM     16  H   LIG    1       27.657 -19.655   8.396  0.00  0.00    +0.122 HD
BRANCH  15  18
ATOM     17  C   LIG    1       28.377 -19.774   5.811  0.00  0.00    +0.024 C 
ATOM     18  C   LIG    1       29.199 -19.937   7.092  0.00  0.00    +0.048 C 
ATOM     19  C   LIG    1       29.872 -18.610   7.445  0.00  0.00    +0.024 C 
ENDBRANCH  15  18
ENDBRANCH  14  15
ENDBRANCH  11  14
ENDBRANCH   1  11
TORSDOF 7
ENDMDL
MODEL 4
REMARK VINA RESULT:      -7.1      4.433      6.390
REMARK  Name = *****
REMARK                            x       y       z     vdW  Elec       q    Type
REMARK                         _______ _______ _______ _____ _____    ______ ____
ROOT
ATOM      1  C   LIG    1       25.397 -22.606   7.548  0.00  0.00    -0.014 A 
ATOM      2  C   LIG    1       24.009 -22.622   7.333  0.00  0.00    +0.055 A 
ATOM      3  C   LIG    1       23.415 -23.713   6.715  0.00  0.00    +0.159 A 
ATOM      4  C   LIG    1       24.176 -24.785   6.271  0.00  0.00    +0.158 A 
ATOM      5  C   LIG    1       25.554 -24.778   6.426  0.00  0.00    +0.049 A 
ATOM      6  C   LIG    1       26.159 -23.685   7.059  0.00  0.00    +0.010 A 
ENDROOT
BRANCH   3   7
ATOM      7  O   LIG    1       22.058 -23.721   6.563  0.00  0.00    -0.503 OA
ATOM      8  H   LIG    1       21.772 -24.560   6.980  0.00  0.00    +0.292 HD
ENDBRANCH   3   7
BRANCH   4   9
ATOM      9  O   LIG    1       23.518 -25.831   5.684  0.00  0.00    -0.503 OA
ATOM     10  H   LIG    1       22.954 -26.246   6.358  0.00  0.00    +0.292 HD
ENDBRANCH   4   9
BRANCH   1  11
ATOM     11  C   LIG    1       26.073 -21.444   8.258  0.00  0.00    +0.158 C 
BRANCH  11  12
ATOM     12  O   LIG    1       25.067 -20.537   8.733  0.00  0.00    -0.386 OA
ATOM     13  H   LIG    1       24.738 -20.095   7.925  0.00  0.00    +0.210 HD
ENDBRANCH  11  12
BRANCH  11  14
ATOM     14  C   LIG    1       27.084 -20.619   7.411  0.00  0.00    +0.117 C 
BRANCH  14  15
ATOM     15  N   LIG    1       28.193 -20.095   8.239  0.00  0.00    -0.311 NA
ATOM     16  H   LIG    1       27.863 -19.266   8.742  0.00  0.00    +0.122 HD
BRANCH  15  18
ATOM     17  C   LIG    1       28.900 -19.388   6.016  0.00  0.00    +0.024 C 
ATOM     18  C   LIG    1       29.367 -19.710   7.439  0.00  0.00    +0.048 C 
ATOM     19  C   LIG    1       30.099 -18.503   8.026  0.00  0.00    +0.024 C 
ENDBRANCH  15  18
ENDBRANCH  14  15
ENDBRANCH  11  14
ENDBRANCH   1  11
TORSDOF 7
ENDMDL
MODEL 5
REMARK VINA RESULT:      -7.0      3.079      6.750
REMARK  Name = *****
REMARK                            x       y       z     vdW  Elec       q    Type
REMARK                         _______ _______ _______ _____ _____    ______ ____
ROOT
ATOM      1  C   LIG    1       29.341 -20.103   7.324  0.00  0.00    -0.014 A 
ATOM      2  C   LIG    1       30.296 -20.912   7.961  0.00  0.00    +0.055 A 
ATOM      3  C   LIG    1       31.240 -20.341   8.803  0.00  0.00    +0.159 A 
ATOM      4  C   LIG    1       31.282 -18.969   9.003  0.00  0.00    +0.158 A 
ATOM      5  C   LIG    1       30.383 -18.138   8.350  0.00  0.00    +0.049 A 
ATOM      6  C   LIG    1       29.420 -18.708   7.509  0.00  0.00    +0.010 A 
ENDROOT
BRANCH   3   7
ATOM      7  O   LIG    1       32.124 -21.159   9.446  0.00  0.00    -0.503 OA
ATOM      8  H   LIG    1       32.797 -20.549   9.811  0.00  0.00    +0.292 HD
ENDBRANCH   3   7
BRANCH   4   9
ATOM      9  O   LIG    1       32.232 -18.480   9.857  0.00  0.00    -0.503 OA
ATOM     10  H   LIG    1       32.065 -18.856  10.738  0.00  0.00    +0.292 HD
ENDBRANCH   4   9
BRANCH   1  11
ATOM     11  C   LIG    1       28.269 -20.702   6.428  0.00  0.00    +0.158 C 
BRANCH  11  12
ATOM     12  O   LIG    1       28.204 -19.948   5.208  0.00  0.00    -0.386 OA
ATOM     13  H   LIG    1       27.273 -19.651   5.156  0.00  0.00    +0.210 HD
ENDBRANCH  11  12
BRANCH  11  14
ATOM     14  C   LIG    1       26.832 -20.756   7.021  0.00  0.00    +0.117 C 
BRANCH  14  15
ATOM     15  N   LIG    1       25.893 -21.460   6.119  0.00  0.00    -0.311 NA
ATOM     16  H   LIG    1       26.398 -21.733   5.271  0.00  0.00    +0.122 HD
BRANCH  15  18
ATOM     17  C   LIG    1       24.347 -20.993   4.294  0.00  0.00    +0.024 C 
ATOM     18  C   LIG    1       24.750 -20.622   5.724  0.00  0.00    +0.048 C 
ATOM     19  C   LIG    1       23.552 -20.797   6.658  0.00  0.00    +0.024 C 
ENDBRANCH  15  18
ENDBRANCH  14  15
ENDBRANCH  11  14
ENDBRANCH   1  11
TORSDOF 7
ENDMDL
MODEL 6
REMARK VINA RESULT:      -7.0      4.141      6.003
REMARK  Name = *****
REMARK                            x       y       z     vdW  Elec       q    Type
REMARK                         _______ _______ _______ _____ _____    ______ ____
ROOT
ATOM      1  C   LIG    1       25.786 -21.952   7.477  0.00  0.00    -0.014 A 
ATOM      2  C   LIG    1       25.689 -23.316   7.156  0.00  0.00    +0.055 A 
ATOM      3  C   LIG    1       24.455 -23.869   6.843  0.00  0.00    +0.159 A 
ATOM      4  C   LIG    1       23.299 -23.103   6.874  0.00  0.00    +0.158 A 
ATOM      5  C   LIG    1       23.356 -21.764   7.234  0.00  0.00    +0.049 A 
ATOM      6  C   LIG    1       24.598 -21.196   7.540  0.00  0.00    +0.010 A 
ENDROOT
BRANCH   3   7
ATOM      7  O   LIG    1       24.399 -25.187   6.488  0.00  0.00    -0.503 OA
ATOM      8  H   LIG    1       25.143 -25.600   6.972  0.00  0.00    +0.292 HD
ENDBRANCH   3   7
BRANCH   4   9
ATOM      9  O   LIG    1       22.122 -23.714   6.540  0.00  0.00    -0.503 OA
ATOM     10  H   LIG    1       22.139 -24.615   6.905  0.00  0.00    +0.292 HD
ENDBRANCH   4   9
BRANCH   1  11
ATOM     11  C   LIG    1       27.127 -21.306   7.786  0.00  0.00    +0.158 C 
BRANCH  11  12
ATOM     12  O   LIG    1       26.945 -20.314   8.806  0.00  0.00    -0.386 OA
ATOM     13  H   LIG    1       27.118 -19.464   8.351  0.00  0.00    +0.210 HD
ENDBRANCH  11  12
BRANCH  11  14
ATOM     14  C   LIG    1       27.849 -20.622   6.590  0.00  0.00    +0.117 C 
BRANCH  14  15
ATOM     15  N   LIG    1       29.318 -20.786   6.670  0.00  0.00    -0.311 NA
ATOM     16  H   LIG    1       29.543 -21.290   7.531  0.00  0.00    +0.122 HD
BRANCH  15  18
ATOM     17  C   LIG    1       29.363 -18.556   5.685  0.00  0.00    +0.024 C 
ATOM     18  C   LIG    1       30.033 -19.499   6.690  0.00  0.00    +0.048 C 
ATOM     19  C   LIG    1       30.032 -18.857   8.078  0.00  0.00    +0.024 C 
ENDBRANCH  15  18
ENDBRANCH  14  15
ENDBRANCH  11  14
ENDBRANCH   1  11
TORSDOF 7
ENDMDL
MODEL 7
REMARK VINA RESULT:      -6.9      3.478      5.233
REMARK  Name = *****
REMARK                            x       y       z     vdW  Elec       q    Type
REMARK                         _______ _______ _______ _____ _____    ______ ____
ROOT
ATOM      1  C   LIG    1       25.321 -20.957   7.012  0.00  0.00    -0.014 A 
ATOM      2  C   LIG    1       25.862 -20.639   5.756  0.00  0.00    +0.055 A 
ATOM      3  C   LIG    1       25.038 -20.156   4.747  0.00  0.00    +0.159 A 
ATOM      4  C   LIG    1       23.673 -20.014   4.947  0.00  0.00    +0.158 A 
ATOM      5  C   LIG    1       23.101 -20.365   6.161  0.00  0.00    +0.049 A 
ATOM      6  C   LIG    1       23.928 -20.841   7.187  0.00  0.00    +0.010 A 
ENDROOT
BRANCH   3   7
ATOM      7  O   LIG    1       25.601 -19.809   3.552  0.00  0.00    -0.503 OA
ATOM      8  H   LIG    1       25.571 -18.830   3.546  0.00  0.00    +0.292 HD
ENDBRANCH   3   7
BRANCH   4   9
ATOM      9  O   LIG    1       22.928 -19.520   3.911  0.00  0.00    -0.503 OA
ATOM     10  H   LIG    1       23.017 -20.130   3.160  0.00  0.00    +0.292 HD
ENDBRANCH   4   9
BRANCH   1  11
ATOM     11  C   LIG    1       26.202 -21.449   8.149  0.00  0.00    +0.158 C 
BRANCH  11  12
ATOM     12  O   LIG    1       25.865 -20.732   9.346  0.00  0.00    -0.386 OA
ATOM     13  H   LIG    1       24.905 -20.885   9.459  0.00  0.00    +0.210 HD
ENDBRANCH  11  12
BRANCH  11  14
ATOM     14  C   LIG    1       27.736 -21.311   7.937  0.00  0.00    +0.117 C 
BRANCH  14  15
ATOM     15  N   LIG    1       28.235 -19.992   8.387  0.00  0.00    -0.311 NA
ATOM     16  H   LIG    1       27.535 -19.281   8.153  0.00  0.00    +0.122 HD
BRANCH  15  18
ATOM     17  C   LIG    1       29.214 -19.209   6.297  0.00  0.00    +0.024 C 
ATOM     18  C   LIG    1       29.505 -19.616   7.744  0.00  0.00    +0.048 C 
ATOM     19  C   LIG    1       30.204 -18.467   8.472  0.00  0.00    +0.024 C 
ENDBRANCH  15  18
ENDBRANCH  14  15
ENDBRANCH  11  14
ENDBRANCH   1  11
TORSDOF 7
ENDMDL
MODEL 8
REMARK VINA RESULT:      -6.9      6.474      8.113
REMARK  Name = *****
REMARK                            x       y       z     vdW  Elec       q    Type
REMARK                         _______ _______ _______ _____ _____    ______ ____
ROOT
ATOM      1  C   LIG    1       25.381 -23.133   7.132  0.00  0.00    -0.014 A 
ATOM      2  C   LIG    1       26.211 -24.179   6.698  0.00  0.00    +0.055 A 
ATOM      3  C   LIG    1       25.653 -25.334   6.167  0.00  0.00    +0.159 A 
ATOM      4  C   LIG    1       24.277 -25.492   6.088  0.00  0.00    +0.158 A 
ATOM      5  C   LIG    1       23.430 -24.496   6.553  0.00  0.00    +0.049 A 
ATOM      6  C   LIG    1       23.986 -23.323   7.078  0.00  0.00    +0.010 A 
ENDROOT
BRANCH   3   7
ATOM      7  O   LIG    1       26.487 -26.314   5.709  0.00  0.00    -0.503 OA
ATOM      8  H   LIG    1       26.592 -26.116   4.755  0.00  0.00    +0.292 HD
ENDBRANCH   3   7
BRANCH   4   9
ATOM      9  O   LIG    1       23.801 -26.651   5.540  0.00  0.00    -0.503 OA
ATOM     10  H   LIG    1       23.978 -27.373   6.167  0.00  0.00    +0.292 HD
ENDBRANCH   4   9
BRANCH   1  11
ATOM     11  C   LIG    1       25.962 -21.840   7.681  0.00  0.00    +0.158 C 
BRANCH  11  12
ATOM     12  O   LIG    1       25.520 -21.666   9.035  0.00  0.00    -0.386 OA
ATOM     13  H   LIG    1       24.564 -21.473   8.955  0.00  0.00    +0.210 HD
ENDBRANCH  11  12
BRANCH  11  14
ATOM     14  C   LIG    1       25.602 -20.542   6.901  0.00  0.00    +0.117 C 
BRANCH  14  15
ATOM     15  N   LIG    1       25.955 -20.649   5.468  0.00  0.00    -0.311 NA
ATOM     16  H   LIG    1       26.652 -19.931   5.249  0.00  0.00    +0.122 HD
BRANCH  15  18
ATOM     17  C   LIG    1       23.564 -20.178   5.448  0.00  0.00    +0.024 C 
ATOM     18  C   LIG    1       24.796 -20.450   4.582  0.00  0.00    +0.048 C 
ATOM     19  C   LIG    1       25.006 -19.292   3.605  0.00  0.00    +0.024 C 
ENDBRANCH  15  18
ENDBRANCH  14  15
ENDBRANCH  11  14
ENDBRANCH   1  11
TORSDOF 7
ENDMDL
MODEL 9
REMARK VINA RESULT:      -6.9      2.232      3.176
REMARK  Name = *****
REMARK                            x       y       z     vdW  Elec       q    Type
REMARK                         _______ _______ _______ _____ _____    ______ ____
ROOT
ATOM      1  C   LIG    1       28.402 -20.054   6.929  0.00  0.00    -0.014 A 
ATOM      2  C   LIG    1       27.754 -20.241   8.162  0.00  0.00    +0.055 A 
ATOM      3  C   LIG    1       26.400 -20.541   8.196  0.00  0.00    +0.159 A 
ATOM      4  C   LIG    1       25.657 -20.627   7.027  0.00  0.00    +0.158 A 
ATOM      5  C   LIG    1       26.257 -20.401   5.797  0.00  0.00    +0.049 A 
ATOM      6  C   LIG    1       27.626 -20.110   5.754  0.00  0.00    +0.010 A 
ENDROOT
BRANCH   3   7
ATOM      7  O   LIG    1       25.809 -20.765   9.406  0.00  0.00    -0.503 OA
ATOM      8  H   LIG    1       26.438 -21.348   9.879  0.00  0.00    +0.292 HD
ENDBRANCH   3   7
BRANCH   4   9
ATOM      9  O   LIG    1       24.330 -20.941   7.139  0.00  0.00    -0.503 OA
ATOM     10  H   LIG    1       24.106 -20.958   8.085  0.00  0.00    +0.292 HD
ENDBRANCH   4   9
BRANCH   1  11
ATOM     11  C   LIG    1       29.892 -19.764   6.856  0.00  0.00    +0.158 C 
BRANCH  11  12
ATOM     12  O   LIG    1       30.597 -20.736   7.642  0.00  0.00    -0.386 OA
ATOM     13  H   LIG    1       30.062 -21.550   7.557  0.00  0.00    +0.210 HD
ENDBRANCH  11  12
BRANCH  11  14
ATOM     14  C   LIG    1       30.341 -18.355   7.341  0.00  0.00    +0.117 C 
BRANCH  14  15
ATOM     15  N   LIG    1       31.681 -18.393   7.968  0.00  0.00    -0.311 NA
ATOM     16  H   LIG    1       31.991 -19.367   8.017  0.00  0.00    +0.122 HD
BRANCH  15  18
ATOM     17  C   LIG    1       32.374 -16.473   9.300  0.00  0.00    +0.024 C 
ATOM     18  C   LIG    1       31.684 -17.840   9.332  0.00  0.00    +0.048 C 
ATOM     19  C   LIG    1       30.273 -17.691   9.901  0.00  0.00    +0.024 C 
ENDBRANCH  15  18
ENDBRANCH  14  15
ENDBRANCH  11  14
ENDBRANCH   1  11
TORSDOF 7
ENDMDL
