MODEL 1
REMARK VINA RESULT:      -7.3      0.000      0.000
REMARK  Name = *****
REMARK                            x       y       z     vdW  Elec       q    Type
REMARK                         _______ _______ _______ _____ _____    ______ ____
ROOT
ATOM      1  N   LIG    1       27.189 -22.523   6.899  0.00  0.00    -0.310 N 
ATOM      2  H   LIG    1       27.576 -22.565   5.965  0.00  0.00    +0.149 HD
ATOM      3  C   LIG    1       27.548 -21.475   7.746  0.00  0.00    +0.251 C 
ATOM      4  O   LIG    1       27.071 -21.345   8.851  0.00  0.00    -0.270 OA
ENDROOT
BRANCH   3   5
ATOM      5  C   LIG    1       28.569 -20.507   7.183  0.00  0.00    +0.121 A 
ATOM      6  C   LIG    1       29.693 -20.107   7.937  0.00  0.00    +0.150 A 
ATOM      7  C   LIG    1       30.412 -18.964   7.534  0.00  0.00    +0.060 A 
ATOM      8 BR   LIG    1       31.803 -18.220   8.597  0.00  0.00    -0.046 Br
ATOM      9  C   LIG    1       30.118 -18.312   6.336  0.00  0.00    +0.022 A 
ATOM     10  C   LIG    1       29.128 -18.821   5.506  0.00  0.00    +0.048 A 
ATOM     11  C   LIG    1       28.359 -19.926   5.906  0.00  0.00    +0.136 A 
BRANCH   6  12
ATOM     12  O   LIG    1       30.134 -20.733   9.084  0.00  0.00    -0.493 OA
ATOM     13  C   LIG    1       31.065 -21.813   8.913  0.00  0.00    +0.277 C 
ENDBRANCH   6  12
BRANCH  11  14
ATOM     14  O   LIG    1       27.365 -20.412   5.092  0.00  0.00    -0.494 OA
ATOM     15  C   LIG    1       26.180 -19.618   5.016  0.00  0.00    +0.277 C 
ENDBRANCH  11  14
ENDBRANCH   3   5
BRANCH   1  16
ATOM     16  C   LIG    1       26.215 -23.549   7.245  0.00  0.00    +0.123 C 
BRANCH  16  18
ATOM     17  N   LIG    1       23.876 -24.476   6.715  0.00  0.00    -0.298 NA
ATOM     18  C   LIG    1       24.829 -23.339   6.603  0.00  0.00    +0.074 C 
ATOM     19  C   LIG    1       24.064 -22.199   7.271  0.00  0.00    +0.021 C 
ATOM     20  C   LIG    1       22.665 -22.390   6.742  0.00  0.00    +0.017 C 
ATOM     21  C   LIG    1       22.519 -23.897   6.648  0.00  0.00    +0.085 C 
BRANCH  17  23
ATOM     22  C   LIG    1       24.500 -26.849   6.275  0.00  0.00    +0.020 C 
ATOM     23  C   LIG    1       24.062 -25.506   5.682  0.00  0.00    +0.081 C 
ENDBRANCH  17  23
ENDBRANCH  16  18
ENDBRANCH   1  16
TORSDOF 6
ENDMDL
MODEL 2
REMARK VINA RESULT:      -7.3      0.924      1.926
REMARK  Name = *****
REMARK                            x       y       z     vdW  Elec       q    Type
REMARK                         _______ _______ _______ _____ _____    ______ ____
ROOT
ATOM      1  N   LIG    1       26.945 -22.424   7.427  0.00  0.00    -0.310 N 
ATOM      2  H   LIG    1       27.385 -22.692   6.556  0.00  0.00    +0.149 HD
ATOM      3  C   LIG    1       27.217 -21.174   7.979  0.00  0.00    +0.251 C 
ATOM      4  O   LIG    1       26.673 -20.780   8.987  0.00  0.00    -0.270 OA
ENDROOT
BRANCH   3   5
ATOM      5  C   LIG    1       28.233 -20.339   7.226  0.00  0.00    +0.121 A 
ATOM      6  C   LIG    1       29.457 -19.963   7.820  0.00  0.00    +0.150 A 
ATOM      7  C   LIG    1       30.203 -18.918   7.240  0.00  0.00    +0.060 A 
ATOM      8 BR   LIG    1       31.748 -18.194   8.081  0.00  0.00    -0.046 Br
ATOM      9  C   LIG    1       29.824 -18.352   6.023  0.00  0.00    +0.022 A 
ATOM     10  C   LIG    1       28.718 -18.853   5.350  0.00  0.00    +0.048 A 
ATOM     11  C   LIG    1       27.924 -19.856   5.929  0.00  0.00    +0.136 A 
BRANCH   6  12
ATOM     12  O   LIG    1       29.977 -20.520   8.970  0.00  0.00    -0.493 OA
ATOM     13  C   LIG    1       30.811 -21.677   8.807  0.00  0.00    +0.277 C 
ENDBRANCH   6  12
BRANCH  11  14
ATOM     14  O   LIG    1       26.818 -20.333   5.271  0.00  0.00    -0.494 OA
ATOM     15  C   LIG    1       26.192 -19.422   4.365  0.00  0.00    +0.277 C 
ENDBRANCH  11  14
ENDBRANCH   3   5
BRANCH   1  16
ATOM     16  C   LIG    1       25.989 -23.370   7.989  0.00  0.00    +0.123 C 
BRANCH  16  18
ATOM     17  N   LIG    1       25.053 -23.489   5.597  0.00  0.00    -0.298 NA
ATOM     18  C   LIG    1       25.173 -24.139   6.930  0.00  0.00    +0.074 C 
ATOM     19  C   LIG    1       25.815 -25.481   6.587  0.00  0.00    +0.021 C 
ATOM     20  C   LIG    1       25.076 -25.887   5.338  0.00  0.00    +0.017 C 
ATOM     21  C   LIG    1       24.839 -24.574   4.617  0.00  0.00    +0.085 C 
BRANCH  17  23
ATOM     22  C   LIG    1       22.902 -22.713   6.589  0.00  0.00    +0.020 C 
ATOM     23  C   LIG    1       23.978 -22.490   5.521  0.00  0.00    +0.081 C 
ENDBRANCH  17  23
ENDBRANCH  16  18
ENDBRANCH   1  16
TORSDOF 6
ENDMDL
MODEL 3
REMARK VINA RESULT:      -6.9      2.897      6.969
REMARK  Name = *****
REMARK                            x       y       z     vdW  Elec       q    Type
REMARK                         _______ _______ _______ _____ _____    ______ ____
ROOT
ATOM      1  N   LIG    1       26.666 -21.158   7.437  0.00  0.00    -0.310 N 
ATOM      2  H   LIG    1       26.170 -20.280   7.353  0.00  0.00    +0.149 HD
ATOM      3  C   LIG    1       26.102 -22.320   6.914  0.00  0.00    +0.251 C 
ATOM      4  O   LIG    1       26.678 -23.385   6.936  0.00  0.00    -0.270 OA
ENDROOT
BRANCH   3   5
ATOM      5  C   LIG    1       24.723 -22.155   6.307  0.00  0.00    +0.121 A 
ATOM      6  C   LIG    1       24.353 -20.966   5.641  0.00  0.00    +0.150 A 
ATOM      7  C   LIG    1       22.987 -20.713   5.408  0.00  0.00    +0.060 A 
ATOM      8 BR   LIG    1       22.372 -19.051   4.717  0.00  0.00    -0.046 Br
ATOM      9  C   LIG    1       22.017 -21.674   5.694  0.00  0.00    +0.022 A 
ATOM     10  C   LIG    1       22.406 -22.916   6.179  0.00  0.00    +0.048 A 
ATOM     11  C   LIG    1       23.754 -23.177   6.472  0.00  0.00    +0.136 A 
BRANCH   6  12
ATOM     12  O   LIG    1       25.235 -19.990   5.226  0.00  0.00    -0.493 OA
ATOM     13  C   LIG    1       25.544 -19.953   3.825  0.00  0.00    +0.277 C 
ENDBRANCH   6  12
BRANCH  11  14
ATOM     14  O   LIG    1       24.132 -24.399   6.973  0.00  0.00    -0.494 OA
ATOM     15  C   LIG    1       24.082 -25.491   6.053  0.00  0.00    +0.277 C 
ENDBRANCH  11  14
ENDBRANCH   3   5
BRANCH   1  16
ATOM     16  C   LIG    1       27.987 -21.101   8.050  0.00  0.00    +0.123 C 
BRANCH  16  18
ATOM     17  N   LIG    1       30.316 -20.110   7.596  0.00  0.00    -0.298 NA
ATOM     18  C   LIG    1       28.842 -19.906   7.583  0.00  0.00    +0.074 C 
ATOM     19  C   LIG    1       28.570 -19.552   6.123  0.00  0.00    +0.021 C 
ATOM     20  C   LIG    1       29.713 -18.626   5.792  0.00  0.00    +0.017 C 
ATOM     21  C   LIG    1       30.878 -19.197   6.579  0.00  0.00    +0.085 C 
BRANCH  17  23
ATOM     22  C   LIG    1       30.710 -18.451   9.414  0.00  0.00    +0.020 C 
ATOM     23  C   LIG    1       30.933 -19.881   8.910  0.00  0.00    +0.081 C 
ENDBRANCH  17  23
ENDBRANCH  16  18
ENDBRANCH   1  16
TORSDOF 6
ENDMDL
MODEL 4
REMARK VINA RESULT:      -6.8      1.369      1.913
REMARK  Name = *****
REMARK                            x       y       z     vdW  Elec       q    Type
REMARK                         _______ _______ _______ _____ _____    ______ ____
ROOT
ATOM      1  N   LIG    1       26.897 -22.762   6.906  0.00  0.00    -0.310 N 
ATOM      2  H   LIG    1       27.256 -22.797   5.961  0.00  0.00    +0.149 HD
ATOM      3  C   LIG    1       27.249 -21.700   7.738  0.00  0.00    +0.251 C 
ATOM      4  O   LIG    1       26.801 -21.579   8.856  0.00  0.00    -0.270 OA
ENDROOT
BRANCH   3   5
ATOM      5  C   LIG    1       28.224 -20.705   7.141  0.00  0.00    +0.121 A 
ATOM      6  C   LIG    1       29.381 -20.302   7.842  0.00  0.00    +0.150 A 
ATOM      7  C   LIG    1       30.060 -19.140   7.426  0.00  0.00    +0.060 A 
ATOM      8 BR   LIG    1       31.495 -18.396   8.428  0.00  0.00    -0.046 Br
ATOM      9  C   LIG    1       29.692 -18.470   6.259  0.00  0.00    +0.022 A 
ATOM     10  C   LIG    1       28.667 -18.978   5.472  0.00  0.00    +0.048 A 
ATOM     11  C   LIG    1       27.937 -20.102   5.890  0.00  0.00    +0.136 A 
BRANCH   6  12
ATOM     12  O   LIG    1       29.892 -20.943   8.952  0.00  0.00    -0.493 OA
ATOM     13  C   LIG    1       30.981 -21.852   8.727  0.00  0.00    +0.277 C 
ENDBRANCH   6  12
BRANCH  11  14
ATOM     14  O   LIG    1       26.908 -20.588   5.121  0.00  0.00    -0.494 OA
ATOM     15  C   LIG    1       25.943 -19.625   4.693  0.00  0.00    +0.277 C 
ENDBRANCH  11  14
ENDBRANCH   3   5
BRANCH   1  16
ATOM     16  C   LIG    1       25.964 -23.814   7.285  0.00  0.00    +0.123 C 
BRANCH  16  18
ATOM     17  N   LIG    1       25.305 -26.254   6.809  0.00  0.00    -0.298 NA
ATOM     18  C   LIG    1       25.925 -25.001   6.301  0.00  0.00    +0.074 C 
ATOM     19  C   LIG    1       25.076 -24.687   5.071  0.00  0.00    +0.021 C 
ATOM     20  C   LIG    1       24.900 -26.045   4.440  0.00  0.00    +0.017 C 
ATOM     21  C   LIG    1       24.797 -26.983   5.629  0.00  0.00    +0.085 C 
BRANCH  17  23
ATOM     22  C   LIG    1       25.630 -28.472   7.900  0.00  0.00    +0.020 C 
ATOM     23  C   LIG    1       26.224 -27.093   7.592  0.00  0.00    +0.081 C 
ENDBRANCH  17  23
ENDBRANCH  16  18
ENDBRANCH   1  16
TORSDOF 6
ENDMDL
MODEL 5
REMARK VINA RESULT:      -6.7      2.824      6.746
REMARK  Name = *****
REMARK                            x       y       z     vdW  Elec       q    Type
REMARK                         _______ _______ _______ _____ _____    ______ ____
ROOT
ATOM      1  N   LIG    1       27.929 -20.928   6.156  0.00  0.00    -0.310 N 
ATOM      2  H   LIG    1       27.581 -20.742   5.224  0.00  0.00    +0.149 HD
ATOM      3  C   LIG    1       27.089 -21.517   7.100  0.00  0.00    +0.251 C 
ATOM      4  O   LIG    1       27.472 -21.814   8.210  0.00  0.00    -0.270 OA
ENDROOT
BRANCH   3   5
ATOM      5  C   LIG    1       25.668 -21.766   6.638  0.00  0.00    +0.121 A 
ATOM      6  C   LIG    1       24.949 -20.788   5.917  0.00  0.00    +0.150 A 
ATOM      7  C   LIG    1       23.549 -20.908   5.815  0.00  0.00    +0.060 A 
ATOM      8 BR   LIG    1       22.471 -19.537   5.056  0.00  0.00    -0.046 Br
ATOM      9  C   LIG    1       22.887 -22.041   6.289  0.00  0.00    +0.022 A 
ATOM     10  C   LIG    1       23.622 -23.086   6.833  0.00  0.00    +0.048 A 
ATOM     11  C   LIG    1       25.012 -22.971   6.997  0.00  0.00    +0.136 A 
BRANCH   6  12
ATOM     12  O   LIG    1       25.512 -19.676   5.324  0.00  0.00    -0.493 OA
ATOM     13  C   LIG    1       25.584 -19.677   3.891  0.00  0.00    +0.277 C 
ENDBRANCH   6  12
BRANCH  11  14
ATOM     14  O   LIG    1       25.733 -23.998   7.556  0.00  0.00    -0.494 OA
ATOM     15  C   LIG    1       25.881 -25.166   6.748  0.00  0.00    +0.277 C 
ENDBRANCH  11  14
ENDBRANCH   3   5
BRANCH   1  16
ATOM     16  C   LIG    1       29.333 -20.621   6.398  0.00  0.00    +0.123 C 
BRANCH  16  18
ATOM     17  N   LIG    1       30.839 -20.154   8.428  0.00  0.00    -0.298 NA
ATOM     18  C   LIG    1       29.586 -19.828   7.696  0.00  0.00    +0.074 C 
ATOM     19  C   LIG    1       29.740 -18.334   7.424  0.00  0.00    +0.021 C 
ATOM     20  C   LIG    1       30.302 -17.821   8.726  0.00  0.00    +0.017 C 
ATOM     21  C   LIG    1       31.206 -18.945   9.195  0.00  0.00    +0.085 C 
BRANCH  17  23
ATOM     22  C   LIG    1       31.618 -22.482   8.863  0.00  0.00    +0.020 C 
ATOM     23  C   LIG    1       30.721 -21.323   9.311  0.00  0.00    +0.081 C 
ENDBRANCH  17  23
ENDBRANCH  16  18
ENDBRANCH   1  16
TORSDOF 6
ENDMDL
MODEL 6
REMARK VINA RESULT:      -6.5      2.607      4.451
REMARK  Name = *****
REMARK                            x       y       z     vdW  Elec       q    Type
REMARK                         _______ _______ _______ _____ _____    ______ ____
ROOT
ATOM      1  N   LIG    1       25.963 -23.824   6.859  0.00  0.00    -0.310 N 
ATOM      2  H   LIG    1       26.045 -23.774   5.852  0.00  0.00    +0.149 HD
ATOM      3  C   LIG    1       26.118 -22.666   7.620  0.00  0.00    +0.251 C 
ATOM      4  O   LIG    1       25.973 -22.659   8.822  0.00  0.00    -0.270 OA
ENDROOT
BRANCH   3   5
ATOM      5  C   LIG    1       26.471 -21.418   6.837  0.00  0.00    +0.121 A 
ATOM      6  C   LIG    1       25.580 -20.873   5.888  0.00  0.00    +0.150 A 
ATOM      7  C   LIG    1       26.071 -19.945   4.947  0.00  0.00    +0.060 A 
ATOM      8 BR   LIG    1       25.009 -19.320   3.498  0.00  0.00    -0.046 Br
ATOM      9  C   LIG    1       27.375 -19.458   5.029  0.00  0.00    +0.022 A 
ATOM     10  C   LIG    1       28.192 -19.860   6.078  0.00  0.00    +0.048 A 
ATOM     11  C   LIG    1       27.748 -20.823   6.998  0.00  0.00    +0.136 A 
BRANCH   6  12
ATOM     12  O   LIG    1       24.247 -21.209   5.775  0.00  0.00    -0.493 OA
ATOM     13  C   LIG    1       23.355 -20.644   6.748  0.00  0.00    +0.277 C 
ENDBRANCH   6  12
BRANCH  11  14
ATOM     14  O   LIG    1       28.567 -21.236   8.021  0.00  0.00    -0.494 OA
ATOM     15  C   LIG    1       29.905 -20.734   7.987  0.00  0.00    +0.277 C 
ENDBRANCH  11  14
ENDBRANCH   3   5
BRANCH   1  16
ATOM     16  C   LIG    1       25.610 -25.122   7.418  0.00  0.00    +0.123 C 
BRANCH  16  18
ATOM     17  N   LIG    1       25.102 -27.528   6.667  0.00  0.00    -0.298 NA
ATOM     18  C   LIG    1       25.943 -26.312   6.496  0.00  0.00    +0.074 C 
ATOM     19  C   LIG    1       25.726 -25.965   5.025  0.00  0.00    +0.021 C 
ATOM     20  C   LIG    1       25.773 -27.317   4.359  0.00  0.00    +0.017 C 
ATOM     21  C   LIG    1       25.119 -28.238   5.372  0.00  0.00    +0.085 C 
BRANCH  17  23
ATOM     22  C   LIG    1       24.762 -29.721   7.802  0.00  0.00    +0.020 C 
ATOM     23  C   LIG    1       25.548 -28.407   7.757  0.00  0.00    +0.081 C 
ENDBRANCH  17  23
ENDBRANCH  16  18
ENDBRANCH   1  16
TORSDOF 6
ENDMDL
MODEL 7
REMARK VINA RESULT:      -6.3      3.228      6.686
REMARK  Name = *****
REMARK                            x       y       z     vdW  Elec       q    Type
REMARK                         _______ _______ _______ _____ _____    ______ ____
ROOT
ATOM      1  N   LIG    1       27.205 -20.327   6.034  0.00  0.00    -0.310 N 
ATOM      2  H   LIG    1       27.056 -20.900   6.855  0.00  0.00    +0.149 HD
ATOM      3  C   LIG    1       26.147 -20.092   5.158  0.00  0.00    +0.251 C 
ATOM      4  O   LIG    1       26.255 -19.366   4.194  0.00  0.00    -0.270 OA
ENDROOT
BRANCH   3   5
ATOM      5  C   LIG    1       24.851 -20.798   5.501  0.00  0.00    +0.121 A 
ATOM      6  C   LIG    1       24.850 -22.083   6.085  0.00  0.00    +0.150 A 
ATOM      7  C   LIG    1       23.661 -22.840   6.063  0.00  0.00    +0.060 A 
ATOM      8 BR   LIG    1       23.611 -24.656   6.625  0.00  0.00    -0.046 Br
ATOM      9  C   LIG    1       22.464 -22.288   5.606  0.00  0.00    +0.022 A 
ATOM     10  C   LIG    1       22.432 -20.959   5.203  0.00  0.00    +0.048 A 
ATOM     11  C   LIG    1       23.611 -20.198   5.163  0.00  0.00    +0.136 A 
BRANCH   6  12
ATOM     12  O   LIG    1       25.950 -22.691   6.652  0.00  0.00    -0.493 OA
ATOM     13  C   LIG    1       26.111 -22.539   8.071  0.00  0.00    +0.277 C 
ENDBRANCH   6  12
BRANCH  11  14
ATOM     14  O   LIG    1       23.580 -18.891   4.743  0.00  0.00    -0.494 OA
ATOM     15  C   LIG    1       22.286 -18.365   4.441  0.00  0.00    +0.277 C 
ENDBRANCH  11  14
ENDBRANCH   3   5
BRANCH   1  16
ATOM     16  C   LIG    1       28.527 -19.732   5.890  0.00  0.00    +0.123 C 
BRANCH  16  18
ATOM     17  N   LIG    1       30.335 -20.287   7.631  0.00  0.00    -0.298 NA
ATOM     18  C   LIG    1       29.212 -19.397   7.230  0.00  0.00    +0.074 C 
ATOM     19  C   LIG    1       29.876 -18.022   7.197  0.00  0.00    +0.021 C 
ATOM     20  C   LIG    1       30.742 -18.047   8.431  0.00  0.00    +0.017 C 
ATOM     21  C   LIG    1       31.215 -19.487   8.508  0.00  0.00    +0.085 C 
BRANCH  17  23
ATOM     22  C   LIG    1       30.983 -22.091   9.226  0.00  0.00    +0.020 C 
ATOM     23  C   LIG    1       29.901 -21.520   8.303  0.00  0.00    +0.081 C 
ENDBRANCH  17  23
ENDBRANCH  16  18
ENDBRANCH   1  16
TORSDOF 6
ENDMDL
MODEL 8
REMARK VINA RESULT:      -6.1      3.370      6.475
REMARK  Name = *****
REMARK                            x       y       z     vdW  Elec       q    Type
REMARK                         _______ _______ _______ _____ _____    ______ ____
ROOT
ATOM      1  N   LIG    1       28.301 -20.691   6.199  0.00  0.00    -0.310 N 
ATOM      2  H   LIG    1       27.848 -21.491   6.622  0.00  0.00    +0.149 HD
ATOM      3  C   LIG    1       27.548 -19.794   5.442  0.00  0.00    +0.251 C 
ATOM      4  O   LIG    1       28.028 -18.791   4.964  0.00  0.00    -0.270 OA
ENDROOT
BRANCH   3   5
ATOM      5  C   LIG    1       26.087 -20.158   5.269  0.00  0.00    +0.121 A 
ATOM      6  C   LIG    1       25.446 -21.052   6.153  0.00  0.00    +0.150 A 
ATOM      7  C   LIG    1       24.220 -21.631   5.767  0.00  0.00    +0.060 A 
ATOM      8 BR   LIG    1       23.387 -23.005   6.784  0.00  0.00    -0.046 Br
ATOM      9  C   LIG    1       23.570 -21.229   4.600  0.00  0.00    +0.022 A 
ATOM     10  C   LIG    1       24.117 -20.213   3.826  0.00  0.00    +0.048 A 
ATOM     11  C   LIG    1       25.364 -19.657   4.157  0.00  0.00    +0.136 A 
BRANCH   6  12
ATOM     12  O   LIG    1       25.949 -21.448   7.375  0.00  0.00    -0.493 OA
ATOM     13  C   LIG    1       25.722 -20.563   8.483  0.00  0.00    +0.277 C 
ENDBRANCH   6  12
BRANCH  11  14
ATOM     14  O   LIG    1       25.912 -18.669   3.378  0.00  0.00    -0.494 OA
ATOM     15  C   LIG    1       25.237 -17.409   3.403  0.00  0.00    +0.277 C 
ENDBRANCH  11  14
ENDBRANCH   3   5
BRANCH   1  16
ATOM     16  C   LIG    1       29.717 -20.516   6.494  0.00  0.00    +0.123 C 
BRANCH  16  18
ATOM     17  N   LIG    1       31.419 -20.001   8.351  0.00  0.00    -0.298 NA
ATOM     18  C   LIG    1       29.998 -19.971   7.909  0.00  0.00    +0.074 C 
ATOM     19  C   LIG    1       29.648 -18.489   8.023  0.00  0.00    +0.021 C 
ATOM     20  C   LIG    1       30.300 -18.099   9.325  0.00  0.00    +0.017 C 
ATOM     21  C   LIG    1       31.572 -18.926   9.353  0.00  0.00    +0.085 C 
BRANCH  17  23
ATOM     22  C   LIG    1       30.680 -22.051   9.562  0.00  0.00    +0.020 C 
ATOM     23  C   LIG    1       31.839 -21.298   8.901  0.00  0.00    +0.081 C 
ENDBRANCH  17  23
ENDBRANCH  16  18
ENDBRANCH   1  16
TORSDOF 6
ENDMDL
MODEL 9
REMARK VINA RESULT:      -6.0      5.696      9.235
REMARK  Name = *****
REMARK                            x       y       z     vdW  Elec       q    Type
REMARK                         _______ _______ _______ _____ _____    ______ ____
ROOT
ATOM      1  N   LIG    1       26.059 -27.134   7.048  0.00  0.00    -0.310 N 
ATOM      2  H   LIG    1       26.601 -27.213   7.899  0.00  0.00    +0.149 HD
ATOM      3  C   LIG    1       25.225 -28.184   6.665  0.00  0.00    +0.251 C 
ATOM      4  O   LIG    1       24.511 -28.118   5.689  0.00  0.00    -0.270 OA
ENDROOT
BRANCH   3   5
ATOM      5  C   LIG    1       25.267 -29.406   7.559  0.00  0.00    +0.121 A 
ATOM      6  C   LIG    1       24.755 -30.648   7.126  0.00  0.00    +0.150 A 
ATOM      7  C   LIG    1       24.491 -31.648   8.084  0.00  0.00    +0.060 A 
ATOM      8 BR   LIG    1       23.604 -33.268   7.634  0.00  0.00    -0.046 Br
ATOM      9  C   LIG    1       24.857 -31.480   9.420  0.00  0.00    +0.022 A 
ATOM     10  C   LIG    1       25.529 -30.327   9.806  0.00  0.00    +0.048 A 
ATOM     11  C   LIG    1       25.756 -29.292   8.885  0.00  0.00    +0.136 A 
BRANCH   6  12
ATOM     12  O   LIG    1       24.446 -30.960   5.818  0.00  0.00    -0.493 OA
ATOM     13  C   LIG    1       25.522 -31.445   5.000  0.00  0.00    +0.277 C 
ENDBRANCH   6  12
BRANCH  11  14
ATOM     14  O   LIG    1       26.401 -28.144   9.276  0.00  0.00    -0.494 OA
ATOM     15  C   LIG    1       26.828 -28.103  10.639  0.00  0.00    +0.277 C 
ENDBRANCH  11  14
ENDBRANCH   3   5
BRANCH   1  16
ATOM     16  C   LIG    1       26.153 -25.869   6.333  0.00  0.00    +0.123 C 
BRANCH  16  18
ATOM     17  N   LIG    1       25.531 -23.377   6.458  0.00  0.00    -0.298 NA
ATOM     18  C   LIG    1       25.220 -24.769   6.880  0.00  0.00    +0.074 C 
ATOM     19  C   LIG    1       23.786 -24.951   6.390  0.00  0.00    +0.021 C 
ATOM     20  C   LIG    1       23.150 -23.630   6.744  0.00  0.00    +0.017 C 
ATOM     21  C   LIG    1       24.262 -22.624   6.519  0.00  0.00    +0.085 C 
BRANCH  17  23
ATOM     22  C   LIG    1       25.979 -21.744   8.288  0.00  0.00    +0.020 C 
ATOM     23  C   LIG    1       26.569 -22.730   7.273  0.00  0.00    +0.081 C 
ENDBRANCH  17  23
ENDBRANCH  16  18
ENDBRANCH   1  16
TORSDOF 6
ENDMDL
