MODEL 1
REMARK VINA RESULT:     -10.5      0.000      0.000
REMARK  Name = *****
REMARK                            x       y       z     vdW  Elec       q    Type
REMARK                         _______ _______ _______ _____ _____    ______ ____
ROOT
ATOM      1  C   LIG    1       24.014 -19.517   3.628  0.00  0.00    +0.105 C 
ATOM      2  N   LIG    1       23.594 -20.724   4.375  0.00  0.00    -0.304 NA
ATOM      3  C   LIG    1       24.867 -21.385   4.696  0.00  0.00    +0.093 C 
ATOM      4  C   LIG    1       25.206 -20.626   6.006  0.00  0.00    +0.045 C 
ATOM      5  C   LIG    1       24.025 -21.040   6.863  0.00  0.00    +0.045 C 
ATOM      6  C   LIG    1       24.153 -22.548   7.125  0.00  0.00    -0.000 A 
ATOM      7  C   LIG    1       25.422 -23.164   7.291  0.00  0.00    +0.132 A 
ATOM      8  O   LIG    1       26.543 -22.562   7.826  0.00  0.00    -0.456 OA
ATOM      9  C   LIG    1       27.234 -21.612   7.122  0.00  0.00    +0.132 A 
ATOM     10  C   LIG    1       28.616 -21.545   7.262  0.00  0.00    +0.048 A 
ATOM     11  C   LIG    1       29.385 -20.505   6.701  0.00  0.00    +0.023 A 
ATOM     12  C   LIG    1       28.732 -19.479   6.017  0.00  0.00    +0.042 A 
ATOM     13 CL   LIG    1       29.599 -18.138   5.377  0.00  0.00    -0.084 Cl
ATOM     14  C   LIG    1       27.385 -19.550   5.853  0.00  0.00    +0.027 A 
ATOM     15  C   LIG    1       25.596 -24.508   6.947  0.00  0.00    +0.046 A 
ATOM     16  C   LIG    1       24.524 -25.260   6.474  0.00  0.00    +0.004 A 
ATOM     17  C   LIG    1       23.246 -24.710   6.469  0.00  0.00    +0.001 A 
ATOM     18  C   LIG    1       23.051 -23.374   6.828  0.00  0.00    +0.007 A 
ATOM     19  C   LIG    1       26.615 -20.629   6.364  0.00  0.00    +0.001 A 
ATOM     20  C   LIG    1       22.984 -20.516   5.761  0.00  0.00    +0.093 C 
ENDROOT
TORSDOF 0
ENDMDL
MODEL 2
REMARK VINA RESULT:      -8.1      2.830      5.080
REMARK  Name = *****
REMARK                            x       y       z     vdW  Elec       q    Type
REMARK                         _______ _______ _______ _____ _____    ______ ____
ROOT
ATOM      1  C   LIG    1       28.028 -21.402   7.068  0.00  0.00    +0.105 C 
ATOM      2  N   LIG    1       26.726 -20.724   6.880  0.00  0.00    -0.304 NA
ATOM      3  C   LIG    1       25.944 -21.702   6.108  0.00  0.00    +0.093 C 
ATOM      4  C   LIG    1       25.394 -22.549   7.284  0.00  0.00    +0.045 C 
ATOM      5  C   LIG    1       24.581 -21.496   8.011  0.00  0.00    +0.045 C 
ATOM      6  C   LIG    1       23.408 -21.109   7.098  0.00  0.00    -0.000 A 
ATOM      7  C   LIG    1       22.775 -22.068   6.263  0.00  0.00    +0.132 A 
ATOM      8  O   LIG    1       22.647 -23.414   6.540  0.00  0.00    -0.456 OA
ATOM      9  C   LIG    1       23.729 -24.250   6.470  0.00  0.00    +0.132 A 
ATOM     10  C   LIG    1       23.540 -25.558   6.036  0.00  0.00    +0.048 A 
ATOM     11  C   LIG    1       24.563 -26.528   6.083  0.00  0.00    +0.023 A 
ATOM     12  C   LIG    1       25.798 -26.176   6.626  0.00  0.00    +0.042 A 
ATOM     13 CL   LIG    1       27.065 -27.330   6.788  0.00  0.00    -0.084 Cl
ATOM     14  C   LIG    1       26.000 -24.894   7.029  0.00  0.00    +0.027 A 
ATOM     15  C   LIG    1       22.166 -21.662   5.071  0.00  0.00    +0.046 A 
ATOM     16  C   LIG    1       22.146 -20.317   4.711  0.00  0.00    +0.004 A 
ATOM     17  C   LIG    1       22.615 -19.358   5.603  0.00  0.00    +0.001 A 
ATOM     18  C   LIG    1       23.209 -19.744   6.807  0.00  0.00    +0.007 A 
ATOM     19  C   LIG    1       24.992 -23.899   6.925  0.00  0.00    +0.001 A 
ATOM     20  C   LIG    1       25.853 -20.524   8.118  0.00  0.00    +0.093 C 
ENDROOT
TORSDOF 0
ENDMDL
MODEL 3
REMARK VINA RESULT:      -8.0      2.002      3.872
REMARK  Name = *****
REMARK                            x       y       z     vdW  Elec       q    Type
REMARK                         _______ _______ _______ _____ _____    ______ ____
ROOT
ATOM      1  C   LIG    1       25.553 -22.130   9.104  0.00  0.00    +0.105 C 
ATOM      2  N   LIG    1       24.573 -21.848   8.031  0.00  0.00    -0.304 NA
ATOM      3  C   LIG    1       25.078 -20.606   7.429  0.00  0.00    +0.093 C 
ATOM      4  C   LIG    1       26.084 -21.220   6.422  0.00  0.00    +0.045 C 
ATOM      5  C   LIG    1       25.133 -22.022   5.555  0.00  0.00    +0.045 C 
ATOM      6  C   LIG    1       24.240 -21.022   4.805  0.00  0.00    -0.000 A 
ATOM      7  C   LIG    1       24.743 -19.769   4.365  0.00  0.00    +0.132 A 
ATOM      8  O   LIG    1       26.046 -19.515   3.985  0.00  0.00    -0.456 OA
ATOM      9  C   LIG    1       27.048 -19.451   4.916  0.00  0.00    +0.132 A 
ATOM     10  C   LIG    1       28.093 -18.555   4.716  0.00  0.00    +0.048 A 
ATOM     11  C   LIG    1       29.241 -18.533   5.536  0.00  0.00    +0.023 A 
ATOM     12  C   LIG    1       29.353 -19.474   6.560  0.00  0.00    +0.042 A 
ATOM     13 CL   LIG    1       30.760 -19.558   7.547  0.00  0.00    -0.084 Cl
ATOM     14  C   LIG    1       28.325 -20.336   6.778  0.00  0.00    +0.027 A 
ATOM     15  C   LIG    1       23.880 -18.676   4.237  0.00  0.00    +0.046 A 
ATOM     16  C   LIG    1       22.521 -18.815   4.504  0.00  0.00    +0.004 A 
ATOM     17  C   LIG    1       21.997 -20.076   4.772  0.00  0.00    +0.001 A 
ATOM     18  C   LIG    1       22.842 -21.183   4.886  0.00  0.00    +0.007 A 
ATOM     19  C   LIG    1       27.142 -20.320   5.993  0.00  0.00    +0.001 A 
ATOM     20  C   LIG    1       24.550 -22.796   6.833  0.00  0.00    +0.093 C 
ENDROOT
TORSDOF 0
ENDMDL
