MODEL 1
REMARK VINA RESULT:      -5.2      0.000      0.000
REMARK  Name = *****
REMARK                            x       y       z     vdW  Elec       q    Type
REMARK                         _______ _______ _______ _____ _____    ______ ____
ROOT
ATOM      1  C   LIG    1       23.247 -20.283   4.301  0.00  0.00    +0.146 C 
ATOM      2  C   LIG    1       24.242 -19.254   3.897  0.00  0.00    +0.033 C 
ATOM      3  N   LIG    1       23.749 -17.991   4.092  0.00  0.00    -0.341 NA
ATOM      4  C   LIG    1       24.665 -17.042   3.754  0.00  0.00    +0.090 C 
ATOM      5  C   LIG    1       25.765 -17.764   3.279  0.00  0.00    +0.031 C 
ATOM      6  C   LIG    1       22.359 -17.997   4.525  0.00  0.00    +0.123 C 
ATOM      7  C   LIG    1       25.483 -19.157   3.334  0.00  0.00    +0.024 C 
ATOM      8  C   LIG    1       21.936 -19.455   4.234  0.00  0.00    +0.042 C 
ENDROOT
BRANCH   1  10
ATOM      9  O   LIG    1       22.631 -21.570   6.249  0.00  0.00    -0.250 OA
ATOM     10  C   LIG    1       23.447 -20.829   5.713  0.00  0.00    +0.314 C 
BRANCH  10  11
ATOM     11  O   LIG    1       24.574 -20.458   6.358  0.00  0.00    -0.480 OA
ATOM     12  H   LIG    1       25.226 -19.988   5.802  0.00  0.00    +0.295 HD
ENDBRANCH  10  11
ENDBRANCH   1  10
BRANCH   4  13
ATOM     13  C   LIG    1       24.496 -15.603   3.921  0.00  0.00    +0.209 C 
ATOM     14  O   LIG    1       23.398 -15.091   4.115  0.00  0.00    -0.285 OA
BRANCH  13  15
ATOM     15  C   LIG    1       25.704 -14.711   3.877  0.00  0.00    +0.024 C 
ATOM     16  C   LIG    1       26.396 -14.473   2.680  0.00  0.00    +0.012 C 
ATOM     17  C   LIG    1       27.526 -13.651   2.663  0.00  0.00    +0.001 C 
ATOM     18  C   LIG    1       27.961 -13.040   3.836  0.00  0.00    +0.000 C 
ATOM     19  C   LIG    1       27.260 -13.238   5.025  0.00  0.00    +0.001 C 
ATOM     20  C   LIG    1       26.132 -14.068   5.045  0.00  0.00    +0.012 C 
ENDBRANCH  13  15
ENDBRANCH   4  13
TORSDOF 4
ENDMDL
MODEL 2
REMARK VINA RESULT:      -5.2      2.144      6.311
REMARK  Name = *****
REMARK                            x       y       z     vdW  Elec       q    Type
REMARK                         _______ _______ _______ _____ _____    ______ ____
ROOT
ATOM      1  C   LIG    1       25.194 -14.037   3.880  0.00  0.00    +0.146 C 
ATOM      2  C   LIG    1       25.572 -15.457   3.659  0.00  0.00    +0.033 C 
ATOM      3  N   LIG    1       24.511 -16.291   3.895  0.00  0.00    -0.341 NA
ATOM      4  C   LIG    1       24.839 -17.592   3.666  0.00  0.00    +0.090 C 
ATOM      5  C   LIG    1       26.192 -17.560   3.316  0.00  0.00    +0.031 C 
ATOM      6  C   LIG    1       23.348 -15.579   4.407  0.00  0.00    +0.123 C 
ATOM      7  C   LIG    1       26.663 -16.218   3.348  0.00  0.00    +0.024 C 
ATOM      8  C   LIG    1       23.952 -14.209   4.794  0.00  0.00    +0.042 C 
ENDROOT
BRANCH   1  10
ATOM      9  O   LIG    1       25.640 -12.871   1.813  0.00  0.00    -0.250 OA
ATOM     10  C   LIG    1       24.805 -13.286   2.609  0.00  0.00    +0.314 C 
BRANCH  10  11
ATOM     11  O   LIG    1       23.486 -13.094   2.391  0.00  0.00    -0.480 OA
ATOM     12  H   LIG    1       23.270 -12.282   1.891  0.00  0.00    +0.295 HD
ENDBRANCH  10  11
ENDBRANCH   1  10
BRANCH   4  13
ATOM     13  C   LIG    1       23.921 -18.724   3.739  0.00  0.00    +0.209 C 
ATOM     14  O   LIG    1       23.043 -18.908   2.902  0.00  0.00    -0.285 OA
BRANCH  13  15
ATOM     15  C   LIG    1       24.063 -19.714   4.858  0.00  0.00    +0.024 C 
ATOM     16  C   LIG    1       22.984 -20.029   5.699  0.00  0.00    +0.012 C 
ATOM     17  C   LIG    1       23.140 -20.944   6.743  0.00  0.00    +0.001 C 
ATOM     18  C   LIG    1       24.367 -21.569   6.945  0.00  0.00    +0.000 C 
ATOM     19  C   LIG    1       25.437 -21.293   6.094  0.00  0.00    +0.001 C 
ATOM     20  C   LIG    1       25.284 -20.372   5.051  0.00  0.00    +0.012 C 
ENDBRANCH  13  15
ENDBRANCH   4  13
TORSDOF 4
ENDMDL
MODEL 3
REMARK VINA RESULT:      -5.0      2.267      6.544
REMARK  Name = *****
REMARK                            x       y       z     vdW  Elec       q    Type
REMARK                         _______ _______ _______ _____ _____    ______ ____
ROOT
ATOM      1  C   LIG    1       26.550 -13.230   4.130  0.00  0.00    +0.146 C 
ATOM      2  C   LIG    1       25.451 -14.231   4.118  0.00  0.00    +0.033 C 
ATOM      3  N   LIG    1       25.904 -15.453   3.697  0.00  0.00    -0.341 NA
ATOM      4  C   LIG    1       24.911 -16.385   3.712  0.00  0.00    +0.090 C 
ATOM      5  C   LIG    1       23.772 -15.682   4.120  0.00  0.00    +0.031 C 
ATOM      6  C   LIG    1       27.294 -15.413   3.267  0.00  0.00    +0.123 C 
ATOM      7  C   LIG    1       24.105 -14.317   4.339  0.00  0.00    +0.024 C 
ATOM      8  C   LIG    1       27.552 -13.893   3.149  0.00  0.00    +0.042 C 
ENDROOT
BRANCH   1  10
ATOM      9  O   LIG    1       26.822 -13.630   6.496  0.00  0.00    -0.250 OA
ATOM     10  C   LIG    1       27.207 -13.036   5.494  0.00  0.00    +0.314 C 
BRANCH  10  11
ATOM     11  O   LIG    1       28.245 -12.174   5.556  0.00  0.00    -0.480 OA
ATOM     12  H   LIG    1       28.242 -11.483   4.865  0.00  0.00    +0.295 HD
ENDBRANCH  10  11
ENDBRANCH   1  10
BRANCH   4  13
ATOM     13  C   LIG    1       25.072 -17.802   3.407  0.00  0.00    +0.209 C 
ATOM     14  O   LIG    1       25.951 -18.213   2.656  0.00  0.00    -0.285 OA
BRANCH  13  15
ATOM     15  C   LIG    1       24.152 -18.801   4.047  0.00  0.00    +0.024 C 
ATOM     16  C   LIG    1       22.768 -18.579   4.123  0.00  0.00    +0.012 C 
ATOM     17  C   LIG    1       21.931 -19.515   4.734  0.00  0.00    +0.001 C 
ATOM     18  C   LIG    1       22.462 -20.692   5.254  0.00  0.00    +0.000 C 
ATOM     19  C   LIG    1       23.830 -20.943   5.152  0.00  0.00    +0.001 C 
ATOM     20  C   LIG    1       24.672 -20.002   4.546  0.00  0.00    +0.012 C 
ENDBRANCH  13  15
ENDBRANCH   4  13
TORSDOF 4
ENDMDL
MODEL 4
REMARK VINA RESULT:      -4.9      2.276      6.543
REMARK  Name = *****
REMARK                            x       y       z     vdW  Elec       q    Type
REMARK                         _______ _______ _______ _____ _____    ______ ____
ROOT
ATOM      1  C   LIG    1       26.529 -13.212   4.113  0.00  0.00    +0.146 C 
ATOM      2  C   LIG    1       25.442 -14.227   4.124  0.00  0.00    +0.033 C 
ATOM      3  N   LIG    1       25.896 -15.439   3.678  0.00  0.00    -0.341 NA
ATOM      4  C   LIG    1       24.915 -16.383   3.714  0.00  0.00    +0.090 C 
ATOM      5  C   LIG    1       23.781 -15.698   4.163  0.00  0.00    +0.031 C 
ATOM      6  C   LIG    1       27.273 -15.378   3.208  0.00  0.00    +0.123 C 
ATOM      7  C   LIG    1       24.105 -14.331   4.385  0.00  0.00    +0.024 C 
ATOM      8  C   LIG    1       27.509 -13.854   3.096  0.00  0.00    +0.042 C 
ENDROOT
BRANCH   1  10
ATOM      9  O   LIG    1       26.867 -13.619   6.469  0.00  0.00    -0.250 OA
ATOM     10  C   LIG    1       27.225 -13.024   5.459  0.00  0.00    +0.314 C 
BRANCH  10  11
ATOM     11  O   LIG    1       28.266 -12.164   5.494  0.00  0.00    -0.480 OA
ATOM     12  H   LIG    1       28.919 -12.285   4.778  0.00  0.00    +0.295 HD
ENDBRANCH  10  11
ENDBRANCH   1  10
BRANCH   4  13
ATOM     13  C   LIG    1       25.084 -17.795   3.390  0.00  0.00    +0.209 C 
ATOM     14  O   LIG    1       25.950 -18.189   2.616  0.00  0.00    -0.285 OA
BRANCH  13  15
ATOM     15  C   LIG    1       24.188 -18.810   4.040  0.00  0.00    +0.024 C 
ATOM     16  C   LIG    1       24.702 -19.989   4.600  0.00  0.00    +0.012 C 
ATOM     17  C   LIG    1       23.849 -20.927   5.188  0.00  0.00    +0.001 C 
ATOM     18  C   LIG    1       22.479 -20.687   5.242  0.00  0.00    +0.000 C 
ATOM     19  C   LIG    1       21.960 -19.501   4.722  0.00  0.00    +0.001 C 
ATOM     20  C   LIG    1       22.812 -18.564   4.126  0.00  0.00    +0.012 C 
ENDBRANCH  13  15
ENDBRANCH   4  13
TORSDOF 4
ENDMDL
MODEL 5
REMARK VINA RESULT:      -4.0      2.318      6.291
REMARK  Name = *****
REMARK                            x       y       z     vdW  Elec       q    Type
REMARK                         _______ _______ _______ _____ _____    ______ ____
ROOT
ATOM      1  C   LIG    1       25.654 -13.540   4.024  0.00  0.00    +0.146 C 
ATOM      2  C   LIG    1       26.381 -14.830   3.884  0.00  0.00    +0.033 C 
ATOM      3  N   LIG    1       25.509 -15.865   3.674  0.00  0.00    -0.341 NA
ATOM      4  C   LIG    1       26.168 -17.046   3.513  0.00  0.00    +0.090 C 
ATOM      5  C   LIG    1       27.518 -16.724   3.682  0.00  0.00    +0.031 C 
ATOM      6  C   LIG    1       24.117 -15.447   3.762  0.00  0.00    +0.123 C 
ATOM      7  C   LIG    1       27.648 -15.334   3.953  0.00  0.00    +0.024 C 
ATOM      8  C   LIG    1       24.240 -14.050   4.412  0.00  0.00    +0.042 C 
ENDROOT
BRANCH   1  10
ATOM      9  O   LIG    1       24.536 -12.597   2.103  0.00  0.00    -0.250 OA
ATOM     10  C   LIG    1       25.577 -12.720   2.739  0.00  0.00    +0.314 C 
BRANCH  10  11
ATOM     11  O   LIG    1       26.716 -12.127   2.323  0.00  0.00    -0.480 OA
ATOM     12  H   LIG    1       27.022 -11.390   2.888  0.00  0.00    +0.295 HD
ENDBRANCH  10  11
ENDBRANCH   1  10
BRANCH   4  13
ATOM     13  C   LIG    1       25.548 -18.326   3.187  0.00  0.00    +0.209 C 
ATOM     14  O   LIG    1       25.660 -18.844   2.081  0.00  0.00    -0.285 OA
BRANCH  13  15
ATOM     15  C   LIG    1       24.764 -19.052   4.243  0.00  0.00    +0.024 C 
ATOM     16  C   LIG    1       23.360 -19.042   4.249  0.00  0.00    +0.012 C 
ATOM     17  C   LIG    1       22.650 -19.713   5.248  0.00  0.00    +0.001 C 
ATOM     18  C   LIG    1       23.332 -20.419   6.235  0.00  0.00    +0.000 C 
ATOM     19  C   LIG    1       24.726 -20.468   6.218  0.00  0.00    +0.001 C 
ATOM     20  C   LIG    1       25.440 -19.790   5.222  0.00  0.00    +0.012 C 
ENDBRANCH  13  15
ENDBRANCH   4  13
TORSDOF 4
ENDMDL
MODEL 6
REMARK VINA RESULT:      -3.8      2.054      6.207
REMARK  Name = *****
REMARK                            x       y       z     vdW  Elec       q    Type
REMARK                         _______ _______ _______ _____ _____    ______ ____
ROOT
ATOM      1  C   LIG    1       25.328 -14.083   3.802  0.00  0.00    +0.146 C 
ATOM      2  C   LIG    1       24.336 -15.163   4.047  0.00  0.00    +0.033 C 
ATOM      3  N   LIG    1       24.826 -16.381   3.655  0.00  0.00    -0.341 NA
ATOM      4  C   LIG    1       23.937 -17.380   3.904  0.00  0.00    +0.090 C 
ATOM      5  C   LIG    1       22.816 -16.733   4.436  0.00  0.00    +0.031 C 
ATOM      6  C   LIG    1       26.124 -16.273   3.003  0.00  0.00    +0.123 C 
ATOM      7  C   LIG    1       23.055 -15.332   4.491  0.00  0.00    +0.024 C 
ATOM      8  C   LIG    1       26.221 -14.755   2.725  0.00  0.00    +0.042 C 
ENDROOT
BRANCH   1  10
ATOM      9  O   LIG    1       27.130 -14.389   5.381  0.00  0.00    -0.250 OA
ATOM     10  C   LIG    1       26.170 -13.716   5.021  0.00  0.00    +0.314 C 
BRANCH  10  11
ATOM     11  O   LIG    1       25.811 -12.605   5.700  0.00  0.00    -0.480 OA
ATOM     12  H   LIG    1       25.053 -12.121   5.318  0.00  0.00    +0.295 HD
ENDBRANCH  10  11
ENDBRANCH   1  10
BRANCH   4  13
ATOM     13  C   LIG    1       24.176 -18.803   3.688  0.00  0.00    +0.209 C 
ATOM     14  O   LIG    1       24.158 -19.306   2.570  0.00  0.00    -0.285 OA
BRANCH  13  15
ATOM     15  C   LIG    1       24.480 -19.684   4.866  0.00  0.00    +0.024 C 
ATOM     16  C   LIG    1       23.459 -20.200   5.678  0.00  0.00    +0.012 C 
ATOM     17  C   LIG    1       23.764 -21.008   6.776  0.00  0.00    +0.001 C 
ATOM     18  C   LIG    1       25.088 -21.326   7.062  0.00  0.00    +0.000 C 
ATOM     19  C   LIG    1       26.111 -20.850   6.241  0.00  0.00    +0.001 C 
ATOM     20  C   LIG    1       25.807 -20.035   5.144  0.00  0.00    +0.012 C 
ENDBRANCH  13  15
ENDBRANCH   4  13
TORSDOF 4
ENDMDL
MODEL 7
REMARK VINA RESULT:      -3.8      2.396      6.335
REMARK  Name = *****
REMARK                            x       y       z     vdW  Elec       q    Type
REMARK                         _______ _______ _______ _____ _____    ______ ____
ROOT
ATOM      1  C   LIG    1       27.301 -13.701   3.159  0.00  0.00    +0.146 C 
ATOM      2  C   LIG    1       25.818 -13.624   3.236  0.00  0.00    +0.033 C 
ATOM      3  N   LIG    1       25.300 -14.723   3.868  0.00  0.00    -0.341 NA
ATOM      4  C   LIG    1       23.945 -14.647   3.970  0.00  0.00    +0.090 C 
ATOM      5  C   LIG    1       23.608 -13.455   3.321  0.00  0.00    +0.031 C 
ATOM      6  C   LIG    1       26.319 -15.714   4.184  0.00  0.00    +0.123 C 
ATOM      7  C   LIG    1       24.785 -12.829   2.826  0.00  0.00    +0.024 C 
ATOM      8  C   LIG    1       27.518 -15.227   3.336  0.00  0.00    +0.042 C 
ENDROOT
BRANCH   1  10
ATOM      9  O   LIG    1       29.132 -12.437   4.098  0.00  0.00    -0.250 OA
ATOM     10  C   LIG    1       28.027 -12.940   4.266  0.00  0.00    +0.314 C 
BRANCH  10  11
ATOM     11  O   LIG    1       27.396 -12.842   5.456  0.00  0.00    -0.480 OA
ATOM     12  H   LIG    1       26.420 -12.842   5.401  0.00  0.00    +0.295 HD
ENDBRANCH  10  11
ENDBRANCH   1  10
BRANCH   4  13
ATOM     13  C   LIG    1       23.091 -15.606   4.661  0.00  0.00    +0.209 C 
ATOM     14  O   LIG    1       22.255 -15.259   5.490  0.00  0.00    -0.285 OA
BRANCH  13  15
ATOM     15  C   LIG    1       23.215 -17.067   4.338  0.00  0.00    +0.024 C 
ATOM     16  C   LIG    1       24.370 -17.588   3.734  0.00  0.00    +0.012 C 
ATOM     17  C   LIG    1       24.460 -18.949   3.429  0.00  0.00    +0.001 C 
ATOM     18  C   LIG    1       23.409 -19.806   3.745  0.00  0.00    +0.000 C 
ATOM     19  C   LIG    1       22.272 -19.307   4.379  0.00  0.00    +0.001 C 
ATOM     20  C   LIG    1       22.177 -17.942   4.678  0.00  0.00    +0.012 C 
ENDBRANCH  13  15
ENDBRANCH   4  13
TORSDOF 4
ENDMDL
MODEL 8
REMARK VINA RESULT:      -3.1      2.132      6.015
REMARK  Name = *****
REMARK                            x       y       z     vdW  Elec       q    Type
REMARK                         _______ _______ _______ _____ _____    ______ ____
ROOT
ATOM      1  C   LIG    1       25.804 -14.189   3.734  0.00  0.00    +0.146 C 
ATOM      2  C   LIG    1       24.577 -14.973   4.032  0.00  0.00    +0.033 C 
ATOM      3  N   LIG    1       24.746 -16.294   3.708  0.00  0.00    -0.341 NA
ATOM      4  C   LIG    1       23.638 -17.026   4.006  0.00  0.00    +0.090 C 
ATOM      5  C   LIG    1       22.718 -16.093   4.496  0.00  0.00    +0.031 C 
ATOM      6  C   LIG    1       26.024 -16.547   3.058  0.00  0.00    +0.123 C 
ATOM      7  C   LIG    1       23.298 -14.794   4.477  0.00  0.00    +0.024 C 
ATOM      8  C   LIG    1       26.493 -15.118   2.700  0.00  0.00    +0.042 C 
ENDROOT
BRANCH   1  10
ATOM      9  O   LIG    1       27.859 -14.433   4.979  0.00  0.00    -0.250 OA
ATOM     10  C   LIG    1       26.721 -13.978   4.937  0.00  0.00    +0.314 C 
BRANCH  10  11
ATOM     11  O   LIG    1       26.223 -13.262   5.968  0.00  0.00    -0.480 OA
ATOM     12  H   LIG    1       26.055 -13.780   6.779  0.00  0.00    +0.295 HD
ENDBRANCH  10  11
ENDBRANCH   1  10
BRANCH   4  13
ATOM     13  C   LIG    1       23.514 -18.472   3.868  0.00  0.00    +0.209 C 
ATOM     14  O   LIG    1       22.856 -18.990   2.971  0.00  0.00    -0.285 OA
BRANCH  13  15
ATOM     15  C   LIG    1       24.233 -19.367   4.836  0.00  0.00    +0.024 C 
ATOM     16  C   LIG    1       25.618 -19.577   4.750  0.00  0.00    +0.012 C 
ATOM     17  C   LIG    1       26.265 -20.424   5.653  0.00  0.00    +0.001 C 
ATOM     18  C   LIG    1       25.542 -21.051   6.664  0.00  0.00    +0.000 C 
ATOM     19  C   LIG    1       24.171 -20.822   6.783  0.00  0.00    +0.001 C 
ATOM     20  C   LIG    1       23.519 -19.979   5.874  0.00  0.00    +0.012 C 
ENDBRANCH  13  15
ENDBRANCH   4  13
TORSDOF 4
ENDMDL
MODEL 9
REMARK VINA RESULT:      -3.0      2.243      3.386
REMARK  Name = *****
REMARK                            x       y       z     vdW  Elec       q    Type
REMARK                         _______ _______ _______ _____ _____    ______ ____
ROOT
ATOM      1  C   LIG    1       25.472 -21.572   5.883  0.00  0.00    +0.146 C 
ATOM      2  C   LIG    1       24.822 -20.928   4.712  0.00  0.00    +0.033 C 
ATOM      3  N   LIG    1       24.041 -19.872   5.101  0.00  0.00    -0.341 NA
ATOM      4  C   LIG    1       23.466 -19.257   4.031  0.00  0.00    +0.090 C 
ATOM      5  C   LIG    1       23.879 -20.008   2.926  0.00  0.00    +0.031 C 
ATOM      6  C   LIG    1       23.966 -19.741   6.549  0.00  0.00    +0.123 C 
ATOM      7  C   LIG    1       24.703 -21.083   3.360  0.00  0.00    +0.024 C 
ATOM      8  C   LIG    1       24.538 -21.096   7.027  0.00  0.00    +0.042 C 
ENDROOT
BRANCH   1  10
ATOM      9  O   LIG    1       27.581 -21.552   7.061  0.00  0.00    -0.250 OA
ATOM     10  C   LIG    1       26.900 -21.099   6.147  0.00  0.00    +0.314 C 
BRANCH  10  11
ATOM     11  O   LIG    1       27.391 -20.148   5.323  0.00  0.00    -0.480 OA
ATOM     12  H   LIG    1       28.166 -20.426   4.797  0.00  0.00    +0.295 HD
ENDBRANCH  10  11
ENDBRANCH   1  10
BRANCH   4  13
ATOM     13  C   LIG    1       22.647 -18.051   4.086  0.00  0.00    +0.209 C 
ATOM     14  O   LIG    1       21.421 -18.093   4.114  0.00  0.00    -0.285 OA
BRANCH  13  15
ATOM     15  C   LIG    1       23.318 -16.708   4.132  0.00  0.00    +0.024 C 
ATOM     16  C   LIG    1       22.699 -15.600   4.731  0.00  0.00    +0.012 C 
ATOM     17  C   LIG    1       23.336 -14.356   4.752  0.00  0.00    +0.001 C 
ATOM     18  C   LIG    1       24.604 -14.212   4.196  0.00  0.00    +0.000 C 
ATOM     19  C   LIG    1       25.245 -15.314   3.631  0.00  0.00    +0.001 C 
ATOM     20  C   LIG    1       24.606 -16.560   3.603  0.00  0.00    +0.012 C 
ENDBRANCH  13  15
ENDBRANCH   4  13
TORSDOF 4
ENDMDL
