MODEL 1
REMARK VINA RESULT:      -4.8      0.000      0.000
REMARK  Name = *****
REMARK                            x       y       z     vdW  Elec       q    Type
REMARK                         _______ _______ _______ _____ _____    ______ ____
ROOT
ATOM      1  C   LIG    1       25.639 -19.291   4.811  0.00  0.00    +0.159 C 
ENDROOT
BRANCH   1   2
ATOM      2  C   LIG    1       26.969 -19.672   5.454  0.00  0.00    -0.031 A 
ATOM      3  C   LIG    1       27.017 -20.722   6.387  0.00  0.00    +0.004 A 
ATOM      4  C   LIG    1       28.211 -21.053   7.032  0.00  0.00    +0.000 A 
ATOM      5  C   LIG    1       29.373 -20.338   6.760  0.00  0.00    +0.000 A 
ATOM      6  C   LIG    1       29.346 -19.303   5.829  0.00  0.00    +0.000 A 
ATOM      7  C   LIG    1       28.157 -18.979   5.172  0.00  0.00    +0.004 A 
ENDBRANCH   1   2
BRANCH   1   8
ATOM      8  C   LIG    1       24.541 -20.396   4.838  0.00  0.00    +0.083 C 
ATOM      9  C   LIG    1       24.167 -20.842   6.263  0.00  0.00    +0.036 C 
ATOM     10  C   LIG    1       22.724 -21.311   6.145  0.00  0.00    +0.003 C 
ATOM     11  C   LIG    1       22.103 -20.268   5.238  0.00  0.00    +0.003 C 
ATOM     12  C   LIG    1       23.194 -19.924   4.226  0.00  0.00    +0.036 C 
BRANCH   8  13
ATOM     13  O   LIG    1       24.957 -21.569   4.122  0.00  0.00    -0.387 OA
ATOM     14  H   LIG    1       25.928 -21.517   4.015  0.00  0.00    +0.210 HD
ENDBRANCH   8  13
ENDBRANCH   1   8
BRANCH   1  15
ATOM     15  C   LIG    1       25.828 -18.769   3.389  0.00  0.00    +0.317 C 
ATOM     16  O   LIG    1       26.151 -19.463   2.432  0.00  0.00    -0.250 OA
BRANCH  15  17
ATOM     17  O   LIG    1       25.560 -17.434   3.331  0.00  0.00    -0.463 OA
BRANCH  17  18
ATOM     18  C   LIG    1       26.691 -16.561   3.461  0.00  0.00    +0.247 C 
BRANCH  18  19
ATOM     19  C   LIG    1       26.337 -15.075   3.259  0.00  0.00    +0.125 C 
BRANCH  19  21
ATOM     20  C   LIG    1       26.378 -13.386   4.974  0.00  0.00    +0.104 C 
ATOM     21  N   LIG    1       25.571 -14.439   4.352  0.00  0.00    -0.305 NA
ATOM     22  C   LIG    1       24.297 -13.888   3.895  0.00  0.00    +0.104 C 
ENDBRANCH  19  21
ENDBRANCH  18  19
ENDBRANCH  17  18
ENDBRANCH  15  17
ENDBRANCH   1  15
TORSDOF 8
ENDMDL
MODEL 2
REMARK VINA RESULT:      -4.7      3.322      7.498
REMARK  Name = *****
REMARK                            x       y       z     vdW  Elec       q    Type
REMARK                         _______ _______ _______ _____ _____    ______ ____
ROOT
ATOM      1  C   LIG    1       25.880 -14.733   4.302  0.00  0.00    +0.159 C 
ENDROOT
BRANCH   1   2
ATOM      2  C   LIG    1       25.031 -13.596   3.743  0.00  0.00    -0.031 A 
ATOM      3  C   LIG    1       24.875 -13.460   2.354  0.00  0.00    +0.004 A 
ATOM      4  C   LIG    1       24.150 -12.395   1.815  0.00  0.00    +0.000 A 
ATOM      5  C   LIG    1       23.573 -11.447   2.655  0.00  0.00    +0.000 A 
ATOM      6  C   LIG    1       23.706 -11.574   4.035  0.00  0.00    +0.000 A 
ATOM      7  C   LIG    1       24.419 -12.646   4.577  0.00  0.00    +0.004 A 
ENDBRANCH   1   2
BRANCH   1   8
ATOM      8  C   LIG    1       27.401 -14.428   4.441  0.00  0.00    +0.083 C 
ATOM      9  C   LIG    1       27.988 -13.710   3.212  0.00  0.00    +0.036 C 
ATOM     10  C   LIG    1       29.156 -12.907   3.766  0.00  0.00    +0.003 C 
ATOM     11  C   LIG    1       28.602 -12.355   5.064  0.00  0.00    +0.003 C 
ATOM     12  C   LIG    1       27.720 -13.470   5.622  0.00  0.00    +0.036 C 
BRANCH   8  13
ATOM     13  O   LIG    1       28.164 -15.628   4.635  0.00  0.00    -0.387 OA
ATOM     14  H   LIG    1       27.993 -16.211   3.869  0.00  0.00    +0.210 HD
ENDBRANCH   8  13
ENDBRANCH   1   8
BRANCH   1  15
ATOM     15  C   LIG    1       25.671 -16.031   3.524  0.00  0.00    +0.317 C 
ATOM     16  O   LIG    1       26.517 -16.554   2.809  0.00  0.00    -0.250 OA
BRANCH  15  17
ATOM     17  O   LIG    1       24.427 -16.533   3.760  0.00  0.00    -0.463 OA
BRANCH  17  18
ATOM     18  C   LIG    1       24.294 -17.957   3.653  0.00  0.00    +0.247 C 
BRANCH  18  19
ATOM     19  C   LIG    1       23.037 -18.505   4.355  0.00  0.00    +0.125 C 
BRANCH  19  21
ATOM     20  C   LIG    1       24.103 -20.598   3.826  0.00  0.00    +0.104 C 
ATOM     21  N   LIG    1       22.985 -19.971   4.537  0.00  0.00    -0.305 NA
ATOM     22  C   LIG    1       23.007 -20.362   5.945  0.00  0.00    +0.104 C 
ENDBRANCH  19  21
ENDBRANCH  18  19
ENDBRANCH  17  18
ENDBRANCH  15  17
ENDBRANCH   1  15
TORSDOF 8
ENDMDL
MODEL 3
REMARK VINA RESULT:      -3.4      2.233      5.007
REMARK  Name = *****
REMARK                            x       y       z     vdW  Elec       q    Type
REMARK                         _______ _______ _______ _____ _____    ______ ____
ROOT
ATOM      1  C   LIG    1       23.759 -18.976   3.603  0.00  0.00    +0.159 C 
ENDROOT
BRANCH   1   2
ATOM      2  C   LIG    1       23.951 -17.472   3.769  0.00  0.00    -0.031 A 
ATOM      3  C   LIG    1       25.178 -16.883   3.421  0.00  0.00    +0.004 A 
ATOM      4  C   LIG    1       25.399 -15.517   3.617  0.00  0.00    +0.000 A 
ATOM      5  C   LIG    1       24.399 -14.721   4.167  0.00  0.00    +0.000 A 
ATOM      6  C   LIG    1       23.173 -15.285   4.506  0.00  0.00    +0.000 A 
ATOM      7  C   LIG    1       22.944 -16.647   4.299  0.00  0.00    +0.004 A 
ENDBRANCH   1   2
BRANCH   1   8
ATOM      8  C   LIG    1       22.811 -19.649   4.640  0.00  0.00    +0.083 C 
ATOM      9  C   LIG    1       22.937 -21.184   4.666  0.00  0.00    +0.036 C 
ATOM     10  C   LIG    1       22.551 -21.570   6.087  0.00  0.00    +0.003 C 
ATOM     11  C   LIG    1       23.232 -20.505   6.924  0.00  0.00    +0.003 C 
ATOM     12  C   LIG    1       23.116 -19.223   6.103  0.00  0.00    +0.036 C 
BRANCH   8  13
ATOM     13  O   LIG    1       21.435 -19.341   4.374  0.00  0.00    -0.387 OA
ATOM     14  H   LIG    1       21.124 -18.752   5.090  0.00  0.00    +0.210 HD
ENDBRANCH   8  13
ENDBRANCH   1   8
BRANCH   1  15
ATOM     15  C   LIG    1       25.094 -19.714   3.551  0.00  0.00    +0.317 C 
ATOM     16  O   LIG    1       25.438 -20.462   2.643  0.00  0.00    -0.250 OA
BRANCH  15  17
ATOM     17  O   LIG    1       25.854 -19.404   4.639  0.00  0.00    -0.463 OA
BRANCH  17  18
ATOM     18  C   LIG    1       26.456 -20.513   5.321  0.00  0.00    +0.247 C 
BRANCH  18  19
ATOM     19  C   LIG    1       26.886 -20.178   6.762  0.00  0.00    +0.125 C 
BRANCH  19  21
ATOM     20  C   LIG    1       28.965 -21.360   7.046  0.00  0.00    +0.104 C 
ATOM     21  N   LIG    1       28.340 -20.035   6.985  0.00  0.00    -0.305 NA
ATOM     22  C   LIG    1       28.988 -19.224   5.956  0.00  0.00    +0.104 C 
ENDBRANCH  19  21
ENDBRANCH  18  19
ENDBRANCH  17  18
ENDBRANCH  15  17
ENDBRANCH   1  15
TORSDOF 8
ENDMDL
MODEL 4
REMARK VINA RESULT:      -3.1      2.635      6.557
REMARK  Name = *****
REMARK                            x       y       z     vdW  Elec       q    Type
REMARK                         _______ _______ _______ _____ _____    ______ ____
ROOT
ATOM      1  C   LIG    1       26.523 -14.479   3.211  0.00  0.00    +0.159 C 
ENDROOT
BRANCH   1   2
ATOM      2  C   LIG    1       27.563 -13.603   3.901  0.00  0.00    -0.031 A 
ATOM      3  C   LIG    1       27.498 -13.405   5.291  0.00  0.00    +0.004 A 
ATOM      4  C   LIG    1       28.404 -12.563   5.939  0.00  0.00    +0.000 A 
ATOM      5  C   LIG    1       29.387 -11.902   5.209  0.00  0.00    +0.000 A 
ATOM      6  C   LIG    1       29.475 -12.095   3.833  0.00  0.00    +0.000 A 
ATOM      7  C   LIG    1       28.579 -12.948   3.184  0.00  0.00    +0.004 A 
ENDBRANCH   1   2
BRANCH   1   8
ATOM      8  C   LIG    1       25.043 -14.026   3.386  0.00  0.00    +0.083 C 
ATOM      9  C   LIG    1       24.857 -12.991   4.512  0.00  0.00    +0.036 C 
ATOM     10  C   LIG    1       23.634 -12.190   4.090  0.00  0.00    +0.003 C 
ATOM     11  C   LIG    1       23.848 -12.006   2.601  0.00  0.00    +0.003 C 
ATOM     12  C   LIG    1       24.475 -13.315   2.127  0.00  0.00    +0.036 C 
BRANCH   8  13
ATOM     13  O   LIG    1       24.184 -15.136   3.685  0.00  0.00    -0.387 OA
ATOM     14  H   LIG    1       24.118 -15.201   4.659  0.00  0.00    +0.210 HD
ENDBRANCH   8  13
ENDBRANCH   1   8
BRANCH   1  15
ATOM     15  C   LIG    1       26.675 -15.948   3.597  0.00  0.00    +0.317 C 
ATOM     16  O   LIG    1       27.541 -16.382   4.347  0.00  0.00    -0.250 OA
BRANCH  15  17
ATOM     17  O   LIG    1       25.698 -16.698   3.013  0.00  0.00    -0.463 OA
BRANCH  17  18
ATOM     18  C   LIG    1       25.706 -18.096   3.331  0.00  0.00    +0.247 C 
BRANCH  18  19
ATOM     19  C   LIG    1       24.309 -18.648   3.675  0.00  0.00    +0.125 C 
BRANCH  19  21
ATOM     20  C   LIG    1       25.491 -20.380   4.857  0.00  0.00    +0.104 C 
ATOM     21  N   LIG    1       24.262 -20.054   4.128  0.00  0.00    -0.305 NA
ATOM     22  C   LIG    1       23.096 -20.336   4.963  0.00  0.00    +0.104 C 
ENDBRANCH  19  21
ENDBRANCH  18  19
ENDBRANCH  17  18
ENDBRANCH  15  17
ENDBRANCH   1  15
TORSDOF 8
ENDMDL
MODEL 5
REMARK VINA RESULT:      -2.5      1.884      3.942
REMARK  Name = *****
REMARK                            x       y       z     vdW  Elec       q    Type
REMARK                         _______ _______ _______ _____ _____    ______ ____
ROOT
ATOM      1  C   LIG    1       25.519 -18.836   3.712  0.00  0.00    +0.159 C 
ENDROOT
BRANCH   1   2
ATOM      2  C   LIG    1       24.120 -18.265   3.914  0.00  0.00    -0.031 A 
ATOM      3  C   LIG    1       23.959 -16.901   4.213  0.00  0.00    +0.004 A 
ATOM      4  C   LIG    1       22.693 -16.365   4.458  0.00  0.00    +0.000 A 
ATOM      5  C   LIG    1       21.568 -17.183   4.412  0.00  0.00    +0.000 A 
ATOM      6  C   LIG    1       21.707 -18.533   4.105  0.00  0.00    +0.000 A 
ATOM      7  C   LIG    1       22.970 -19.070   3.846  0.00  0.00    +0.004 A 
ENDBRANCH   1   2
BRANCH   1   8
ATOM      8  C   LIG    1       25.906 -20.011   4.660  0.00  0.00    +0.083 C 
ATOM      9  C   LIG    1       25.864 -19.625   6.150  0.00  0.00    +0.036 C 
ATOM     10  C   LIG    1       25.560 -20.931   6.870  0.00  0.00    +0.003 C 
ATOM     11  C   LIG    1       24.512 -21.571   5.982  0.00  0.00    +0.003 C 
ATOM     12  C   LIG    1       24.930 -21.216   4.557  0.00  0.00    +0.036 C 
BRANCH   8  13
ATOM     13  O   LIG    1       27.228 -20.496   4.385  0.00  0.00    -0.387 OA
ATOM     14  H   LIG    1       27.351 -20.478   3.415  0.00  0.00    +0.210 HD
ENDBRANCH   8  13
ENDBRANCH   1   8
BRANCH   1  15
ATOM     15  C   LIG    1       26.588 -17.747   3.759  0.00  0.00    +0.317 C 
ATOM     16  O   LIG    1       27.682 -17.872   4.297  0.00  0.00    -0.250 OA
BRANCH  15  17
ATOM     17  O   LIG    1       26.163 -16.634   3.099  0.00  0.00    -0.463 OA
BRANCH  17  18
ATOM     18  C   LIG    1       26.920 -15.438   3.333  0.00  0.00    +0.247 C 
BRANCH  18  19
ATOM     19  C   LIG    1       26.407 -14.227   2.530  0.00  0.00    +0.125 C 
BRANCH  19  21
ATOM     20  C   LIG    1       25.167 -13.379   4.412  0.00  0.00    +0.104 C 
ATOM     21  N   LIG    1       25.117 -13.658   2.973  0.00  0.00    -0.305 NA
ATOM     22  C   LIG    1       24.760 -12.444   2.242  0.00  0.00    +0.104 C 
ENDBRANCH  19  21
ENDBRANCH  18  19
ENDBRANCH  17  18
ENDBRANCH  15  17
ENDBRANCH   1  15
TORSDOF 8
ENDMDL
MODEL 6
REMARK VINA RESULT:      -2.4      2.949      6.653
REMARK  Name = *****
REMARK                            x       y       z     vdW  Elec       q    Type
REMARK                         _______ _______ _______ _____ _____    ______ ____
ROOT
ATOM      1  C   LIG    1       25.710 -14.632   4.236  0.00  0.00    +0.159 C 
ENDROOT
BRANCH   1   2
ATOM      2  C   LIG    1       24.522 -15.588   4.225  0.00  0.00    -0.031 A 
ATOM      3  C   LIG    1       23.294 -15.180   4.773  0.00  0.00    +0.004 A 
ATOM      4  C   LIG    1       22.207 -16.055   4.826  0.00  0.00    +0.000 A 
ATOM      5  C   LIG    1       22.330 -17.352   4.338  0.00  0.00    +0.000 A 
ATOM      6  C   LIG    1       23.536 -17.770   3.781  0.00  0.00    +0.000 A 
ATOM      7  C   LIG    1       24.620 -16.892   3.713  0.00  0.00    +0.004 A 
ENDBRANCH   1   2
BRANCH   1   8
ATOM      8  C   LIG    1       25.413 -13.188   3.732  0.00  0.00    +0.083 C 
ATOM      9  C   LIG    1       24.258 -13.128   2.715  0.00  0.00    +0.036 C 
ATOM     10  C   LIG    1       23.674 -11.734   2.890  0.00  0.00    +0.003 C 
ATOM     11  C   LIG    1       23.681 -11.549   4.394  0.00  0.00    +0.003 C 
ATOM     12  C   LIG    1       24.962 -12.232   4.870  0.00  0.00    +0.036 C 
BRANCH   8  13
ATOM     13  O   LIG    1       26.563 -12.604   3.102  0.00  0.00    -0.387 OA
ATOM     14  H   LIG    1       27.354 -12.933   3.573  0.00  0.00    +0.210 HD
ENDBRANCH   8  13
ENDBRANCH   1   8
BRANCH   1  15
ATOM     15  C   LIG    1       26.911 -15.214   3.493  0.00  0.00    +0.317 C 
ATOM     16  O   LIG    1       27.093 -15.115   2.285  0.00  0.00    -0.250 OA
BRANCH  15  17
ATOM     17  O   LIG    1       27.757 -15.831   4.364  0.00  0.00    -0.463 OA
BRANCH  17  18
ATOM     18  C   LIG    1       27.830 -17.260   4.262  0.00  0.00    +0.247 C 
BRANCH  18  19
ATOM     19  C   LIG    1       28.972 -17.871   5.097  0.00  0.00    +0.125 C 
BRANCH  19  21
ATOM     20  C   LIG    1       29.221 -19.410   6.932  0.00  0.00    +0.104 C 
ATOM     21  N   LIG    1       28.771 -19.265   5.544  0.00  0.00    -0.305 NA
ATOM     22  C   LIG    1       27.381 -19.698   5.422  0.00  0.00    +0.104 C 
ENDBRANCH  19  21
ENDBRANCH  18  19
ENDBRANCH  17  18
ENDBRANCH  15  17
ENDBRANCH   1  15
TORSDOF 8
ENDMDL
MODEL 7
REMARK VINA RESULT:      -2.0      1.202      4.106
REMARK  Name = *****
REMARK                            x       y       z     vdW  Elec       q    Type
REMARK                         _______ _______ _______ _____ _____    ______ ____
ROOT
ATOM      1  C   LIG    1       25.583 -20.337   4.410  0.00  0.00    +0.159 C 
ENDROOT
BRANCH   1   2
ATOM      2  C   LIG    1       24.067 -20.361   4.573  0.00  0.00    -0.031 A 
ATOM      3  C   LIG    1       23.440 -21.501   5.103  0.00  0.00    +0.004 A 
ATOM      4  C   LIG    1       22.049 -21.570   5.210  0.00  0.00    +0.000 A 
ATOM      5  C   LIG    1       21.263 -20.503   4.785  0.00  0.00    +0.000 A 
ATOM      6  C   LIG    1       21.868 -19.361   4.268  0.00  0.00    +0.000 A 
ATOM      7  C   LIG    1       23.259 -19.283   4.173  0.00  0.00    +0.004 A 
ENDBRANCH   1   2
BRANCH   1   8
ATOM      8  C   LIG    1       26.397 -20.219   5.733  0.00  0.00    +0.083 C 
ATOM      9  C   LIG    1       26.938 -21.571   6.233  0.00  0.00    +0.036 C 
ATOM     10  C   LIG    1       28.193 -21.210   7.016  0.00  0.00    +0.003 C 
ATOM     11  C   LIG    1       28.835 -20.143   6.151  0.00  0.00    +0.003 C 
ATOM     12  C   LIG    1       27.668 -19.338   5.584  0.00  0.00    +0.036 C 
BRANCH   8  13
ATOM     13  O   LIG    1       25.604 -19.663   6.792  0.00  0.00    -0.387 OA
ATOM     14  H   LIG    1       25.587 -18.693   6.666  0.00  0.00    +0.210 HD
ENDBRANCH   8  13
ENDBRANCH   1   8
BRANCH   1  15
ATOM     15  C   LIG    1       26.029 -19.266   3.418  0.00  0.00    +0.317 C 
ATOM     16  O   LIG    1       26.182 -19.453   2.217  0.00  0.00    -0.250 OA
BRANCH  15  17
ATOM     17  O   LIG    1       26.206 -18.073   4.052  0.00  0.00    -0.463 OA
BRANCH  17  18
ATOM     18  C   LIG    1       25.834 -16.905   3.307  0.00  0.00    +0.247 C 
BRANCH  18  19
ATOM     19  C   LIG    1       26.825 -15.737   3.475  0.00  0.00    +0.125 C 
BRANCH  19  21
ATOM     20  C   LIG    1       26.884 -13.734   4.811  0.00  0.00    +0.104 C 
ATOM     21  N   LIG    1       26.222 -14.404   3.687  0.00  0.00    -0.305 NA
ATOM     22  C   LIG    1       26.288 -13.562   2.494  0.00  0.00    +0.104 C 
ENDBRANCH  19  21
ENDBRANCH  18  19
ENDBRANCH  17  18
ENDBRANCH  15  17
ENDBRANCH   1  15
TORSDOF 8
ENDMDL
MODEL 8
REMARK VINA RESULT:      -2.0      2.232      3.938
REMARK  Name = *****
REMARK                            x       y       z     vdW  Elec       q    Type
REMARK                         _______ _______ _______ _____ _____    ______ ____
ROOT
ATOM      1  C   LIG    1       25.141 -18.421   3.531  0.00  0.00    +0.159 C 
ENDROOT
BRANCH   1   2
ATOM      2  C   LIG    1       23.998 -17.557   4.052  0.00  0.00    -0.031 A 
ATOM      3  C   LIG    1       22.765 -18.149   4.373  0.00  0.00    +0.004 A 
ATOM      4  C   LIG    1       21.685 -17.372   4.798  0.00  0.00    +0.000 A 
ATOM      5  C   LIG    1       21.819 -15.991   4.907  0.00  0.00    +0.000 A 
ATOM      6  C   LIG    1       23.037 -15.388   4.605  0.00  0.00    +0.000 A 
ATOM      7  C   LIG    1       24.123 -16.164   4.193  0.00  0.00    +0.004 A 
ENDBRANCH   1   2
BRANCH   1   8
ATOM      8  C   LIG    1       25.191 -19.875   4.090  0.00  0.00    +0.083 C 
ATOM      9  C   LIG    1       24.776 -19.968   5.570  0.00  0.00    +0.036 C 
ATOM     10  C   LIG    1       24.215 -21.375   5.717  0.00  0.00    +0.003 C 
ATOM     11  C   LIG    1       23.405 -21.550   4.448  0.00  0.00    +0.003 C 
ATOM     12  C   LIG    1       24.208 -20.835   3.364  0.00  0.00    +0.036 C 
BRANCH   8  13
ATOM     13  O   LIG    1       26.507 -20.435   3.983  0.00  0.00    -0.387 OA
ATOM     14  H   LIG    1       26.463 -21.165   3.333  0.00  0.00    +0.210 HD
ENDBRANCH   8  13
ENDBRANCH   1   8
BRANCH   1  15
ATOM     15  C   LIG    1       26.495 -17.740   3.713  0.00  0.00    +0.317 C 
ATOM     16  O   LIG    1       27.444 -18.232   4.312  0.00  0.00    -0.250 OA
BRANCH  15  17
ATOM     17  O   LIG    1       26.505 -16.526   3.094  0.00  0.00    -0.463 OA
BRANCH  17  18
ATOM     18  C   LIG    1       27.420 -15.558   3.625  0.00  0.00    +0.247 C 
BRANCH  18  19
ATOM     19  C   LIG    1       27.230 -14.150   3.028  0.00  0.00    +0.125 C 
BRANCH  19  21
ATOM     20  C   LIG    1       26.889 -13.396   5.288  0.00  0.00    +0.104 C 
ATOM     21  N   LIG    1       27.400 -13.021   3.966  0.00  0.00    -0.305 NA
ATOM     22  C   LIG    1       28.791 -12.585   4.074  0.00  0.00    +0.104 C 
ENDBRANCH  19  21
ENDBRANCH  18  19
ENDBRANCH  17  18
ENDBRANCH  15  17
ENDBRANCH   1  15
TORSDOF 8
ENDMDL
MODEL 9
REMARK VINA RESULT:      -1.9      3.396      5.960
REMARK  Name = *****
REMARK                            x       y       z     vdW  Elec       q    Type
REMARK                         _______ _______ _______ _____ _____    ______ ____
ROOT
ATOM      1  C   LIG    1       24.916 -15.023   3.809  0.00  0.00    +0.159 C 
ENDROOT
BRANCH   1   2
ATOM      2  C   LIG    1       24.206 -16.369   3.901  0.00  0.00    -0.031 A 
ATOM      3  C   LIG    1       22.911 -16.440   4.444  0.00  0.00    +0.004 A 
ATOM      4  C   LIG    1       22.262 -17.667   4.591  0.00  0.00    +0.000 A 
ATOM      5  C   LIG    1       22.896 -18.844   4.204  0.00  0.00    +0.000 A 
ATOM      6  C   LIG    1       24.174 -18.791   3.653  0.00  0.00    +0.000 A 
ATOM      7  C   LIG    1       24.820 -17.564   3.491  0.00  0.00    +0.004 A 
ENDBRANCH   1   2
BRANCH   1   8
ATOM      8  C   LIG    1       24.013 -13.815   3.417  0.00  0.00    +0.083 C 
ATOM      9  C   LIG    1       23.927 -12.742   4.518  0.00  0.00    +0.036 C 
ATOM     10  C   LIG    1       23.662 -11.447   3.764  0.00  0.00    +0.003 C 
ATOM     11  C   LIG    1       24.578 -11.562   2.562  0.00  0.00    +0.003 C 
ATOM     12  C   LIG    1       24.545 -13.040   2.179  0.00  0.00    +0.036 C 
BRANCH   8  13
ATOM     13  O   LIG    1       22.671 -14.232   3.126  0.00  0.00    -0.387 OA
ATOM     14  H   LIG    1       22.273 -14.542   3.964  0.00  0.00    +0.210 HD
ENDBRANCH   8  13
ENDBRANCH   1   8
BRANCH   1  15
ATOM     15  C   LIG    1       26.136 -15.088   2.895  0.00  0.00    +0.317 C 
ATOM     16  O   LIG    1       26.223 -14.520   1.812  0.00  0.00    -0.250 OA
BRANCH  15  17
ATOM     17  O   LIG    1       27.119 -15.842   3.463  0.00  0.00    -0.463 OA
BRANCH  17  18
ATOM     18  C   LIG    1       28.005 -15.149   4.354  0.00  0.00    +0.247 C 
BRANCH  18  19
ATOM     19  C   LIG    1       28.353 -13.725   3.878  0.00  0.00    +0.125 C 
BRANCH  19  21
ATOM     20  C   LIG    1       27.200 -13.167   5.917  0.00  0.00    +0.104 C 
ATOM     21  N   LIG    1       27.954 -12.626   4.782  0.00  0.00    -0.305 NA
ATOM     22  C   LIG    1       29.097 -11.853   5.264  0.00  0.00    +0.104 C 
ENDBRANCH  19  21
ENDBRANCH  18  19
ENDBRANCH  17  18
ENDBRANCH  15  17
ENDBRANCH   1  15
TORSDOF 8
ENDMDL
