MODEL 1
REMARK VINA RESULT:      -8.4      0.000      0.000
REMARK  Name = *****
REMARK                            x       y       z     vdW  Elec       q    Type
REMARK                         _______ _______ _______ _____ _____    ______ ____
ROOT
ATOM      1  C   LIG    1       25.806 -21.839   6.292  0.00  0.00    +0.059 A 
ATOM      2  C   LIG    1       26.043 -20.689   5.424  0.00  0.00    +0.006 A 
ATOM      3  C   LIG    1       27.176 -19.806   5.465  0.00  0.00    -0.013 A 
ATOM      4  C   LIG    1       27.239 -18.669   4.545  0.00  0.00    +0.009 A 
ATOM      5  C   LIG    1       26.303 -18.336   3.634  0.00  0.00    +0.001 A 
ATOM      6  C   LIG    1       25.322 -19.268   3.502  0.00  0.00    +0.001 A 
ATOM      7  C   LIG    1       28.121 -20.121   6.378  0.00  0.00    -0.036 A 
ATOM      8  C   LIG    1       27.962 -21.309   7.156  0.00  0.00    +0.006 A 
ATOM      9  C   LIG    1       25.267 -20.365   4.418  0.00  0.00    +0.010 A 
ATOM     10  C   LIG    1       26.848 -22.162   7.097  0.00  0.00    +0.027 A 
ENDROOT
BRANCH   1  12
ATOM     11  C   LIG    1       24.402 -24.112   6.214  0.00  0.00    +0.197 A 
ATOM     12  N   LIG    1       24.580 -22.712   6.247  0.00  0.00    -0.264 N 
ATOM     13  C   LIG    1       23.232 -22.307   6.288  0.00  0.00    +0.205 A 
ATOM     14 BR   LIG    1       22.370 -20.781   5.632  0.00  0.00    -0.006 Br
ATOM     15  N   LIG    1       22.491 -23.282   6.785  0.00  0.00    -0.121 NA
ATOM     16  N   LIG    1       23.217 -24.426   6.704  0.00  0.00    -0.121 NA
BRANCH  11  17
ATOM     17  S   LIG    1       25.189 -25.271   5.149  0.00  0.00    -0.074 S 
BRANCH  17  18
ATOM     18  C   LIG    1       26.268 -26.208   6.213  0.00  0.00    +0.197 C 
BRANCH  18  20
ATOM     19  O   LIG    1       24.426 -27.867   6.527  0.00  0.00    -0.250 OA
ATOM     20  C   LIG    1       25.566 -27.443   6.789  0.00  0.00    +0.315 C 
BRANCH  20  21
ATOM     21  O   LIG    1       26.221 -27.901   7.886  0.00  0.00    -0.480 OA
ATOM     22  H   LIG    1       27.190 -27.800   7.753  0.00  0.00    +0.295 HD
ENDBRANCH  20  21
ENDBRANCH  18  20
ENDBRANCH  17  18
ENDBRANCH  11  17
ENDBRANCH   1  12
BRANCH   7  23
ATOM     23  C   LIG    1       29.308 -19.185   6.577  0.00  0.00    +0.020 C 
ATOM     24  C   LIG    1       29.705 -18.743   7.933  0.00  0.00    +0.009 C 
ATOM     25  C   LIG    1       30.597 -19.637   7.112  0.00  0.00    +0.009 C 
ENDBRANCH   7  23
TORSDOF 6
ENDMDL
MODEL 2
REMARK VINA RESULT:      -7.2      5.182      7.166
REMARK  Name = *****
REMARK                            x       y       z     vdW  Elec       q    Type
REMARK                         _______ _______ _______ _____ _____    ______ ____
ROOT
ATOM      1  C   LIG    1       27.348 -20.173   6.807  0.00  0.00    +0.059 A 
ATOM      2  C   LIG    1       26.313 -20.224   5.779  0.00  0.00    +0.006 A 
ATOM      3  C   LIG    1       25.004 -20.803   5.911  0.00  0.00    -0.013 A 
ATOM      4  C   LIG    1       24.097 -20.807   4.762  0.00  0.00    +0.009 A 
ATOM      5  C   LIG    1       24.370 -20.319   3.536  0.00  0.00    +0.001 A 
ATOM      6  C   LIG    1       25.545 -19.636   3.477  0.00  0.00    +0.001 A 
ATOM      7  C   LIG    1       24.715 -21.305   7.132  0.00  0.00    -0.036 A 
ATOM      8  C   LIG    1       25.672 -21.159   8.183  0.00  0.00    +0.006 A 
ATOM      9  C   LIG    1       26.426 -19.654   4.603  0.00  0.00    +0.010 A 
ATOM     10  C   LIG    1       26.945 -20.584   8.034  0.00  0.00    +0.027 A 
ENDROOT
BRANCH   1  12
ATOM     11  C   LIG    1       29.957 -19.818   7.265  0.00  0.00    +0.197 A 
ATOM     12  N   LIG    1       28.725 -19.597   6.612  0.00  0.00    -0.264 N 
ATOM     13  C   LIG    1       29.146 -18.684   5.626  0.00  0.00    +0.205 A 
ATOM     14 BR   LIG    1       28.257 -17.273   4.775  0.00  0.00    -0.006 Br
ATOM     15  N   LIG    1       30.439 -18.837   5.401  0.00  0.00    -0.121 NA
ATOM     16  N   LIG    1       30.955 -19.521   6.454  0.00  0.00    -0.121 NA
BRANCH  11  17
ATOM     17  S   LIG    1       30.271 -19.815   8.997  0.00  0.00    -0.074 S 
BRANCH  17  18
ATOM     18  C   LIG    1       30.461 -18.095   9.422  0.00  0.00    +0.197 C 
BRANCH  18  20
ATOM     19  O   LIG    1       32.650 -17.542  10.490  0.00  0.00    -0.250 OA
ATOM     20  C   LIG    1       31.936 -17.683   9.481  0.00  0.00    +0.315 C 
BRANCH  20  21
ATOM     21  O   LIG    1       32.344 -17.178   8.290  0.00  0.00    -0.480 OA
ATOM     22  H   LIG    1       31.637 -17.312   7.619  0.00  0.00    +0.295 HD
ENDBRANCH  20  21
ENDBRANCH  18  20
ENDBRANCH  17  18
ENDBRANCH  11  17
ENDBRANCH   1  12
BRANCH   7  23
ATOM     23  C   LIG    1       23.397 -22.040   7.344  0.00  0.00    +0.020 C 
ATOM     24  C   LIG    1       22.490 -22.314   6.206  0.00  0.00    +0.009 C 
ATOM     25  C   LIG    1       23.187 -23.433   6.934  0.00  0.00    +0.009 C 
ENDBRANCH   7  23
TORSDOF 6
ENDMDL
MODEL 3
REMARK VINA RESULT:      -7.1      8.687     10.066
REMARK  Name = *****
REMARK                            x       y       z     vdW  Elec       q    Type
REMARK                         _______ _______ _______ _____ _____    ______ ____
ROOT
ATOM      1  C   LIG    1       25.081 -28.752  12.255  0.00  0.00    +0.059 A 
ATOM      2  C   LIG    1       25.104 -27.415  12.840  0.00  0.00    +0.006 A 
ATOM      3  C   LIG    1       23.978 -26.690  13.363  0.00  0.00    -0.013 A 
ATOM      4  C   LIG    1       24.169 -25.334  13.878  0.00  0.00    +0.009 A 
ATOM      5  C   LIG    1       25.332 -24.654  13.905  0.00  0.00    +0.001 A 
ATOM      6  C   LIG    1       26.408 -25.410  13.557  0.00  0.00    +0.001 A 
ATOM      7  C   LIG    1       22.802 -27.354  13.336  0.00  0.00    -0.036 A 
ATOM      8  C   LIG    1       22.781 -28.707  12.875  0.00  0.00    +0.006 A 
ATOM      9  C   LIG    1       26.203 -26.728  13.041  0.00  0.00    +0.010 A 
ATOM     10  C   LIG    1       23.895 -29.398  12.373  0.00  0.00    +0.027 A 
ENDROOT
BRANCH   1  12
ATOM     11  C   LIG    1       26.538 -30.019  10.406  0.00  0.00    +0.197 A 
ATOM     12  N   LIG    1       26.278 -29.458  11.675  0.00  0.00    -0.264 N 
ATOM     13  C   LIG    1       27.524 -29.686  12.289  0.00  0.00    +0.205 A 
ATOM     14 BR   LIG    1       27.994 -30.006  14.073  0.00  0.00    -0.006 Br
ATOM     15  N   LIG    1       28.461 -29.798  11.364  0.00  0.00    -0.121 NA
ATOM     16  N   LIG    1       27.838 -30.044  10.183  0.00  0.00    -0.121 NA
BRANCH  11  17
ATOM     17  S   LIG    1       25.522 -31.129   9.494  0.00  0.00    -0.074 S 
BRANCH  17  18
ATOM     18  C   LIG    1       24.279 -30.097   8.742  0.00  0.00    +0.197 C 
BRANCH  18  20
ATOM     19  O   LIG    1       23.651 -29.836   6.338  0.00  0.00    -0.250 OA
ATOM     20  C   LIG    1       24.507 -29.937   7.235  0.00  0.00    +0.315 C 
BRANCH  20  21
ATOM     21  O   LIG    1       25.795 -30.218   6.910  0.00  0.00    -0.480 OA
ATOM     22  H   LIG    1       26.288 -30.472   7.722  0.00  0.00    +0.295 HD
ENDBRANCH  20  21
ENDBRANCH  18  20
ENDBRANCH  17  18
ENDBRANCH  11  17
ENDBRANCH   1  12
BRANCH   7  23
ATOM     23  C   LIG    1       21.528 -26.633  13.764  0.00  0.00    +0.020 C 
ATOM     24  C   LIG    1       20.326 -26.641  12.899  0.00  0.00    +0.009 C 
ATOM     25  C   LIG    1       20.332 -27.341  14.233  0.00  0.00    +0.009 C 
ENDBRANCH   7  23
TORSDOF 6
ENDMDL
MODEL 4
REMARK VINA RESULT:      -7.1      8.432     10.463
REMARK  Name = *****
REMARK                            x       y       z     vdW  Elec       q    Type
REMARK                         _______ _______ _______ _____ _____    ______ ____
ROOT
ATOM      1  C   LIG    1       23.373 -29.421  11.821  0.00  0.00    +0.059 A 
ATOM      2  C   LIG    1       23.733 -28.202  12.539  0.00  0.00    +0.006 A 
ATOM      3  C   LIG    1       22.828 -27.286  13.177  0.00  0.00    -0.013 A 
ATOM      4  C   LIG    1       23.355 -26.081  13.821  0.00  0.00    +0.009 A 
ATOM      5  C   LIG    1       24.650 -25.713  13.872  0.00  0.00    +0.001 A 
ATOM      6  C   LIG    1       25.501 -26.667  13.405  0.00  0.00    +0.001 A 
ATOM      7  C   LIG    1       21.524 -27.635  13.129  0.00  0.00    -0.036 A 
ATOM      8  C   LIG    1       21.164 -28.883  12.533  0.00  0.00    +0.006 A 
ATOM      9  C   LIG    1       24.970 -27.830  12.766  0.00  0.00    +0.010 A 
ATOM     10  C   LIG    1       22.066 -29.767  11.920  0.00  0.00    +0.027 A 
ENDROOT
BRANCH   1  12
ATOM     11  C   LIG    1       24.880 -30.346   9.817  0.00  0.00    +0.197 A 
ATOM     12  N   LIG    1       24.351 -30.330  11.126  0.00  0.00    -0.264 N 
ATOM     13  C   LIG    1       25.059 -31.416  11.676  0.00  0.00    +0.205 A 
ATOM     14 BR   LIG    1       24.607 -32.651  13.008  0.00  0.00    -0.006 Br
ATOM     15  N   LIG    1       26.178 -31.604  10.999  0.00  0.00    -0.121 NA
ATOM     16  N   LIG    1       26.049 -30.959   9.812  0.00  0.00    -0.121 NA
BRANCH  11  17
ATOM     17  S   LIG    1       23.995 -30.243   8.299  0.00  0.00    -0.074 S 
BRANCH  17  18
ATOM     18  C   LIG    1       25.003 -29.212   7.254  0.00  0.00    +0.197 C 
BRANCH  18  20
ATOM     19  O   LIG    1       24.301 -27.696   5.396  0.00  0.00    -0.250 OA
ATOM     20  C   LIG    1       24.260 -28.794   5.980  0.00  0.00    +0.315 C 
BRANCH  20  21
ATOM     21  O   LIG    1       23.276 -29.679   5.684  0.00  0.00    -0.480 OA
ATOM     22  H   LIG    1       23.160 -30.302   6.436  0.00  0.00    +0.295 HD
ENDBRANCH  20  21
ENDBRANCH  18  20
ENDBRANCH  17  18
ENDBRANCH  11  17
ENDBRANCH   1  12
BRANCH   7  23
ATOM     23  C   LIG    1       20.473 -26.676  13.678  0.00  0.00    +0.020 C 
ATOM     24  C   LIG    1       19.134 -27.166  14.075  0.00  0.00    +0.009 C 
ATOM     25  C   LIG    1       20.102 -26.629  15.096  0.00  0.00    +0.009 C 
ENDBRANCH   7  23
TORSDOF 6
ENDMDL
MODEL 5
REMARK VINA RESULT:      -7.1      4.318      6.275
REMARK  Name = *****
REMARK                            x       y       z     vdW  Elec       q    Type
REMARK                         _______ _______ _______ _____ _____    ______ ____
ROOT
ATOM      1  C   LIG    1       27.235 -20.068   6.669  0.00  0.00    +0.059 A 
ATOM      2  C   LIG    1       26.178 -20.209   5.672  0.00  0.00    +0.006 A 
ATOM      3  C   LIG    1       24.913 -20.867   5.853  0.00  0.00    -0.013 A 
ATOM      4  C   LIG    1       23.978 -20.956   4.730  0.00  0.00    +0.009 A 
ATOM      5  C   LIG    1       24.186 -20.479   3.487  0.00  0.00    +0.001 A 
ATOM      6  C   LIG    1       25.313 -19.724   3.381  0.00  0.00    +0.001 A 
ATOM      7  C   LIG    1       24.690 -21.358   7.092  0.00  0.00    -0.036 A 
ATOM      8  C   LIG    1       25.663 -21.128   8.113  0.00  0.00    +0.006 A 
ATOM      9  C   LIG    1       26.223 -19.660   4.481  0.00  0.00    +0.010 A 
ATOM     10  C   LIG    1       26.891 -20.476   7.915  0.00  0.00    +0.027 A 
ENDROOT
BRANCH   1  12
ATOM     11  C   LIG    1       29.819 -19.514   7.065  0.00  0.00    +0.197 A 
ATOM     12  N   LIG    1       28.566 -19.410   6.423  0.00  0.00    -0.264 N 
ATOM     13  C   LIG    1       28.909 -18.520   5.388  0.00  0.00    +0.205 A 
ATOM     14 BR   LIG    1       27.914 -17.216   4.485  0.00  0.00    -0.006 Br
ATOM     15  N   LIG    1       30.206 -18.595   5.149  0.00  0.00    -0.121 NA
ATOM     16  N   LIG    1       30.783 -19.190   6.224  0.00  0.00    -0.121 NA
BRANCH  11  17
ATOM     17  S   LIG    1       30.155 -19.405   8.789  0.00  0.00    -0.074 S 
BRANCH  17  18
ATOM     18  C   LIG    1       31.649 -20.349   9.022  0.00  0.00    +0.197 C 
BRANCH  18  20
ATOM     19  O   LIG    1       30.692 -22.338  10.193  0.00  0.00    -0.250 OA
ATOM     20  C   LIG    1       31.352 -21.832   9.267  0.00  0.00    +0.315 C 
BRANCH  20  21
ATOM     21  O   LIG    1       32.155 -22.616   8.504  0.00  0.00    -0.480 OA
ATOM     22  H   LIG    1       32.654 -22.054   7.871  0.00  0.00    +0.295 HD
ENDBRANCH  20  21
ENDBRANCH  18  20
ENDBRANCH  17  18
ENDBRANCH  11  17
ENDBRANCH   1  12
BRANCH   7  23
ATOM     23  C   LIG    1       23.427 -22.171   7.356  0.00  0.00    +0.020 C 
ATOM     24  C   LIG    1       22.480 -22.478   6.261  0.00  0.00    +0.009 C 
ATOM     25  C   LIG    1       23.276 -23.567   6.931  0.00  0.00    +0.009 C 
ENDBRANCH   7  23
TORSDOF 6
ENDMDL
MODEL 6
REMARK VINA RESULT:      -7.0      8.449      9.875
REMARK  Name = *****
REMARK                            x       y       z     vdW  Elec       q    Type
REMARK                         _______ _______ _______ _____ _____    ______ ____
ROOT
ATOM      1  C   LIG    1       24.939 -28.987  12.121  0.00  0.00    +0.059 A 
ATOM      2  C   LIG    1       23.668 -28.409  12.549  0.00  0.00    +0.006 A 
ATOM      3  C   LIG    1       23.489 -27.193  13.293  0.00  0.00    -0.013 A 
ATOM      4  C   LIG    1       22.140 -26.776  13.680  0.00  0.00    +0.009 A 
ATOM      5  C   LIG    1       20.999 -27.442  13.415  0.00  0.00    +0.001 A 
ATOM      6  C   LIG    1       21.174 -28.499  12.577  0.00  0.00    +0.001 A 
ATOM      7  C   LIG    1       24.624 -26.516  13.575  0.00  0.00    -0.036 A 
ATOM      8  C   LIG    1       25.865 -27.004  13.064  0.00  0.00    +0.006 A 
ATOM      9  C   LIG    1       22.498 -28.903  12.221  0.00  0.00    +0.010 A 
ATOM     10  C   LIG    1       26.018 -28.194  12.333  0.00  0.00    +0.027 A 
ENDROOT
BRANCH   1  12
ATOM     11  C   LIG    1       25.051 -30.621  10.009  0.00  0.00    +0.197 A 
ATOM     12  N   LIG    1       25.086 -30.289  11.381  0.00  0.00    -0.264 N 
ATOM     13  C   LIG    1       25.370 -31.559  11.919  0.00  0.00    +0.205 A 
ATOM     14 BR   LIG    1       24.911 -32.350  13.553  0.00  0.00    -0.006 Br
ATOM     15  N   LIG    1       25.964 -32.306  11.006  0.00  0.00    -0.121 NA
ATOM     16  N   LIG    1       25.731 -31.732   9.798  0.00  0.00    -0.121 NA
BRANCH  11  17
ATOM     17  S   LIG    1       23.836 -30.157   8.823  0.00  0.00    -0.074 S 
BRANCH  17  18
ATOM     18  C   LIG    1       24.684 -30.215   7.257  0.00  0.00    +0.197 C 
BRANCH  18  20
ATOM     19  O   LIG    1       24.369 -27.899   6.376  0.00  0.00    -0.250 OA
ATOM     20  C   LIG    1       24.186 -29.127   6.299  0.00  0.00    +0.315 C 
BRANCH  20  21
ATOM     21  O   LIG    1       23.233 -29.617   5.467  0.00  0.00    -0.480 OA
ATOM     22  H   LIG    1       22.344 -29.409   5.831  0.00  0.00    +0.295 HD
ENDBRANCH  20  21
ENDBRANCH  18  20
ENDBRANCH  17  18
ENDBRANCH  11  17
ENDBRANCH   1  12
BRANCH   7  23
ATOM     23  C   LIG    1       24.552 -25.273  14.456  0.00  0.00    +0.020 C 
ATOM     24  C   LIG    1       25.618 -24.981  15.441  0.00  0.00    +0.009 C 
ATOM     25  C   LIG    1       25.400 -24.096  14.242  0.00  0.00    +0.009 C 
ENDBRANCH   7  23
TORSDOF 6
ENDMDL
MODEL 7
REMARK VINA RESULT:      -7.0      6.679      9.520
REMARK  Name = *****
REMARK                            x       y       z     vdW  Elec       q    Type
REMARK                         _______ _______ _______ _____ _____    ______ ____
ROOT
ATOM      1  C   LIG    1       25.495 -29.912   8.900  0.00  0.00    +0.059 A 
ATOM      2  C   LIG    1       24.428 -29.921   9.896  0.00  0.00    +0.006 A 
ATOM      3  C   LIG    1       24.483 -29.349  11.213  0.00  0.00    -0.013 A 
ATOM      4  C   LIG    1       23.332 -29.483  12.108  0.00  0.00    +0.009 A 
ATOM      5  C   LIG    1       22.181 -30.124  11.825  0.00  0.00    +0.001 A 
ATOM      6  C   LIG    1       22.088 -30.517  10.526  0.00  0.00    +0.001 A 
ATOM      7  C   LIG    1       25.634 -28.708  11.517  0.00  0.00    -0.036 A 
ATOM      8  C   LIG    1       26.644 -28.588  10.513  0.00  0.00    +0.006 A 
ATOM      9  C   LIG    1       23.226 -30.392   9.670  0.00  0.00    +0.010 A 
ATOM     10  C   LIG    1       26.567 -29.151   9.229  0.00  0.00    +0.027 A 
ENDROOT
BRANCH   1  12
ATOM     11  C   LIG    1       25.363 -30.047   6.233  0.00  0.00    +0.197 A 
ATOM     12  N   LIG    1       25.412 -30.565   7.546  0.00  0.00    -0.264 N 
ATOM     13  C   LIG    1       25.424 -31.942   7.251  0.00  0.00    +0.205 A 
ATOM     14 BR   LIG    1       24.762 -33.422   8.187  0.00  0.00    -0.006 Br
ATOM     15  N   LIG    1       25.894 -32.131   6.030  0.00  0.00    -0.121 NA
ATOM     16  N   LIG    1       25.821 -30.942   5.379  0.00  0.00    -0.121 NA
BRANCH  11  17
ATOM     17  S   LIG    1       24.305 -28.782   5.618  0.00  0.00    -0.074 S 
BRANCH  17  18
ATOM     18  C   LIG    1       24.958 -27.271   6.300  0.00  0.00    +0.197 C 
BRANCH  18  20
ATOM     19  O   LIG    1       25.467 -25.593   4.520  0.00  0.00    -0.250 OA
ATOM     20  C   LIG    1       25.817 -26.512   5.283  0.00  0.00    +0.315 C 
BRANCH  20  21
ATOM     21  O   LIG    1       26.992 -27.155   5.069  0.00  0.00    -0.480 OA
ATOM     22  H   LIG    1       27.642 -26.528   4.681  0.00  0.00    +0.295 HD
ENDBRANCH  20  21
ENDBRANCH  18  20
ENDBRANCH  17  18
ENDBRANCH  11  17
ENDBRANCH   1  12
BRANCH   7  23
ATOM     23  C   LIG    1       25.836 -28.164  12.927  0.00  0.00    +0.020 C 
ATOM     24  C   LIG    1       26.925 -27.205  13.219  0.00  0.00    +0.009 C 
ATOM     25  C   LIG    1       25.478 -26.794  13.310  0.00  0.00    +0.009 C 
ENDBRANCH   7  23
TORSDOF 6
ENDMDL
MODEL 8
REMARK VINA RESULT:      -6.9      6.625      9.791
REMARK  Name = *****
REMARK                            x       y       z     vdW  Elec       q    Type
REMARK                         _______ _______ _______ _____ _____    ______ ____
ROOT
ATOM      1  C   LIG    1       24.142 -30.225   9.324  0.00  0.00    +0.059 A 
ATOM      2  C   LIG    1       25.080 -29.564  10.227  0.00  0.00    +0.006 A 
ATOM      3  C   LIG    1       24.778 -29.011  11.519  0.00  0.00    -0.013 A 
ATOM      4  C   LIG    1       25.833 -28.341  12.282  0.00  0.00    +0.009 A 
ATOM      5  C   LIG    1       27.108 -28.166  11.883  0.00  0.00    +0.001 A 
ATOM      6  C   LIG    1       27.412 -28.832  10.736  0.00  0.00    +0.001 A 
ATOM      7  C   LIG    1       23.502 -29.171  11.931  0.00  0.00    -0.036 A 
ATOM      8  C   LIG    1       22.599 -29.917  11.113  0.00  0.00    +0.006 A 
ATOM      9  C   LIG    1       26.367 -29.469   9.996  0.00  0.00    +0.010 A 
ATOM     10  C   LIG    1       22.916 -30.454   9.855  0.00  0.00    +0.027 A 
ENDROOT
BRANCH   1  12
ATOM     11  C   LIG    1       25.033 -30.139   6.806  0.00  0.00    +0.197 A 
ATOM     12  N   LIG    1       24.490 -30.750   7.957  0.00  0.00    -0.264 N 
ATOM     13  C   LIG    1       24.404 -32.077   7.496  0.00  0.00    +0.205 A 
ATOM     14 BR   LIG    1       23.211 -33.462   7.903  0.00  0.00    -0.006 Br
ATOM     15  N   LIG    1       25.274 -32.266   6.520  0.00  0.00    -0.121 NA
ATOM     16  N   LIG    1       25.643 -31.043   6.062  0.00  0.00    -0.121 NA
BRANCH  11  17
ATOM     17  S   LIG    1       24.506 -28.650   6.030  0.00  0.00    -0.074 S 
BRANCH  17  18
ATOM     18  C   LIG    1       25.534 -27.378   6.738  0.00  0.00    +0.197 C 
BRANCH  18  20
ATOM     19  O   LIG    1       25.716 -25.599   4.993  0.00  0.00    -0.250 OA
ATOM     20  C   LIG    1       26.211 -26.527   5.658  0.00  0.00    +0.315 C 
BRANCH  20  21
ATOM     21  O   LIG    1       27.380 -27.091   5.263  0.00  0.00    -0.480 OA
ATOM     22  H   LIG    1       27.530 -27.921   5.768  0.00  0.00    +0.295 HD
ENDBRANCH  20  21
ENDBRANCH  18  20
ENDBRANCH  17  18
ENDBRANCH  11  17
ENDBRANCH   1  12
BRANCH   7  23
ATOM     23  C   LIG    1       23.052 -28.523  13.237  0.00  0.00    +0.020 C 
ATOM     24  C   LIG    1       22.576 -27.122  13.262  0.00  0.00    +0.009 C 
ATOM     25  C   LIG    1       21.644 -28.268  13.555  0.00  0.00    +0.009 C 
ENDBRANCH   7  23
TORSDOF 6
ENDMDL
MODEL 9
REMARK VINA RESULT:      -6.9      5.906      8.053
REMARK  Name = *****
REMARK                            x       y       z     vdW  Elec       q    Type
REMARK                         _______ _______ _______ _____ _____    ______ ____
ROOT
ATOM      1  C   LIG    1       28.791 -19.811   7.311  0.00  0.00    +0.059 A 
ATOM      2  C   LIG    1       27.513 -20.510   7.420  0.00  0.00    +0.006 A 
ATOM      3  C   LIG    1       26.485 -20.574   6.418  0.00  0.00    -0.013 A 
ATOM      4  C   LIG    1       25.239 -21.287   6.706  0.00  0.00    +0.009 A 
ATOM      5  C   LIG    1       24.931 -21.905   7.863  0.00  0.00    +0.001 A 
ATOM      6  C   LIG    1       25.973 -21.970   8.734  0.00  0.00    +0.001 A 
ATOM      7  C   LIG    1       26.774 -19.952   5.254  0.00  0.00    -0.036 A 
ATOM      8  C   LIG    1       28.066 -19.364   5.086  0.00  0.00    +0.006 A 
ATOM      9  C   LIG    1       27.178 -21.256   8.445  0.00  0.00    +0.010 A 
ATOM     10  C   LIG    1       29.059 -19.317   6.078  0.00  0.00    +0.027 A 
ENDROOT
BRANCH   1  12
ATOM     11  C   LIG    1       30.281 -18.667   9.212  0.00  0.00    +0.197 A 
ATOM     12  N   LIG    1       29.822 -19.730   8.405  0.00  0.00    -0.264 N 
ATOM     13  C   LIG    1       30.579 -20.783   8.955  0.00  0.00    +0.205 A 
ATOM     14 BR   LIG    1       31.267 -22.350   8.197  0.00  0.00    -0.006 Br
ATOM     15  N   LIG    1       30.926 -20.480  10.193  0.00  0.00    -0.121 NA
ATOM     16  N   LIG    1       30.771 -19.140  10.342  0.00  0.00    -0.121 NA
BRANCH  11  17
ATOM     17  S   LIG    1       30.803 -17.070   8.689  0.00  0.00    -0.074 S 
BRANCH  17  18
ATOM     18  C   LIG    1       32.208 -16.691   9.717  0.00  0.00    +0.197 C 
BRANCH  18  20
ATOM     19  O   LIG    1       30.636 -16.108  11.570  0.00  0.00    -0.250 OA
ATOM     20  C   LIG    1       31.782 -16.150  11.086  0.00  0.00    +0.315 C 
BRANCH  20  21
ATOM     21  O   LIG    1       32.778 -15.416  11.646  0.00  0.00    -0.480 OA
ATOM     22  H   LIG    1       32.423 -14.920  12.416  0.00  0.00    +0.295 HD
ENDBRANCH  20  21
ENDBRANCH  18  20
ENDBRANCH  17  18
ENDBRANCH  11  17
ENDBRANCH   1  12
BRANCH   7  23
ATOM     23  C   LIG    1       25.707 -19.866   4.168  0.00  0.00    +0.020 C 
ATOM     24  C   LIG    1       24.406 -19.214   4.435  0.00  0.00    +0.009 C 
ATOM     25  C   LIG    1       25.390 -18.621   3.461  0.00  0.00    +0.009 C 
ENDBRANCH   7  23
TORSDOF 6
ENDMDL
