MODEL 1
REMARK VINA RESULT:      -6.5      0.000      0.000
REMARK  Name = *****
REMARK                            x       y       z     vdW  Elec       q    Type
REMARK                         _______ _______ _______ _____ _____    ______ ____
ROOT
ATOM      1  CA  HIS A  1       30.684 -20.707   7.971  0.00  0.00    +0.187 C 
ENDROOT
BRANCH   1   3
ATOM      2  C   UNK A  0       28.428 -20.378   6.981  0.00  0.00    +0.215 C 
ATOM      3  N   HIS A  1       29.220 -20.604   8.086  0.00  0.00    -0.302 N 
ATOM      4  H   HIS A  1       28.795 -20.805   8.989  0.00  0.00    +0.149 HD
ATOM      5  O   UNK A  0       28.893 -20.344   5.851  0.00  0.00    -0.276 OA
BRANCH   2   6
ATOM      6  C   UNK A  0       26.949 -20.326   7.284  0.00  0.00    +0.110 C 
BRANCH   6   7
ATOM      7  C   UNK A  0       26.594 -21.414   8.287  0.00  0.00    +0.087 C 
BRANCH   7   8
ATOM      8  N   UNK A  0       25.798 -20.868   9.382  0.00  0.00    -0.330 NA
ATOM      9  H   UNK A  0       25.698 -19.859   9.272  0.00  0.00    +0.118 HD
ATOM     10  H   UNK A  0       24.854 -21.250   9.323  0.00  0.00    +0.118 HD
ENDBRANCH   7   8
ENDBRANCH   6   7
ENDBRANCH   2   6
ENDBRANCH   1   3
BRANCH   1  11
ATOM     11  C   HIS A  1       31.253 -21.657   9.036  0.00  0.00    +0.326 C 
ATOM     12  O   HIS A  1       30.812 -21.729  10.176  0.00  0.00    -0.249 OA
BRANCH  11  13
ATOM     13  OXT HIS A  1       32.269 -22.433   8.616  0.00  0.00    -0.479 OA
ATOM     14  HXT HIS A  1       33.013 -22.393   9.250  0.00  0.00    +0.295 HD
ENDBRANCH  11  13
ENDBRANCH   1  11
BRANCH   1  15
ATOM     15  CB  HIS A  1       31.390 -19.340   8.011  0.00  0.00    +0.088 C 
BRANCH  15  16
ATOM     16  CG  HIS A  1       30.939 -18.455   9.126  0.00  0.00    +0.038 A 
ATOM     17  ND1 HIS A  1       31.335 -18.630  10.432  0.00  0.00    -0.348 N 
ATOM     18  HD1 HIS A  1       31.954 -19.349  10.788  0.00  0.00    +0.167 HD
ATOM     19  CE1 HIS A  1       30.722 -17.663  11.177  0.00  0.00    +0.196 A 
ATOM     20  NE2 HIS A  1       29.991 -16.869  10.429  0.00  0.00    -0.244 NA
ATOM     21  CD2 HIS A  1       30.141 -17.331   9.151  0.00  0.00    +0.133 A 
ENDBRANCH  15  16
ENDBRANCH   1  15
TORSDOF 8
ENDMDL
MODEL 2
REMARK VINA RESULT:      -6.5      1.314      1.602
REMARK  Name = *****
REMARK                            x       y       z     vdW  Elec       q    Type
REMARK                         _______ _______ _______ _____ _____    ______ ____
ROOT
ATOM      1  CA  HIS A  1       30.728 -19.954   7.943  0.00  0.00    +0.187 C 
ENDROOT
BRANCH   1   3
ATOM      2  C   UNK A  0       28.420 -20.565   7.252  0.00  0.00    +0.215 C 
ATOM      3  N   HIS A  1       29.268 -19.771   7.993  0.00  0.00    -0.302 N 
ATOM      4  H   HIS A  1       28.892 -19.107   8.666  0.00  0.00    +0.149 HD
ATOM      5  O   UNK A  0       28.833 -21.510   6.595  0.00  0.00    -0.276 OA
BRANCH   2   6
ATOM      6  C   UNK A  0       26.956 -20.250   7.445  0.00  0.00    +0.110 C 
BRANCH   6   7
ATOM      7  C   UNK A  0       26.182 -20.632   6.192  0.00  0.00    +0.087 C 
BRANCH   7   8
ATOM      8  N   UNK A  0       26.814 -20.069   5.003  0.00  0.00    -0.330 NA
ATOM      9  H   UNK A  0       26.928 -20.791   4.292  0.00  0.00    +0.118 HD
ATOM     10  H   UNK A  0       26.188 -19.373   4.596  0.00  0.00    +0.118 HD
ENDBRANCH   7   8
ENDBRANCH   6   7
ENDBRANCH   2   6
ENDBRANCH   1   3
BRANCH   1  11
ATOM     11  C   HIS A  1       31.184 -21.011   8.961  0.00  0.00    +0.326 C 
ATOM     12  O   HIS A  1       32.325 -21.072   9.401  0.00  0.00    -0.249 OA
BRANCH  11  13
ATOM     13  OXT HIS A  1       30.221 -21.863   9.360  0.00  0.00    -0.479 OA
ATOM     14  HXT HIS A  1       30.331 -22.731   8.920  0.00  0.00    +0.295 HD
ENDBRANCH  11  13
ENDBRANCH   1  11
BRANCH   1  15
ATOM     15  CB  HIS A  1       31.508 -18.639   8.120  0.00  0.00    +0.088 C 
BRANCH  15  16
ATOM     16  CG  HIS A  1       31.164 -17.890   9.364  0.00  0.00    +0.038 A 
ATOM     17  ND1 HIS A  1       31.814 -18.081  10.561  0.00  0.00    -0.348 N 
ATOM     18  HD1 HIS A  1       32.575 -18.726  10.744  0.00  0.00    +0.167 HD
ATOM     19  CE1 HIS A  1       31.232 -17.253  11.479  0.00  0.00    +0.196 A 
ATOM     20  NE2 HIS A  1       30.280 -16.528  10.937  0.00  0.00    -0.244 NA
ATOM     21  CD2 HIS A  1       30.248 -16.892   9.620  0.00  0.00    +0.133 A 
ENDBRANCH  15  16
ENDBRANCH   1  15
TORSDOF 8
ENDMDL
MODEL 3
REMARK VINA RESULT:      -6.3      3.880      6.225
REMARK  Name = *****
REMARK                            x       y       z     vdW  Elec       q    Type
REMARK                         _______ _______ _______ _____ _____    ______ ____
ROOT
ATOM      1  CA  HIS A  1       24.884 -21.324   5.914  0.00  0.00    +0.187 C 
ENDROOT
BRANCH   1   3
ATOM      2  C   UNK A  0       25.518 -23.652   6.508  0.00  0.00    +0.215 C 
ATOM      3  N   HIS A  1       25.104 -22.737   5.565  0.00  0.00    -0.302 N 
ATOM      4  H   HIS A  1       24.846 -23.045   4.630  0.00  0.00    +0.149 HD
ATOM      5  O   UNK A  0       25.632 -23.354   7.689  0.00  0.00    -0.276 OA
BRANCH   2   6
ATOM      6  C   UNK A  0       25.669 -25.058   5.977  0.00  0.00    +0.110 C 
BRANCH   6   7
ATOM      7  C   UNK A  0       24.302 -25.721   5.891  0.00  0.00    +0.087 C 
BRANCH   7   8
ATOM      8  N   UNK A  0       23.262 -24.825   6.386  0.00  0.00    -0.330 NA
ATOM      9  H   UNK A  0       22.347 -25.265   6.291  0.00  0.00    +0.118 HD
ATOM     10  H   UNK A  0       23.400 -24.682   7.387  0.00  0.00    +0.118 HD
ENDBRANCH   7   8
ENDBRANCH   6   7
ENDBRANCH   2   6
ENDBRANCH   1   3
BRANCH   1  11
ATOM     11  C   HIS A  1       23.516 -20.840   5.408  0.00  0.00    +0.326 C 
ATOM     12  O   HIS A  1       23.319 -19.709   4.984  0.00  0.00    -0.249 OA
BRANCH  11  13
ATOM     13  OXT HIS A  1       22.541 -21.767   5.443  0.00  0.00    -0.479 OA
ATOM     14  HXT HIS A  1       22.889 -22.614   5.787  0.00  0.00    +0.295 HD
ENDBRANCH  11  13
ENDBRANCH   1  11
BRANCH   1  15
ATOM     15  CB  HIS A  1       26.015 -20.399   5.428  0.00  0.00    +0.088 C 
BRANCH  15  16
ATOM     16  CG  HIS A  1       27.205 -20.369   6.329  0.00  0.00    +0.038 A 
ATOM     17  ND1 HIS A  1       28.500 -20.379   5.866  0.00  0.00    -0.348 N 
ATOM     18  HD1 HIS A  1       28.799 -20.407   4.898  0.00  0.00    +0.167 HD
ATOM     19  CE1 HIS A  1       29.324 -20.364   6.956  0.00  0.00    +0.196 A 
ATOM     20  NE2 HIS A  1       28.640 -20.313   8.076  0.00  0.00    -0.244 NA
ATOM     21  CD2 HIS A  1       27.326 -20.286   7.700  0.00  0.00    +0.133 A 
ENDBRANCH  15  16
ENDBRANCH   1  15
TORSDOF 8
ENDMDL
MODEL 4
REMARK VINA RESULT:      -6.2      4.887      7.297
REMARK  Name = *****
REMARK                            x       y       z     vdW  Elec       q    Type
REMARK                         _______ _______ _______ _____ _____    ______ ____
ROOT
ATOM      1  CA  HIS A  1       25.447 -21.973   7.616  0.00  0.00    +0.187 C 
ENDROOT
BRANCH   1   3
ATOM      2  C   UNK A  0       23.399 -21.192   6.445  0.00  0.00    +0.215 C 
ATOM      3  N   HIS A  1       24.721 -21.001   6.782  0.00  0.00    -0.302 N 
ATOM      4  H   HIS A  1       25.191 -20.131   6.543  0.00  0.00    +0.149 HD
ATOM      5  O   UNK A  0       22.747 -22.124   6.894  0.00  0.00    -0.276 OA
BRANCH   2   6
ATOM      6  C   UNK A  0       22.812 -20.083   5.604  0.00  0.00    +0.110 C 
BRANCH   6   7
ATOM      7  C   UNK A  0       23.355 -20.175   4.185  0.00  0.00    +0.087 C 
BRANCH   7   8
ATOM      8  N   UNK A  0       23.854 -21.519   3.910  0.00  0.00    -0.330 NA
ATOM      9  H   UNK A  0       23.181 -22.032   3.340  0.00  0.00    +0.118 HD
ATOM     10  H   UNK A  0       24.700 -21.446   3.345  0.00  0.00    +0.118 HD
ENDBRANCH   7   8
ENDBRANCH   6   7
ENDBRANCH   2   6
ENDBRANCH   1   3
BRANCH   1  11
ATOM     11  C   HIS A  1       26.302 -21.259   8.674  0.00  0.00    +0.326 C 
ATOM     12  O   HIS A  1       25.843 -20.465   9.485  0.00  0.00    -0.249 OA
BRANCH  11  13
ATOM     13  OXT HIS A  1       27.607 -21.588   8.662  0.00  0.00    -0.479 OA
ATOM     14  HXT HIS A  1       27.796 -22.257   9.351  0.00  0.00    +0.295 HD
ENDBRANCH  11  13
ENDBRANCH   1  11
BRANCH   1  15
ATOM     15  CB  HIS A  1       26.291 -22.963   6.793  0.00  0.00    +0.088 C 
BRANCH  15  16
ATOM     16  CG  HIS A  1       25.587 -24.237   6.466  0.00  0.00    +0.038 A 
ATOM     17  ND1 HIS A  1       24.547 -24.314   5.568  0.00  0.00    -0.348 N 
ATOM     18  HD1 HIS A  1       24.143 -23.549   5.039  0.00  0.00    +0.167 HD
ATOM     19  CE1 HIS A  1       24.135 -25.616   5.530  0.00  0.00    +0.196 A 
ATOM     20  NE2 HIS A  1       24.863 -26.374   6.318  0.00  0.00    -0.244 NA
ATOM     21  CD2 HIS A  1       25.786 -25.537   6.880  0.00  0.00    +0.133 A 
ENDBRANCH  15  16
ENDBRANCH   1  15
TORSDOF 8
ENDMDL
MODEL 5
REMARK VINA RESULT:      -6.2      4.418      6.485
REMARK  Name = *****
REMARK                            x       y       z     vdW  Elec       q    Type
REMARK                         _______ _______ _______ _____ _____    ______ ____
ROOT
ATOM      1  CA  HIS A  1       24.878 -22.157   6.226  0.00  0.00    +0.187 C 
ENDROOT
BRANCH   1   3
ATOM      2  C   UNK A  0       25.283 -24.556   5.720  0.00  0.00    +0.215 C 
ATOM      3  N   HIS A  1       24.895 -23.302   5.301  0.00  0.00    -0.302 N 
ATOM      4  H   HIS A  1       24.516 -23.168   4.366  0.00  0.00    +0.149 HD
ATOM      5  O   UNK A  0       25.542 -24.793   6.892  0.00  0.00    -0.276 OA
BRANCH   2   6
ATOM      6  C   UNK A  0       25.216 -25.613   4.643  0.00  0.00    +0.110 C 
BRANCH   6   7
ATOM      7  C   UNK A  0       25.774 -26.924   5.179  0.00  0.00    +0.087 C 
BRANCH   7   8
ATOM      8  N   UNK A  0       27.205 -26.808   5.441  0.00  0.00    -0.330 NA
ATOM      9  H   UNK A  0       27.646 -27.725   5.385  0.00  0.00    +0.118 HD
ATOM     10  H   UNK A  0       27.630 -26.247   4.701  0.00  0.00    +0.118 HD
ENDBRANCH   7   8
ENDBRANCH   6   7
ENDBRANCH   2   6
ENDBRANCH   1   3
BRANCH   1  11
ATOM     11  C   HIS A  1       23.440 -21.807   6.640  0.00  0.00    +0.326 C 
ATOM     12  O   HIS A  1       23.151 -21.344   7.736  0.00  0.00    -0.249 OA
BRANCH  11  13
ATOM     13  OXT HIS A  1       22.509 -22.027   5.693  0.00  0.00    -0.479 OA
ATOM     14  HXT HIS A  1       21.950 -21.232   5.574  0.00  0.00    +0.295 HD
ENDBRANCH  11  13
ENDBRANCH   1  11
BRANCH   1  15
ATOM     15  CB  HIS A  1       25.612 -20.923   5.672  0.00  0.00    +0.088 C 
BRANCH  15  16
ATOM     16  CG  HIS A  1       26.857 -20.571   6.417  0.00  0.00    +0.038 A 
ATOM     17  ND1 HIS A  1       28.053 -20.296   5.795  0.00  0.00    -0.348 N 
ATOM     18  HD1 HIS A  1       28.235 -20.298   4.798  0.00  0.00    +0.167 HD
ATOM     19  CE1 HIS A  1       28.972 -20.037   6.773  0.00  0.00    +0.196 A 
ATOM     20  NE2 HIS A  1       28.432 -20.098   7.969  0.00  0.00    -0.244 NA
ATOM     21  CD2 HIS A  1       27.115 -20.398   7.760  0.00  0.00    +0.133 A 
ENDBRANCH  15  16
ENDBRANCH   1  15
TORSDOF 8
ENDMDL
MODEL 6
REMARK VINA RESULT:      -6.2      2.537      4.041
REMARK  Name = *****
REMARK                            x       y       z     vdW  Elec       q    Type
REMARK                         _______ _______ _______ _____ _____    ______ ____
ROOT
ATOM      1  CA  HIS A  1       27.760 -20.306   6.987  0.00  0.00    +0.187 C 
ENDROOT
BRANCH   1   3
ATOM      2  C   UNK A  0       25.661 -20.985   8.132  0.00  0.00    +0.215 C 
ATOM      3  N   HIS A  1       26.416 -20.910   6.982  0.00  0.00    -0.302 N 
ATOM      4  H   HIS A  1       26.017 -21.181   6.087  0.00  0.00    +0.149 HD
ATOM      5  O   UNK A  0       26.031 -20.476   9.181  0.00  0.00    -0.276 OA
BRANCH   2   6
ATOM      6  C   UNK A  0       24.302 -21.614   7.935  0.00  0.00    +0.110 C 
BRANCH   6   7
ATOM      7  C   UNK A  0       23.654 -21.047   6.680  0.00  0.00    +0.087 C 
BRANCH   7   8
ATOM      8  N   UNK A  0       23.740 -22.001   5.579  0.00  0.00    -0.330 NA
ATOM      9  H   UNK A  0       24.084 -21.537   4.740  0.00  0.00    +0.118 HD
ATOM     10  H   UNK A  0       24.436 -22.710   5.812  0.00  0.00    +0.118 HD
ENDBRANCH   7   8
ENDBRANCH   6   7
ENDBRANCH   2   6
ENDBRANCH   1   3
BRANCH   1  11
ATOM     11  C   HIS A  1       28.044 -19.591   5.657  0.00  0.00    +0.326 C 
ATOM     12  O   HIS A  1       28.983 -18.823   5.496  0.00  0.00    -0.249 OA
BRANCH  11  13
ATOM     13  OXT HIS A  1       27.190 -19.890   4.660  0.00  0.00    -0.479 OA
ATOM     14  HXT HIS A  1       27.236 -19.210   3.958  0.00  0.00    +0.295 HD
ENDBRANCH  11  13
ENDBRANCH   1  11
BRANCH   1  15
ATOM     15  CB  HIS A  1       28.873 -21.314   7.325  0.00  0.00    +0.088 C 
BRANCH  15  16
ATOM     16  CG  HIS A  1       30.016 -20.725   8.083  0.00  0.00    +0.038 A 
ATOM     17  ND1 HIS A  1       30.207 -19.370   8.226  0.00  0.00    -0.348 N 
ATOM     18  HD1 HIS A  1       29.622 -18.632   7.852  0.00  0.00    +0.167 HD
ATOM     19  CE1 HIS A  1       31.349 -19.193   8.953  0.00  0.00    +0.196 A 
ATOM     20  NE2 HIS A  1       31.878 -20.342   9.307  0.00  0.00    -0.244 NA
ATOM     21  CD2 HIS A  1       31.044 -21.299   8.800  0.00  0.00    +0.133 A 
ENDBRANCH  15  16
ENDBRANCH   1  15
TORSDOF 8
ENDMDL
MODEL 7
REMARK VINA RESULT:      -6.2      4.667      6.586
REMARK  Name = *****
REMARK                            x       y       z     vdW  Elec       q    Type
REMARK                         _______ _______ _______ _____ _____    ______ ____
ROOT
ATOM      1  CA  HIS A  1       25.117 -23.837   5.716  0.00  0.00    +0.187 C 
ENDROOT
BRANCH   1   3
ATOM      2  C   UNK A  0       23.859 -21.752   5.217  0.00  0.00    +0.215 C 
ATOM      3  N   HIS A  1       23.878 -23.040   5.705  0.00  0.00    -0.302 N 
ATOM      4  H   HIS A  1       23.012 -23.499   5.976  0.00  0.00    +0.149 HD
ATOM      5  O   UNK A  0       24.841 -21.248   4.690  0.00  0.00    -0.276 OA
BRANCH   2   6
ATOM      6  C   UNK A  0       22.499 -21.096   5.263  0.00  0.00    +0.110 C 
BRANCH   6   7
ATOM      7  C   UNK A  0       22.664 -19.585   5.337  0.00  0.00    +0.087 C 
BRANCH   7   8
ATOM      8  N   UNK A  0       23.086 -19.048   4.047  0.00  0.00    -0.330 NA
ATOM      9  H   UNK A  0       22.303 -19.050   3.394  0.00  0.00    +0.118 HD
ATOM     10  H   UNK A  0       23.347 -18.069   4.168  0.00  0.00    +0.118 HD
ENDBRANCH   7   8
ENDBRANCH   6   7
ENDBRANCH   2   6
ENDBRANCH   1   3
BRANCH   1  11
ATOM     11  C   HIS A  1       24.859 -25.258   5.191  0.00  0.00    +0.326 C 
ATOM     12  O   HIS A  1       25.703 -25.918   4.599  0.00  0.00    -0.249 OA
BRANCH  11  13
ATOM     13  OXT HIS A  1       23.631 -25.743   5.453  0.00  0.00    -0.479 OA
ATOM     14  HXT HIS A  1       23.501 -26.601   5.000  0.00  0.00    +0.295 HD
ENDBRANCH  11  13
ENDBRANCH   1  11
BRANCH   1  15
ATOM     15  CB  HIS A  1       25.802 -23.869   7.094  0.00  0.00    +0.088 C 
BRANCH  15  16
ATOM     16  CG  HIS A  1       26.233 -22.528   7.590  0.00  0.00    +0.038 A 
ATOM     17  ND1 HIS A  1       27.078 -21.702   6.886  0.00  0.00    -0.348 N 
ATOM     18  HD1 HIS A  1       27.497 -21.888   5.982  0.00  0.00    +0.167 HD
ATOM     19  CE1 HIS A  1       27.272 -20.579   7.639  0.00  0.00    +0.196 A 
ATOM     20  NE2 HIS A  1       26.583 -20.623   8.756  0.00  0.00    -0.244 NA
ATOM     21  CD2 HIS A  1       25.912 -21.814   8.724  0.00  0.00    +0.133 A 
ENDBRANCH  15  16
ENDBRANCH   1  15
TORSDOF 8
ENDMDL
MODEL 8
REMARK VINA RESULT:      -6.1      4.838      6.953
REMARK  Name = *****
REMARK                            x       y       z     vdW  Elec       q    Type
REMARK                         _______ _______ _______ _____ _____    ______ ____
ROOT
ATOM      1  CA  HIS A  1       23.588 -21.708   5.791  0.00  0.00    +0.187 C 
ENDROOT
BRANCH   1   3
ATOM      2  C   UNK A  0       23.570 -24.111   6.427  0.00  0.00    +0.215 C 
ATOM      3  N   HIS A  1       24.213 -23.041   5.844  0.00  0.00    -0.302 N 
ATOM      4  H   HIS A  1       25.091 -23.177   5.350  0.00  0.00    +0.149 HD
ATOM      5  O   UNK A  0       22.422 -24.026   6.842  0.00  0.00    -0.276 OA
BRANCH   2   6
ATOM      6  C   UNK A  0       24.350 -25.403   6.370  0.00  0.00    +0.110 C 
BRANCH   6   7
ATOM      7  C   UNK A  0       25.842 -25.099   6.382  0.00  0.00    +0.087 C 
BRANCH   7   8
ATOM      8  N   UNK A  0       26.589 -26.161   5.715  0.00  0.00    -0.330 NA
ATOM      9  H   UNK A  0       26.526 -26.052   4.703  0.00  0.00    +0.118 HD
ATOM     10  H   UNK A  0       27.579 -26.061   5.946  0.00  0.00    +0.118 HD
ENDBRANCH   7   8
ENDBRANCH   6   7
ENDBRANCH   2   6
ENDBRANCH   1   3
BRANCH   1  11
ATOM     11  C   HIS A  1       23.962 -20.979   4.491  0.00  0.00    +0.326 C 
ATOM     12  O   HIS A  1       24.403 -19.837   4.466  0.00  0.00    -0.249 OA
BRANCH  11  13
ATOM     13  OXT HIS A  1       23.791 -21.701   3.368  0.00  0.00    -0.479 OA
ATOM     14  HXT HIS A  1       24.154 -22.602   3.485  0.00  0.00    +0.295 HD
ENDBRANCH  11  13
ENDBRANCH   1  11
BRANCH   1  15
ATOM     15  CB  HIS A  1       23.903 -20.844   7.025  0.00  0.00    +0.088 C 
BRANCH  15  16
ATOM     16  CG  HIS A  1       25.301 -20.987   7.526  0.00  0.00    +0.038 A 
ATOM     17  ND1 HIS A  1       26.378 -20.364   6.941  0.00  0.00    -0.348 N 
ATOM     18  HD1 HIS A  1       26.362 -19.755   6.130  0.00  0.00    +0.167 HD
ATOM     19  CE1 HIS A  1       27.493 -20.729   7.641  0.00  0.00    +0.196 A 
ATOM     20  NE2 HIS A  1       27.191 -21.516   8.649  0.00  0.00    -0.244 NA
ATOM     21  CD2 HIS A  1       25.832 -21.659   8.607  0.00  0.00    +0.133 A 
ENDBRANCH  15  16
ENDBRANCH   1  15
TORSDOF 8
ENDMDL
MODEL 9
REMARK VINA RESULT:      -6.1      4.198      6.999
REMARK  Name = *****
REMARK                            x       y       z     vdW  Elec       q    Type
REMARK                         _______ _______ _______ _____ _____    ______ ____
ROOT
ATOM      1  CA  HIS A  1       24.496 -22.016   7.370  0.00  0.00    +0.187 C 
ENDROOT
BRANCH   1   3
ATOM      2  C   UNK A  0       26.416 -20.669   8.192  0.00  0.00    +0.215 C 
ATOM      3  N   HIS A  1       25.809 -21.378   7.179  0.00  0.00    -0.302 N 
ATOM      4  H   HIS A  1       26.306 -21.558   6.310  0.00  0.00    +0.149 HD
ATOM      5  O   UNK A  0       25.937 -20.614   9.317  0.00  0.00    -0.276 OA
BRANCH   2   6
ATOM      6  C   UNK A  0       27.767 -20.104   7.825  0.00  0.00    +0.110 C 
BRANCH   6   7
ATOM      7  C   UNK A  0       28.255 -20.745   6.534  0.00  0.00    +0.087 C 
BRANCH   7   8
ATOM      8  N   UNK A  0       27.726 -20.036   5.374  0.00  0.00    -0.330 NA
ATOM      9  H   UNK A  0       26.710 -19.974   5.434  0.00  0.00    +0.118 HD
ATOM     10  H   UNK A  0       28.066 -19.074   5.394  0.00  0.00    +0.118 HD
ENDBRANCH   7   8
ENDBRANCH   6   7
ENDBRANCH   2   6
ENDBRANCH   1   3
BRANCH   1  11
ATOM     11  C   HIS A  1       24.387 -23.306   6.542  0.00  0.00    +0.326 C 
ATOM     12  O   HIS A  1       23.581 -24.194   6.786  0.00  0.00    -0.249 OA
BRANCH  11  13
ATOM     13  OXT HIS A  1       25.235 -23.382   5.500  0.00  0.00    -0.479 OA
ATOM     14  HXT HIS A  1       25.950 -24.024   5.688  0.00  0.00    +0.295 HD
ENDBRANCH  11  13
ENDBRANCH   1  11
BRANCH   1  15
ATOM     15  CB  HIS A  1       23.317 -21.069   7.083  0.00  0.00    +0.088 C 
BRANCH  15  16
ATOM     16  CG  HIS A  1       23.428 -20.335   5.788  0.00  0.00    +0.038 A 
ATOM     17  ND1 HIS A  1       24.527 -20.424   4.964  0.00  0.00    -0.348 N 
ATOM     18  HD1 HIS A  1       25.363 -20.973   5.124  0.00  0.00    +0.167 HD
ATOM     19  CE1 HIS A  1       24.297 -19.614   3.888  0.00  0.00    +0.196 A 
ATOM     20  NE2 HIS A  1       23.116 -19.043   3.959  0.00  0.00    -0.244 NA
ATOM     21  CD2 HIS A  1       22.555 -19.506   5.116  0.00  0.00    +0.133 A 
ENDBRANCH  15  16
ENDBRANCH   1  15
TORSDOF 8
ENDMDL
