MODEL 1
REMARK VINA RESULT:      -8.8      0.000      0.000
REMARK  Name = *****
REMARK                            x       y       z     vdW  Elec       q    Type
REMARK                         _______ _______ _______ _____ _____    ______ ____
ROOT
ATOM      1  C   LIG    1       25.745 -21.264   6.773  0.00  0.00    +0.121 C 
ENDROOT
BRANCH   1   2
ATOM      2  C   LIG    1       24.756 -20.520   5.850  0.00  0.00    +0.022 A 
ATOM      3  C   LIG    1       23.420 -20.311   6.233  0.00  0.00    +0.132 A 
ATOM      4  F   LIG    1       22.984 -20.774   7.413  0.00  0.00    -0.205 F 
ATOM      5  C   LIG    1       22.513 -19.634   5.417  0.00  0.00    +0.077 A 
ATOM      6  C   LIG    1       22.931 -19.168   4.182  0.00  0.00    +0.126 A 
ATOM      7  F   LIG    1       22.070 -18.516   3.389  0.00  0.00    -0.205 F 
ATOM      8  C   LIG    1       24.235 -19.368   3.752  0.00  0.00    +0.039 A 
ATOM      9  C   LIG    1       25.144 -20.024   4.588  0.00  0.00    +0.012 A 
ENDBRANCH   1   2
BRANCH   1  11
ATOM     10  C   LIG    1       25.714 -22.612   9.026  0.00  0.00    +0.017 C 
ATOM     11  C   LIG    1       25.048 -22.416   7.639  0.00  0.00    +0.076 C 
BRANCH  11  12
ATOM     12  C   LIG    1       25.010 -23.799   6.969  0.00  0.00    +0.086 A 
ATOM     13  C   LIG    1       23.819 -24.357   6.547  0.00  0.00    +0.163 A 
ATOM     14  F   LIG    1       22.644 -23.715   6.682  0.00  0.00    -0.202 F 
ATOM     15  C   LIG    1       23.861 -25.618   6.004  0.00  0.00    +0.152 A 
ATOM     16  N   LIG    1       25.009 -26.302   5.808  0.00  0.00    -0.241 NA
ATOM     17  C   LIG    1       26.117 -25.679   6.220  0.00  0.00    +0.221 A 
ATOM     18  N   LIG    1       26.178 -24.488   6.846  0.00  0.00    -0.237 NA
ENDBRANCH  11  12
ENDBRANCH   1  11
BRANCH   1  19
ATOM     19  O   LIG    1       26.770 -21.917   5.985  0.00  0.00    -0.381 OA
ATOM     20  H   LIG    1       26.726 -22.864   6.231  0.00  0.00    +0.211 HD
ENDBRANCH   1  19
BRANCH   1  21
ATOM     21  C   LIG    1       26.495 -20.246   7.691  0.00  0.00    +0.185 C 
BRANCH  21  22
ATOM     22  N   LIG    1       27.945 -20.250   7.551  0.00  0.00    -0.249 N 
ATOM     23  N   LIG    1       28.718 -21.107   8.249  0.00  0.00    -0.158 NA
ATOM     24  C   LIG    1       29.928 -20.839   7.746  0.00  0.00    +0.244 A 
ATOM     25  N   LIG    1       29.953 -19.909   6.747  0.00  0.00    -0.223 NA
ATOM     26  C   LIG    1       28.688 -19.566   6.637  0.00  0.00    +0.219 A 
ENDBRANCH  21  22
ENDBRANCH   1  21
TORSDOF 6
ENDMDL
MODEL 2
REMARK VINA RESULT:      -8.7      1.028      1.549
REMARK  Name = *****
REMARK                            x       y       z     vdW  Elec       q    Type
REMARK                         _______ _______ _______ _____ _____    ______ ____
ROOT
ATOM      1  C   LIG    1       25.564 -21.212   6.589  0.00  0.00    +0.121 C 
ENDROOT
BRANCH   1   2
ATOM      2  C   LIG    1       24.519 -20.441   5.756  0.00  0.00    +0.022 A 
ATOM      3  C   LIG    1       24.877 -19.786   4.565  0.00  0.00    +0.132 A 
ATOM      4  F   LIG    1       26.150 -19.815   4.144  0.00  0.00    -0.205 F 
ATOM      5  C   LIG    1       23.946 -19.090   3.793  0.00  0.00    +0.077 A 
ATOM      6  C   LIG    1       22.631 -19.023   4.218  0.00  0.00    +0.126 A 
ATOM      7  F   LIG    1       21.726 -18.358   3.486  0.00  0.00    -0.205 F 
ATOM      8  C   LIG    1       22.233 -19.636   5.397  0.00  0.00    +0.039 A 
ATOM      9  C   LIG    1       23.167 -20.354   6.150  0.00  0.00    +0.012 A 
ENDBRANCH   1   2
BRANCH   1  11
ATOM     10  C   LIG    1       25.587 -22.443   8.908  0.00  0.00    +0.017 C 
ATOM     11  C   LIG    1       24.916 -22.347   7.514  0.00  0.00    +0.076 C 
BRANCH  11  12
ATOM     12  C   LIG    1       24.937 -23.762   6.915  0.00  0.00    +0.086 A 
ATOM     13  C   LIG    1       23.770 -24.394   6.529  0.00  0.00    +0.163 A 
ATOM     14  F   LIG    1       22.568 -23.798   6.638  0.00  0.00    -0.202 F 
ATOM     15  C   LIG    1       23.866 -25.678   6.052  0.00  0.00    +0.152 A 
ATOM     16  N   LIG    1       25.043 -26.320   5.884  0.00  0.00    -0.241 NA
ATOM     17  C   LIG    1       26.123 -25.627   6.257  0.00  0.00    +0.221 A 
ATOM     18  N   LIG    1       26.134 -24.405   6.820  0.00  0.00    -0.237 NA
ENDBRANCH  11  12
ENDBRANCH   1  11
BRANCH   1  19
ATOM     19  O   LIG    1       26.499 -21.891   5.714  0.00  0.00    -0.381 OA
ATOM     20  H   LIG    1       25.983 -22.603   5.282  0.00  0.00    +0.211 HD
ENDBRANCH   1  19
BRANCH   1  21
ATOM     21  C   LIG    1       26.419 -20.216   7.436  0.00  0.00    +0.185 C 
BRANCH  21  22
ATOM     22  N   LIG    1       27.854 -20.283   7.194  0.00  0.00    -0.249 N 
ATOM     23  N   LIG    1       28.441 -19.550   6.226  0.00  0.00    -0.158 NA
ATOM     24  C   LIG    1       29.732 -19.837   6.426  0.00  0.00    +0.244 A 
ATOM     25  N   LIG    1       29.992 -20.660   7.484  0.00  0.00    -0.223 NA
ATOM     26  C   LIG    1       28.791 -20.914   7.957  0.00  0.00    +0.219 A 
ENDBRANCH  21  22
ENDBRANCH   1  21
TORSDOF 6
ENDMDL
MODEL 3
REMARK VINA RESULT:      -7.9      2.851      6.153
REMARK  Name = *****
REMARK                            x       y       z     vdW  Elec       q    Type
REMARK                         _______ _______ _______ _____ _____    ______ ____
ROOT
ATOM      1  C   LIG    1       25.288 -22.905   6.491  0.00  0.00    +0.121 C 
ENDROOT
BRANCH   1   2
ATOM      2  C   LIG    1       25.452 -24.407   6.179  0.00  0.00    +0.022 A 
ATOM      3  C   LIG    1       25.182 -24.918   4.898  0.00  0.00    +0.132 A 
ATOM      4  F   LIG    1       24.761 -24.096   3.926  0.00  0.00    -0.205 F 
ATOM      5  C   LIG    1       25.332 -26.272   4.594  0.00  0.00    +0.077 A 
ATOM      6  C   LIG    1       25.740 -27.147   5.586  0.00  0.00    +0.126 A 
ATOM      7  F   LIG    1       25.888 -28.449   5.307  0.00  0.00    -0.205 F 
ATOM      8  C   LIG    1       25.999 -26.693   6.871  0.00  0.00    +0.039 A 
ATOM      9  C   LIG    1       25.873 -25.331   7.159  0.00  0.00    +0.012 A 
ENDBRANCH   1   2
BRANCH   1  11
ATOM     10  C   LIG    1       25.723 -21.734   8.801  0.00  0.00    +0.017 C 
ATOM     11  C   LIG    1       26.370 -22.360   7.538  0.00  0.00    +0.076 C 
BRANCH  11  12
ATOM     12  C   LIG    1       27.345 -21.313   6.977  0.00  0.00    +0.086 A 
ATOM     13  C   LIG    1       28.642 -21.217   7.447  0.00  0.00    +0.163 A 
ATOM     14  F   LIG    1       29.117 -22.044   8.396  0.00  0.00    -0.202 F 
ATOM     15  C   LIG    1       29.436 -20.222   6.933  0.00  0.00    +0.152 A 
ATOM     16  N   LIG    1       29.032 -19.383   5.954  0.00  0.00    -0.241 NA
ATOM     17  C   LIG    1       27.774 -19.561   5.539  0.00  0.00    +0.221 A 
ATOM     18  N   LIG    1       26.885 -20.441   6.038  0.00  0.00    -0.237 NA
ENDBRANCH  11  12
ENDBRANCH   1  11
BRANCH   1  19
ATOM     19  O   LIG    1       25.466 -22.122   5.285  0.00  0.00    -0.381 OA
ATOM     20  H   LIG    1       25.185 -22.704   4.550  0.00  0.00    +0.211 HD
ENDBRANCH   1  19
BRANCH   1  21
ATOM     21  C   LIG    1       23.834 -22.611   6.981  0.00  0.00    +0.185 C 
BRANCH  21  22
ATOM     22  N   LIG    1       23.135 -21.575   6.233  0.00  0.00    -0.249 N 
ATOM     23  N   LIG    1       23.460 -20.272   6.362  0.00  0.00    -0.158 NA
ATOM     24  C   LIG    1       22.662 -19.711   5.446  0.00  0.00    +0.244 A 
ATOM     25  N   LIG    1       21.900 -20.581   4.721  0.00  0.00    -0.223 NA
ATOM     26  C   LIG    1       22.229 -21.749   5.230  0.00  0.00    +0.219 A 
ENDBRANCH  21  22
ENDBRANCH   1  21
TORSDOF 6
ENDMDL
MODEL 4
REMARK VINA RESULT:      -7.5      2.529      5.768
REMARK  Name = *****
REMARK                            x       y       z     vdW  Elec       q    Type
REMARK                         _______ _______ _______ _____ _____    ______ ____
ROOT
ATOM      1  C   LIG    1       25.517 -21.749   6.562  0.00  0.00    +0.121 C 
ENDROOT
BRANCH   1   2
ATOM      2  C   LIG    1       25.168 -23.251   6.512  0.00  0.00    +0.022 A 
ATOM      3  C   LIG    1       23.832 -23.687   6.477  0.00  0.00    +0.132 A 
ATOM      4  F   LIG    1       22.836 -22.789   6.502  0.00  0.00    -0.205 F 
ATOM      5  C   LIG    1       23.496 -25.040   6.422  0.00  0.00    +0.077 A 
ATOM      6  C   LIG    1       24.504 -25.988   6.421  0.00  0.00    +0.126 A 
ATOM      7  F   LIG    1       24.195 -27.291   6.369  0.00  0.00    -0.205 F 
ATOM      8  C   LIG    1       25.837 -25.608   6.474  0.00  0.00    +0.039 A 
ATOM      9  C   LIG    1       26.165 -24.249   6.501  0.00  0.00    +0.012 A 
ENDBRANCH   1   2
BRANCH   1  11
ATOM     10  C   LIG    1       26.056 -20.558   8.840  0.00  0.00    +0.017 C 
ATOM     11  C   LIG    1       26.623 -21.398   7.666  0.00  0.00    +0.076 C 
BRANCH  11  12
ATOM     12  C   LIG    1       27.852 -20.643   7.136  0.00  0.00    +0.086 A 
ATOM     13  C   LIG    1       29.112 -20.872   7.655  0.00  0.00    +0.163 A 
ATOM     14  F   LIG    1       29.327 -21.777   8.628  0.00  0.00    -0.202 F 
ATOM     15  C   LIG    1       30.151 -20.120   7.165  0.00  0.00    +0.152 A 
ATOM     16  N   LIG    1       30.009 -19.223   6.165  0.00  0.00    -0.241 NA
ATOM     17  C   LIG    1       28.763 -19.083   5.703  0.00  0.00    +0.221 A 
ATOM     18  N   LIG    1       27.662 -19.699   6.173  0.00  0.00    -0.237 NA
ENDBRANCH  11  12
ENDBRANCH   1  11
BRANCH   1  19
ATOM     19  O   LIG    1       26.066 -21.319   5.292  0.00  0.00    -0.381 OA
ATOM     20  H   LIG    1       26.829 -21.908   5.124  0.00  0.00    +0.211 HD
ENDBRANCH   1  19
BRANCH   1  21
ATOM     21  C   LIG    1       24.221 -20.902   6.776  0.00  0.00    +0.185 C 
BRANCH  21  22
ATOM     22  N   LIG    1       23.810 -20.113   5.622  0.00  0.00    -0.249 N 
ATOM     23  N   LIG    1       24.619 -19.949   4.556  0.00  0.00    -0.158 NA
ATOM     24  C   LIG    1       23.822 -19.269   3.724  0.00  0.00    +0.244 A 
ATOM     25  N   LIG    1       22.556 -19.042   4.181  0.00  0.00    -0.223 NA
ATOM     26  C   LIG    1       22.573 -19.597   5.374  0.00  0.00    +0.219 A 
ENDBRANCH  21  22
ENDBRANCH   1  21
TORSDOF 6
ENDMDL
MODEL 5
REMARK VINA RESULT:      -7.5      2.778      5.500
REMARK  Name = *****
REMARK                            x       y       z     vdW  Elec       q    Type
REMARK                         _______ _______ _______ _____ _____    ______ ____
ROOT
ATOM      1  C   LIG    1       25.806 -21.768   6.518  0.00  0.00    +0.121 C 
ENDROOT
BRANCH   1   2
ATOM      2  C   LIG    1       27.205 -21.131   6.657  0.00  0.00    +0.022 A 
ATOM      3  C   LIG    1       27.605 -20.067   5.831  0.00  0.00    +0.132 A 
ATOM      4  F   LIG    1       26.768 -19.598   4.893  0.00  0.00    -0.205 F 
ATOM      5  C   LIG    1       28.862 -19.472   5.945  0.00  0.00    +0.077 A 
ATOM      6  C   LIG    1       29.755 -19.953   6.887  0.00  0.00    +0.126 A 
ATOM      7  F   LIG    1       30.965 -19.391   7.008  0.00  0.00    -0.205 F 
ATOM      8  C   LIG    1       29.413 -21.015   7.712  0.00  0.00    +0.039 A 
ATOM      9  C   LIG    1       28.142 -21.587   7.608  0.00  0.00    +0.012 A 
ENDBRANCH   1   2
BRANCH   1  11
ATOM     10  C   LIG    1       23.857 -21.370   8.232  0.00  0.00    +0.017 C 
ATOM     11  C   LIG    1       24.627 -20.804   7.011  0.00  0.00    +0.076 C 
BRANCH  11  12
ATOM     12  C   LIG    1       23.574 -20.469   5.942  0.00  0.00    +0.086 A 
ATOM     13  C   LIG    1       22.505 -21.310   5.702  0.00  0.00    +0.163 A 
ATOM     14  F   LIG    1       22.321 -22.445   6.401  0.00  0.00    -0.202 F 
ATOM     15  C   LIG    1       21.636 -20.968   4.695  0.00  0.00    +0.152 A 
ATOM     16  N   LIG    1       21.743 -19.826   3.980  0.00  0.00    -0.241 NA
ATOM     17  C   LIG    1       22.790 -19.058   4.294  0.00  0.00    +0.221 A 
ATOM     18  N   LIG    1       23.749 -19.343   5.196  0.00  0.00    -0.237 NA
ENDBRANCH  11  12
ENDBRANCH   1  11
BRANCH   1  19
ATOM     19  O   LIG    1       25.528 -22.066   5.128  0.00  0.00    -0.381 OA
ATOM     20  H   LIG    1       25.916 -21.326   4.618  0.00  0.00    +0.211 HD
ENDBRANCH   1  19
BRANCH   1  21
ATOM     21  C   LIG    1       25.762 -23.139   7.267  0.00  0.00    +0.185 C 
BRANCH  21  22
ATOM     22  N   LIG    1       25.244 -24.249   6.479  0.00  0.00    -0.249 N 
ATOM     23  N   LIG    1       26.049 -24.991   5.691  0.00  0.00    -0.158 NA
ATOM     24  C   LIG    1       25.199 -25.927   5.255  0.00  0.00    +0.244 A 
ATOM     25  N   LIG    1       23.932 -25.848   5.757  0.00  0.00    -0.223 NA
ATOM     26  C   LIG    1       23.994 -24.789   6.536  0.00  0.00    +0.219 A 
ENDBRANCH  21  22
ENDBRANCH   1  21
TORSDOF 6
ENDMDL
MODEL 6
REMARK VINA RESULT:      -7.3      1.787      4.799
REMARK  Name = *****
REMARK                            x       y       z     vdW  Elec       q    Type
REMARK                         _______ _______ _______ _____ _____    ______ ____
ROOT
ATOM      1  C   LIG    1       24.915 -22.618   6.513  0.00  0.00    +0.121 C 
ENDROOT
BRANCH   1   2
ATOM      2  C   LIG    1       24.232 -21.475   5.733  0.00  0.00    +0.022 A 
ATOM      3  C   LIG    1       23.269 -20.652   6.343  0.00  0.00    +0.132 A 
ATOM      4  F   LIG    1       22.922 -20.864   7.621  0.00  0.00    -0.205 F 
ATOM      5  C   LIG    1       22.646 -19.608   5.659  0.00  0.00    +0.077 A 
ATOM      6  C   LIG    1       22.967 -19.383   4.331  0.00  0.00    +0.126 A 
ATOM      7  F   LIG    1       22.376 -18.384   3.662  0.00  0.00    -0.205 F 
ATOM      8  C   LIG    1       23.896 -20.181   3.680  0.00  0.00    +0.039 A 
ATOM      9  C   LIG    1       24.535 -21.207   4.382  0.00  0.00    +0.012 A 
ENDBRANCH   1   2
BRANCH   1  11
ATOM     10  C   LIG    1       25.452 -21.337   8.742  0.00  0.00    +0.017 C 
ATOM     11  C   LIG    1       26.041 -22.100   7.527  0.00  0.00    +0.076 C 
BRANCH  11  12
ATOM     12  C   LIG    1       27.103 -21.182   6.903  0.00  0.00    +0.086 A 
ATOM     13  C   LIG    1       28.405 -21.176   7.365  0.00  0.00    +0.163 A 
ATOM     14  F   LIG    1       28.810 -21.982   8.363  0.00  0.00    -0.202 F 
ATOM     15  C   LIG    1       29.284 -20.289   6.791  0.00  0.00    +0.152 A 
ATOM     16  N   LIG    1       28.951 -19.479   5.762  0.00  0.00    -0.241 NA
ATOM     17  C   LIG    1       27.680 -19.567   5.360  0.00  0.00    +0.221 A 
ATOM     18  N   LIG    1       26.718 -20.330   5.912  0.00  0.00    -0.237 NA
ENDBRANCH  11  12
ENDBRANCH   1  11
BRANCH   1  19
ATOM     19  O   LIG    1       23.941 -23.325   7.320  0.00  0.00    -0.381 OA
ATOM     20  H   LIG    1       23.988 -22.914   8.207  0.00  0.00    +0.211 HD
ENDBRANCH   1  19
BRANCH   1  21
ATOM     21  C   LIG    1       25.496 -23.675   5.520  0.00  0.00    +0.185 C 
BRANCH  21  22
ATOM     22  N   LIG    1       25.276 -25.062   5.907  0.00  0.00    -0.249 N 
ATOM     23  N   LIG    1       24.078 -25.659   5.739  0.00  0.00    -0.158 NA
ATOM     24  C   LIG    1       24.354 -26.912   6.119  0.00  0.00    +0.244 A 
ATOM     25  N   LIG    1       25.654 -27.146   6.464  0.00  0.00    -0.223 NA
ATOM     26  C   LIG    1       26.213 -25.966   6.307  0.00  0.00    +0.219 A 
ENDBRANCH  21  22
ENDBRANCH   1  21
TORSDOF 6
ENDMDL
MODEL 7
REMARK VINA RESULT:      -7.3      2.765      4.366
REMARK  Name = *****
REMARK                            x       y       z     vdW  Elec       q    Type
REMARK                         _______ _______ _______ _____ _____    ______ ____
ROOT
ATOM      1  C   LIG    1       25.099 -21.383   6.854  0.00  0.00    +0.121 C 
ENDROOT
BRANCH   1   2
ATOM      2  C   LIG    1       26.486 -20.706   6.860  0.00  0.00    +0.022 A 
ATOM      3  C   LIG    1       27.022 -20.155   8.037  0.00  0.00    +0.132 A 
ATOM      4  F   LIG    1       26.317 -20.201   9.177  0.00  0.00    -0.205 F 
ATOM      5  C   LIG    1       28.277 -19.547   8.065  0.00  0.00    +0.077 A 
ATOM      6  C   LIG    1       29.014 -19.463   6.896  0.00  0.00    +0.126 A 
ATOM      7  F   LIG    1       30.222 -18.881   6.909  0.00  0.00    -0.205 F 
ATOM      8  C   LIG    1       28.520 -19.975   5.706  0.00  0.00    +0.039 A 
ATOM      9  C   LIG    1       27.273 -20.606   5.693  0.00  0.00    +0.012 A 
ENDBRANCH   1   2
BRANCH   1  11
ATOM     10  C   LIG    1       26.299 -22.934   8.601  0.00  0.00    +0.017 C 
ATOM     11  C   LIG    1       25.069 -22.758   7.674  0.00  0.00    +0.076 C 
BRANCH  11  12
ATOM     12  C   LIG    1       24.984 -24.026   6.809  0.00  0.00    +0.086 A 
ATOM     13  C   LIG    1       23.765 -24.585   6.476  0.00  0.00    +0.163 A 
ATOM     14  F   LIG    1       22.600 -24.039   6.870  0.00  0.00    -0.202 F 
ATOM     15  C   LIG    1       23.773 -25.747   5.744  0.00  0.00    +0.152 A 
ATOM     16  N   LIG    1       24.905 -26.326   5.286  0.00  0.00    -0.241 NA
ATOM     17  C   LIG    1       26.037 -25.707   5.632  0.00  0.00    +0.221 A 
ATOM     18  N   LIG    1       26.146 -24.620   6.420  0.00  0.00    -0.237 NA
ENDBRANCH  11  12
ENDBRANCH   1  11
BRANCH   1  19
ATOM     19  O   LIG    1       24.119 -20.519   7.481  0.00  0.00    -0.381 OA
ATOM     20  H   LIG    1       23.288 -21.036   7.499  0.00  0.00    +0.211 HD
ENDBRANCH   1  19
BRANCH   1  21
ATOM     21  C   LIG    1       24.608 -21.592   5.386  0.00  0.00    +0.185 C 
BRANCH  21  22
ATOM     22  N   LIG    1       23.816 -20.495   4.845  0.00  0.00    -0.249 N 
ATOM     23  N   LIG    1       22.541 -20.287   5.232  0.00  0.00    -0.158 NA
ATOM     24  C   LIG    1       22.251 -19.154   4.583  0.00  0.00    +0.244 A 
ATOM     25  N   LIG    1       23.275 -18.615   3.859  0.00  0.00    -0.223 NA
ATOM     26  C   LIG    1       24.252 -19.474   4.054  0.00  0.00    +0.219 A 
ENDBRANCH  21  22
ENDBRANCH   1  21
TORSDOF 6
ENDMDL
MODEL 8
REMARK VINA RESULT:      -7.2      1.849      5.097
REMARK  Name = *****
REMARK                            x       y       z     vdW  Elec       q    Type
REMARK                         _______ _______ _______ _____ _____    ______ ____
ROOT
ATOM      1  C   LIG    1       26.055 -21.110   7.389  0.00  0.00    +0.121 C 
ENDROOT
BRANCH   1   2
ATOM      2  C   LIG    1       25.082 -20.590   6.309  0.00  0.00    +0.022 A 
ATOM      3  C   LIG    1       23.732 -20.340   6.606  0.00  0.00    +0.132 A 
ATOM      4  F   LIG    1       23.267 -20.567   7.844  0.00  0.00    -0.205 F 
ATOM      5  C   LIG    1       22.838 -19.861   5.647  0.00  0.00    +0.077 A 
ATOM      6  C   LIG    1       23.286 -19.643   4.356  0.00  0.00    +0.126 A 
ATOM      7  F   LIG    1       22.438 -19.184   3.425  0.00  0.00    -0.205 F 
ATOM      8  C   LIG    1       24.605 -19.894   4.009  0.00  0.00    +0.039 A 
ATOM      9  C   LIG    1       25.500 -20.347   4.984  0.00  0.00    +0.012 A 
ENDBRANCH   1   2
BRANCH   1  11
ATOM     10  C   LIG    1       28.258 -22.538   7.436  0.00  0.00    +0.017 C 
ATOM     11  C   LIG    1       27.552 -21.287   6.851  0.00  0.00    +0.076 C 
BRANCH  11  12
ATOM     12  C   LIG    1       28.482 -20.092   7.115  0.00  0.00    +0.086 A 
ATOM     13  C   LIG    1       28.868 -19.246   6.093  0.00  0.00    +0.163 A 
ATOM     14  F   LIG    1       28.435 -19.412   4.829  0.00  0.00    -0.202 F 
ATOM     15  C   LIG    1       29.743 -18.232   6.398  0.00  0.00    +0.152 A 
ATOM     16  N   LIG    1       30.186 -17.989   7.651  0.00  0.00    -0.241 NA
ATOM     17  C   LIG    1       29.744 -18.838   8.583  0.00  0.00    +0.221 A 
ATOM     18  N   LIG    1       28.963 -19.915   8.377  0.00  0.00    -0.237 NA
ENDBRANCH  11  12
ENDBRANCH   1  11
BRANCH   1  19
ATOM     19  O   LIG    1       26.131 -20.169   8.488  0.00  0.00    -0.381 OA
ATOM     20  H   LIG    1       25.273 -20.239   8.954  0.00  0.00    +0.211 HD
ENDBRANCH   1  19
BRANCH   1  21
ATOM     21  C   LIG    1       25.516 -22.442   8.003  0.00  0.00    +0.185 C 
BRANCH  21  22
ATOM     22  N   LIG    1       24.962 -23.380   7.035  0.00  0.00    -0.249 N 
ATOM     23  N   LIG    1       25.757 -24.116   6.232  0.00  0.00    -0.158 NA
ATOM     24  C   LIG    1       24.859 -24.884   5.606  0.00  0.00    +0.244 A 
ATOM     25  N   LIG    1       23.564 -24.712   6.001  0.00  0.00    -0.223 NA
ATOM     26  C   LIG    1       23.661 -23.767   6.912  0.00  0.00    +0.219 A 
ENDBRANCH  21  22
ENDBRANCH   1  21
TORSDOF 6
ENDMDL
MODEL 9
REMARK VINA RESULT:      -6.9      2.112      5.213
REMARK  Name = *****
REMARK                            x       y       z     vdW  Elec       q    Type
REMARK                         _______ _______ _______ _____ _____    ______ ____
ROOT
ATOM      1  C   LIG    1       26.746 -21.098   7.315  0.00  0.00    +0.121 C 
ENDROOT
BRANCH   1   2
ATOM      2  C   LIG    1       25.431 -20.718   6.603  0.00  0.00    +0.022 A 
ATOM      3  C   LIG    1       24.184 -20.944   7.210  0.00  0.00    +0.132 A 
ATOM      4  F   LIG    1       24.125 -21.511   8.424  0.00  0.00    -0.205 F 
ATOM      5  C   LIG    1       22.983 -20.600   6.588  0.00  0.00    +0.077 A 
ATOM      6  C   LIG    1       23.015 -20.036   5.324  0.00  0.00    +0.126 A 
ATOM      7  F   LIG    1       21.869 -19.701   4.714  0.00  0.00    -0.205 F 
ATOM      8  C   LIG    1       24.220 -19.812   4.676  0.00  0.00    +0.039 A 
ATOM      9  C   LIG    1       25.419 -20.135   5.319  0.00  0.00    +0.012 A 
ENDBRANCH   1   2
BRANCH   1  11
ATOM     10  C   LIG    1       28.375 -19.981   5.585  0.00  0.00    +0.017 C 
ATOM     11  C   LIG    1       27.922 -20.040   7.067  0.00  0.00    +0.076 C 
BRANCH  11  12
ATOM     12  C   LIG    1       29.189 -20.269   7.907  0.00  0.00    +0.086 A 
ATOM     13  C   LIG    1       30.050 -19.230   8.201  0.00  0.00    +0.163 A 
ATOM     14  F   LIG    1       29.815 -17.971   7.788  0.00  0.00    -0.202 F 
ATOM     15  C   LIG    1       31.188 -19.524   8.912  0.00  0.00    +0.152 A 
ATOM     16  N   LIG    1       31.466 -20.758   9.386  0.00  0.00    -0.241 NA
ATOM     17  C   LIG    1       30.568 -21.699   9.079  0.00  0.00    +0.221 A 
ATOM     18  N   LIG    1       29.472 -21.538   8.313  0.00  0.00    -0.237 NA
ENDBRANCH  11  12
ENDBRANCH   1  11
BRANCH   1  19
ATOM     19  O   LIG    1       26.544 -21.145   8.749  0.00  0.00    -0.381 OA
ATOM     20  H   LIG    1       25.805 -20.529   8.930  0.00  0.00    +0.211 HD
ENDBRANCH   1  19
BRANCH   1  21
ATOM     21  C   LIG    1       27.188 -22.538   6.898  0.00  0.00    +0.185 C 
BRANCH  21  22
ATOM     22  N   LIG    1       26.092 -23.454   6.611  0.00  0.00    -0.249 N 
ATOM     23  N   LIG    1       25.456 -23.442   5.421  0.00  0.00    -0.158 NA
ATOM     24  C   LIG    1       24.624 -24.480   5.559  0.00  0.00    +0.244 A 
ATOM     25  N   LIG    1       24.734 -25.168   6.733  0.00  0.00    -0.223 NA
ATOM     26  C   LIG    1       25.675 -24.506   7.370  0.00  0.00    +0.219 A 
ENDBRANCH  21  22
ENDBRANCH   1  21
TORSDOF 6
ENDMDL
