MODEL 1
REMARK VINA RESULT:      -7.7      0.000      0.000
REMARK  Name = *****
REMARK                            x       y       z     vdW  Elec       q    Type
REMARK                         _______ _______ _______ _____ _____    ______ ____
ROOT
ATOM      1  C   LIG    1       24.789 -22.413   5.694  0.00  0.00    +0.065 C 
ATOM      2  C   LIG    1       25.598 -21.213   5.066  0.00  0.00    +0.102 C 
ATOM      3  C   LIG    1       24.552 -20.137   4.632  0.00  0.00    +0.065 C 
ATOM      4  C   LIG    1       23.415 -19.970   5.363  0.00  0.00    +0.016 C 
ATOM      5  C   LIG    1       22.344 -18.926   5.145  0.00  0.00    +0.061 C 
ATOM      6  N   LIG    1       23.141 -20.851   6.400  0.00  0.00    -0.321 N 
ATOM      7  H   LIG    1       22.188 -20.791   6.760  0.00  0.00    +0.152 HD
ATOM      8  C   LIG    1       23.667 -22.134   6.421  0.00  0.00    +0.016 C 
ATOM      9  C   LIG    1       22.884 -23.111   7.269  0.00  0.00    +0.061 C 
ENDROOT
BRANCH   2  10
ATOM     10  C   LIG    1       26.700 -20.626   6.046  0.00  0.00    +0.042 A 
ATOM     11  C   LIG    1       26.789 -20.796   7.457  0.00  0.00    +0.277 A 
ATOM     12  C   LIG    1       27.898 -20.347   8.223  0.00  0.00    +0.084 A 
ATOM     13  C   LIG    1       28.904 -19.607   7.634  0.00  0.00    +0.007 A 
ATOM     14  C   LIG    1       28.812 -19.330   6.282  0.00  0.00    +0.001 A 
ATOM     15  C   LIG    1       27.755 -19.848   5.507  0.00  0.00    +0.011 A 
BRANCH  11  16
ATOM     16  N   LIG    1       25.707 -21.243   8.318  0.00  0.00    +0.080 N 
ATOM     17  O   LIG    1       25.862 -22.342   8.874  0.00  0.00    -0.576 OA
ATOM     18  O   LIG    1       24.823 -20.416   8.579  0.00  0.00    +0.042 OA
ENDBRANCH  11  16
ENDBRANCH   2  10
BRANCH   1  19
ATOM     19  C   LIG    1       25.172 -23.817   5.360  0.00  0.00    +0.337 C 
ATOM     20  O   LIG    1       24.779 -24.440   4.373  0.00  0.00    -0.245 OA
BRANCH  19  22
ATOM     21  C   LIG    1       25.959 -25.755   6.608  0.00  0.00    +0.280 C 
ATOM     22  O   LIG    1       25.891 -24.341   6.385  0.00  0.00    -0.465 OA
ENDBRANCH  19  22
ENDBRANCH   1  19
BRANCH   3  23
ATOM     23  C   LIG    1       24.779 -19.472   3.335  0.00  0.00    +0.338 C 
ATOM     24  O   LIG    1       24.938 -20.099   2.284  0.00  0.00    -0.245 OA
BRANCH  23  25
ATOM     25  O   LIG    1       24.777 -18.121   3.405  0.00  0.00    -0.454 OA
BRANCH  25  26
ATOM     26  C   LIG    1       26.061 -17.490   3.349  0.00  0.00    +0.306 C 
BRANCH  26  27
ATOM     27  C   LIG    1       25.975 -15.964   3.326  0.00  0.00    +0.168 C 
ATOM     28  O   LIG    1       26.918 -15.272   2.936  0.00  0.00    -0.294 OA
ATOM     29  C   LIG    1       24.710 -15.326   3.833  0.00  0.00    +0.090 C 
ENDBRANCH  26  27
ENDBRANCH  25  26
ENDBRANCH  23  25
ENDBRANCH   3  23
TORSDOF 8
ENDMDL
MODEL 2
REMARK VINA RESULT:      -7.0      2.184      5.170
REMARK  Name = *****
REMARK                            x       y       z     vdW  Elec       q    Type
REMARK                         _______ _______ _______ _____ _____    ______ ____
ROOT
ATOM      1  C   LIG    1       24.740 -21.108   5.392  0.00  0.00    +0.065 C 
ATOM      2  C   LIG    1       25.873 -22.061   5.935  0.00  0.00    +0.102 C 
ATOM      3  C   LIG    1       26.437 -21.404   7.235  0.00  0.00    +0.065 C 
ATOM      4  C   LIG    1       25.603 -20.697   8.047  0.00  0.00    +0.016 C 
ATOM      5  C   LIG    1       25.952 -20.073   9.380  0.00  0.00    +0.061 C 
ATOM      6  N   LIG    1       24.300 -20.456   7.636  0.00  0.00    -0.321 N 
ATOM      7  H   LIG    1       23.808 -19.755   8.191  0.00  0.00    +0.152 HD
ATOM      8  C   LIG    1       23.951 -20.453   6.294  0.00  0.00    +0.016 C 
ATOM      9  C   LIG    1       22.693 -19.672   5.983  0.00  0.00    +0.061 C 
ENDROOT
BRANCH   2  10
ATOM     10  C   LIG    1       25.373 -23.547   6.175  0.00  0.00    +0.042 A 
ATOM     11  C   LIG    1       24.031 -24.000   6.326  0.00  0.00    +0.277 A 
ATOM     12  C   LIG    1       23.680 -25.374   6.394  0.00  0.00    +0.084 A 
ATOM     13  C   LIG    1       24.658 -26.348   6.434  0.00  0.00    +0.007 A 
ATOM     14  C   LIG    1       25.982 -25.951   6.390  0.00  0.00    +0.001 A 
ATOM     15  C   LIG    1       26.328 -24.594   6.238  0.00  0.00    +0.011 A 
BRANCH  11  16
ATOM     16  N   LIG    1       22.890 -23.154   6.638  0.00  0.00    +0.080 N 
ATOM     17  O   LIG    1       22.024 -23.048   5.755  0.00  0.00    -0.576 OA
ATOM     18  O   LIG    1       22.780 -22.775   7.811  0.00  0.00    +0.042 OA
ENDBRANCH  11  16
ENDBRANCH   2  10
BRANCH   1  19
ATOM     19  C   LIG    1       24.651 -20.823   3.929  0.00  0.00    +0.337 C 
ATOM     20  O   LIG    1       23.948 -21.442   3.131  0.00  0.00    -0.245 OA
BRANCH  19  22
ATOM     21  C   LIG    1       25.208 -18.507   3.422  0.00  0.00    +0.280 C 
ATOM     22  O   LIG    1       25.572 -19.882   3.599  0.00  0.00    -0.465 OA
ENDBRANCH  19  22
ENDBRANCH   1  19
BRANCH   3  23
ATOM     23  C   LIG    1       27.900 -21.443   7.421  0.00  0.00    +0.338 C 
ATOM     24  O   LIG    1       28.429 -21.867   8.452  0.00  0.00    -0.245 OA
BRANCH  23  25
ATOM     25  O   LIG    1       28.599 -20.992   6.354  0.00  0.00    -0.454 OA
BRANCH  25  26
ATOM     26  C   LIG    1       28.869 -19.585   6.333  0.00  0.00    +0.306 C 
BRANCH  26  27
ATOM     27  C   LIG    1       30.151 -19.213   7.077  0.00  0.00    +0.168 C 
ATOM     28  O   LIG    1       31.261 -19.524   6.641  0.00  0.00    -0.294 OA
ATOM     29  C   LIG    1       30.015 -18.484   8.386  0.00  0.00    +0.090 C 
ENDBRANCH  26  27
ENDBRANCH  25  26
ENDBRANCH  23  25
ENDBRANCH   3  23
TORSDOF 8
ENDMDL
MODEL 3
REMARK VINA RESULT:      -6.4      8.518     11.541
REMARK  Name = *****
REMARK                            x       y       z     vdW  Elec       q    Type
REMARK                         _______ _______ _______ _____ _____    ______ ____
ROOT
ATOM      1  C   LIG    1       26.483 -29.523  13.631  0.00  0.00    +0.065 C 
ATOM      2  C   LIG    1       25.792 -28.853  12.381  0.00  0.00    +0.102 C 
ATOM      3  C   LIG    1       25.689 -29.951  11.275  0.00  0.00    +0.065 C 
ATOM      4  C   LIG    1       25.488 -31.249  11.633  0.00  0.00    +0.016 C 
ATOM      5  C   LIG    1       25.275 -32.422  10.702  0.00  0.00    +0.061 C 
ATOM      6  N   LIG    1       25.516 -31.594  12.976  0.00  0.00    -0.321 N 
ATOM      7  H   LIG    1       25.565 -32.598  13.151  0.00  0.00    +0.152 HD
ATOM      8  C   LIG    1       26.203 -30.830  13.908  0.00  0.00    +0.016 C 
ATOM      9  C   LIG    1       26.591 -31.583  15.161  0.00  0.00    +0.061 C 
ENDROOT
BRANCH   2  10
ATOM     10  C   LIG    1       24.386 -28.203  12.723  0.00  0.00    +0.042 A 
ATOM     11  C   LIG    1       24.133 -26.912  13.269  0.00  0.00    +0.277 A 
ATOM     12  C   LIG    1       22.828 -26.370  13.404  0.00  0.00    +0.084 A 
ATOM     13  C   LIG    1       21.715 -27.135  13.113  0.00  0.00    +0.007 A 
ATOM     14  C   LIG    1       21.908 -28.432  12.673  0.00  0.00    +0.001 A 
ATOM     15  C   LIG    1       23.204 -28.941  12.458  0.00  0.00    +0.011 A 
BRANCH  11  16
ATOM     16  N   LIG    1       25.117 -26.078  13.940  0.00  0.00    +0.080 N 
ATOM     17  O   LIG    1       25.962 -25.530  13.216  0.00  0.00    -0.576 OA
ATOM     18  O   LIG    1       24.913 -25.828  15.135  0.00  0.00    +0.042 OA
ENDBRANCH  11  16
ENDBRANCH   2  10
BRANCH   1  19
ATOM     19  C   LIG    1       27.532 -28.774  14.386  0.00  0.00    +0.337 C 
ATOM     20  O   LIG    1       27.320 -28.052  15.360  0.00  0.00    -0.245 OA
BRANCH  19  22
ATOM     21  C   LIG    1       29.786 -29.689  14.279  0.00  0.00    +0.280 C 
ATOM     22  O   LIG    1       28.720 -28.897  13.742  0.00  0.00    -0.465 OA
ENDBRANCH  19  22
ENDBRANCH   1  19
BRANCH   3  23
ATOM     23  C   LIG    1       25.993 -29.535   9.893  0.00  0.00    +0.338 C 
ATOM     24  O   LIG    1       27.140 -29.291   9.507  0.00  0.00    -0.245 OA
BRANCH  23  25
ATOM     25  O   LIG    1       24.906 -29.466   9.090  0.00  0.00    -0.454 OA
BRANCH  25  26
ATOM     26  C   LIG    1       25.057 -30.031   7.782  0.00  0.00    +0.306 C 
BRANCH  26  27
ATOM     27  C   LIG    1       24.459 -29.154   6.682  0.00  0.00    +0.168 C 
ATOM     28  O   LIG    1       23.579 -29.578   5.930  0.00  0.00    -0.294 OA
ATOM     29  C   LIG    1       25.006 -27.763   6.520  0.00  0.00    +0.090 C 
ENDBRANCH  26  27
ENDBRANCH  25  26
ENDBRANCH  23  25
ENDBRANCH   3  23
TORSDOF 8
ENDMDL
MODEL 4
REMARK VINA RESULT:      -6.2      6.179     10.006
REMARK  Name = *****
REMARK                            x       y       z     vdW  Elec       q    Type
REMARK                         _______ _______ _______ _____ _____    ______ ____
ROOT
ATOM      1  C   LIG    1       25.495 -31.651   7.541  0.00  0.00    +0.065 C 
ATOM      2  C   LIG    1       25.454 -30.311   8.372  0.00  0.00    +0.102 C 
ATOM      3  C   LIG    1       25.177 -29.156   7.359  0.00  0.00    +0.065 C 
ATOM      4  C   LIG    1       24.386 -29.385   6.275  0.00  0.00    +0.016 C 
ATOM      5  C   LIG    1       23.942 -28.370   5.246  0.00  0.00    +0.061 C 
ATOM      6  N   LIG    1       23.952 -30.677   6.014  0.00  0.00    -0.321 N 
ATOM      7  H   LIG    1       23.546 -30.805   5.087  0.00  0.00    +0.152 HD
ATOM      8  C   LIG    1       24.650 -31.784   6.476  0.00  0.00    +0.016 C 
ATOM      9  C   LIG    1       24.389 -33.052   5.693  0.00  0.00    +0.061 C 
ENDROOT
BRANCH   2  10
ATOM     10  C   LIG    1       24.397 -30.347   9.555  0.00  0.00    +0.042 A 
ATOM     11  C   LIG    1       24.566 -29.878  10.888  0.00  0.00    +0.277 A 
ATOM     12  C   LIG    1       23.507 -29.826  11.833  0.00  0.00    +0.084 A 
ATOM     13  C   LIG    1       22.266 -30.349  11.526  0.00  0.00    +0.007 A 
ATOM     14  C   LIG    1       22.080 -30.906  10.274  0.00  0.00    +0.001 A 
ATOM     15  C   LIG    1       23.106 -30.881   9.309  0.00  0.00    +0.011 A 
BRANCH  11  16
ATOM     16  N   LIG    1       25.844 -29.597  11.522  0.00  0.00    +0.080 N 
ATOM     17  O   LIG    1       26.649 -30.540  11.586  0.00  0.00    -0.576 OA
ATOM     18  O   LIG    1       26.098 -28.409  11.762  0.00  0.00    +0.042 OA
ENDBRANCH  11  16
ENDBRANCH   2  10
BRANCH   1  19
ATOM     19  C   LIG    1       26.546 -32.671   7.832  0.00  0.00    +0.337 C 
ATOM     20  O   LIG    1       26.529 -33.448   8.787  0.00  0.00    -0.245 OA
BRANCH  19  22
ATOM     21  C   LIG    1       28.228 -33.620   6.350  0.00  0.00    +0.280 C 
ATOM     22  O   LIG    1       27.583 -32.503   6.973  0.00  0.00    -0.465 OA
ENDBRANCH  19  22
ENDBRANCH   1  19
BRANCH   3  23
ATOM     23  C   LIG    1       25.942 -27.908   7.547  0.00  0.00    +0.338 C 
ATOM     24  O   LIG    1       26.531 -27.640   8.598  0.00  0.00    -0.245 OA
BRANCH  23  25
ATOM     25  O   LIG    1       25.950 -27.103   6.460  0.00  0.00    -0.454 OA
BRANCH  25  26
ATOM     26  C   LIG    1       25.932 -25.695   6.724  0.00  0.00    +0.306 C 
BRANCH  26  27
ATOM     27  C   LIG    1       24.909 -24.942   5.875  0.00  0.00    +0.168 C 
ATOM     28  O   LIG    1       25.032 -24.849   4.652  0.00  0.00    -0.294 OA
ATOM     29  C   LIG    1       23.758 -24.282   6.584  0.00  0.00    +0.090 C 
ENDBRANCH  26  27
ENDBRANCH  25  26
ENDBRANCH  23  25
ENDBRANCH   3  23
TORSDOF 8
ENDMDL
MODEL 5
REMARK VINA RESULT:      -6.1      1.569      2.045
REMARK  Name = *****
REMARK                            x       y       z     vdW  Elec       q    Type
REMARK                         _______ _______ _______ _____ _____    ______ ____
ROOT
ATOM      1  C   LIG    1       24.545 -22.657   5.716  0.00  0.00    +0.065 C 
ATOM      2  C   LIG    1       25.435 -21.378   5.468  0.00  0.00    +0.102 C 
ATOM      3  C   LIG    1       24.508 -20.295   4.830  0.00  0.00    +0.065 C 
ATOM      4  C   LIG    1       23.197 -20.233   5.192  0.00  0.00    +0.016 C 
ATOM      5  C   LIG    1       22.182 -19.204   4.748  0.00  0.00    +0.061 C 
ATOM      6  N   LIG    1       22.675 -21.219   6.017  0.00  0.00    -0.321 N 
ATOM      7  H   LIG    1       21.656 -21.223   6.075  0.00  0.00    +0.152 HD
ATOM      8  C   LIG    1       23.243 -22.483   6.088  0.00  0.00    +0.016 C 
ATOM      9  C   LIG    1       22.299 -23.561   6.571  0.00  0.00    +0.061 C 
ENDROOT
BRANCH   2  10
ATOM     10  C   LIG    1       26.157 -20.859   6.782  0.00  0.00    +0.042 A 
ATOM     11  C   LIG    1       27.406 -20.183   6.880  0.00  0.00    +0.277 A 
ATOM     12  C   LIG    1       27.897 -19.633   8.094  0.00  0.00    +0.084 A 
ATOM     13  C   LIG    1       27.222 -19.838   9.282  0.00  0.00    +0.007 A 
ATOM     14  C   LIG    1       26.052 -20.576   9.253  0.00  0.00    +0.001 A 
ATOM     15  C   LIG    1       25.522 -21.049   8.036  0.00  0.00    +0.011 A 
BRANCH  11  16
ATOM     16  N   LIG    1       28.422 -20.143   5.841  0.00  0.00    +0.080 N 
ATOM     17  O   LIG    1       28.277 -19.281   4.960  0.00  0.00    -0.576 OA
ATOM     18  O   LIG    1       29.437 -20.828   6.026  0.00  0.00    +0.042 OA
ENDBRANCH  11  16
ENDBRANCH   2  10
BRANCH   1  19
ATOM     19  C   LIG    1       25.090 -24.010   5.395  0.00  0.00    +0.337 C 
ATOM     20  O   LIG    1       24.834 -24.649   4.375  0.00  0.00    -0.245 OA
BRANCH  19  22
ATOM     21  C   LIG    1       25.912 -25.883   6.716  0.00  0.00    +0.280 C 
ATOM     22  O   LIG    1       25.782 -24.478   6.464  0.00  0.00    -0.465 OA
ENDBRANCH  19  22
ENDBRANCH   1  19
BRANCH   3  23
ATOM     23  C   LIG    1       25.075 -19.499   3.725  0.00  0.00    +0.338 C 
ATOM     24  O   LIG    1       25.334 -19.984   2.619  0.00  0.00    -0.245 OA
BRANCH  23  25
ATOM     25  O   LIG    1       25.264 -18.195   4.031  0.00  0.00    -0.454 OA
BRANCH  25  26
ATOM     26  C   LIG    1       26.034 -17.437   3.090  0.00  0.00    +0.306 C 
BRANCH  26  27
ATOM     27  C   LIG    1       26.189 -15.970   3.492  0.00  0.00    +0.168 C 
ATOM     28  O   LIG    1       27.301 -15.451   3.611  0.00  0.00    -0.294 OA
ATOM     29  C   LIG    1       24.938 -15.185   3.775  0.00  0.00    +0.090 C 
ENDBRANCH  26  27
ENDBRANCH  25  26
ENDBRANCH  23  25
ENDBRANCH   3  23
TORSDOF 8
ENDMDL
MODEL 6
REMARK VINA RESULT:      -6.1      9.913     12.240
REMARK  Name = *****
REMARK                            x       y       z     vdW  Elec       q    Type
REMARK                         _______ _______ _______ _____ _____    ______ ____
ROOT
ATOM      1  C   LIG    1       24.813 -30.578  13.630  0.00  0.00    +0.065 C 
ATOM      2  C   LIG    1       24.241 -29.833  12.363  0.00  0.00    +0.102 C 
ATOM      3  C   LIG    1       23.590 -30.920  11.451  0.00  0.00    +0.065 C 
ATOM      4  C   LIG    1       22.985 -32.000  12.018  0.00  0.00    +0.016 C 
ATOM      5  C   LIG    1       22.231 -33.097  11.299  0.00  0.00    +0.061 C 
ATOM      6  N   LIG    1       23.078 -32.186  13.390  0.00  0.00    -0.321 N 
ATOM      7  H   LIG    1       22.784 -33.109  13.710  0.00  0.00    +0.152 HD
ATOM      8  C   LIG    1       24.121 -31.645  14.127  0.00  0.00    +0.016 C 
ATOM      9  C   LIG    1       24.384 -32.351  15.438  0.00  0.00    +0.061 C 
ENDROOT
BRANCH   2  10
ATOM     10  C   LIG    1       23.230 -28.667  12.732  0.00  0.00    +0.042 A 
ATOM     11  C   LIG    1       23.544 -27.353  13.183  0.00  0.00    +0.277 A 
ATOM     12  C   LIG    1       22.567 -26.336  13.349  0.00  0.00    +0.084 A 
ATOM     13  C   LIG    1       21.224 -26.619  13.189  0.00  0.00    +0.007 A 
ATOM     14  C   LIG    1       20.861 -27.910  12.847  0.00  0.00    +0.001 A 
ATOM     15  C   LIG    1       21.837 -28.896  12.600  0.00  0.00    +0.011 A 
BRANCH  11  16
ATOM     16  N   LIG    1       24.828 -26.936  13.724  0.00  0.00    +0.080 N 
ATOM     17  O   LIG    1       24.896 -26.822  14.957  0.00  0.00    -0.576 OA
ATOM     18  O   LIG    1       25.786 -26.923  12.940  0.00  0.00    +0.042 OA
ENDBRANCH  11  16
ENDBRANCH   2  10
BRANCH   1  19
ATOM     19  C   LIG    1       26.158 -30.206  14.162  0.00  0.00    +0.337 C 
ATOM     20  O   LIG    1       26.366 -29.704  15.266  0.00  0.00    -0.245 OA
BRANCH  19  22
ATOM     21  C   LIG    1       28.320 -29.641  13.193  0.00  0.00    +0.280 C 
ATOM     22  O   LIG    1       27.086 -30.370  13.185  0.00  0.00    -0.465 OA
ENDBRANCH  19  22
ENDBRANCH   1  19
BRANCH   3  23
ATOM     23  C   LIG    1       23.823 -30.799   9.999  0.00  0.00    +0.338 C 
ATOM     24  O   LIG    1       23.097 -30.127   9.261  0.00  0.00    -0.245 OA
BRANCH  23  25
ATOM     25  O   LIG    1       24.911 -31.474   9.561  0.00  0.00    -0.454 OA
BRANCH  25  26
ATOM     26  C   LIG    1       25.826 -30.727   8.750  0.00  0.00    +0.306 C 
BRANCH  26  27
ATOM     27  C   LIG    1       26.861 -29.960   9.572  0.00  0.00    +0.168 C 
ATOM     28  O   LIG    1       27.846 -30.524  10.053  0.00  0.00    -0.294 OA
ATOM     29  C   LIG    1       26.622 -28.494   9.809  0.00  0.00    +0.090 C 
ENDBRANCH  26  27
ENDBRANCH  25  26
ENDBRANCH  23  25
ENDBRANCH   3  23
TORSDOF 8
ENDMDL
MODEL 7
REMARK VINA RESULT:      -6.0      6.800     11.004
REMARK  Name = *****
REMARK                            x       y       z     vdW  Elec       q    Type
REMARK                         _______ _______ _______ _____ _____    ______ ____
ROOT
ATOM      1  C   LIG    1       24.407 -31.645   9.789  0.00  0.00    +0.065 C 
ATOM      2  C   LIG    1       24.956 -31.159   8.392  0.00  0.00    +0.102 C 
ATOM      3  C   LIG    1       25.478 -29.701   8.590  0.00  0.00    +0.065 C 
ATOM      4  C   LIG    1       26.039 -29.342   9.778  0.00  0.00    +0.016 C 
ATOM      5  C   LIG    1       26.673 -28.012  10.115  0.00  0.00    +0.061 C 
ATOM      6  N   LIG    1       26.012 -30.238  10.838  0.00  0.00    -0.321 N 
ATOM      7  H   LIG    1       26.260 -29.829  11.739  0.00  0.00    +0.152 HD
ATOM      8  C   LIG    1       25.052 -31.236  10.921  0.00  0.00    +0.016 C 
ATOM      9  C   LIG    1       24.816 -31.753  12.323  0.00  0.00    +0.061 C 
ENDROOT
BRANCH   2  10
ATOM     10  C   LIG    1       26.063 -32.123   7.791  0.00  0.00    +0.042 A 
ATOM     11  C   LIG    1       26.433 -32.279   6.425  0.00  0.00    +0.277 A 
ATOM     12  C   LIG    1       27.539 -33.065   6.005  0.00  0.00    +0.084 A 
ATOM     13  C   LIG    1       28.247 -33.824   6.917  0.00  0.00    +0.007 A 
ATOM     14  C   LIG    1       27.862 -33.784   8.245  0.00  0.00    +0.001 A 
ATOM     15  C   LIG    1       26.819 -32.938   8.672  0.00  0.00    +0.011 A 
BRANCH  11  16
ATOM     16  N   LIG    1       25.639 -31.847   5.286  0.00  0.00    +0.080 N 
ATOM     17  O   LIG    1       25.979 -30.782   4.747  0.00  0.00    -0.576 OA
ATOM     18  O   LIG    1       24.825 -32.663   4.832  0.00  0.00    +0.042 OA
ENDBRANCH  11  16
ENDBRANCH   2  10
BRANCH   1  19
ATOM     19  C   LIG    1       23.123 -32.405   9.856  0.00  0.00    +0.337 C 
ATOM     20  O   LIG    1       23.032 -33.629   9.943  0.00  0.00    -0.245 OA
BRANCH  19  22
ATOM     21  C   LIG    1       21.002 -31.459  10.587  0.00  0.00    +0.280 C 
ATOM     22  O   LIG    1       22.088 -31.552   9.656  0.00  0.00    -0.465 OA
ENDBRANCH  19  22
ENDBRANCH   1  19
BRANCH   3  23
ATOM     23  C   LIG    1       25.171 -28.732   7.521  0.00  0.00    +0.338 C 
ATOM     24  O   LIG    1       24.257 -28.904   6.708  0.00  0.00    -0.245 OA
BRANCH  23  25
ATOM     25  O   LIG    1       25.967 -27.639   7.529  0.00  0.00    -0.454 OA
BRANCH  25  26
ATOM     26  C   LIG    1       25.920 -26.823   6.352  0.00  0.00    +0.306 C 
BRANCH  26  27
ATOM     27  C   LIG    1       25.024 -25.596   6.512  0.00  0.00    +0.168 C 
ATOM     28  O   LIG    1       23.813 -25.651   6.290  0.00  0.00    -0.294 OA
ATOM     29  C   LIG    1       25.674 -24.301   6.916  0.00  0.00    +0.090 C 
ENDBRANCH  26  27
ENDBRANCH  25  26
ENDBRANCH  23  25
ENDBRANCH   3  23
TORSDOF 8
ENDMDL
MODEL 8
REMARK VINA RESULT:      -6.0     10.054     12.115
REMARK  Name = *****
REMARK                            x       y       z     vdW  Elec       q    Type
REMARK                         _______ _______ _______ _____ _____    ______ ____
ROOT
ATOM      1  C   LIG    1       23.647 -31.234  12.010  0.00  0.00    +0.065 C 
ATOM      2  C   LIG    1       24.432 -29.879  12.193  0.00  0.00    +0.102 C 
ATOM      3  C   LIG    1       25.153 -29.584  10.840  0.00  0.00    +0.065 C 
ATOM      4  C   LIG    1       24.564 -29.952   9.669  0.00  0.00    +0.016 C 
ATOM      5  C   LIG    1       25.071 -29.670   8.272  0.00  0.00    +0.061 C 
ATOM      6  N   LIG    1       23.400 -30.706   9.704  0.00  0.00    -0.321 N 
ATOM      7  H   LIG    1       23.137 -31.114   8.807  0.00  0.00    +0.152 HD
ATOM      8  C   LIG    1       23.083 -31.502  10.795  0.00  0.00    +0.016 C 
ATOM      9  C   LIG    1       22.125 -32.630  10.482  0.00  0.00    +0.061 C 
ENDROOT
BRANCH   2  10
ATOM     10  C   LIG    1       23.502 -28.680  12.658  0.00  0.00    +0.042 A 
ATOM     11  C   LIG    1       23.900 -27.452  13.258  0.00  0.00    +0.277 A 
ATOM     12  C   LIG    1       22.999 -26.382  13.506  0.00  0.00    +0.084 A 
ATOM     13  C   LIG    1       21.645 -26.538  13.279  0.00  0.00    +0.007 A 
ATOM     14  C   LIG    1       21.196 -27.751  12.789  0.00  0.00    +0.001 A 
ATOM     15  C   LIG    1       22.101 -28.781  12.464  0.00  0.00    +0.011 A 
BRANCH  11  16
ATOM     16  N   LIG    1       25.191 -27.199  13.876  0.00  0.00    +0.080 N 
ATOM     17  O   LIG    1       25.908 -26.345  13.330  0.00  0.00    -0.576 OA
ATOM     18  O   LIG    1       25.385 -27.703  14.990  0.00  0.00    +0.042 OA
ENDBRANCH  11  16
ENDBRANCH   2  10
BRANCH   1  19
ATOM     19  C   LIG    1       23.665 -32.253  13.101  0.00  0.00    +0.337 C 
ATOM     20  O   LIG    1       24.423 -33.222  13.150  0.00  0.00    -0.245 OA
BRANCH  19  22
ATOM     21  C   LIG    1       21.686 -33.059  14.270  0.00  0.00    +0.280 C 
ATOM     22  O   LIG    1       22.625 -32.026  13.942  0.00  0.00    -0.465 OA
ENDBRANCH  19  22
ENDBRANCH   1  19
BRANCH   3  23
ATOM     23  C   LIG    1       26.534 -29.069  10.919  0.00  0.00    +0.338 C 
ATOM     24  O   LIG    1       26.824 -27.898  10.656  0.00  0.00    -0.245 OA
BRANCH  23  25
ATOM     25  O   LIG    1       27.439 -29.989  11.323  0.00  0.00    -0.454 OA
BRANCH  25  26
ATOM     26  C   LIG    1       28.524 -29.493  12.116  0.00  0.00    +0.306 C 
BRANCH  26  27
ATOM     27  C   LIG    1       28.182 -29.395  13.602  0.00  0.00    +0.168 C 
ATOM     28  O   LIG    1       28.532 -28.428  14.280  0.00  0.00    -0.294 OA
ATOM     29  C   LIG    1       27.431 -30.540  14.225  0.00  0.00    +0.090 C 
ENDBRANCH  26  27
ENDBRANCH  25  26
ENDBRANCH  23  25
ENDBRANCH   3  23
TORSDOF 8
ENDMDL
MODEL 9
REMARK VINA RESULT:      -5.8      2.082      6.011
REMARK  Name = *****
REMARK                            x       y       z     vdW  Elec       q    Type
REMARK                         _______ _______ _______ _____ _____    ______ ____
ROOT
ATOM      1  C   LIG    1       26.499 -20.978   7.129  0.00  0.00    +0.065 C 
ATOM      2  C   LIG    1       26.020 -21.385   5.683  0.00  0.00    +0.102 C 
ATOM      3  C   LIG    1       24.904 -22.462   5.860  0.00  0.00    +0.065 C 
ATOM      4  C   LIG    1       24.067 -22.395   6.932  0.00  0.00    +0.016 C 
ATOM      5  C   LIG    1       22.883 -23.292   7.214  0.00  0.00    +0.061 C 
ATOM      6  N   LIG    1       24.307 -21.452   7.921  0.00  0.00    -0.321 N 
ATOM      7  H   LIG    1       23.773 -21.596   8.778  0.00  0.00    +0.152 HD
ATOM      8  C   LIG    1       25.575 -20.930   8.133  0.00  0.00    +0.016 C 
ATOM      9  C   LIG    1       25.788 -20.366   9.521  0.00  0.00    +0.061 C 
ENDROOT
BRANCH   2  10
ATOM     10  C   LIG    1       25.536 -20.146   4.818  0.00  0.00    +0.042 A 
ATOM     11  C   LIG    1       24.213 -19.633   4.696  0.00  0.00    +0.277 A 
ATOM     12  C   LIG    1       23.908 -18.430   4.007  0.00  0.00    +0.084 A 
ATOM     13  C   LIG    1       24.889 -17.751   3.310  0.00  0.00    +0.007 A 
ATOM     14  C   LIG    1       26.174 -18.265   3.317  0.00  0.00    +0.001 A 
ATOM     15  C   LIG    1       26.492 -19.413   4.070  0.00  0.00    +0.011 A 
BRANCH  11  16
ATOM     16  N   LIG    1       23.000 -20.348   5.058  0.00  0.00    +0.080 N 
ATOM     17  O   LIG    1       22.459 -20.012   6.124  0.00  0.00    -0.576 OA
ATOM     18  O   LIG    1       22.504 -21.081   4.193  0.00  0.00    +0.042 OA
ENDBRANCH  11  16
ENDBRANCH   2  10
BRANCH   1  19
ATOM     19  C   LIG    1       27.957 -20.805   7.404  0.00  0.00    +0.337 C 
ATOM     20  O   LIG    1       28.613 -21.490   8.189  0.00  0.00    -0.245 OA
BRANCH  19  22
ATOM     21  C   LIG    1       29.800 -19.385   6.685  0.00  0.00    +0.280 C 
ATOM     22  O   LIG    1       28.402 -19.689   6.772  0.00  0.00    -0.465 OA
ENDBRANCH  19  22
ENDBRANCH   1  19
BRANCH   3  23
ATOM     23  C   LIG    1       24.931 -23.608   4.931  0.00  0.00    +0.338 C 
ATOM     24  O   LIG    1       24.491 -23.544   3.780  0.00  0.00    -0.245 OA
BRANCH  23  25
ATOM     25  O   LIG    1       25.498 -24.721   5.452  0.00  0.00    -0.454 OA
BRANCH  25  26
ATOM     26  C   LIG    1       24.776 -25.942   5.255  0.00  0.00    +0.306 C 
BRANCH  26  27
ATOM     27  C   LIG    1       25.690 -27.158   5.107  0.00  0.00    +0.168 C 
ATOM     28  O   LIG    1       26.880 -27.035   4.811  0.00  0.00    -0.294 OA
ATOM     29  C   LIG    1       25.081 -28.520   5.297  0.00  0.00    +0.090 C 
ENDBRANCH  26  27
ENDBRANCH  25  26
ENDBRANCH  23  25
ENDBRANCH   3  23
TORSDOF 8
ENDMDL
