MODEL 1
REMARK VINA RESULT:       7.7      0.000      0.000
REMARK  Name = *****
REMARK                            x       y       z     vdW  Elec       q    Type
REMARK                         _______ _______ _______ _____ _____    ______ ____
ROOT
ATOM      1  C   LIG    1       26.312 -19.790   5.079  0.00  0.00    +0.166 A 
ATOM      2  C   LIG    1       26.321 -18.544   4.427  0.00  0.00    +0.204 A 
ATOM      3  C   LIG    1       27.539 -17.941   4.424  0.00  0.00    +0.166 A 
ATOM      4  C   LIG    1       28.555 -18.363   5.326  0.00  0.00    +0.050 A 
ATOM      5  C   LIG    1       28.373 -19.538   6.059  0.00  0.00    +0.007 A 
ATOM      6  C   LIG    1       27.253 -20.231   6.027  0.00  0.00    +0.050 A 
ENDROOT
BRANCH   3   7
ATOM      7  O   LIG    1       27.840 -17.018   3.477  0.00  0.00    -0.483 OA
BRANCH   7   8
ATOM      8  C   LIG    1       28.226 -15.679   3.792  0.00  0.00    +0.280 C 
BRANCH   8   9
ATOM      9  C   LIG    1       27.444 -14.613   2.995  0.00  0.00    +0.175 C 
BRANCH   9  10
ATOM     10  N   LIG    1       27.538 -13.105   3.472  0.00  0.00    +0.245 N 
BRANCH  10  11
ATOM     11  C   LIG    1       28.982 -12.640   3.733  0.00  0.00    +0.130 C 
ATOM     12  C   LIG    1       29.171 -11.728   4.939  0.00  0.00    +0.060 C 
ENDBRANCH  10  11
BRANCH  10  13
ATOM     13  C   LIG    1       26.848 -12.134   2.448  0.00  0.00    +0.130 C 
ATOM     14  C   LIG    1       25.491 -11.578   2.873  0.00  0.00    +0.060 C 
ENDBRANCH  10  13
BRANCH  10  15
ATOM     15  C   LIG    1       26.686 -13.090   4.811  0.00  0.00    +0.130 C 
ATOM     16  C   LIG    1       27.213 -13.921   5.972  0.00  0.00    +0.060 C 
ENDBRANCH  10  15
ENDBRANCH   9  10
ENDBRANCH   8   9
ENDBRANCH   7   8
ENDBRANCH   3   7
BRANCH   2  17
ATOM     17  O   LIG    1       25.368 -18.103   3.472  0.00  0.00    -0.480 OA
BRANCH  17  18
ATOM     18  C   LIG    1       25.205 -16.738   3.233  0.00  0.00    +0.280 C 
BRANCH  18  19
ATOM     19  C   LIG    1       25.036 -15.921   4.489  0.00  0.00    +0.175 C 
BRANCH  19  20
ATOM     20  N   LIG    1       23.689 -14.739   4.645  0.00  0.00    +0.245 N 
BRANCH  20  21
ATOM     21  C   LIG    1       23.126 -14.602   2.876  0.00  0.00    +0.130 C 
ATOM     22  C   LIG    1       23.579 -13.554   1.896  0.00  0.00    +0.060 C 
ENDBRANCH  20  21
BRANCH  20  23
ATOM     23  C   LIG    1       24.076 -12.950   5.728  0.00  0.00    +0.130 C 
ATOM     24  C   LIG    1       23.120 -11.466   5.841  0.00  0.00    +0.060 C 
ENDBRANCH  20  23
BRANCH  20  25
ATOM     25  C   LIG    1       22.359 -15.633   5.384  0.00  0.00    +0.130 C 
ATOM     26  C   LIG    1       21.450 -14.965   6.444  0.00  0.00    +0.060 C 
ENDBRANCH  20  25
ENDBRANCH  19  20
ENDBRANCH  18  19
ENDBRANCH  17  18
ENDBRANCH   2  17
BRANCH   1  27
ATOM     27  O   LIG    1       26.091 -20.818   4.252  0.00  0.00    -0.483 OA
BRANCH  27  28
ATOM     28  C   LIG    1       25.256 -20.848   3.122  0.00  0.00    +0.280 C 
BRANCH  28  29
ATOM     29  C   LIG    1       23.555 -21.307   3.197  0.00  0.00    +0.175 C 
BRANCH  29  30
ATOM     30  N   LIG    1       22.112 -20.515   4.251  0.00  0.00    +0.245 N 
BRANCH  30  31
ATOM     31  C   LIG    1       21.904 -21.568   5.680  0.00  0.00    +0.130 C 
ATOM     32  C   LIG    1       23.120 -21.444   6.602  0.00  0.00    +0.060 C 
ENDBRANCH  30  31
BRANCH  30  33
ATOM     33  C   LIG    1       20.265 -20.133   3.558  0.00  0.00    +0.130 C 
ATOM     34  C   LIG    1       19.371 -18.434   3.436  0.00  0.00    +0.060 C 
ENDBRANCH  30  33
BRANCH  30  36
ATOM     35  C   LIG    1       22.510 -17.805   5.032  0.00  0.00    +0.060 C 
ATOM     36  C   LIG    1       22.707 -19.246   5.226  0.00  0.00    +0.130 C 
ENDBRANCH  30  36
ENDBRANCH  29  30
ENDBRANCH  28  29
ENDBRANCH  27  28
ENDBRANCH   1  27
TORSDOF 21
ENDMDL
MODEL 2
REMARK VINA RESULT:       9.3      0.832      2.368
REMARK  Name = *****
REMARK                            x       y       z     vdW  Elec       q    Type
REMARK                         _______ _______ _______ _____ _____    ______ ____
ROOT
ATOM      1  C   LIG    1       26.307 -19.821   4.996  0.00  0.00    +0.166 A 
ATOM      2  C   LIG    1       26.250 -18.549   4.398  0.00  0.00    +0.204 A 
ATOM      3  C   LIG    1       27.425 -17.868   4.458  0.00  0.00    +0.166 A 
ATOM      4  C   LIG    1       28.442 -18.264   5.370  0.00  0.00    +0.050 A 
ATOM      5  C   LIG    1       28.319 -19.479   6.047  0.00  0.00    +0.007 A 
ATOM      6  C   LIG    1       27.249 -20.242   5.951  0.00  0.00    +0.050 A 
ENDROOT
BRANCH   3   7
ATOM      7  O   LIG    1       27.690 -16.886   3.560  0.00  0.00    -0.483 OA
BRANCH   7   8
ATOM      8  C   LIG    1       28.535 -15.773   3.854  0.00  0.00    +0.280 C 
BRANCH   8   9
ATOM      9  C   LIG    1       28.108 -14.474   3.137  0.00  0.00    +0.175 C 
BRANCH   9  10
ATOM     10  N   LIG    1       27.764 -13.208   4.025  0.00  0.00    +0.245 N 
BRANCH  10  11
ATOM     11  C   LIG    1       26.807 -12.222   3.330  0.00  0.00    +0.130 C 
ATOM     12  C   LIG    1       26.121 -12.747   2.075  0.00  0.00    +0.060 C 
ENDBRANCH  10  11
BRANCH  10  13
ATOM     13  C   LIG    1       27.170 -13.627   5.418  0.00  0.00    +0.130 C 
ATOM     14  C   LIG    1       26.041 -12.747   5.948  0.00  0.00    +0.060 C 
ENDBRANCH  10  13
BRANCH  10  15
ATOM     15  C   LIG    1       29.181 -12.540   4.279  0.00  0.00    +0.130 C 
ATOM     16  C   LIG    1       29.275 -11.533   5.416  0.00  0.00    +0.060 C 
ENDBRANCH  10  15
ENDBRANCH   9  10
ENDBRANCH   8   9
ENDBRANCH   7   8
ENDBRANCH   3   7
BRANCH   2  17
ATOM     17  O   LIG    1       25.295 -18.129   3.435  0.00  0.00    -0.480 OA
BRANCH  17  18
ATOM     18  C   LIG    1       25.326 -16.820   2.952  0.00  0.00    +0.280 C 
BRANCH  18  19
ATOM     19  C   LIG    1       24.939 -15.788   3.982  0.00  0.00    +0.175 C 
BRANCH  19  20
ATOM     20  N   LIG    1       23.347 -14.956   3.898  0.00  0.00    +0.245 N 
BRANCH  20  21
ATOM     21  C   LIG    1       23.044 -14.580   5.695  0.00  0.00    +0.130 C 
ATOM     22  C   LIG    1       21.842 -15.020   6.487  0.00  0.00    +0.060 C 
ENDBRANCH  20  21
BRANCH  20  23
ATOM     23  C   LIG    1       21.803 -15.906   2.785  0.00  0.00    +0.130 C 
ATOM     24  C   LIG    1       20.865 -17.357   3.161  0.00  0.00    +0.060 C 
ENDBRANCH  20  23
BRANCH  20  25
ATOM     25  C   LIG    1       23.685 -13.353   3.240  0.00  0.00    +0.130 C 
ATOM     26  C   LIG    1       23.315 -12.078   4.035  0.00  0.00    +0.060 C 
ENDBRANCH  20  25
ENDBRANCH  19  20
ENDBRANCH  18  19
ENDBRANCH  17  18
ENDBRANCH   2  17
BRANCH   1  27
ATOM     27  O   LIG    1       26.177 -20.823   4.119  0.00  0.00    -0.483 OA
BRANCH  27  28
ATOM     28  C   LIG    1       25.204 -20.966   3.115  0.00  0.00    +0.280 C 
BRANCH  28  29
ATOM     29  C   LIG    1       23.541 -21.446   3.451  0.00  0.00    +0.175 C 
BRANCH  29  30
ATOM     30  N   LIG    1       22.266 -20.667   4.711  0.00  0.00    +0.245 N 
BRANCH  30  31
ATOM     31  C   LIG    1       22.470 -21.562   6.244  0.00  0.00    +0.130 C 
ATOM     32  C   LIG    1       23.934 -21.511   6.687  0.00  0.00    +0.060 C 
ENDBRANCH  30  31
BRANCH  30  33
ATOM     33  C   LIG    1       20.286 -20.530   4.397  0.00  0.00    +0.130 C 
ATOM     34  C   LIG    1       19.351 -19.341   3.208  0.00  0.00    +0.060 C 
ENDBRANCH  30  33
BRANCH  30  36
ATOM     35  C   LIG    1       22.258 -17.933   5.508  0.00  0.00    +0.060 C 
ATOM     36  C   LIG    1       22.905 -19.247   5.411  0.00  0.00    +0.130 C 
ENDBRANCH  30  36
ENDBRANCH  29  30
ENDBRANCH  28  29
ENDBRANCH  27  28
ENDBRANCH   1  27
TORSDOF 21
ENDMDL
