MODEL 1
REMARK VINA RESULT:      -6.6      0.000      0.000
REMARK  Name = *****
REMARK                            x       y       z     vdW  Elec       q    Type
REMARK                         _______ _______ _______ _____ _____    ______ ____
ROOT
ATOM      1  O   LIG    1       28.004 -21.155   6.927  0.00  0.00    -0.461 OA
ENDROOT
BRANCH   1   2
ATOM      2  C   LIG    1       26.744 -20.433   6.983  0.00  0.00    +0.187 C 
ATOM      3  C   LIG    1       25.996 -20.831   8.271  0.00  0.00    +0.099 C 
ATOM      4  C   LIG    1       25.017 -22.018   8.128  0.00  0.00    +0.070 C 
ATOM      5  N   LIG    1       24.066 -21.787   6.936  0.00  0.00    +0.243 N 
ATOM      6  C   LIG    1       23.310 -20.459   6.974  0.00  0.00    +0.192 C 
ATOM      7  C   LIG    1       22.958 -22.864   6.852  0.00  0.00    +0.192 C 
ATOM      8  C   LIG    1       25.066 -21.960   5.777  0.00  0.00    +0.070 C 
ATOM      9  C   LIG    1       25.865 -23.212   6.191  0.00  0.00    +0.060 C 
ATOM     10  C   LIG    1       25.755 -23.295   7.717  0.00  0.00    +0.060 C 
ATOM     11  C   LIG    1       25.959 -20.714   5.691  0.00  0.00    +0.099 C 
ENDBRANCH   1   2
BRANCH   1  12
ATOM     12  C   LIG    1       28.940 -20.825   7.866  0.00  0.00    +0.310 C 
ATOM     13  O   LIG    1       29.382 -21.588   8.702  0.00  0.00    -0.251 OA
BRANCH  12  14
ATOM     14  C   LIG    1       29.391 -19.362   7.742  0.00  0.00    +0.098 C 
BRANCH  14  15
ATOM     15  C   LIG    1       29.651 -18.747   9.137  0.00  0.00    +0.014 C 
BRANCH  15  17
ATOM     16  C   LIG    1       30.617 -16.831  10.561  0.00  0.00    +0.004 C 
ATOM     17  C   LIG    1       30.430 -17.421   9.172  0.00  0.00    -0.003 C 
ENDBRANCH  15  17
ENDBRANCH  14  15
BRANCH  14  18
ATOM     18  C   LIG    1       30.614 -19.147   6.806  0.00  0.00    +0.014 C 
BRANCH  18  19
ATOM     19  C   LIG    1       30.215 -18.863   5.351  0.00  0.00    -0.003 C 
ATOM     20  C   LIG    1       28.891 -18.125   5.206  0.00  0.00    +0.004 C 
ENDBRANCH  18  19
ENDBRANCH  14  18
ENDBRANCH  12  14
ENDBRANCH   1  12
TORSDOF 7
ENDMDL
MODEL 2
REMARK VINA RESULT:      -6.6      1.346      2.502
REMARK  Name = *****
REMARK                            x       y       z     vdW  Elec       q    Type
REMARK                         _______ _______ _______ _____ _____    ______ ____
ROOT
ATOM      1  O   LIG    1       27.337 -20.835   6.169  0.00  0.00    -0.461 OA
ENDROOT
BRANCH   1   2
ATOM      2  C   LIG    1       25.943 -20.442   6.051  0.00  0.00    +0.187 C 
ATOM      3  C   LIG    1       25.260 -20.600   7.424  0.00  0.00    +0.099 C 
ATOM      4  C   LIG    1       24.589 -21.968   7.677  0.00  0.00    +0.070 C 
ATOM      5  N   LIG    1       23.655 -22.331   6.504  0.00  0.00    +0.243 N 
ATOM      6  C   LIG    1       22.611 -21.265   6.170  0.00  0.00    +0.192 C 
ATOM      7  C   LIG    1       22.830 -23.610   6.784  0.00  0.00    +0.192 C 
ATOM      8  C   LIG    1       24.710 -22.604   5.415  0.00  0.00    +0.070 C 
ATOM      9  C   LIG    1       25.762 -23.455   6.156  0.00  0.00    +0.060 C 
ATOM     10  C   LIG    1       25.617 -23.102   7.640  0.00  0.00    +0.060 C 
ATOM     11  C   LIG    1       25.293 -21.270   4.930  0.00  0.00    +0.099 C 
ENDBRANCH   1   2
BRANCH   1  12
ATOM     12  C   LIG    1       28.255 -19.824   6.213  0.00  0.00    +0.310 C 
ATOM     13  O   LIG    1       28.506 -19.074   5.289  0.00  0.00    -0.251 OA
BRANCH  12  14
ATOM     14  C   LIG    1       28.942 -19.726   7.583  0.00  0.00    +0.098 C 
BRANCH  14  15
ATOM     15  C   LIG    1       29.442 -21.113   8.048  0.00  0.00    +0.014 C 
BRANCH  15  17
ATOM     16  C   LIG    1       31.247 -22.191   9.535  0.00  0.00    +0.004 C 
ATOM     17  C   LIG    1       30.935 -21.225   8.403  0.00  0.00    -0.003 C 
ENDBRANCH  15  17
ENDBRANCH  14  15
BRANCH  14  18
ATOM     18  C   LIG    1       30.086 -18.675   7.651  0.00  0.00    +0.014 C 
BRANCH  18  19
ATOM     19  C   LIG    1       30.094 -17.878   8.964  0.00  0.00    -0.003 C 
ATOM     20  C   LIG    1       31.480 -17.430   9.406  0.00  0.00    +0.004 C 
ENDBRANCH  18  19
ENDBRANCH  14  18
ENDBRANCH  12  14
ENDBRANCH   1  12
TORSDOF 7
ENDMDL
MODEL 3
REMARK VINA RESULT:      -6.4      1.340      2.307
REMARK  Name = *****
REMARK                            x       y       z     vdW  Elec       q    Type
REMARK                         _______ _______ _______ _____ _____    ______ ____
ROOT
ATOM      1  O   LIG    1       27.364 -20.806   6.186  0.00  0.00    -0.461 OA
ENDROOT
BRANCH   1   2
ATOM      2  C   LIG    1       25.965 -20.434   6.054  0.00  0.00    +0.187 C 
ATOM      3  C   LIG    1       25.275 -20.588   7.425  0.00  0.00    +0.099 C 
ATOM      4  C   LIG    1       24.622 -21.963   7.687  0.00  0.00    +0.070 C 
ATOM      5  N   LIG    1       23.701 -22.352   6.512  0.00  0.00    +0.243 N 
ATOM      6  C   LIG    1       22.644 -21.305   6.160  0.00  0.00    +0.192 C 
ATOM      7  C   LIG    1       22.893 -23.640   6.800  0.00  0.00    +0.192 C 
ATOM      8  C   LIG    1       24.768 -22.621   5.433  0.00  0.00    +0.070 C 
ATOM      9  C   LIG    1       25.827 -23.448   6.190  0.00  0.00    +0.060 C 
ATOM     10  C   LIG    1       25.666 -23.082   7.669  0.00  0.00    +0.060 C 
ATOM     11  C   LIG    1       25.334 -21.283   4.938  0.00  0.00    +0.099 C 
ENDBRANCH   1   2
BRANCH   1  12
ATOM     12  C   LIG    1       28.283 -19.838   5.894  0.00  0.00    +0.310 C 
ATOM     13  O   LIG    1       28.175 -19.028   4.994  0.00  0.00    -0.251 OA
BRANCH  12  14
ATOM     14  C   LIG    1       29.485 -19.876   6.849  0.00  0.00    +0.098 C 
BRANCH  14  15
ATOM     15  C   LIG    1       30.045 -18.455   7.085  0.00  0.00    +0.014 C 
BRANCH  15  17
ATOM     16  C   LIG    1       31.799 -17.946   8.900  0.00  0.00    +0.004 C 
ATOM     17  C   LIG    1       30.325 -18.057   8.545  0.00  0.00    -0.003 C 
ENDBRANCH  15  17
ENDBRANCH  14  15
BRANCH  14  18
ATOM     18  C   LIG    1       29.206 -20.592   8.200  0.00  0.00    +0.014 C 
BRANCH  18  19
ATOM     19  C   LIG    1       30.029 -21.876   8.383  0.00  0.00    -0.003 C 
ATOM     20  C   LIG    1       31.331 -21.672   9.146  0.00  0.00    +0.004 C 
ENDBRANCH  18  19
ENDBRANCH  14  18
ENDBRANCH  12  14
ENDBRANCH   1  12
TORSDOF 7
ENDMDL
MODEL 4
REMARK VINA RESULT:      -6.2      1.766      2.880
REMARK  Name = *****
REMARK                            x       y       z     vdW  Elec       q    Type
REMARK                         _______ _______ _______ _____ _____    ______ ____
ROOT
ATOM      1  O   LIG    1       26.732 -21.511   6.699  0.00  0.00    -0.461 OA
ENDROOT
BRANCH   1   2
ATOM      2  C   LIG    1       25.749 -20.463   6.483  0.00  0.00    +0.187 C 
ATOM      3  C   LIG    1       24.557 -20.690   7.434  0.00  0.00    +0.099 C 
ATOM      4  C   LIG    1       23.403 -21.540   6.858  0.00  0.00    +0.070 C 
ATOM      5  N   LIG    1       22.969 -20.991   5.484  0.00  0.00    +0.243 N 
ATOM      6  C   LIG    1       22.608 -19.505   5.477  0.00  0.00    +0.192 C 
ATOM      7  C   LIG    1       21.706 -21.701   4.940  0.00  0.00    +0.192 C 
ATOM      8  C   LIG    1       24.204 -21.388   4.651  0.00  0.00    +0.070 C 
ATOM      9  C   LIG    1       24.481 -22.835   5.109  0.00  0.00    +0.060 C 
ATOM     10  C   LIG    1       23.877 -22.953   6.512  0.00  0.00    +0.060 C 
ATOM     11  C   LIG    1       25.367 -20.447   4.994  0.00  0.00    +0.099 C 
ENDBRANCH   1   2
BRANCH   1  12
ATOM     12  C   LIG    1       27.555 -21.364   7.779  0.00  0.00    +0.310 C 
ATOM     13  O   LIG    1       27.215 -21.513   8.937  0.00  0.00    -0.251 OA
BRANCH  12  14
ATOM     14  C   LIG    1       28.988 -20.996   7.367  0.00  0.00    +0.098 C 
BRANCH  14  15
ATOM     15  C   LIG    1       28.997 -20.245   6.016  0.00  0.00    +0.014 C 
BRANCH  15  17
ATOM     16  C   LIG    1       28.857 -17.893   4.977  0.00  0.00    +0.004 C 
ATOM     17  C   LIG    1       29.479 -18.784   6.041  0.00  0.00    -0.003 C 
ENDBRANCH  15  17
ENDBRANCH  14  15
BRANCH  14  18
ATOM     18  C   LIG    1       29.779 -20.202   8.445  0.00  0.00    +0.014 C 
BRANCH  18  19
ATOM     19  C   LIG    1       31.160 -20.805   8.744  0.00  0.00    -0.003 C 
ATOM     20  C   LIG    1       31.106 -22.179   9.397  0.00  0.00    +0.004 C 
ENDBRANCH  18  19
ENDBRANCH  14  18
ENDBRANCH  12  14
ENDBRANCH   1  12
TORSDOF 7
ENDMDL
MODEL 5
REMARK VINA RESULT:      -6.0      1.494      1.706
REMARK  Name = *****
REMARK                            x       y       z     vdW  Elec       q    Type
REMARK                         _______ _______ _______ _____ _____    ______ ____
ROOT
ATOM      1  O   LIG    1       26.857 -21.418   6.711  0.00  0.00    -0.461 OA
ENDROOT
BRANCH   1   2
ATOM      2  C   LIG    1       25.837 -20.408   6.482  0.00  0.00    +0.187 C 
ATOM      3  C   LIG    1       24.675 -20.638   7.469  0.00  0.00    +0.099 C 
ATOM      4  C   LIG    1       23.535 -21.542   6.950  0.00  0.00    +0.070 C 
ATOM      5  N   LIG    1       23.053 -21.056   5.568  0.00  0.00    +0.243 N 
ATOM      6  C   LIG    1       22.646 -19.583   5.519  0.00  0.00    +0.192 C 
ATOM      7  C   LIG    1       21.801 -21.823   5.080  0.00  0.00    +0.192 C 
ATOM      8  C   LIG    1       24.281 -21.443   4.721  0.00  0.00    +0.070 C 
ATOM      9  C   LIG    1       24.613 -22.864   5.222  0.00  0.00    +0.060 C 
ATOM     10  C   LIG    1       24.046 -22.951   6.642  0.00  0.00    +0.060 C 
ATOM     11  C   LIG    1       25.421 -20.456   5.003  0.00  0.00    +0.099 C 
ENDBRANCH   1   2
BRANCH   1  12
ATOM     12  C   LIG    1       27.718 -21.193   7.748  0.00  0.00    +0.310 C 
ATOM     13  O   LIG    1       27.684 -21.773   8.816  0.00  0.00    -0.251 OA
BRANCH  12  14
ATOM     14  C   LIG    1       28.762 -20.118   7.410  0.00  0.00    +0.098 C 
BRANCH  14  15
ATOM     15  C   LIG    1       30.089 -20.386   8.158  0.00  0.00    +0.014 C 
BRANCH  15  17
ATOM     16  C   LIG    1       31.780 -18.448   8.290  0.00  0.00    +0.004 C 
ATOM     17  C   LIG    1       30.665 -19.219   8.979  0.00  0.00    -0.003 C 
ENDBRANCH  15  17
ENDBRANCH  14  15
BRANCH  14  18
ATOM     18  C   LIG    1       29.014 -19.928   5.888  0.00  0.00    +0.014 C 
BRANCH  18  19
ATOM     19  C   LIG    1       29.385 -18.485   5.515  0.00  0.00    -0.003 C 
ATOM     20  C   LIG    1       28.304 -17.751   4.734  0.00  0.00    +0.004 C 
ENDBRANCH  18  19
ENDBRANCH  14  18
ENDBRANCH  12  14
ENDBRANCH   1  12
TORSDOF 7
ENDMDL
MODEL 6
REMARK VINA RESULT:      -6.0      1.465      3.052
REMARK  Name = *****
REMARK                            x       y       z     vdW  Elec       q    Type
REMARK                         _______ _______ _______ _____ _____    ______ ____
ROOT
ATOM      1  O   LIG    1       26.920 -20.137   6.673  0.00  0.00    -0.461 OA
ENDROOT
BRANCH   1   2
ATOM      2  C   LIG    1       26.667 -21.409   6.017  0.00  0.00    +0.187 C 
ATOM      3  C   LIG    1       25.467 -21.250   5.063  0.00  0.00    +0.099 C 
ATOM      4  C   LIG    1       24.087 -21.580   5.673  0.00  0.00    +0.070 C 
ATOM      5  N   LIG    1       24.122 -22.962   6.358  0.00  0.00    +0.243 N 
ATOM      6  C   LIG    1       24.609 -24.102   5.465  0.00  0.00    +0.192 C 
ATOM      7  C   LIG    1       22.722 -23.414   6.839  0.00  0.00    +0.192 C 
ATOM      8  C   LIG    1       25.017 -22.623   7.566  0.00  0.00    +0.070 C 
ATOM      9  C   LIG    1       24.444 -21.277   8.056  0.00  0.00    +0.060 C 
ATOM     10  C   LIG    1       23.762 -20.644   6.840  0.00  0.00    +0.060 C 
ATOM     11  C   LIG    1       26.471 -22.487   7.095  0.00  0.00    +0.099 C 
ENDBRANCH   1   2
BRANCH   1  12
ATOM     12  C   LIG    1       28.139 -19.564   6.446  0.00  0.00    +0.310 C 
ATOM     13  O   LIG    1       28.494 -19.086   5.385  0.00  0.00    -0.251 OA
BRANCH  12  14
ATOM     14  C   LIG    1       29.027 -19.575   7.700  0.00  0.00    +0.098 C 
BRANCH  14  15
ATOM     15  C   LIG    1       29.634 -20.978   7.931  0.00  0.00    +0.014 C 
BRANCH  15  17
ATOM     16  C   LIG    1       31.249 -22.242   9.488  0.00  0.00    +0.004 C 
ATOM     17  C   LIG    1       31.018 -21.029   8.601  0.00  0.00    -0.003 C 
ENDBRANCH  15  17
ENDBRANCH  14  15
BRANCH  14  18
ATOM     18  C   LIG    1       30.135 -18.485   7.708  0.00  0.00    +0.014 C 
BRANCH  18  19
ATOM     19  C   LIG    1       30.173 -17.676   9.013  0.00  0.00    -0.003 C 
ATOM     20  C   LIG    1       31.547 -17.113   9.351  0.00  0.00    +0.004 C 
ENDBRANCH  18  19
ENDBRANCH  14  18
ENDBRANCH  12  14
ENDBRANCH   1  12
TORSDOF 7
ENDMDL
MODEL 7
REMARK VINA RESULT:      -5.9      1.150      2.211
REMARK  Name = *****
REMARK                            x       y       z     vdW  Elec       q    Type
REMARK                         _______ _______ _______ _____ _____    ______ ____
ROOT
ATOM      1  O   LIG    1       27.153 -21.807   6.764  0.00  0.00    -0.461 OA
ENDROOT
BRANCH   1   2
ATOM      2  C   LIG    1       25.928 -22.464   7.189  0.00  0.00    +0.187 C 
ATOM      3  C   LIG    1       25.348 -23.258   6.001  0.00  0.00    +0.099 C 
ATOM      4  C   LIG    1       24.333 -22.492   5.124  0.00  0.00    +0.070 C 
ATOM      5  N   LIG    1       23.238 -21.857   6.005  0.00  0.00    +0.243 N 
ATOM      6  C   LIG    1       22.523 -22.836   6.936  0.00  0.00    +0.192 C 
ATOM      7  C   LIG    1       22.104 -21.221   5.165  0.00  0.00    +0.192 C 
ATOM      8  C   LIG    1       24.071 -20.759   6.694  0.00  0.00    +0.070 C 
ATOM      9  C   LIG    1       24.890 -20.163   5.530  0.00  0.00    +0.060 C 
ATOM     10  C   LIG    1       24.981 -21.268   4.472  0.00  0.00    +0.060 C 
ATOM     11  C   LIG    1       24.973 -21.401   7.757  0.00  0.00    +0.099 C 
ENDBRANCH   1   2
BRANCH   1  12
ATOM     12  C   LIG    1       27.932 -21.271   7.749  0.00  0.00    +0.310 C 
ATOM     13  O   LIG    1       28.153 -21.797   8.824  0.00  0.00    -0.251 OA
BRANCH  12  14
ATOM     14  C   LIG    1       28.522 -19.912   7.344  0.00  0.00    +0.098 C 
BRANCH  14  15
ATOM     15  C   LIG    1       29.959 -19.750   7.893  0.00  0.00    +0.014 C 
BRANCH  15  17
ATOM     16  C   LIG    1       31.534 -17.897   8.738  0.00  0.00    +0.004 C 
ATOM     17  C   LIG    1       30.192 -18.598   8.886  0.00  0.00    -0.003 C 
ENDBRANCH  15  17
ENDBRANCH  14  15
BRANCH  14  18
ATOM     18  C   LIG    1       28.478 -19.625   5.817  0.00  0.00    +0.014 C 
BRANCH  18  19
ATOM     19  C   LIG    1       29.254 -18.361   5.419  0.00  0.00    -0.003 C 
ATOM     20  C   LIG    1       28.427 -17.346   4.642  0.00  0.00    +0.004 C 
ENDBRANCH  18  19
ENDBRANCH  14  18
ENDBRANCH  12  14
ENDBRANCH   1  12
TORSDOF 7
ENDMDL
MODEL 8
REMARK VINA RESULT:      -5.9      1.310      3.052
REMARK  Name = *****
REMARK                            x       y       z     vdW  Elec       q    Type
REMARK                         _______ _______ _______ _____ _____    ______ ____
ROOT
ATOM      1  O   LIG    1       27.039 -21.497   6.747  0.00  0.00    -0.461 OA
ENDROOT
BRANCH   1   2
ATOM      2  C   LIG    1       25.853 -22.223   7.168  0.00  0.00    +0.187 C 
ATOM      3  C   LIG    1       25.355 -23.091   5.994  0.00  0.00    +0.099 C 
ATOM      4  C   LIG    1       24.309 -22.423   5.075  0.00  0.00    +0.070 C 
ATOM      5  N   LIG    1       23.154 -21.839   5.913  0.00  0.00    +0.243 N 
ATOM      6  C   LIG    1       22.488 -22.836   6.861  0.00  0.00    +0.192 C 
ATOM      7  C   LIG    1       21.998 -21.308   5.031  0.00  0.00    +0.192 C 
ATOM      8  C   LIG    1       23.896 -20.666   6.583  0.00  0.00    +0.070 C 
ATOM      9  C   LIG    1       24.697 -20.050   5.418  0.00  0.00    +0.060 C 
ATOM     10  C   LIG    1       24.886 -21.178   4.397  0.00  0.00    +0.060 C 
ATOM     11  C   LIG    1       24.815 -21.213   7.683  0.00  0.00    +0.099 C 
ENDBRANCH   1   2
BRANCH   1  12
ATOM     12  C   LIG    1       28.000 -21.294   7.696  0.00  0.00    +0.310 C 
ATOM     13  O   LIG    1       28.003 -21.802   8.801  0.00  0.00    -0.251 OA
BRANCH  12  14
ATOM     14  C   LIG    1       29.106 -20.347   7.206  0.00  0.00    +0.098 C 
BRANCH  14  15
ATOM     15  C   LIG    1       28.756 -19.766   5.816  0.00  0.00    +0.014 C 
BRANCH  15  17
ATOM     16  C   LIG    1       28.429 -17.474   4.690  0.00  0.00    +0.004 C 
ATOM     17  C   LIG    1       29.356 -18.391   5.472  0.00  0.00    -0.003 C 
ENDBRANCH  15  17
ENDBRANCH  14  15
BRANCH  14  18
ATOM     18  C   LIG    1       29.464 -19.211   8.205  0.00  0.00    +0.014 C 
BRANCH  18  19
ATOM     19  C   LIG    1       30.853 -19.382   8.838  0.00  0.00    -0.003 C 
ATOM     20  C   LIG    1       31.841 -18.284   8.468  0.00  0.00    +0.004 C 
ENDBRANCH  18  19
ENDBRANCH  14  18
ENDBRANCH  12  14
ENDBRANCH   1  12
TORSDOF 7
ENDMDL
MODEL 9
REMARK VINA RESULT:      -5.7      2.306      6.317
REMARK  Name = *****
REMARK                            x       y       z     vdW  Elec       q    Type
REMARK                         _______ _______ _______ _____ _____    ______ ____
ROOT
ATOM      1  O   LIG    1       26.384 -20.286   6.950  0.00  0.00    -0.461 OA
ENDROOT
BRANCH   1   2
ATOM      2  C   LIG    1       27.376 -20.900   7.816  0.00  0.00    +0.187 C 
ATOM      3  C   LIG    1       27.982 -19.817   8.731  0.00  0.00    +0.099 C 
ATOM      4  C   LIG    1       29.253 -19.127   8.189  0.00  0.00    +0.070 C 
ATOM      5  N   LIG    1       30.290 -20.182   7.753  0.00  0.00    +0.243 N 
ATOM      6  C   LIG    1       30.644 -21.209   8.828  0.00  0.00    +0.192 C 
ATOM      7  C   LIG    1       31.645 -19.546   7.360  0.00  0.00    +0.192 C 
ATOM      8  C   LIG    1       29.577 -20.735   6.503  0.00  0.00    +0.070 C 
ATOM      9  C   LIG    1       29.088 -19.458   5.789  0.00  0.00    +0.060 C 
ATOM     10  C   LIG    1       28.964 -18.389   6.880  0.00  0.00    +0.060 C 
ATOM     11  C   LIG    1       28.409 -21.628   6.941  0.00  0.00    +0.099 C 
ENDBRANCH   1   2
BRANCH   1  12
ATOM     12  C   LIG    1       25.086 -20.664   7.144  0.00  0.00    +0.310 C 
ATOM     13  O   LIG    1       24.509 -20.645   8.214  0.00  0.00    -0.251 OA
BRANCH  12  14
ATOM     14  C   LIG    1       24.414 -21.115   5.838  0.00  0.00    +0.098 C 
BRANCH  14  15
ATOM     15  C   LIG    1       24.709 -22.606   5.553  0.00  0.00    +0.014 C 
BRANCH  15  17
ATOM     16  C   LIG    1       23.931 -24.923   6.362  0.00  0.00    +0.004 C 
ATOM     17  C   LIG    1       24.539 -23.579   6.732  0.00  0.00    -0.003 C 
ENDBRANCH  15  17
ENDBRANCH  14  15
BRANCH  14  18
ATOM     18  C   LIG    1       22.887 -20.831   5.773  0.00  0.00    +0.014 C 
BRANCH  18  19
ATOM     19  C   LIG    1       22.550 -19.507   5.072  0.00  0.00    -0.003 C 
ATOM     20  C   LIG    1       23.491 -19.156   3.928  0.00  0.00    +0.004 C 
ENDBRANCH  18  19
ENDBRANCH  14  18
ENDBRANCH  12  14
ENDBRANCH   1  12
TORSDOF 7
ENDMDL
