MODEL 1
REMARK VINA RESULT:      -8.7      0.000      0.000
REMARK  Name = *****
REMARK                            x       y       z     vdW  Elec       q    Type
REMARK                         _______ _______ _______ _____ _____    ______ ____
ROOT
ATOM      1  C   LIG    1       27.141 -21.306   6.488  0.00  0.00    -0.000 C 
ATOM      2  C   LIG    1       25.848 -21.633   6.699  0.00  0.00    -0.066 C 
ATOM      3  C   LIG    1       24.815 -21.720   5.578  0.00  0.00    +0.021 C 
ATOM      4  C   LIG    1       25.152 -20.962   4.294  0.00  0.00    +0.009 C 
ATOM      5  C   LIG    1       23.830 -20.941   3.560  0.00  0.00    +0.005 C 
ATOM      6  C   LIG    1       22.796 -20.541   4.637  0.00  0.00    +0.002 C 
ATOM      7  C   LIG    1       23.372 -21.211   5.956  0.00  0.00    -0.022 C 
ATOM      8  C   LIG    1       22.462 -22.422   6.284  0.00  0.00    +0.012 C 
ATOM      9  C   LIG    1       23.449 -20.302   7.197  0.00  0.00    +0.008 C 
ATOM     10  C   LIG    1       24.163 -20.921   8.405  0.00  0.00    +0.005 C 
ATOM     11  C   LIG    1       25.259 -21.923   8.054  0.00  0.00    +0.031 C 
ENDROOT
BRANCH   1  19
ATOM     12  C   LIG    1       30.678 -21.901   9.091  0.00  0.00    +0.015 C 
ATOM     13  C   LIG    1       30.390 -20.769   8.422  0.00  0.00    -0.023 C 
ATOM     14  C   LIG    1       31.023 -19.415   8.708  0.00  0.00    +0.147 C 
ATOM     15  C   LIG    1       31.561 -18.754   7.436  0.00  0.00    +0.067 C 
ATOM     16  C   LIG    1       30.524 -18.726   6.318  0.00  0.00    +0.122 C 
ATOM     17  C   LIG    1       29.937 -20.121   6.051  0.00  0.00    +0.067 C 
ATOM     18  C   LIG    1       29.422 -20.772   7.319  0.00  0.00    -0.040 C 
ATOM     19  C   LIG    1       28.171 -21.245   7.498  0.00  0.00    +0.004 C 
BRANCH  14  20
ATOM     20  O   LIG    1       32.095 -19.528   9.645  0.00  0.00    -0.387 OA
ATOM     21  H   LIG    1       32.914 -19.621   9.128  0.00  0.00    +0.210 HD
ENDBRANCH  14  20
BRANCH  16  22
ATOM     22  O   LIG    1       29.495 -17.782   6.621  0.00  0.00    -0.391 OA
ATOM     23  H   LIG    1       29.554 -17.550   7.565  0.00  0.00    +0.210 HD
ENDBRANCH  16  22
ENDBRANCH   1  19
BRANCH   6  24
ATOM     24  C   LIG    1       22.485 -19.006   4.601  0.00  0.00    +0.012 C 
ATOM     25  C   LIG    1       21.170 -18.642   3.891  0.00  0.00    +0.012 C 
BRANCH  24  26
ATOM     26  C   LIG    1       23.598 -18.288   3.841  0.00  0.00    -0.027 C 
ATOM     27  C   LIG    1       24.002 -17.024   4.059  0.00  0.00    -0.027 C 
BRANCH  27  28
ATOM     28  C   LIG    1       25.155 -16.378   3.309  0.00  0.00    +0.011 C 
ATOM     29  C   LIG    1       26.401 -17.270   3.402  0.00  0.00    +0.012 C 
BRANCH  28  30
ATOM     30  C   LIG    1       25.397 -14.904   3.748  0.00  0.00    -0.011 C 
ATOM     31  C   LIG    1       24.091 -14.212   4.160  0.00  0.00    +0.008 C 
ATOM     32  C   LIG    1       26.109 -14.029   2.710  0.00  0.00    +0.008 C 
ENDBRANCH  28  30
ENDBRANCH  27  28
ENDBRANCH  24  26
ENDBRANCH   6  24
TORSDOF 7
ENDMDL
MODEL 2
REMARK VINA RESULT:      -7.4     10.190     12.884
REMARK  Name = *****
REMARK                            x       y       z     vdW  Elec       q    Type
REMARK                         _______ _______ _______ _____ _____    ______ ____
ROOT
ATOM      1  C   LIG    1       25.002 -31.116  10.621  0.00  0.00    -0.000 C 
ATOM      2  C   LIG    1       25.926 -30.363  11.258  0.00  0.00    -0.066 C 
ATOM      3  C   LIG    1       25.741 -29.844  12.682  0.00  0.00    +0.021 C 
ATOM      4  C   LIG    1       24.302 -29.777  13.191  0.00  0.00    +0.009 C 
ATOM      5  C   LIG    1       24.424 -28.915  14.428  0.00  0.00    +0.005 C 
ATOM      6  C   LIG    1       25.315 -27.731  13.989  0.00  0.00    +0.002 C 
ATOM      7  C   LIG    1       26.308 -28.396  12.944  0.00  0.00    -0.022 C 
ATOM      8  C   LIG    1       27.692 -28.497  13.636  0.00  0.00    +0.012 C 
ATOM      9  C   LIG    1       26.479 -27.653  11.606  0.00  0.00    +0.008 C 
ATOM     10  C   LIG    1       27.308 -28.401  10.555  0.00  0.00    +0.005 C 
ATOM     11  C   LIG    1       27.228 -29.922  10.643  0.00  0.00    +0.031 C 
ENDROOT
BRANCH   1  19
ATOM     12  C   LIG    1       24.446 -33.050   6.673  0.00  0.00    +0.015 C 
ATOM     13  C   LIG    1       24.840 -31.777   6.864  0.00  0.00    -0.023 C 
ATOM     14  C   LIG    1       25.480 -30.904   5.795  0.00  0.00    +0.147 C 
ATOM     15  C   LIG    1       24.793 -29.541   5.679  0.00  0.00    +0.067 C 
ATOM     16  C   LIG    1       24.648 -28.852   7.033  0.00  0.00    +0.122 C 
ATOM     17  C   LIG    1       23.972 -29.765   8.067  0.00  0.00    +0.067 C 
ATOM     18  C   LIG    1       24.651 -31.117   8.160  0.00  0.00    -0.040 C 
ATOM     19  C   LIG    1       25.135 -31.668   9.294  0.00  0.00    +0.004 C 
BRANCH  14  20
ATOM     20  O   LIG    1       25.443 -31.536   4.514  0.00  0.00    -0.387 OA
ATOM     21  H   LIG    1       26.330 -31.896   4.350  0.00  0.00    +0.210 HD
ENDBRANCH  14  20
BRANCH  16  22
ATOM     22  O   LIG    1       25.922 -28.402   7.497  0.00  0.00    -0.391 OA
ATOM     23  H   LIG    1       25.902 -27.430   7.567  0.00  0.00    +0.210 HD
ENDBRANCH  16  22
ENDBRANCH   1  19
BRANCH   6  24
ATOM     24  C   LIG    1       24.461 -26.482  13.583  0.00  0.00    +0.012 C 
ATOM     25  C   LIG    1       24.917 -25.164  14.231  0.00  0.00    +0.012 C 
BRANCH  24  26
ATOM     26  C   LIG    1       23.014 -26.701  14.022  0.00  0.00    -0.027 C 
ATOM     27  C   LIG    1       21.953 -26.783  13.201  0.00  0.00    -0.027 C 
BRANCH  27  28
ATOM     28  C   LIG    1       20.540 -27.058  13.691  0.00  0.00    +0.011 C 
ATOM     29  C   LIG    1       20.361 -26.489  15.105  0.00  0.00    +0.012 C 
BRANCH  28  30
ATOM     30  C   LIG    1       20.148 -28.558  13.557  0.00  0.00    -0.011 C 
ATOM     31  C   LIG    1       20.429 -29.337  14.848  0.00  0.00    +0.008 C 
ATOM     32  C   LIG    1       20.806 -29.296  12.385  0.00  0.00    +0.008 C 
ENDBRANCH  28  30
ENDBRANCH  27  28
ENDBRANCH  24  26
ENDBRANCH   6  24
TORSDOF 7
ENDMDL
MODEL 3
REMARK VINA RESULT:      -6.8      9.612     12.699
REMARK  Name = *****
REMARK                            x       y       z     vdW  Elec       q    Type
REMARK                         _______ _______ _______ _____ _____    ______ ____
ROOT
ATOM      1  C   LIG    1       22.300 -30.071  11.452  0.00  0.00    -0.000 C 
ATOM      2  C   LIG    1       23.106 -31.026  10.938  0.00  0.00    -0.066 C 
ATOM      3  C   LIG    1       24.399 -30.712  10.190  0.00  0.00    +0.021 C 
ATOM      4  C   LIG    1       24.515 -29.303   9.610  0.00  0.00    +0.009 C 
ATOM      5  C   LIG    1       25.686 -29.426   8.660  0.00  0.00    +0.005 C 
ATOM      6  C   LIG    1       25.420 -30.737   7.885  0.00  0.00    +0.002 C 
ATOM      7  C   LIG    1       24.710 -31.657   8.966  0.00  0.00    -0.022 C 
ATOM      8  C   LIG    1       25.740 -32.735   9.390  0.00  0.00    +0.012 C 
ATOM      9  C   LIG    1       23.418 -32.361   8.511  0.00  0.00    +0.008 C 
ATOM     10  C   LIG    1       22.665 -33.105   9.620  0.00  0.00    +0.005 C 
ATOM     11  C   LIG    1       22.822 -32.503  11.014  0.00  0.00    +0.031 C 
ENDROOT
BRANCH   1  19
ATOM     12  C   LIG    1       19.209 -31.168  14.432  0.00  0.00    +0.015 C 
ATOM     13  C   LIG    1       19.422 -29.926  13.957  0.00  0.00    -0.023 C 
ATOM     14  C   LIG    1       18.440 -28.772  14.094  0.00  0.00    +0.147 C 
ATOM     15  C   LIG    1       19.110 -27.512  14.648  0.00  0.00    +0.067 C 
ATOM     16  C   LIG    1       20.382 -27.152  13.887  0.00  0.00    +0.122 C 
ATOM     17  C   LIG    1       21.350 -28.343  13.801  0.00  0.00    +0.067 C 
ATOM     18  C   LIG    1       20.671 -29.588  13.267  0.00  0.00    -0.040 C 
ATOM     19  C   LIG    1       21.089 -30.305  12.201  0.00  0.00    +0.004 C 
BRANCH  14  20
ATOM     20  O   LIG    1       17.348 -29.114  14.949  0.00  0.00    -0.387 OA
ATOM     21  H   LIG    1       17.697 -29.140  15.856  0.00  0.00    +0.210 HD
ENDBRANCH  14  20
BRANCH  16  22
ATOM     22  O   LIG    1       20.057 -26.657  12.587  0.00  0.00    -0.391 OA
ATOM     23  H   LIG    1       20.852 -26.245  12.203  0.00  0.00    +0.210 HD
ENDBRANCH  16  22
ENDBRANCH   1  19
BRANCH   6  24
ATOM     24  C   LIG    1       24.731 -30.463   6.505  0.00  0.00    +0.012 C 
ATOM     25  C   LIG    1       25.167 -31.416   5.379  0.00  0.00    +0.012 C 
BRANCH  24  26
ATOM     26  C   LIG    1       25.088 -29.053   6.038  0.00  0.00    -0.027 C 
ATOM     27  C   LIG    1       24.205 -28.079   5.753  0.00  0.00    -0.027 C 
BRANCH  27  28
ATOM     28  C   LIG    1       24.619 -26.674   5.346  0.00  0.00    +0.011 C 
ATOM     29  C   LIG    1       25.935 -26.729   4.557  0.00  0.00    +0.012 C 
BRANCH  28  30
ATOM     30  C   LIG    1       24.642 -25.690   6.552  0.00  0.00    -0.011 C 
ATOM     31  C   LIG    1       23.511 -24.659   6.466  0.00  0.00    +0.008 C 
ATOM     32  C   LIG    1       25.969 -24.948   6.755  0.00  0.00    +0.008 C 
ENDBRANCH  28  30
ENDBRANCH  27  28
ENDBRANCH  24  26
ENDBRANCH   6  24
TORSDOF 7
ENDMDL
MODEL 4
REMARK VINA RESULT:      -6.7      8.502     11.234
REMARK  Name = *****
REMARK                            x       y       z     vdW  Elec       q    Type
REMARK                         _______ _______ _______ _____ _____    ______ ____
ROOT
ATOM      1  C   LIG    1       26.258 -29.103  10.909  0.00  0.00    -0.000 C 
ATOM      2  C   LIG    1       25.348 -30.093  10.785  0.00  0.00    -0.066 C 
ATOM      3  C   LIG    1       25.570 -31.327   9.915  0.00  0.00    +0.021 C 
ATOM      4  C   LIG    1       26.621 -31.192   8.814  0.00  0.00    +0.009 C 
ATOM      5  C   LIG    1       26.348 -32.397   7.940  0.00  0.00    +0.005 C 
ATOM      6  C   LIG    1       24.812 -32.411   7.769  0.00  0.00    +0.002 C 
ATOM      7  C   LIG    1       24.289 -31.853   9.161  0.00  0.00    -0.022 C 
ATOM      8  C   LIG    1       23.687 -33.055   9.933  0.00  0.00    +0.012 C 
ATOM      9  C   LIG    1       23.232 -30.735   9.087  0.00  0.00    +0.008 C 
ATOM     10  C   LIG    1       22.871 -30.100  10.435  0.00  0.00    +0.005 C 
ATOM     11  C   LIG    1       24.002 -30.092  11.460  0.00  0.00    +0.031 C 
ENDROOT
BRANCH   1  19
ATOM     12  C   LIG    1       25.006 -25.966  13.778  0.00  0.00    +0.015 C 
ATOM     13  C   LIG    1       26.173 -26.636  13.823  0.00  0.00    -0.023 C 
ATOM     14  C   LIG    1       27.383 -26.204  14.637  0.00  0.00    +0.147 C 
ATOM     15  C   LIG    1       27.933 -27.345  15.497  0.00  0.00    +0.067 C 
ATOM     16  C   LIG    1       28.156 -28.620  14.690  0.00  0.00    +0.122 C 
ATOM     17  C   LIG    1       26.897 -29.027  13.909  0.00  0.00    +0.067 C 
ATOM     18  C   LIG    1       26.353 -27.884  13.074  0.00  0.00    -0.040 C 
ATOM     19  C   LIG    1       26.123 -27.933  11.744  0.00  0.00    +0.004 C 
BRANCH  14  20
ATOM     20  O   LIG    1       27.069 -25.105  15.495  0.00  0.00    -0.387 OA
ATOM     21  H   LIG    1       26.963 -24.324  14.927  0.00  0.00    +0.210 HD
ENDBRANCH  14  20
BRANCH  16  22
ATOM     22  O   LIG    1       29.276 -28.462  13.817  0.00  0.00    -0.391 OA
ATOM     23  H   LIG    1       29.731 -27.630  14.042  0.00  0.00    +0.210 HD
ENDBRANCH  16  22
ENDBRANCH   1  19
BRANCH   6  24
ATOM     24  C   LIG    1       24.372 -31.731   6.429  0.00  0.00    +0.012 C 
ATOM     25  C   LIG    1       24.666 -32.562   5.169  0.00  0.00    +0.012 C 
BRANCH  24  26
ATOM     26  C   LIG    1       25.129 -30.415   6.264  0.00  0.00    -0.027 C 
ATOM     27  C   LIG    1       24.591 -29.186   6.369  0.00  0.00    -0.027 C 
BRANCH  27  28
ATOM     28  C   LIG    1       25.406 -27.908   6.250  0.00  0.00    +0.011 C 
ATOM     29  C   LIG    1       25.919 -27.488   7.634  0.00  0.00    +0.012 C 
BRANCH  28  30
ATOM     30  C   LIG    1       24.641 -26.786   5.490  0.00  0.00    -0.011 C 
ATOM     31  C   LIG    1       25.488 -26.183   4.362  0.00  0.00    +0.008 C 
ATOM     32  C   LIG    1       24.118 -25.648   6.374  0.00  0.00    +0.008 C 
ENDBRANCH  28  30
ENDBRANCH  27  28
ENDBRANCH  24  26
ENDBRANCH   6  24
TORSDOF 7
ENDMDL
MODEL 5
REMARK VINA RESULT:      -6.7      8.710     11.395
REMARK  Name = *****
REMARK                            x       y       z     vdW  Elec       q    Type
REMARK                         _______ _______ _______ _____ _____    ______ ____
ROOT
ATOM      1  C   LIG    1       24.982 -29.643  11.611  0.00  0.00    -0.000 C 
ATOM      2  C   LIG    1       25.121 -30.286  10.431  0.00  0.00    -0.066 C 
ATOM      3  C   LIG    1       25.934 -29.726   9.266  0.00  0.00    +0.021 C 
ATOM      4  C   LIG    1       26.180 -28.217   9.282  0.00  0.00    +0.009 C 
ATOM      5  C   LIG    1       26.666 -27.941   7.876  0.00  0.00    +0.005 C 
ATOM      6  C   LIG    1       25.685 -28.719   6.969  0.00  0.00    +0.002 C 
ATOM      7  C   LIG    1       25.330 -30.001   7.836  0.00  0.00    -0.022 C 
ATOM      8  C   LIG    1       26.061 -31.203   7.186  0.00  0.00    +0.012 C 
ATOM      9  C   LIG    1       23.833 -30.340   7.959  0.00  0.00    +0.008 C 
ATOM     10  C   LIG    1       23.509 -31.477   8.935  0.00  0.00    +0.005 C 
ATOM     11  C   LIG    1       24.478 -31.608  10.108  0.00  0.00    +0.031 C 
ENDROOT
BRANCH   1  19
ATOM     12  C   LIG    1       22.944 -30.243  15.500  0.00  0.00    +0.015 C 
ATOM     13  C   LIG    1       22.364 -30.376  14.292  0.00  0.00    -0.023 C 
ATOM     14  C   LIG    1       21.035 -31.074  14.047  0.00  0.00    +0.147 C 
ATOM     15  C   LIG    1       20.079 -30.214  13.216  0.00  0.00    +0.067 C 
ATOM     16  C   LIG    1       20.738 -29.680  11.948  0.00  0.00    +0.122 C 
ATOM     17  C   LIG    1       22.061 -28.961  12.254  0.00  0.00    +0.067 C 
ATOM     18  C   LIG    1       22.992 -29.816  13.090  0.00  0.00    -0.040 C 
ATOM     19  C   LIG    1       24.261 -30.137  12.760  0.00  0.00    +0.004 C 
BRANCH  14  20
ATOM     20  O   LIG    1       20.387 -31.408  15.276  0.00  0.00    -0.387 OA
ATOM     21  H   LIG    1       20.815 -32.212  15.613  0.00  0.00    +0.210 HD
ENDBRANCH  14  20
BRANCH  16  22
ATOM     22  O   LIG    1       20.931 -30.740  11.009  0.00  0.00    -0.391 OA
ATOM     23  H   LIG    1       20.147 -31.317  11.026  0.00  0.00    +0.210 HD
ENDBRANCH  16  22
ENDBRANCH   1  19
BRANCH   6  24
ATOM     24  C   LIG    1       24.545 -27.795   6.421  0.00  0.00    +0.012 C 
ATOM     25  C   LIG    1       24.087 -28.131   4.992  0.00  0.00    +0.012 C 
BRANCH  24  26
ATOM     26  C   LIG    1       25.045 -26.352   6.385  0.00  0.00    -0.027 C 
ATOM     27  C   LIG    1       24.285 -25.269   6.140  0.00  0.00    -0.027 C 
BRANCH  27  28
ATOM     28  C   LIG    1       24.827 -23.849   6.173  0.00  0.00    +0.011 C 
ATOM     29  C   LIG    1       25.948 -23.744   7.216  0.00  0.00    +0.012 C 
BRANCH  28  30
ATOM     30  C   LIG    1       23.700 -22.789   6.344  0.00  0.00    -0.011 C 
ATOM     31  C   LIG    1       24.121 -21.660   7.294  0.00  0.00    +0.008 C 
ATOM     32  C   LIG    1       22.352 -23.349   6.814  0.00  0.00    +0.008 C 
ENDBRANCH  28  30
ENDBRANCH  27  28
ENDBRANCH  24  26
ENDBRANCH   6  24
TORSDOF 7
ENDMDL
MODEL 6
REMARK VINA RESULT:      -6.7     10.081     13.294
REMARK  Name = *****
REMARK                            x       y       z     vdW  Elec       q    Type
REMARK                         _______ _______ _______ _____ _____    ______ ____
ROOT
ATOM      1  C   LIG    1       22.795 -30.207  11.664  0.00  0.00    -0.000 C 
ATOM      2  C   LIG    1       23.619 -31.109  11.087  0.00  0.00    -0.066 C 
ATOM      3  C   LIG    1       24.835 -30.714  10.252  0.00  0.00    +0.021 C 
ATOM      4  C   LIG    1       24.824 -29.298   9.678  0.00  0.00    +0.009 C 
ATOM      5  C   LIG    1       25.931 -29.346   8.647  0.00  0.00    +0.005 C 
ATOM      6  C   LIG    1       25.689 -30.667   7.881  0.00  0.00    +0.002 C 
ATOM      7  C   LIG    1       25.114 -31.634   9.002  0.00  0.00    -0.022 C 
ATOM      8  C   LIG    1       26.235 -32.648   9.343  0.00  0.00    +0.012 C 
ATOM      9  C   LIG    1       23.839 -32.413   8.632  0.00  0.00    +0.008 C 
ATOM     10  C   LIG    1       23.212 -33.206   9.786  0.00  0.00    +0.005 C 
ATOM     11  C   LIG    1       23.430 -32.601  11.170  0.00  0.00    +0.031 C 
ENDROOT
BRANCH   1  19
ATOM     12  C   LIG    1       19.093 -30.186  14.099  0.00  0.00    +0.015 C 
ATOM     13  C   LIG    1       19.299 -30.949  13.009  0.00  0.00    -0.023 C 
ATOM     14  C   LIG    1       18.457 -32.159  12.633  0.00  0.00    +0.147 C 
ATOM     15  C   LIG    1       17.986 -32.100  11.177  0.00  0.00    +0.067 C 
ATOM     16  C   LIG    1       19.133 -31.822  10.211  0.00  0.00    +0.122 C 
ATOM     17  C   LIG    1       19.934 -30.576  10.621  0.00  0.00    +0.067 C 
ATOM     18  C   LIG    1       20.380 -30.639  12.068  0.00  0.00    -0.040 C 
ATOM     19  C   LIG    1       21.656 -30.517  12.494  0.00  0.00    +0.004 C 
BRANCH  14  20
ATOM     20  O   LIG    1       17.307 -32.276  13.473  0.00  0.00    -0.387 OA
ATOM     21  H   LIG    1       17.013 -31.372  13.679  0.00  0.00    +0.210 HD
ENDBRANCH  14  20
BRANCH  16  22
ATOM     22  O   LIG    1       19.980 -32.969  10.107  0.00  0.00    -0.391 OA
ATOM     23  H   LIG    1       20.744 -32.845  10.699  0.00  0.00    +0.210 HD
ENDBRANCH  16  22
ENDBRANCH   1  19
BRANCH   6  24
ATOM     24  C   LIG    1       24.890 -30.430   6.555  0.00  0.00    +0.012 C 
ATOM     25  C   LIG    1       25.269 -31.382   5.408  0.00  0.00    +0.012 C 
BRANCH  24  26
ATOM     26  C   LIG    1       25.166 -29.015   6.050  0.00  0.00    -0.027 C 
ATOM     27  C   LIG    1       24.236 -28.066   5.843  0.00  0.00    -0.027 C 
BRANCH  27  28
ATOM     28  C   LIG    1       24.575 -26.654   5.392  0.00  0.00    +0.011 C 
ATOM     29  C   LIG    1       25.853 -26.673   4.541  0.00  0.00    +0.012 C 
BRANCH  28  30
ATOM     30  C   LIG    1       24.618 -25.647   6.578  0.00  0.00    -0.011 C 
ATOM     31  C   LIG    1       23.492 -24.610   6.485  0.00  0.00    +0.008 C 
ATOM     32  C   LIG    1       25.951 -24.910   6.752  0.00  0.00    +0.008 C 
ENDBRANCH  28  30
ENDBRANCH  27  28
ENDBRANCH  24  26
ENDBRANCH   6  24
TORSDOF 7
ENDMDL
MODEL 7
REMARK VINA RESULT:      -6.6      8.126     10.931
REMARK  Name = *****
REMARK                            x       y       z     vdW  Elec       q    Type
REMARK                         _______ _______ _______ _____ _____    ______ ____
ROOT
ATOM      1  C   LIG    1       25.293 -28.368  11.902  0.00  0.00    -0.000 C 
ATOM      2  C   LIG    1       24.756 -29.599  11.755  0.00  0.00    -0.066 C 
ATOM      3  C   LIG    1       25.366 -30.673  10.858  0.00  0.00    +0.021 C 
ATOM      4  C   LIG    1       26.308 -30.177   9.761  0.00  0.00    +0.009 C 
ATOM      5  C   LIG    1       26.440 -31.386   8.861  0.00  0.00    +0.005 C 
ATOM      6  C   LIG    1       24.992 -31.898   8.686  0.00  0.00    +0.002 C 
ATOM      7  C   LIG    1       24.323 -31.573  10.089  0.00  0.00    -0.022 C 
ATOM      8  C   LIG    1       24.152 -32.922  10.833  0.00  0.00    +0.012 C 
ATOM      9  C   LIG    1       22.958 -30.861  10.037  0.00  0.00    +0.008 C 
ATOM     10  C   LIG    1       22.417 -30.409  11.399  0.00  0.00    +0.005 C 
ATOM     11  C   LIG    1       23.488 -30.054  12.426  0.00  0.00    +0.031 C 
ENDROOT
BRANCH   1  19
ATOM     12  C   LIG    1       23.754 -25.890  15.238  0.00  0.00    +0.015 C 
ATOM     13  C   LIG    1       24.870 -25.631  14.532  0.00  0.00    -0.023 C 
ATOM     14  C   LIG    1       25.593 -24.293  14.523  0.00  0.00    +0.147 C 
ATOM     15  C   LIG    1       27.093 -24.449  14.791  0.00  0.00    +0.067 C 
ATOM     16  C   LIG    1       27.733 -25.501  13.891  0.00  0.00    +0.122 C 
ATOM     17  C   LIG    1       26.981 -26.840  13.958  0.00  0.00    +0.067 C 
ATOM     18  C   LIG    1       25.496 -26.670  13.707  0.00  0.00    -0.040 C 
ATOM     19  C   LIG    1       24.787 -27.326  12.763  0.00  0.00    +0.004 C 
BRANCH  14  20
ATOM     20  O   LIG    1       25.052 -23.401  15.500  0.00  0.00    -0.387 OA
ATOM     21  H   LIG    1       25.590 -22.592  15.473  0.00  0.00    +0.210 HD
ENDBRANCH  14  20
BRANCH  16  22
ATOM     22  O   LIG    1       27.813 -25.020  12.548  0.00  0.00    -0.391 OA
ATOM     23  H   LIG    1       26.909 -24.854  12.223  0.00  0.00    +0.210 HD
ENDBRANCH  16  22
ENDBRANCH   1  19
BRANCH   6  24
ATOM     24  C   LIG    1       24.347 -31.370   7.361  0.00  0.00    +0.012 C 
ATOM     25  C   LIG    1       24.401 -32.365   6.188  0.00  0.00    +0.012 C 
BRANCH  24  26
ATOM     26  C   LIG    1       25.097 -30.121   6.901  0.00  0.00    -0.027 C 
ATOM     27  C   LIG    1       24.581 -28.881   6.838  0.00  0.00    -0.027 C 
BRANCH  27  28
ATOM     28  C   LIG    1       25.393 -27.663   6.425  0.00  0.00    +0.011 C 
ATOM     29  C   LIG    1       26.079 -27.055   7.656  0.00  0.00    +0.012 C 
BRANCH  28  30
ATOM     30  C   LIG    1       24.554 -26.644   5.599  0.00  0.00    -0.011 C 
ATOM     31  C   LIG    1       25.333 -26.118   4.387  0.00  0.00    +0.008 C 
ATOM     32  C   LIG    1       24.021 -25.449   6.397  0.00  0.00    +0.008 C 
ENDBRANCH  28  30
ENDBRANCH  27  28
ENDBRANCH  24  26
ENDBRANCH   6  24
TORSDOF 7
ENDMDL
MODEL 8
REMARK VINA RESULT:      -6.4      6.069      7.786
REMARK  Name = *****
REMARK                            x       y       z     vdW  Elec       q    Type
REMARK                         _______ _______ _______ _____ _____    ______ ____
ROOT
ATOM      1  C   LIG    1       26.337 -27.381   8.230  0.00  0.00    -0.000 C 
ATOM      2  C   LIG    1       25.917 -26.930   7.027  0.00  0.00    -0.066 C 
ATOM      3  C   LIG    1       26.107 -25.487   6.565  0.00  0.00    +0.021 C 
ATOM      4  C   LIG    1       26.337 -24.453   7.667  0.00  0.00    +0.009 C 
ATOM      5  C   LIG    1       26.124 -23.141   6.944  0.00  0.00    +0.005 C 
ATOM      6  C   LIG    1       24.834 -23.357   6.121  0.00  0.00    +0.002 C 
ATOM      7  C   LIG    1       24.913 -24.893   5.724  0.00  0.00    -0.022 C 
ATOM      8  C   LIG    1       25.260 -24.952   4.214  0.00  0.00    +0.012 C 
ATOM      9  C   LIG    1       23.638 -25.721   5.970  0.00  0.00    +0.008 C 
ATOM     10  C   LIG    1       23.795 -27.228   5.738  0.00  0.00    +0.005 C 
ATOM     11  C   LIG    1       25.193 -27.775   6.013  0.00  0.00    +0.031 C 
ENDROOT
BRANCH   1  19
ATOM     12  C   LIG    1       26.957 -31.592   9.463  0.00  0.00    +0.015 C 
ATOM     13  C   LIG    1       26.514 -30.606  10.267  0.00  0.00    -0.023 C 
ATOM     14  C   LIG    1       25.836 -30.829  11.610  0.00  0.00    +0.147 C 
ATOM     15  C   LIG    1       26.468 -29.984  12.719  0.00  0.00    +0.067 C 
ATOM     16  C   LIG    1       26.590 -28.515  12.326  0.00  0.00    +0.122 C 
ATOM     17  C   LIG    1       27.305 -28.344  10.976  0.00  0.00    +0.067 C 
ATOM     18  C   LIG    1       26.681 -29.198   9.891  0.00  0.00    -0.040 C 
ATOM     19  C   LIG    1       26.222 -28.738   8.707  0.00  0.00    +0.004 C 
BRANCH  14  20
ATOM     20  O   LIG    1       25.894 -32.202  12.002  0.00  0.00    -0.387 OA
ATOM     21  H   LIG    1       25.267 -32.684  11.438  0.00  0.00    +0.210 HD
ENDBRANCH  14  20
BRANCH  16  22
ATOM     22  O   LIG    1       25.300 -27.900  12.308  0.00  0.00    -0.391 OA
ATOM     23  H   LIG    1       25.053 -27.722  11.382  0.00  0.00    +0.210 HD
ENDBRANCH  16  22
ENDBRANCH   1  19
BRANCH   6  24
ATOM     24  C   LIG    1       23.573 -22.796   6.861  0.00  0.00    +0.012 C 
ATOM     25  C   LIG    1       22.305 -23.651   6.692  0.00  0.00    +0.012 C 
BRANCH  24  26
ATOM     26  C   LIG    1       23.238 -21.414   6.301  0.00  0.00    -0.027 C 
ATOM     27  C   LIG    1       23.938 -20.766   5.353  0.00  0.00    -0.027 C 
BRANCH  27  28
ATOM     28  C   LIG    1       23.525 -19.414   4.794  0.00  0.00    +0.011 C 
ATOM     29  C   LIG    1       21.994 -19.302   4.783  0.00  0.00    +0.012 C 
BRANCH  28  30
ATOM     30  C   LIG    1       24.192 -19.112   3.420  0.00  0.00    -0.011 C 
ATOM     31  C   LIG    1       24.744 -20.384   2.764  0.00  0.00    +0.008 C 
ATOM     32  C   LIG    1       25.305 -18.058   3.461  0.00  0.00    +0.008 C 
ENDBRANCH  28  30
ENDBRANCH  27  28
ENDBRANCH  24  26
ENDBRANCH   6  24
TORSDOF 7
ENDMDL
MODEL 9
REMARK VINA RESULT:      -6.2      9.405     12.395
REMARK  Name = *****
REMARK                            x       y       z     vdW  Elec       q    Type
REMARK                         _______ _______ _______ _____ _____    ______ ____
ROOT
ATOM      1  C   LIG    1       22.627 -30.925   9.910  0.00  0.00    -0.000 C 
ATOM      2  C   LIG    1       23.538 -31.319   8.993  0.00  0.00    -0.066 C 
ATOM      3  C   LIG    1       24.788 -30.509   8.658  0.00  0.00    +0.021 C 
ATOM      4  C   LIG    1       24.743 -29.024   9.017  0.00  0.00    +0.009 C 
ATOM      5  C   LIG    1       25.922 -28.459   8.256  0.00  0.00    +0.005 C 
ATOM      6  C   LIG    1       25.808 -29.084   6.846  0.00  0.00    +0.002 C 
ATOM      7  C   LIG    1       25.206 -30.524   7.138  0.00  0.00    -0.022 C 
ATOM      8  C   LIG    1       26.352 -31.545   6.924  0.00  0.00    +0.012 C 
ATOM      9  C   LIG    1       24.004 -30.942   6.270  0.00  0.00    +0.008 C 
ATOM     10  C   LIG    1       23.339 -32.260   6.684  0.00  0.00    +0.005 C 
ATOM     11  C   LIG    1       23.424 -32.577   8.175  0.00  0.00    +0.031 C 
ENDROOT
BRANCH   1  19
ATOM     12  C   LIG    1       19.676 -33.825  11.498  0.00  0.00    +0.015 C 
ATOM     13  C   LIG    1       19.732 -32.519  11.822  0.00  0.00    -0.023 C 
ATOM     14  C   LIG    1       18.609 -31.753  12.505  0.00  0.00    +0.147 C 
ATOM     15  C   LIG    1       19.106 -30.971  13.724  0.00  0.00    +0.067 C 
ATOM     16  C   LIG    1       20.329 -30.117  13.401  0.00  0.00    +0.122 C 
ATOM     17  C   LIG    1       21.442 -30.944  12.739  0.00  0.00    +0.067 C 
ATOM     18  C   LIG    1       20.934 -31.726  11.544  0.00  0.00    -0.040 C 
ATOM     19  C   LIG    1       21.449 -31.663  10.298  0.00  0.00    +0.004 C 
BRANCH  14  20
ATOM     20  O   LIG    1       17.563 -32.629  12.929  0.00  0.00    -0.387 OA
ATOM     21  H   LIG    1       16.776 -32.406  12.404  0.00  0.00    +0.210 HD
ENDBRANCH  14  20
BRANCH  16  22
ATOM     22  O   LIG    1       19.954 -29.007  12.583  0.00  0.00    -0.391 OA
ATOM     23  H   LIG    1       20.708 -28.771  12.014  0.00  0.00    +0.210 HD
ENDBRANCH  16  22
ENDBRANCH   1  19
BRANCH   6  24
ATOM     24  C   LIG    1       25.095 -28.118   5.840  0.00  0.00    +0.012 C 
ATOM     25  C   LIG    1       25.795 -27.992   4.476  0.00  0.00    +0.012 C 
BRANCH  24  26
ATOM     26  C   LIG    1       25.059 -26.712   6.437  0.00  0.00    -0.027 C 
ATOM     27  C   LIG    1       24.202 -25.737   6.084  0.00  0.00    -0.027 C 
BRANCH  27  28
ATOM     28  C   LIG    1       24.175 -24.372   6.753  0.00  0.00    +0.011 C 
ATOM     29  C   LIG    1       22.756 -23.789   6.686  0.00  0.00    +0.012 C 
BRANCH  28  30
ATOM     30  C   LIG    1       25.277 -23.420   6.203  0.00  0.00    -0.011 C 
ATOM     31  C   LIG    1       26.243 -22.971   7.307  0.00  0.00    +0.008 C 
ATOM     32  C   LIG    1       24.754 -22.178   5.474  0.00  0.00    +0.008 C 
ENDBRANCH  28  30
ENDBRANCH  27  28
ENDBRANCH  24  26
ENDBRANCH   6  24
TORSDOF 7
ENDMDL
