MODEL 1
REMARK VINA RESULT:      -9.2      0.000      0.000
REMARK  Name = *****
REMARK                            x       y       z     vdW  Elec       q    Type
REMARK                         _______ _______ _______ _____ _____    ______ ____
ROOT
ATOM      1  C   LIG    1       25.207 -20.560   6.070  0.00  0.00    +0.162 A 
ATOM      2  C   LIG    1       25.459 -20.846   7.423  0.00  0.00    +0.162 A 
ATOM      3  C   LIG    1       26.743 -20.675   7.927  0.00  0.00    +0.054 A 
ATOM      4  C   LIG    1       27.783 -20.203   7.124  0.00  0.00    -0.023 A 
ATOM      5  C   LIG    1       29.115 -19.920   7.781  0.00  0.00    +0.094 C 
ATOM      6  N   LIG    1       29.914 -18.876   7.146  0.00  0.00    -0.294 NA
ATOM      7  C   LIG    1       29.490 -18.363   5.849  0.00  0.00    +0.089 C 
ATOM      8  C   LIG    1       28.681 -19.340   4.979  0.00  0.00    +0.051 C 
ATOM      9  C   LIG    1       31.342 -18.906   7.416  0.00  0.00    +0.096 C 
ATOM     10  C   LIG    1       31.615 -19.318   8.873  0.00  0.00    +0.070 C 
ATOM     11  C   LIG    1       31.143 -20.766   8.928  0.00  0.00    +0.139 C 
ATOM     12  O   LIG    1       31.784 -21.634   9.580  0.00  0.00    -0.297 OA
ATOM     13  C   LIG    1       29.934 -21.168   8.100  0.00  0.00    +0.098 C 
ATOM     14  C   LIG    1       27.541 -19.908   5.780  0.00  0.00    -0.038 A 
ATOM     15  C   LIG    1       26.257 -20.110   5.248  0.00  0.00    +0.053 A 
ENDROOT
BRANCH   1  17
ATOM     16  C   LIG    1       24.043 -21.005   4.053  0.00  0.00    +0.277 C 
ATOM     17  O   LIG    1       23.985 -20.681   5.444  0.00  0.00    -0.491 OA
ENDBRANCH   1  17
BRANCH   2  18
ATOM     18  O   LIG    1       24.425 -21.272   8.205  0.00  0.00    -0.491 OA
ATOM     19  C   LIG    1       23.454 -22.139   7.653  0.00  0.00    +0.277 C 
ENDBRANCH   2  18
BRANCH  10  20
ATOM     20  C   LIG    1       31.005 -18.417   9.996  0.00  0.00    +0.015 C 
BRANCH  20  21
ATOM     21  C   LIG    1       31.900 -17.277  10.564  0.00  0.00    -0.016 C 
ATOM     22  C   LIG    1       31.172 -16.498  11.679  0.00  0.00    +0.007 C 
ATOM     23  C   LIG    1       32.355 -16.217   9.556  0.00  0.00    +0.007 C 
ENDBRANCH  20  21
ENDBRANCH  10  20
TORSDOF 4
ENDMDL
MODEL 2
REMARK VINA RESULT:      -8.8      1.971      7.026
REMARK  Name = *****
REMARK                            x       y       z     vdW  Elec       q    Type
REMARK                         _______ _______ _______ _____ _____    ______ ____
ROOT
ATOM      1  C   LIG    1       30.657 -19.613   7.626  0.00  0.00    +0.162 A 
ATOM      2  C   LIG    1       30.012 -20.686   8.266  0.00  0.00    +0.162 A 
ATOM      3  C   LIG    1       28.705 -21.002   7.915  0.00  0.00    +0.054 A 
ATOM      4  C   LIG    1       28.026 -20.290   6.923  0.00  0.00    -0.023 A 
ATOM      5  C   LIG    1       26.657 -20.780   6.509  0.00  0.00    +0.094 C 
ATOM      6  N   LIG    1       26.279 -20.484   5.130  0.00  0.00    -0.294 NA
ATOM      7  C   LIG    1       27.118 -19.578   4.355  0.00  0.00    +0.089 C 
ATOM      8  C   LIG    1       27.906 -18.539   5.171  0.00  0.00    +0.051 C 
ATOM      9  C   LIG    1       24.855 -20.486   4.840  0.00  0.00    +0.096 C 
ATOM     10  C   LIG    1       24.138 -21.600   5.622  0.00  0.00    +0.070 C 
ATOM     11  C   LIG    1       24.274 -21.161   7.074  0.00  0.00    +0.139 C 
ATOM     12  O   LIG    1       23.323 -21.308   7.889  0.00  0.00    -0.297 OA
ATOM     13  C   LIG    1       25.546 -20.449   7.502  0.00  0.00    +0.098 C 
ATOM     14  C   LIG    1       28.661 -19.227   6.276  0.00  0.00    -0.038 A 
ATOM     15  C   LIG    1       29.969 -18.874   6.646  0.00  0.00    +0.053 A 
ENDROOT
BRANCH   1  17
ATOM     16  C   LIG    1       32.065 -18.045   8.712  0.00  0.00    +0.277 C 
ATOM     17  O   LIG    1       31.948 -19.196   7.873  0.00  0.00    -0.491 OA
ENDBRANCH   1  17
BRANCH   2  18
ATOM     18  O   LIG    1       30.701 -21.396   9.206  0.00  0.00    -0.491 OA
ATOM     19  C   LIG    1       31.553 -22.446   8.790  0.00  0.00    +0.277 C 
ENDBRANCH   2  18
BRANCH  10  20
ATOM     20  C   LIG    1       24.609 -23.069   5.364  0.00  0.00    +0.015 C 
BRANCH  20  21
ATOM     21  C   LIG    1       24.523 -24.067   6.555  0.00  0.00    -0.016 C 
ATOM     22  C   LIG    1       25.912 -24.322   7.173  0.00  0.00    +0.007 C 
ATOM     23  C   LIG    1       23.961 -25.454   6.227  0.00  0.00    +0.007 C 
ENDBRANCH  20  21
ENDBRANCH  10  20
TORSDOF 4
ENDMDL
MODEL 3
REMARK VINA RESULT:      -8.3      3.003      7.608
REMARK  Name = *****
REMARK                            x       y       z     vdW  Elec       q    Type
REMARK                         _______ _______ _______ _____ _____    ______ ____
ROOT
ATOM      1  C   LIG    1       29.375 -20.660   7.671  0.00  0.00    +0.162 A 
ATOM      2  C   LIG    1       28.980 -19.749   6.677  0.00  0.00    +0.162 A 
ATOM      3  C   LIG    1       27.705 -19.847   6.131  0.00  0.00    +0.054 A 
ATOM      4  C   LIG    1       26.801 -20.818   6.567  0.00  0.00    -0.023 A 
ATOM      5  C   LIG    1       25.393 -20.773   6.018  0.00  0.00    +0.094 C 
ATOM      6  N   LIG    1       24.361 -21.304   6.904  0.00  0.00    -0.294 NA
ATOM      7  C   LIG    1       24.772 -22.016   8.107  0.00  0.00    +0.089 C 
ATOM      8  C   LIG    1       26.145 -22.704   8.037  0.00  0.00    +0.051 C 
ATOM      9  C   LIG    1       23.124 -21.728   6.268  0.00  0.00    +0.096 C 
ATOM     10  C   LIG    1       22.749 -20.783   5.114  0.00  0.00    +0.070 C 
ATOM     11  C   LIG    1       23.854 -21.015   4.090  0.00  0.00    +0.139 C 
ATOM     12  O   LIG    1       23.598 -21.055   2.856  0.00  0.00    -0.297 OA
ATOM     13  C   LIG    1       25.261 -21.297   4.590  0.00  0.00    +0.098 C 
ATOM     14  C   LIG    1       27.182 -21.723   7.560  0.00  0.00    -0.038 A 
ATOM     15  C   LIG    1       28.478 -21.659   8.095  0.00  0.00    +0.053 A 
ENDROOT
BRANCH   1  17
ATOM     16  C   LIG    1       30.868 -21.830   9.095  0.00  0.00    +0.277 C 
ATOM     17  O   LIG    1       30.604 -20.674   8.298  0.00  0.00    -0.491 OA
ENDBRANCH   1  17
BRANCH   2  18
ATOM     18  O   LIG    1       29.861 -18.783   6.288  0.00  0.00    -0.491 OA
ATOM     19  C   LIG    1       29.590 -18.030   5.121  0.00  0.00    +0.277 C 
ENDBRANCH   2  18
BRANCH  10  20
ATOM     20  C   LIG    1       22.530 -19.276   5.468  0.00  0.00    +0.015 C 
BRANCH  20  21
ATOM     21  C   LIG    1       22.250 -18.297   4.292  0.00  0.00    -0.016 C 
ATOM     22  C   LIG    1       22.230 -16.832   4.775  0.00  0.00    +0.007 C 
ATOM     23  C   LIG    1       20.924 -18.500   3.551  0.00  0.00    +0.007 C 
ENDBRANCH  20  21
ENDBRANCH  10  20
TORSDOF 4
ENDMDL
MODEL 4
REMARK VINA RESULT:      -6.4      7.029      9.857
REMARK  Name = *****
REMARK                            x       y       z     vdW  Elec       q    Type
REMARK                         _______ _______ _______ _____ _____    ______ ____
ROOT
ATOM      1  C   LIG    1       25.439 -31.131   8.229  0.00  0.00    +0.162 A 
ATOM      2  C   LIG    1       25.395 -30.046   9.122  0.00  0.00    +0.162 A 
ATOM      3  C   LIG    1       25.322 -28.753   8.619  0.00  0.00    +0.054 A 
ATOM      4  C   LIG    1       25.268 -28.509   7.245  0.00  0.00    -0.023 A 
ATOM      5  C   LIG    1       25.056 -27.085   6.785  0.00  0.00    +0.094 C 
ATOM      6  N   LIG    1       24.373 -26.939   5.502  0.00  0.00    -0.294 NA
ATOM      7  C   LIG    1       24.158 -28.127   4.686  0.00  0.00    +0.089 C 
ATOM      8  C   LIG    1       25.175 -29.264   4.884  0.00  0.00    +0.051 C 
ATOM      9  C   LIG    1       24.578 -25.680   4.805  0.00  0.00    +0.096 C 
ATOM     10  C   LIG    1       24.629 -24.506   5.798  0.00  0.00    +0.070 C 
ATOM     11  C   LIG    1       25.906 -24.764   6.590  0.00  0.00    +0.139 C 
ATOM     12  O   LIG    1       26.667 -23.816   6.922  0.00  0.00    -0.297 OA
ATOM     13  C   LIG    1       26.297 -26.202   6.888  0.00  0.00    +0.098 C 
ATOM     14  C   LIG    1       25.303 -29.581   6.349  0.00  0.00    -0.038 A 
ATOM     15  C   LIG    1       25.413 -30.891   6.843  0.00  0.00    +0.053 A 
ENDROOT
BRANCH   1  17
ATOM     16  C   LIG    1       25.512 -33.388   7.504  0.00  0.00    +0.277 C 
ATOM     17  O   LIG    1       25.509 -32.460   8.591  0.00  0.00    -0.491 OA
ENDBRANCH   1  17
BRANCH   2  18
ATOM     18  O   LIG    1       25.411 -30.301  10.463  0.00  0.00    -0.491 OA
ATOM     19  C   LIG    1       24.282 -29.961  11.243  0.00  0.00    +0.277 C 
ENDBRANCH   2  18
BRANCH  10  20
ATOM     20  C   LIG    1       23.370 -24.276   6.697  0.00  0.00    +0.015 C 
BRANCH  20  21
ATOM     21  C   LIG    1       22.933 -22.804   6.952  0.00  0.00    -0.016 C 
ATOM     22  C   LIG    1       22.618 -22.077   5.629  0.00  0.00    +0.007 C 
ATOM     23  C   LIG    1       23.952 -21.917   7.674  0.00  0.00    +0.007 C 
ENDBRANCH  20  21
ENDBRANCH  10  20
TORSDOF 4
ENDMDL
MODEL 5
REMARK VINA RESULT:      -6.4      9.659     12.093
REMARK  Name = *****
REMARK                            x       y       z     vdW  Elec       q    Type
REMARK                         _______ _______ _______ _____ _____    ______ ____
ROOT
ATOM      1  C   LIG    1       25.384 -30.824   6.036  0.00  0.00    +0.162 A 
ATOM      2  C   LIG    1       24.563 -29.721   6.329  0.00  0.00    +0.162 A 
ATOM      3  C   LIG    1       24.091 -29.550   7.625  0.00  0.00    +0.054 A 
ATOM      4  C   LIG    1       24.433 -30.437   8.648  0.00  0.00    -0.023 A 
ATOM      5  C   LIG    1       23.987 -30.107  10.053  0.00  0.00    +0.094 C 
ATOM      6  N   LIG    1       24.848 -30.616  11.117  0.00  0.00    -0.294 NA
ATOM      7  C   LIG    1       25.904 -31.560  10.769  0.00  0.00    +0.089 C 
ATOM      8  C   LIG    1       25.645 -32.418   9.520  0.00  0.00    +0.051 C 
ATOM      9  C   LIG    1       24.236 -30.755  12.428  0.00  0.00    +0.096 C 
ATOM     10  C   LIG    1       23.262 -29.597  12.703  0.00  0.00    +0.070 C 
ATOM     11  C   LIG    1       22.147 -29.821  11.689  0.00  0.00    +0.139 C 
ATOM     12  O   LIG    1       20.939 -29.629  11.998  0.00  0.00    -0.297 OA
ATOM     13  C   LIG    1       22.509 -30.375  10.321  0.00  0.00    +0.098 C 
ATOM     14  C   LIG    1       25.254 -31.532   8.367  0.00  0.00    -0.038 A 
ATOM     15  C   LIG    1       25.710 -31.738   7.055  0.00  0.00    +0.053 A 
ENDROOT
BRANCH   1  17
ATOM     16  C   LIG    1       25.878 -32.489   4.421  0.00  0.00    +0.277 C 
ATOM     17  O   LIG    1       25.922 -31.111   4.799  0.00  0.00    -0.491 OA
ENDBRANCH   1  17
BRANCH   2  18
ATOM     18  O   LIG    1       24.267 -28.841   5.329  0.00  0.00    -0.491 OA
ATOM     19  C   LIG    1       24.526 -27.464   5.522  0.00  0.00    +0.277 C 
ENDBRANCH   2  18
BRANCH  10  20
ATOM     20  C   LIG    1       23.850 -28.148  12.677  0.00  0.00    +0.015 C 
BRANCH  20  21
ATOM     21  C   LIG    1       23.277 -27.125  13.700  0.00  0.00    -0.016 C 
ATOM     22  C   LIG    1       21.920 -26.564  13.229  0.00  0.00    +0.007 C 
ATOM     23  C   LIG    1       24.150 -25.898  13.982  0.00  0.00    +0.007 C 
ENDBRANCH  20  21
ENDBRANCH  10  20
TORSDOF 4
ENDMDL
MODEL 6
REMARK VINA RESULT:      -6.3      7.828     10.748
REMARK  Name = *****
REMARK                            x       y       z     vdW  Elec       q    Type
REMARK                         _______ _______ _______ _____ _____    ______ ____
ROOT
ATOM      1  C   LIG    1       25.807 -31.383  10.289  0.00  0.00    +0.162 A 
ATOM      2  C   LIG    1       26.027 -30.039  10.638  0.00  0.00    +0.162 A 
ATOM      3  C   LIG    1       25.909 -29.055   9.665  0.00  0.00    +0.054 A 
ATOM      4  C   LIG    1       25.555 -29.369   8.351  0.00  0.00    -0.023 A 
ATOM      5  C   LIG    1       25.319 -28.229   7.387  0.00  0.00    +0.094 C 
ATOM      6  N   LIG    1       24.369 -28.506   6.314  0.00  0.00    -0.294 NA
ATOM      7  C   LIG    1       23.909 -29.877   6.124  0.00  0.00    +0.089 C 
ATOM      8  C   LIG    1       24.883 -30.975   6.584  0.00  0.00    +0.051 C 
ATOM      9  C   LIG    1       24.475 -27.669   5.130  0.00  0.00    +0.096 C 
ATOM     10  C   LIG    1       24.815 -26.219   5.513  0.00  0.00    +0.070 C 
ATOM     11  C   LIG    1       26.223 -26.323   6.086  0.00  0.00    +0.139 C 
ATOM     12  O   LIG    1       27.090 -25.440   5.844  0.00  0.00    -0.297 OA
ATOM     13  C   LIG    1       26.596 -27.565   6.879  0.00  0.00    +0.098 C 
ATOM     14  C   LIG    1       25.327 -30.701   7.996  0.00  0.00    -0.038 A 
ATOM     15  C   LIG    1       25.477 -31.710   8.960  0.00  0.00    +0.053 A 
ENDROOT
BRANCH   1  17
ATOM     16  C   LIG    1       24.803 -33.383  11.073  0.00  0.00    +0.277 C 
ATOM     17  O   LIG    1       25.887 -32.455  11.152  0.00  0.00    -0.491 OA
ENDBRANCH   1  17
BRANCH   2  18
ATOM     18  O   LIG    1       26.337 -29.743  11.934  0.00  0.00    -0.491 OA
ATOM     19  C   LIG    1       27.627 -29.252  12.240  0.00  0.00    +0.277 C 
ENDBRANCH   2  18
BRANCH  10  20
ATOM     20  C   LIG    1       23.810 -25.474   6.452  0.00  0.00    +0.015 C 
BRANCH  20  21
ATOM     21  C   LIG    1       23.741 -23.924   6.342  0.00  0.00    -0.016 C 
ATOM     22  C   LIG    1       24.819 -23.253   7.218  0.00  0.00    +0.007 C 
ATOM     23  C   LIG    1       22.416 -23.279   6.760  0.00  0.00    +0.007 C 
ENDBRANCH  20  21
ENDBRANCH  10  20
TORSDOF 4
ENDMDL
