MODEL 1
REMARK VINA RESULT:      -3.6      0.000      0.000
REMARK  Name = *****
REMARK                            x       y       z     vdW  Elec       q    Type
REMARK                         _______ _______ _______ _____ _____    ______ ____
ROOT
ATOM      1  O   LIG    1       26.723 -16.406   3.312  0.00  0.00    -0.275 OA
ATOM      2  C   LIG    1       25.538 -16.410   3.659  0.00  0.00    +0.219 C 
ATOM      3  N   LIG    1       24.695 -17.446   3.292  0.00  0.00    -0.290 N 
ATOM      4  C   LIG    1       25.258 -18.654   2.701  0.00  0.00    +0.135 C 
ATOM      5  C   LIG    1       25.169 -19.830   3.705  0.00  0.00    +0.124 C 
ATOM      6  N   LIG    1       23.821 -19.932   4.310  0.00  0.00    -0.291 N 
ATOM      7  C   LIG    1       23.679 -21.009   5.277  0.00  0.00    +0.113 C 
ATOM      8  C   LIG    1       24.537 -20.688   6.499  0.00  0.00    +0.054 C 
ATOM      9  C   LIG    1       25.954 -20.335   6.097  0.00  0.00    -0.041 A 
ATOM     10  C   LIG    1       26.969 -20.430   7.062  0.00  0.00    +0.004 A 
ATOM     11  C   LIG    1       28.288 -20.138   6.731  0.00  0.00    +0.000 A 
ATOM     12  C   LIG    1       28.604 -19.740   5.436  0.00  0.00    +0.000 A 
ATOM     13  C   LIG    1       27.600 -19.617   4.474  0.00  0.00    +0.006 A 
ATOM     14  C   LIG    1       22.985 -18.826   4.468  0.00  0.00    +0.234 C 
ATOM     15  O   LIG    1       21.957 -18.873   5.148  0.00  0.00    -0.274 OA
ATOM     16  C   LIG    1       26.257 -19.887   4.787  0.00  0.00    -0.022 A 
ATOM     17  C   LIG    1       23.279 -17.585   3.620  0.00  0.00    +0.203 C 
ENDROOT
BRANCH   2  18
ATOM     18  C   LIG    1       24.976 -15.292   4.547  0.00  0.00    +0.075 C 
ATOM     19  C   LIG    1       26.045 -14.214   4.787  0.00  0.00    +0.012 C 
ATOM     20  C   LIG    1       26.218 -13.271   3.597  0.00  0.00    +0.001 C 
ATOM     21  C   LIG    1       24.894 -12.634   3.195  0.00  0.00    +0.000 C 
ATOM     22  C   LIG    1       23.851 -13.690   2.865  0.00  0.00    +0.001 C 
ATOM     23  C   LIG    1       23.669 -14.693   4.002  0.00  0.00    +0.012 C 
ENDBRANCH   2  18
TORSDOF 1
ENDMDL
