MODEL 1
REMARK VINA RESULT:      -6.5      0.000      0.000
REMARK  Name = *****
REMARK                            x       y       z     vdW  Elec       q    Type
REMARK                         _______ _______ _______ _____ _____    ______ ____
ROOT
ATOM      1  C   LIG    1       23.401 -20.748   4.888  0.00  0.00    +0.020 C 
ATOM      2  C   LIG    1       24.818 -21.349   4.720  0.00  0.00    +0.118 C 
ATOM      3  C   LIG    1       25.764 -20.960   5.861  0.00  0.00    +0.035 C 
ATOM      4  C   LIG    1       25.205 -21.217   7.274  0.00  0.00    -0.012 C 
ATOM      5  C   LIG    1       25.322 -22.687   7.689  0.00  0.00    +0.007 C 
ATOM      6  C   LIG    1       23.764 -20.708   7.418  0.00  0.00    +0.004 C 
ATOM      7  C   LIG    1       22.855 -21.156   6.275  0.00  0.00    +0.006 C 
ENDROOT
BRANCH   1   9
ATOM      8  C   LIG    1       24.283 -18.786   3.486  0.00  0.00    +0.007 C 
ATOM      9  C   LIG    1       23.356 -19.207   4.635  0.00  0.00    -0.012 C 
ATOM     10  C   LIG    1       21.938 -18.714   4.314  0.00  0.00    +0.007 C 
ENDBRANCH   1   9
BRANCH   2  11
ATOM     11  O   LIG    1       24.732 -22.774   4.660  0.00  0.00    -0.392 OA
ATOM     12  H   LIG    1       24.127 -23.061   5.366  0.00  0.00    +0.210 HD
ENDBRANCH   2  11
TORSDOF 2
ENDMDL
MODEL 2
REMARK VINA RESULT:      -6.2      1.328      3.768
REMARK  Name = *****
REMARK                            x       y       z     vdW  Elec       q    Type
REMARK                         _______ _______ _______ _____ _____    ______ ____
ROOT
ATOM      1  C   LIG    1       25.543 -21.396   5.885  0.00  0.00    +0.020 C 
ATOM      2  C   LIG    1       24.331 -21.914   6.697  0.00  0.00    +0.118 C 
ATOM      3  C   LIG    1       23.251 -20.844   6.892  0.00  0.00    +0.035 C 
ATOM      4  C   LIG    1       22.804 -20.140   5.597  0.00  0.00    -0.012 C 
ATOM      5  C   LIG    1       21.813 -20.982   4.787  0.00  0.00    +0.007 C 
ATOM      6  C   LIG    1       24.002 -19.708   4.740  0.00  0.00    +0.004 C 
ATOM      7  C   LIG    1       25.030 -20.823   4.545  0.00  0.00    +0.006 C 
ENDROOT
BRANCH   1   9
ATOM      8  C   LIG    1       26.686 -20.869   8.123  0.00  0.00    +0.007 C 
ATOM      9  C   LIG    1       26.433 -20.392   6.687  0.00  0.00    -0.012 C 
ATOM     10  C   LIG    1       27.792 -20.158   6.012  0.00  0.00    +0.007 C 
ENDBRANCH   1   9
BRANCH   2  11
ATOM     11  O   LIG    1       23.751 -23.037   6.032  0.00  0.00    -0.392 OA
ATOM     12  H   LIG    1       22.787 -22.985   6.156  0.00  0.00    +0.210 HD
ENDBRANCH   2  11
TORSDOF 2
ENDMDL
MODEL 3
REMARK VINA RESULT:      -6.1      2.356      3.948
REMARK  Name = *****
REMARK                            x       y       z     vdW  Elec       q    Type
REMARK                         _______ _______ _______ _____ _____    ______ ____
ROOT
ATOM      1  C   LIG    1       25.030 -23.151   6.188  0.00  0.00    +0.020 C 
ATOM      2  C   LIG    1       24.670 -21.654   6.023  0.00  0.00    +0.118 C 
ATOM      3  C   LIG    1       24.591 -20.915   7.363  0.00  0.00    +0.035 C 
ATOM      4  C   LIG    1       25.820 -21.102   8.273  0.00  0.00    -0.012 C 
ATOM      5  C   LIG    1       26.995 -20.211   7.859  0.00  0.00    +0.007 C 
ATOM      6  C   LIG    1       26.242 -22.576   8.365  0.00  0.00    +0.004 C 
ATOM      7  C   LIG    1       26.342 -23.255   7.000  0.00  0.00    +0.006 C 
ENDROOT
BRANCH   1   9
ATOM      8  C   LIG    1       22.493 -23.367   6.512  0.00  0.00    +0.007 C 
ATOM      9  C   LIG    1       23.864 -23.999   6.789  0.00  0.00    -0.012 C 
ATOM     10  C   LIG    1       23.850 -25.434   6.242  0.00  0.00    +0.007 C 
ENDBRANCH   1   9
BRANCH   2  11
ATOM     11  O   LIG    1       25.645 -21.012   5.201  0.00  0.00    -0.392 OA
ATOM     12  H   LIG    1       26.127 -20.378   5.759  0.00  0.00    +0.210 HD
ENDBRANCH   2  11
TORSDOF 2
ENDMDL
MODEL 4
REMARK VINA RESULT:      -6.1      1.997      3.155
REMARK  Name = *****
REMARK                            x       y       z     vdW  Elec       q    Type
REMARK                         _______ _______ _______ _____ _____    ______ ____
ROOT
ATOM      1  C   LIG    1       24.858 -22.059   5.963  0.00  0.00    +0.020 C 
ATOM      2  C   LIG    1       25.586 -20.697   6.059  0.00  0.00    +0.118 C 
ATOM      3  C   LIG    1       25.978 -20.337   7.497  0.00  0.00    +0.035 C 
ATOM      4  C   LIG    1       26.745 -21.441   8.248  0.00  0.00    -0.012 C 
ATOM      5  C   LIG    1       28.228 -21.487   7.864  0.00  0.00    +0.007 C 
ATOM      6  C   LIG    1       26.081 -22.814   8.078  0.00  0.00    +0.004 C 
ATOM      7  C   LIG    1       25.746 -23.139   6.622  0.00  0.00    +0.006 C 
ENDROOT
BRANCH   1   9
ATOM      8  C   LIG    1       22.461 -21.195   5.650  0.00  0.00    +0.007 C 
ATOM      9  C   LIG    1       23.405 -22.019   6.536  0.00  0.00    -0.012 C 
ATOM     10  C   LIG    1       22.808 -23.425   6.699  0.00  0.00    +0.007 C 
ENDBRANCH   1   9
BRANCH   2  11
ATOM     11  O   LIG    1       26.766 -20.723   5.255  0.00  0.00    -0.392 OA
ATOM     12  H   LIG    1       27.118 -19.817   5.221  0.00  0.00    +0.210 HD
ENDBRANCH   2  11
TORSDOF 2
ENDMDL
MODEL 5
REMARK VINA RESULT:      -6.0      2.243      3.667
REMARK  Name = *****
REMARK                            x       y       z     vdW  Elec       q    Type
REMARK                         _______ _______ _______ _____ _____    ______ ____
ROOT
ATOM      1  C   LIG    1       25.776 -20.705   7.179  0.00  0.00    +0.020 C 
ATOM      2  C   LIG    1       24.714 -20.776   6.055  0.00  0.00    +0.118 C 
ATOM      3  C   LIG    1       24.694 -22.135   5.347  0.00  0.00    +0.035 C 
ATOM      4  C   LIG    1       24.600 -23.349   6.291  0.00  0.00    -0.012 C 
ATOM      5  C   LIG    1       23.171 -23.595   6.786  0.00  0.00    +0.007 C 
ATOM      6  C   LIG    1       25.586 -23.238   7.463  0.00  0.00    +0.004 C 
ATOM      7  C   LIG    1       25.538 -21.878   8.157  0.00  0.00    +0.006 C 
ENDROOT
BRANCH   1   9
ATOM      8  C   LIG    1       27.360 -19.712   5.420  0.00  0.00    +0.007 C 
ATOM      9  C   LIG    1       27.239 -20.641   6.636  0.00  0.00    -0.012 C 
ATOM     10  C   LIG    1       28.234 -20.165   7.705  0.00  0.00    +0.007 C 
ENDBRANCH   1   9
BRANCH   2  11
ATOM     11  O   LIG    1       23.418 -20.523   6.601  0.00  0.00    -0.392 OA
ATOM     12  H   LIG    1       23.542 -20.080   7.458  0.00  0.00    +0.210 HD
ENDBRANCH   2  11
TORSDOF 2
ENDMDL
MODEL 6
REMARK VINA RESULT:      -5.8      1.489      3.939
REMARK  Name = *****
REMARK                            x       y       z     vdW  Elec       q    Type
REMARK                         _______ _______ _______ _____ _____    ______ ____
ROOT
ATOM      1  C   LIG    1       25.178 -21.819   5.709  0.00  0.00    +0.020 C 
ATOM      2  C   LIG    1       24.457 -21.590   4.359  0.00  0.00    +0.118 C 
ATOM      3  C   LIG    1       22.940 -21.435   4.519  0.00  0.00    +0.035 C 
ATOM      4  C   LIG    1       22.508 -20.399   5.573  0.00  0.00    -0.012 C 
ATOM      5  C   LIG    1       22.591 -18.962   5.048  0.00  0.00    +0.007 C 
ATOM      6  C   LIG    1       23.289 -20.560   6.885  0.00  0.00    +0.004 C 
ATOM      7  C   LIG    1       24.799 -20.671   6.672  0.00  0.00    +0.006 C 
ENDROOT
BRANCH   1   9
ATOM      8  C   LIG    1       25.038 -24.340   5.246  0.00  0.00    +0.007 C 
ATOM      9  C   LIG    1       24.920 -23.238   6.308  0.00  0.00    -0.012 C 
ATOM     10  C   LIG    1       25.888 -23.569   7.453  0.00  0.00    +0.007 C 
ENDBRANCH   1   9
BRANCH   2  11
ATOM     11  O   LIG    1       24.974 -20.416   3.730  0.00  0.00    -0.392 OA
ATOM     12  H   LIG    1       25.907 -20.330   3.991  0.00  0.00    +0.210 HD
ENDBRANCH   2  11
TORSDOF 2
ENDMDL
MODEL 7
REMARK VINA RESULT:      -5.8      1.627      2.584
REMARK  Name = *****
REMARK                            x       y       z     vdW  Elec       q    Type
REMARK                         _______ _______ _______ _____ _____    ______ ____
ROOT
ATOM      1  C   LIG    1       24.161 -20.300   5.826  0.00  0.00    +0.020 C 
ATOM      2  C   LIG    1       23.463 -20.967   7.036  0.00  0.00    +0.118 C 
ATOM      3  C   LIG    1       23.064 -22.421   6.758  0.00  0.00    +0.035 C 
ATOM      4  C   LIG    1       24.198 -23.303   6.202  0.00  0.00    -0.012 C 
ATOM      5  C   LIG    1       25.155 -23.783   7.299  0.00  0.00    +0.007 C 
ATOM      6  C   LIG    1       24.958 -22.606   5.064  0.00  0.00    +0.004 C 
ATOM      7  C   LIG    1       25.365 -21.173   5.407  0.00  0.00    +0.006 C 
ENDROOT
BRANCH   1   9
ATOM      8  C   LIG    1       22.227 -18.837   4.983  0.00  0.00    +0.007 C 
ATOM      9  C   LIG    1       23.182 -19.991   4.648  0.00  0.00    -0.012 C 
ATOM     10  C   LIG    1       23.928 -19.637   3.353  0.00  0.00    +0.007 C 
ENDBRANCH   1   9
BRANCH   2  11
ATOM     11  O   LIG    1       24.331 -20.938   8.169  0.00  0.00    -0.392 OA
ATOM     12  H   LIG    1       25.068 -20.339   7.959  0.00  0.00    +0.210 HD
ENDBRANCH   2  11
TORSDOF 2
ENDMDL
MODEL 8
REMARK VINA RESULT:      -5.7      2.691      3.987
REMARK  Name = *****
REMARK                            x       y       z     vdW  Elec       q    Type
REMARK                         _______ _______ _______ _____ _____    ______ ____
ROOT
ATOM      1  C   LIG    1       24.462 -21.947   7.519  0.00  0.00    +0.020 C 
ATOM      2  C   LIG    1       25.719 -22.326   8.338  0.00  0.00    +0.118 C 
ATOM      3  C   LIG    1       26.993 -22.351   7.486  0.00  0.00    +0.035 C 
ATOM      4  C   LIG    1       27.228 -21.081   6.646  0.00  0.00    -0.012 C 
ATOM      5  C   LIG    1       27.813 -19.933   7.474  0.00  0.00    +0.007 C 
ATOM      6  C   LIG    1       25.956 -20.645   5.905  0.00  0.00    +0.004 C 
ATOM      7  C   LIG    1       24.724 -20.600   6.808  0.00  0.00    +0.006 C 
ENDROOT
BRANCH   1   9
ATOM      8  C   LIG    1       24.763 -24.390   6.787  0.00  0.00    +0.007 C 
ATOM      9  C   LIG    1       24.000 -23.080   6.547  0.00  0.00    -0.012 C 
ATOM     10  C   LIG    1       22.497 -23.370   6.667  0.00  0.00    +0.007 C 
ENDBRANCH   1   9
BRANCH   2  11
ATOM     11  O   LIG    1       25.898 -21.393   9.405  0.00  0.00    -0.392 OA
ATOM     12  H   LIG    1       25.405 -20.587   9.175  0.00  0.00    +0.210 HD
ENDBRANCH   2  11
TORSDOF 2
ENDMDL
MODEL 9
REMARK VINA RESULT:      -5.7      1.371      1.868
REMARK  Name = *****
REMARK                            x       y       z     vdW  Elec       q    Type
REMARK                         _______ _______ _______ _____ _____    ______ ____
ROOT
ATOM      1  C   LIG    1       24.135 -20.966   5.091  0.00  0.00    +0.020 C 
ATOM      2  C   LIG    1       25.261 -20.329   5.939  0.00  0.00    +0.118 C 
ATOM      3  C   LIG    1       25.154 -20.686   7.426  0.00  0.00    +0.035 C 
ATOM      4  C   LIG    1       25.013 -22.192   7.715  0.00  0.00    -0.012 C 
ATOM      5  C   LIG    1       26.354 -22.929   7.643  0.00  0.00    +0.007 C 
ATOM      6  C   LIG    1       23.964 -22.851   6.809  0.00  0.00    +0.004 C 
ATOM      7  C   LIG    1       24.138 -22.493   5.334  0.00  0.00    +0.006 C 
ENDROOT
BRANCH   1   9
ATOM      8  C   LIG    1       22.643 -18.916   4.685  0.00  0.00    +0.007 C 
ATOM      9  C   LIG    1       22.739 -20.306   5.330  0.00  0.00    -0.012 C 
ATOM     10  C   LIG    1       21.590 -21.167   4.787  0.00  0.00    +0.007 C 
ENDBRANCH   1   9
BRANCH   2  11
ATOM     11  O   LIG    1       26.533 -20.760   5.454  0.00  0.00    -0.392 OA
ATOM     12  H   LIG    1       26.643 -21.693   5.708  0.00  0.00    +0.210 HD
ENDBRANCH   2  11
TORSDOF 2
ENDMDL
