MODEL 1
REMARK VINA RESULT:       6.1      0.000      0.000
REMARK  Name = *****
REMARK                            x       y       z     vdW  Elec       q    Type
REMARK                         _______ _______ _______ _____ _____    ______ ____
ROOT
ATOM      1  C   LIG    1       27.594 -17.859   4.653  0.00  0.00    +0.148 A 
ATOM      2  O   LIG    1       26.266 -18.136   4.512  0.00  0.00    -0.454 OA
ATOM      3  C   LIG    1       26.084 -19.464   4.776  0.00  0.00    +0.136 A 
ATOM      4  C   LIG    1       27.304 -20.045   5.060  0.00  0.00    +0.050 A 
ATOM      5  C   LIG    1       28.273 -19.013   4.986  0.00  0.00    +0.051 A 
ENDROOT
BRANCH   3   6
ATOM      6  C   LIG    1       24.705 -19.946   4.715  0.00  0.00    +0.018 A 
ATOM      7  C   LIG    1       24.235 -20.898   5.636  0.00  0.00    +0.018 A 
ATOM      8  C   LIG    1       22.914 -21.358   5.584  0.00  0.00    +0.085 A 
ATOM      9  C   LIG    1       22.046 -20.861   4.604  0.00  0.00    +0.273 A 
ATOM     10  C   LIG    1       22.492 -19.912   3.680  0.00  0.00    +0.085 A 
ATOM     11  C   LIG    1       23.814 -19.461   3.742  0.00  0.00    +0.018 A 
BRANCH   9  12
ATOM     12  N   LIG    1       20.661 -21.342   4.543  0.00  0.00    +0.080 N 
ATOM     13  O   LIG    1       20.154 -21.495   3.423  0.00  0.00    -0.576 OA
ATOM     14  O   LIG    1       20.081 -21.566   5.615  0.00  0.00    +0.041 OA
ENDBRANCH   9  12
ENDBRANCH   3   6
BRANCH   1  16
ATOM     15  N   LIG    1       27.208 -15.626   3.959  0.00  0.00    -0.180 NA
ATOM     16  C   LIG    1       28.024 -16.503   4.453  0.00  0.00    +0.176 C 
BRANCH  15  23
ATOM     17  O   LIG    1       29.424 -11.479   4.531  0.00  0.00    -0.274 OA
ATOM     18  C   LIG    1       28.724 -12.379   4.091  0.00  0.00    +0.240 C 
ATOM     19  N   LIG    1       27.991 -12.306   2.951  0.00  0.00    -0.237 N 
ATOM     20  H   LIG    1       27.926 -11.496   2.360  0.00  0.00    +0.159 HD
ATOM     21  C   LIG    1       27.313 -13.468   2.731  0.00  0.00    +0.328 C 
ATOM     22  O   LIG    1       26.534 -13.646   1.812  0.00  0.00    -0.250 OA
ATOM     23  N   LIG    1       27.684 -14.364   3.747  0.00  0.00    -0.168 N 
ATOM     24  C   LIG    1       28.522 -13.734   4.737  0.00  0.00    +0.232 C 
ENDBRANCH  15  23
ENDBRANCH   1  16
TORSDOF 4
ENDMDL
