MODEL 1
REMARK VINA RESULT:       1.8      0.000      0.000
REMARK  Name = *****
REMARK                            x       y       z     vdW  Elec       q    Type
REMARK                         _______ _______ _______ _____ _____    ______ ____
ROOT
ATOM      1  C   LIG    1       25.433 -15.750   3.414  0.00  0.00    +0.162 A 
ATOM      2  C   LIG    1       25.231 -17.076   3.756  0.00  0.00    +0.167 A 
ATOM      3  O   LIG    1       26.100 -18.129   3.499  0.00  0.00    -0.484 OA
ATOM      4  C   LIG    1       25.594 -19.116   4.403  0.00  0.00    +0.191 C 
ATOM      5  C   LIG    1       24.047 -19.017   4.430  0.00  0.00    +0.056 C 
ATOM      6  C   LIG    1       23.250 -19.575   3.229  0.00  0.00    +0.035 C 
ATOM      7  C   LIG    1       21.711 -19.448   3.370  0.00  0.00    +0.086 C 
ATOM      8  N   LIG    1       21.129 -18.090   3.374  0.00  0.00    -0.301 NA
ATOM      9  C   LIG    1       21.524 -17.270   4.537  0.00  0.00    +0.119 C 
ATOM     10  C   LIG    1       22.905 -16.696   4.353  0.00  0.00    -0.025 A 
ATOM     11  C   LIG    1       23.100 -15.344   4.034  0.00  0.00    +0.009 A 
ATOM     12  C   LIG    1       19.667 -18.187   3.317  0.00  0.00    +0.105 C 
ATOM     13  C   LIG    1       23.654 -19.732   5.697  0.00  0.00    -0.013 C 
ATOM     14  C   LIG    1       24.309 -20.852   6.066  0.00  0.00    +0.001 C 
ATOM     15  C   LIG    1       25.505 -21.421   5.329  0.00  0.00    +0.141 C 
ATOM     16  C   LIG    1       26.053 -20.547   4.176  0.00  0.00    +0.081 C 
ATOM     17  C   LIG    1       24.013 -17.529   4.300  0.00  0.00    +0.016 A 
ATOM     18  C   LIG    1       24.353 -14.878   3.595  0.00  0.00    +0.050 A 
ENDROOT
BRANCH   1  20
ATOM     19  C   LIG    1       26.464 -13.790   2.555  0.00  0.00    +0.277 C 
ATOM     20  O   LIG    1       26.550 -15.166   2.895  0.00  0.00    -0.491 OA
ENDBRANCH   1  20
BRANCH  15  21
ATOM     21  O   LIG    1       26.523 -21.572   6.314  0.00  0.00    -0.388 OA
ATOM     22  H   LIG    1       26.850 -20.683   6.533  0.00  0.00    +0.210 HD
ENDBRANCH  15  21
TORSDOF 2
ENDMDL
MODEL 2
REMARK VINA RESULT:       2.3      2.644      4.196
REMARK  Name = *****
REMARK                            x       y       z     vdW  Elec       q    Type
REMARK                         _______ _______ _______ _____ _____    ______ ____
ROOT
ATOM      1  C   LIG    1       24.618 -15.881   3.708  0.00  0.00    +0.162 A 
ATOM      2  C   LIG    1       24.200 -17.157   4.042  0.00  0.00    +0.167 A 
ATOM      3  O   LIG    1       22.977 -17.495   4.607  0.00  0.00    -0.484 OA
ATOM      4  C   LIG    1       22.943 -18.902   4.342  0.00  0.00    +0.191 C 
ATOM      5  C   LIG    1       24.374 -19.473   4.520  0.00  0.00    +0.056 C 
ATOM      6  C   LIG    1       24.922 -19.661   5.953  0.00  0.00    +0.035 C 
ATOM      7  C   LIG    1       26.349 -20.262   6.017  0.00  0.00    +0.086 C 
ATOM      8  N   LIG    1       27.463 -19.448   5.489  0.00  0.00    -0.301 NA
ATOM      9  C   LIG    1       27.394 -19.202   4.035  0.00  0.00    +0.119 C 
ATOM     10  C   LIG    1       26.416 -18.101   3.715  0.00  0.00    -0.025 A 
ATOM     11  C   LIG    1       26.850 -16.819   3.352  0.00  0.00    +0.009 A 
ATOM     12  C   LIG    1       28.738 -20.097   5.816  0.00  0.00    +0.105 C 
ATOM     13  C   LIG    1       24.336 -20.794   3.796  0.00  0.00    -0.013 C 
ATOM     14  C   LIG    1       23.236 -21.572   3.876  0.00  0.00    +0.001 C 
ATOM     15  C   LIG    1       21.960 -21.171   4.590  0.00  0.00    +0.141 C 
ATOM     16  C   LIG    1       21.922 -19.718   5.117  0.00  0.00    +0.081 C 
ATOM     17  C   LIG    1       25.061 -18.269   3.964  0.00  0.00    +0.016 A 
ATOM     18  C   LIG    1       25.956 -15.732   3.326  0.00  0.00    +0.050 A 
ENDROOT
BRANCH   1  20
ATOM     19  C   LIG    1       24.589 -13.538   4.103  0.00  0.00    +0.277 C 
ATOM     20  O   LIG    1       23.902 -14.720   3.720  0.00  0.00    -0.491 OA
ENDBRANCH   1  20
BRANCH  15  21
ATOM     21  O   LIG    1       20.919 -21.340   3.632  0.00  0.00    -0.388 OA
ATOM     22  H   LIG    1       21.239 -21.964   2.960  0.00  0.00    +0.210 HD
ENDBRANCH  15  21
TORSDOF 2
ENDMDL
MODEL 3
REMARK VINA RESULT:       3.4      2.216      5.497
REMARK  Name = *****
REMARK                            x       y       z     vdW  Elec       q    Type
REMARK                         _______ _______ _______ _____ _____    ______ ____
ROOT
ATOM      1  C   LIG    1       28.051 -17.621   4.545  0.00  0.00    +0.162 A 
ATOM      2  C   LIG    1       27.334 -16.480   4.228  0.00  0.00    +0.167 A 
ATOM      3  O   LIG    1       27.682 -15.177   4.561  0.00  0.00    -0.484 OA
ATOM      4  C   LIG    1       26.850 -14.442   3.657  0.00  0.00    +0.191 C 
ATOM      5  C   LIG    1       25.484 -15.165   3.544  0.00  0.00    +0.056 C 
ATOM      6  C   LIG    1       24.482 -15.041   4.714  0.00  0.00    +0.035 C 
ATOM      7  C   LIG    1       23.138 -15.780   4.486  0.00  0.00    +0.086 C 
ATOM      8  N   LIG    1       23.168 -17.256   4.413  0.00  0.00    -0.301 NA
ATOM      9  C   LIG    1       23.910 -17.787   3.252  0.00  0.00    +0.119 C 
ATOM     10  C   LIG    1       25.397 -17.752   3.495  0.00  0.00    -0.025 A 
ATOM     11  C   LIG    1       26.118 -18.918   3.788  0.00  0.00    +0.009 A 
ATOM     12  C   LIG    1       21.795 -17.770   4.393  0.00  0.00    +0.105 C 
ATOM     13  C   LIG    1       24.880 -14.616   2.277  0.00  0.00    -0.013 C 
ATOM     14  C   LIG    1       25.030 -13.309   1.974  0.00  0.00    +0.001 C 
ATOM     15  C   LIG    1       25.855 -12.336   2.791  0.00  0.00    +0.141 C 
ATOM     16  C   LIG    1       26.670 -12.961   3.947  0.00  0.00    +0.081 C 
ATOM     17  C   LIG    1       26.061 -16.541   3.631  0.00  0.00    +0.016 A 
ATOM     18  C   LIG    1       27.434 -18.849   4.283  0.00  0.00    +0.050 A 
ENDROOT
BRANCH   1  20
ATOM     19  C   LIG    1       29.475 -18.724   6.094  0.00  0.00    +0.277 C 
ATOM     20  O   LIG    1       29.289 -17.720   5.108  0.00  0.00    -0.491 OA
ENDBRANCH   1  20
BRANCH  15  21
ATOM     21  O   LIG    1       26.759 -11.735   1.867  0.00  0.00    -0.388 OA
ATOM     22  H   LIG    1       26.934 -12.385   1.166  0.00  0.00    +0.210 HD
ENDBRANCH  15  21
TORSDOF 2
ENDMDL
MODEL 4
REMARK VINA RESULT:       3.4      2.312      4.280
REMARK  Name = *****
REMARK                            x       y       z     vdW  Elec       q    Type
REMARK                         _______ _______ _______ _____ _____    ______ ____
ROOT
ATOM      1  C   LIG    1       25.269 -16.339   3.475  0.00  0.00    +0.162 A 
ATOM      2  C   LIG    1       24.202 -17.163   3.787  0.00  0.00    +0.167 A 
ATOM      3  O   LIG    1       22.905 -16.751   4.067  0.00  0.00    -0.484 OA
ATOM      4  C   LIG    1       22.195 -17.982   3.899  0.00  0.00    +0.191 C 
ATOM      5  C   LIG    1       23.069 -19.138   4.450  0.00  0.00    +0.056 C 
ATOM      6  C   LIG    1       23.189 -19.308   5.982  0.00  0.00    +0.035 C 
ATOM      7  C   LIG    1       24.066 -20.508   6.424  0.00  0.00    +0.086 C 
ATOM      8  N   LIG    1       25.511 -20.454   6.122  0.00  0.00    -0.301 NA
ATOM      9  C   LIG    1       25.826 -20.473   4.680  0.00  0.00    +0.119 C 
ATOM     10  C   LIG    1       25.628 -19.112   4.062  0.00  0.00    -0.025 A 
ATOM     11  C   LIG    1       26.717 -18.296   3.725  0.00  0.00    +0.009 A 
ATOM     12  C   LIG    1       26.189 -21.572   6.786  0.00  0.00    +0.105 C 
ATOM     13  C   LIG    1       22.477 -20.377   3.830  0.00  0.00    -0.013 C 
ATOM     14  C   LIG    1       21.138 -20.487   3.700  0.00  0.00    +0.001 C 
ATOM     15  C   LIG    1       20.154 -19.393   4.062  0.00  0.00    +0.141 C 
ATOM     16  C   LIG    1       20.784 -18.038   4.464  0.00  0.00    +0.081 C 
ATOM     17  C   LIG    1       24.363 -18.547   3.992  0.00  0.00    +0.016 A 
ATOM     18  C   LIG    1       26.533 -16.936   3.413  0.00  0.00    +0.050 A 
ENDROOT
BRANCH   1  20
ATOM     19  C   LIG    1       26.489 -14.411   2.813  0.00  0.00    +0.277 C 
ATOM     20  O   LIG    1       25.267 -14.996   3.237  0.00  0.00    -0.491 OA
ENDBRANCH   1  20
BRANCH  15  21
ATOM     21  O   LIG    1       19.355 -19.199   2.898  0.00  0.00    -0.388 OA
ATOM     22  H   LIG    1       19.863 -19.530   2.138  0.00  0.00    +0.210 HD
ENDBRANCH  15  21
TORSDOF 2
ENDMDL
MODEL 5
REMARK VINA RESULT:       3.5      1.657      2.140
REMARK  Name = *****
REMARK                            x       y       z     vdW  Elec       q    Type
REMARK                         _______ _______ _______ _____ _____    ______ ____
ROOT
ATOM      1  C   LIG    1       25.070 -16.624   3.515  0.00  0.00    +0.162 A 
ATOM      2  C   LIG    1       25.541 -17.805   4.062  0.00  0.00    +0.167 A 
ATOM      3  O   LIG    1       26.799 -18.357   3.856  0.00  0.00    -0.484 OA
ATOM      4  C   LIG    1       26.861 -19.285   4.944  0.00  0.00    +0.191 C 
ATOM      5  C   LIG    1       25.458 -19.916   5.137  0.00  0.00    +0.056 C 
ATOM      6  C   LIG    1       24.984 -20.987   4.128  0.00  0.00    +0.035 C 
ATOM      7  C   LIG    1       23.579 -21.570   4.429  0.00  0.00    +0.086 C 
ATOM      8  N   LIG    1       22.418 -20.664   4.309  0.00  0.00    -0.301 NA
ATOM      9  C   LIG    1       22.411 -19.561   5.290  0.00  0.00    +0.119 C 
ATOM     10  C   LIG    1       23.341 -18.452   4.867  0.00  0.00    -0.025 A 
ATOM     11  C   LIG    1       22.852 -17.249   4.339  0.00  0.00    +0.009 A 
ATOM     12  C   LIG    1       21.180 -21.441   4.437  0.00  0.00    +0.105 C 
ATOM     13  C   LIG    1       25.500 -20.491   6.530  0.00  0.00    -0.013 C 
ATOM     14  C   LIG    1       26.625 -21.089   6.975  0.00  0.00    +0.001 C 
ATOM     15  C   LIG    1       27.920 -21.157   6.191  0.00  0.00    +0.141 C 
ATOM     16  C   LIG    1       27.941 -20.352   4.870  0.00  0.00    +0.081 C 
ATOM     17  C   LIG    1       24.710 -18.667   4.803  0.00  0.00    +0.016 A 
ATOM     18  C   LIG    1       23.712 -16.340   3.695  0.00  0.00    +0.050 A 
ENDROOT
BRANCH   1  20
ATOM     19  C   LIG    1       26.702 -14.898   3.488  0.00  0.00    +0.277 C 
ATOM     20  O   LIG    1       25.752 -15.690   2.791  0.00  0.00    -0.491 OA
ENDBRANCH   1  20
BRANCH  15  21
ATOM     21  O   LIG    1       28.920 -20.634   7.062  0.00  0.00    -0.388 OA
ATOM     22  H   LIG    1       29.569 -20.164   6.512  0.00  0.00    +0.210 HD
ENDBRANCH  15  21
TORSDOF 2
ENDMDL
