MODEL 1
REMARK VINA RESULT:      -3.6      0.000      0.000
REMARK  Name = *****
REMARK                            x       y       z     vdW  Elec       q    Type
REMARK                         _______ _______ _______ _____ _____    ______ ____
ROOT
ATOM      1  C   LIG    1       30.000 -18.701   8.336  0.00  0.00    +0.040 C 
ATOM      2  C   LIG    1       31.304 -19.451   8.545  0.00  0.00    +0.137 C 
ENDROOT
BRANCH   2   3
ATOM      3  O   LIG    1       32.006 -18.900   9.666  0.00  0.00    -0.390 OA
ATOM      4  H   LIG    1       32.343 -19.638  10.203  0.00  0.00    +0.210 HD
ENDBRANCH   2   3
BRANCH   2   5
ATOM      5  C   LIG    1       31.078 -20.944   8.801  0.00  0.00    +0.186 C 
BRANCH   5   6
ATOM      6  O   LIG    1       32.214 -21.491   9.469  0.00  0.00    -0.393 OA
ATOM      7  H   LIG    1       32.194 -22.452   9.285  0.00  0.00    +0.209 HD
ENDBRANCH   5   6
ENDBRANCH   2   5
TORSDOF 3
ENDMDL
MODEL 2
REMARK VINA RESULT:      -3.5      2.223      2.642
REMARK  Name = *****
REMARK                            x       y       z     vdW  Elec       q    Type
REMARK                         _______ _______ _______ _____ _____    ______ ____
ROOT
ATOM      1  C   LIG    1       31.710 -17.342  10.653  0.00  0.00    +0.040 C 
ATOM      2  C   LIG    1       31.614 -17.145   9.149  0.00  0.00    +0.137 C 
ENDROOT
BRANCH   2   3
ATOM      3  O   LIG    1       32.662 -16.272   8.707  0.00  0.00    -0.390 OA
ATOM      4  H   LIG    1       33.011 -16.622   7.869  0.00  0.00    +0.210 HD
ENDBRANCH   2   3
BRANCH   2   5
ATOM      5  C   LIG    1       31.730 -18.467   8.384  0.00  0.00    +0.186 C 
BRANCH   5   6
ATOM      6  O   LIG    1       32.104 -19.508   9.284  0.00  0.00    -0.393 OA
ATOM      7  H   LIG    1       31.447 -19.484  10.008  0.00  0.00    +0.209 HD
ENDBRANCH   5   6
ENDBRANCH   2   5
TORSDOF 3
ENDMDL
MODEL 3
REMARK VINA RESULT:      -3.5      1.526      2.647
REMARK  Name = *****
REMARK                            x       y       z     vdW  Elec       q    Type
REMARK                         _______ _______ _______ _____ _____    ______ ____
ROOT
ATOM      1  C   LIG    1       31.206 -19.305   7.244  0.00  0.00    +0.040 C 
ATOM      2  C   LIG    1       31.209 -19.250   8.763  0.00  0.00    +0.137 C 
ENDROOT
BRANCH   2   3
ATOM      3  O   LIG    1       32.145 -20.203   9.280  0.00  0.00    -0.390 OA
ATOM      4  H   LIG    1       31.645 -20.981   9.583  0.00  0.00    +0.210 HD
ENDBRANCH   2   3
BRANCH   2   5
ATOM      5  C   LIG    1       31.588 -17.863   9.290  0.00  0.00    +0.186 C 
BRANCH   5   6
ATOM      6  O   LIG    1       32.351 -17.169   8.304  0.00  0.00    -0.393 OA
ATOM      7  H   LIG    1       31.991 -17.453   7.440  0.00  0.00    +0.209 HD
ENDBRANCH   5   6
ENDBRANCH   2   5
TORSDOF 3
ENDMDL
MODEL 4
REMARK VINA RESULT:      -3.4      2.891      3.804
REMARK  Name = *****
REMARK                            x       y       z     vdW  Elec       q    Type
REMARK                         _______ _______ _______ _____ _____    ______ ____
ROOT
ATOM      1  C   LIG    1       30.411 -17.092  10.561  0.00  0.00    +0.040 C 
ATOM      2  C   LIG    1       31.896 -17.409  10.606  0.00  0.00    +0.137 C 
ENDROOT
BRANCH   2   3
ATOM      3  O   LIG    1       32.171 -18.555   9.792  0.00  0.00    -0.390 OA
ATOM      4  H   LIG    1       32.314 -19.316  10.381  0.00  0.00    +0.210 HD
ENDBRANCH   2   3
BRANCH   2   5
ATOM      5  C   LIG    1       32.752 -16.242  10.106  0.00  0.00    +0.186 C 
BRANCH   5   6
ATOM      6  O   LIG    1       32.683 -16.175   8.682  0.00  0.00    -0.393 OA
ATOM      7  H   LIG    1       32.810 -15.233   8.453  0.00  0.00    +0.209 HD
ENDBRANCH   5   6
ENDBRANCH   2   5
TORSDOF 3
ENDMDL
MODEL 5
REMARK VINA RESULT:      -3.4      1.651      1.651
REMARK  Name = *****
REMARK                            x       y       z     vdW  Elec       q    Type
REMARK                         _______ _______ _______ _____ _____    ______ ____
ROOT
ATOM      1  C   LIG    1       30.353 -17.658   9.132  0.00  0.00    +0.040 C 
ATOM      2  C   LIG    1       31.556 -18.349   8.511  0.00  0.00    +0.137 C 
ENDROOT
BRANCH   2   3
ATOM      3  O   LIG    1       32.181 -19.198   9.481  0.00  0.00    -0.390 OA
ATOM      4  H   LIG    1       33.142 -19.160   9.338  0.00  0.00    +0.210 HD
ENDBRANCH   2   3
BRANCH   2   5
ATOM      5  C   LIG    1       31.171 -19.201   7.298  0.00  0.00    +0.186 C 
BRANCH   5   6
ATOM      6  O   LIG    1       31.488 -20.568   7.555  0.00  0.00    -0.393 OA
ATOM      7  H   LIG    1       32.332 -20.558   8.049  0.00  0.00    +0.209 HD
ENDBRANCH   5   6
ENDBRANCH   2   5
TORSDOF 3
ENDMDL
MODEL 6
REMARK VINA RESULT:      -3.4      1.477      1.477
REMARK  Name = *****
REMARK                            x       y       z     vdW  Elec       q    Type
REMARK                         _______ _______ _______ _____ _____    ______ ____
ROOT
ATOM      1  C   LIG    1       29.904 -18.875   6.561  0.00  0.00    +0.040 C 
ATOM      2  C   LIG    1       31.191 -19.272   7.265  0.00  0.00    +0.137 C 
ENDROOT
BRANCH   2   3
ATOM      3  O   LIG    1       31.802 -18.113   7.846  0.00  0.00    -0.390 OA
ATOM      4  H   LIG    1       32.177 -17.578   7.125  0.00  0.00    +0.210 HD
ENDBRANCH   2   3
BRANCH   2   5
ATOM      5  C   LIG    1       30.950 -20.300   8.374  0.00  0.00    +0.186 C 
BRANCH   5   6
ATOM      6  O   LIG    1       32.067 -20.316   9.261  0.00  0.00    -0.393 OA
ATOM      7  H   LIG    1       31.692 -20.287  10.164  0.00  0.00    +0.209 HD
ENDBRANCH   5   6
ENDBRANCH   2   5
TORSDOF 3
ENDMDL
MODEL 7
REMARK VINA RESULT:      -3.4      1.988      2.523
REMARK  Name = *****
REMARK                            x       y       z     vdW  Elec       q    Type
REMARK                         _______ _______ _______ _____ _____    ______ ____
ROOT
ATOM      1  C   LIG    1       30.454 -17.830   9.005  0.00  0.00    +0.040 C 
ATOM      2  C   LIG    1       31.570 -18.613   8.334  0.00  0.00    +0.137 C 
ENDROOT
BRANCH   2   3
ATOM      3  O   LIG    1       32.078 -19.603   9.238  0.00  0.00    -0.390 OA
ATOM      4  H   LIG    1       32.845 -20.028   8.817  0.00  0.00    +0.210 HD
ENDBRANCH   2   3
BRANCH   2   5
ATOM      5  C   LIG    1       31.097 -19.318   7.059  0.00  0.00    +0.186 C 
BRANCH   5   6
ATOM      6  O   LIG    1       30.309 -18.419   6.281  0.00  0.00    -0.393 OA
ATOM      7  H   LIG    1       30.910 -17.691   6.024  0.00  0.00    +0.209 HD
ENDBRANCH   5   6
ENDBRANCH   2   5
TORSDOF 3
ENDMDL
MODEL 8
REMARK VINA RESULT:      -3.4      3.279      3.868
REMARK  Name = *****
REMARK                            x       y       z     vdW  Elec       q    Type
REMARK                         _______ _______ _______ _____ _____    ______ ____
ROOT
ATOM      1  C   LIG    1       30.752 -17.692   8.906  0.00  0.00    +0.040 C 
ATOM      2  C   LIG    1       31.984 -17.130   9.596  0.00  0.00    +0.137 C 
ENDROOT
BRANCH   2   3
ATOM      3  O   LIG    1       32.624 -16.175   8.740  0.00  0.00    -0.390 OA
ATOM      4  H   LIG    1       33.354 -15.768   9.237  0.00  0.00    +0.210 HD
ENDBRANCH   2   3
BRANCH   2   5
ATOM      5  C   LIG    1       31.643 -16.442  10.920  0.00  0.00    +0.186 C 
BRANCH   5   6
ATOM      6  O   LIG    1       30.228 -16.434  11.103  0.00  0.00    -0.393 OA
ATOM      7  H   LIG    1       30.067 -16.891  11.953  0.00  0.00    +0.209 HD
ENDBRANCH   5   6
ENDBRANCH   2   5
TORSDOF 3
ENDMDL
MODEL 9
REMARK VINA RESULT:      -3.2      1.450      2.511
REMARK  Name = *****
REMARK                            x       y       z     vdW  Elec       q    Type
REMARK                         _______ _______ _______ _____ _____    ______ ____
ROOT
ATOM      1  C   LIG    1       31.119 -21.705   8.988  0.00  0.00    +0.040 C 
ATOM      2  C   LIG    1       30.997 -20.198   8.837  0.00  0.00    +0.137 C 
ENDROOT
BRANCH   2   3
ATOM      3  O   LIG    1       32.176 -19.564   9.347  0.00  0.00    -0.390 OA
ATOM      4  H   LIG    1       32.935 -20.144   9.159  0.00  0.00    +0.210 HD
ENDBRANCH   2   3
BRANCH   2   5
ATOM      5  C   LIG    1       30.813 -19.776   7.377  0.00  0.00    +0.186 C 
BRANCH   5   6
ATOM      6  O   LIG    1       31.031 -18.372   7.254  0.00  0.00    -0.393 OA
ATOM      7  H   LIG    1       30.306 -17.944   7.752  0.00  0.00    +0.209 HD
ENDBRANCH   5   6
ENDBRANCH   2   5
TORSDOF 3
ENDMDL
