MODEL 1
REMARK VINA RESULT:      -5.9      0.000      0.000
REMARK  Name = *****
REMARK                            x       y       z     vdW  Elec       q    Type
REMARK                         _______ _______ _______ _____ _____    ______ ____
ROOT
ATOM      1  N   LIG    1       24.370 -21.233   5.086  0.00  0.00    -0.292 NA
ATOM      2  C   LIG    1       25.042 -20.693   6.303  0.00  0.00    +0.113 C 
ATOM      3  C   LIG    1       24.778 -21.503   7.599  0.00  0.00    +0.165 C 
ATOM      4  C   LIG    1       25.081 -23.001   7.439  0.00  0.00    +0.174 C 
ATOM      5  C   LIG    1       24.400 -23.571   6.183  0.00  0.00    +0.159 C 
ATOM      6  C   LIG    1       24.624 -22.687   4.935  0.00  0.00    +0.118 C 
ENDROOT
BRANCH   3   7
ATOM      7  O   LIG    1       23.403 -21.368   8.003  0.00  0.00    -0.388 OA
ATOM      8  H   LIG    1       22.869 -21.881   7.366  0.00  0.00    +0.210 HD
ENDBRANCH   3   7
BRANCH   4   9
ATOM      9  O   LIG    1       26.491 -23.228   7.411  0.00  0.00    -0.387 OA
ATOM     10  H   LIG    1       26.737 -23.387   6.486  0.00  0.00    +0.210 HD
ENDBRANCH   4   9
BRANCH   5  11
ATOM     11  O   LIG    1       23.003 -23.774   6.417  0.00  0.00    -0.388 OA
ATOM     12  H   LIG    1       22.644 -22.922   6.740  0.00  0.00    +0.210 HD
ENDBRANCH   5  11
BRANCH   1  13
ATOM     13  C   LIG    1       22.932 -20.926   4.968  0.00  0.00    +0.085 C 
BRANCH  13  14
ATOM     14  C   LIG    1       22.500 -19.511   5.391  0.00  0.00    +0.015 C 
BRANCH  14  16
ATOM     15  C   LIG    1       22.240 -17.126   4.631  0.00  0.00    +0.004 C 
ATOM     16  C   LIG    1       22.205 -18.587   4.211  0.00  0.00    -0.002 C 
ENDBRANCH  14  16
ENDBRANCH  13  14
ENDBRANCH   1  13
BRANCH   2  17
ATOM     17  C   LIG    1       26.559 -20.510   6.038  0.00  0.00    +0.177 C 
BRANCH  17  18
ATOM     18  O   LIG    1       26.772 -19.999   4.720  0.00  0.00    -0.393 OA
ATOM     19  H   LIG    1       27.006 -20.786   4.187  0.00  0.00    +0.209 HD
ENDBRANCH  17  18
ENDBRANCH   2  17
TORSDOF 8
ENDMDL
MODEL 2
REMARK VINA RESULT:      -5.9      2.146      4.443
REMARK  Name = *****
REMARK                            x       y       z     vdW  Elec       q    Type
REMARK                         _______ _______ _______ _____ _____    ______ ____
ROOT
ATOM      1  N   LIG    1       24.287 -21.645   6.732  0.00  0.00    -0.292 NA
ATOM      2  C   LIG    1       25.312 -21.485   5.662  0.00  0.00    +0.113 C 
ATOM      3  C   LIG    1       24.734 -21.322   4.233  0.00  0.00    +0.165 C 
ATOM      4  C   LIG    1       23.681 -20.206   4.138  0.00  0.00    +0.174 C 
ATOM      5  C   LIG    1       22.620 -20.354   5.241  0.00  0.00    +0.159 C 
ATOM      6  C   LIG    1       23.244 -20.595   6.635  0.00  0.00    +0.118 C 
ENDROOT
BRANCH   3   7
ATOM      7  O   LIG    1       24.121 -22.549   3.797  0.00  0.00    -0.388 OA
ATOM      8  H   LIG    1       24.518 -23.268   4.326  0.00  0.00    +0.210 HD
ENDBRANCH   3   7
BRANCH   4   9
ATOM      9  O   LIG    1       24.305 -18.922   4.189  0.00  0.00    -0.387 OA
ATOM     10  H   LIG    1       25.255 -19.059   4.048  0.00  0.00    +0.210 HD
ENDBRANCH   4   9
BRANCH   5  11
ATOM     11  O   LIG    1       21.694 -21.394   4.913  0.00  0.00    -0.388 OA
ATOM     12  H   LIG    1       20.863 -21.193   5.390  0.00  0.00    +0.210 HD
ENDBRANCH   5  11
BRANCH   1  13
ATOM     13  C   LIG    1       23.687 -22.988   6.837  0.00  0.00    +0.085 C 
BRANCH  13  14
ATOM     14  C   LIG    1       24.666 -24.175   6.837  0.00  0.00    +0.015 C 
BRANCH  14  16
ATOM     15  C   LIG    1       25.185 -25.757   4.950  0.00  0.00    +0.004 C 
ATOM     16  C   LIG    1       24.176 -25.369   6.020  0.00  0.00    -0.002 C 
ENDBRANCH  14  16
ENDBRANCH  13  14
ENDBRANCH   1  13
BRANCH   2  17
ATOM     17  C   LIG    1       26.286 -20.333   6.023  0.00  0.00    +0.177 C 
BRANCH  17  18
ATOM     18  O   LIG    1       27.102 -20.004   4.896  0.00  0.00    -0.393 OA
ATOM     19  H   LIG    1       26.464 -19.836   4.172  0.00  0.00    +0.209 HD
ENDBRANCH  17  18
ENDBRANCH   2  17
TORSDOF 8
ENDMDL
MODEL 3
REMARK VINA RESULT:      -5.9      1.618      3.147
REMARK  Name = *****
REMARK                            x       y       z     vdW  Elec       q    Type
REMARK                         _______ _______ _______ _____ _____    ______ ____
ROOT
ATOM      1  N   LIG    1       23.273 -21.479   7.019  0.00  0.00    -0.292 NA
ATOM      2  C   LIG    1       23.503 -22.630   6.100  0.00  0.00    +0.113 C 
ATOM      3  C   LIG    1       24.964 -22.778   5.603  0.00  0.00    +0.165 C 
ATOM      4  C   LIG    1       25.986 -22.794   6.750  0.00  0.00    +0.174 C 
ATOM      5  C   LIG    1       25.758 -21.615   7.710  0.00  0.00    +0.159 C 
ATOM      6  C   LIG    1       24.273 -21.460   8.114  0.00  0.00    +0.118 C 
ENDROOT
BRANCH   3   7
ATOM      7  O   LIG    1       25.304 -21.694   4.719  0.00  0.00    -0.388 OA
ATOM      8  H   LIG    1       25.713 -22.092   3.926  0.00  0.00    +0.210 HD
ENDBRANCH   3   7
BRANCH   4   9
ATOM      9  O   LIG    1       25.943 -24.042   7.444  0.00  0.00    -0.387 OA
ATOM     10  H   LIG    1       26.405 -24.693   6.892  0.00  0.00    +0.210 HD
ENDBRANCH   4   9
BRANCH   5  11
ATOM     11  O   LIG    1       26.259 -20.401   7.145  0.00  0.00    -0.388 OA
ATOM     12  H   LIG    1       27.184 -20.577   6.873  0.00  0.00    +0.210 HD
ENDBRANCH   5  11
BRANCH   1  13
ATOM     13  C   LIG    1       23.169 -20.160   6.365  0.00  0.00    +0.085 C 
BRANCH  13  14
ATOM     14  C   LIG    1       22.304 -20.094   5.095  0.00  0.00    +0.015 C 
BRANCH  14  16
ATOM     15  C   LIG    1       23.861 -18.721   3.673  0.00  0.00    +0.004 C 
ATOM     16  C   LIG    1       22.479 -18.799   4.304  0.00  0.00    -0.002 C 
ENDBRANCH  14  16
ENDBRANCH  13  14
ENDBRANCH   1  13
BRANCH   2  17
ATOM     17  C   LIG    1       22.980 -23.940   6.746  0.00  0.00    +0.177 C 
BRANCH  17  18
ATOM     18  O   LIG    1       23.477 -25.075   6.032  0.00  0.00    -0.393 OA
ATOM     19  H   LIG    1       24.089 -25.510   6.660  0.00  0.00    +0.209 HD
ENDBRANCH  17  18
ENDBRANCH   2  17
TORSDOF 8
ENDMDL
MODEL 4
REMARK VINA RESULT:      -5.9      2.234      4.867
REMARK  Name = *****
REMARK                            x       y       z     vdW  Elec       q    Type
REMARK                         _______ _______ _______ _____ _____    ______ ____
ROOT
ATOM      1  N   LIG    1       24.754 -23.640   6.538  0.00  0.00    -0.292 NA
ATOM      2  C   LIG    1       25.763 -22.611   6.920  0.00  0.00    +0.113 C 
ATOM      3  C   LIG    1       25.493 -21.197   6.346  0.00  0.00    +0.165 C 
ATOM      4  C   LIG    1       24.072 -20.692   6.645  0.00  0.00    +0.174 C 
ATOM      5  C   LIG    1       23.020 -21.746   6.261  0.00  0.00    +0.159 C 
ATOM      6  C   LIG    1       23.375 -23.156   6.788  0.00  0.00    +0.118 C 
ENDROOT
BRANCH   3   7
ATOM      7  O   LIG    1       25.675 -21.193   4.918  0.00  0.00    -0.388 OA
ATOM      8  H   LIG    1       25.856 -22.115   4.652  0.00  0.00    +0.210 HD
ENDBRANCH   3   7
BRANCH   4   9
ATOM      9  O   LIG    1       23.951 -20.316   8.018  0.00  0.00    -0.387 OA
ATOM     10  H   LIG    1       24.071 -19.354   8.063  0.00  0.00    +0.210 HD
ENDBRANCH   4   9
BRANCH   5  11
ATOM     11  O   LIG    1       22.823 -21.769   4.844  0.00  0.00    -0.388 OA
ATOM     12  H   LIG    1       23.645 -21.420   4.440  0.00  0.00    +0.210 HD
ENDBRANCH   5  11
BRANCH   1  13
ATOM     13  C   LIG    1       24.891 -24.183   5.173  0.00  0.00    +0.085 C 
BRANCH  13  14
ATOM     14  C   LIG    1       25.280 -25.668   5.066  0.00  0.00    +0.015 C 
BRANCH  14  16
ATOM     15  C   LIG    1       24.500 -28.026   5.473  0.00  0.00    +0.004 C 
ATOM     16  C   LIG    1       24.439 -26.584   5.953  0.00  0.00    -0.002 C 
ENDBRANCH  14  16
ENDBRANCH  13  14
ENDBRANCH   1  13
BRANCH   2  17
ATOM     17  C   LIG    1       25.938 -22.582   8.461  0.00  0.00    +0.177 C 
BRANCH  17  18
ATOM     18  O   LIG    1       26.675 -21.422   8.853  0.00  0.00    -0.393 OA
ATOM     19  H   LIG    1       27.559 -21.765   9.099  0.00  0.00    +0.209 HD
ENDBRANCH  17  18
ENDBRANCH   2  17
TORSDOF 8
ENDMDL
MODEL 5
REMARK VINA RESULT:      -5.7      2.163      4.007
REMARK  Name = *****
REMARK                            x       y       z     vdW  Elec       q    Type
REMARK                         _______ _______ _______ _____ _____    ______ ____
ROOT
ATOM      1  N   LIG    1       25.421 -21.743   5.369  0.00  0.00    -0.292 NA
ATOM      2  C   LIG    1       25.442 -22.767   6.453  0.00  0.00    +0.113 C 
ATOM      3  C   LIG    1       24.333 -22.596   7.523  0.00  0.00    +0.165 C 
ATOM      4  C   LIG    1       22.926 -22.488   6.914  0.00  0.00    +0.174 C 
ATOM      5  C   LIG    1       22.891 -21.440   5.789  0.00  0.00    +0.159 C 
ATOM      6  C   LIG    1       24.062 -21.602   4.792  0.00  0.00    +0.118 C 
ENDROOT
BRANCH   3   7
ATOM      7  O   LIG    1       24.570 -21.411   8.306  0.00  0.00    -0.388 OA
ATOM      8  H   LIG    1       25.500 -21.448   8.601  0.00  0.00    +0.210 HD
ENDBRANCH   3   7
BRANCH   4   9
ATOM      9  O   LIG    1       22.481 -23.763   6.447  0.00  0.00    -0.387 OA
ATOM     10  H   LIG    1       21.722 -24.019   6.994  0.00  0.00    +0.210 HD
ENDBRANCH   4   9
BRANCH   5  11
ATOM     11  O   LIG    1       22.867 -20.117   6.333  0.00  0.00    -0.388 OA
ATOM     12  H   LIG    1       22.570 -20.200   7.263  0.00  0.00    +0.210 HD
ENDBRANCH   5  11
BRANCH   1  13
ATOM     13  C   LIG    1       25.990 -20.430   5.728  0.00  0.00    +0.085 C 
BRANCH  13  14
ATOM     14  C   LIG    1       27.339 -20.451   6.468  0.00  0.00    +0.015 C 
BRANCH  14  16
ATOM     15  C   LIG    1       29.484 -19.165   6.743  0.00  0.00    +0.004 C 
ATOM     16  C   LIG    1       28.435 -19.658   5.759  0.00  0.00    -0.002 C 
ENDBRANCH  14  16
ENDBRANCH  13  14
ENDBRANCH   1  13
BRANCH   2  17
ATOM     17  C   LIG    1       25.436 -24.192   5.841  0.00  0.00    +0.177 C 
BRANCH  17  18
ATOM     18  O   LIG    1       25.197 -25.166   6.861  0.00  0.00    -0.393 OA
ATOM     19  H   LIG    1       24.257 -25.042   7.103  0.00  0.00    +0.209 HD
ENDBRANCH  17  18
ENDBRANCH   2  17
TORSDOF 8
ENDMDL
MODEL 6
REMARK VINA RESULT:      -5.5      4.180      5.756
REMARK  Name = *****
REMARK                            x       y       z     vdW  Elec       q    Type
REMARK                         _______ _______ _______ _____ _____    ______ ____
ROOT
ATOM      1  N   LIG    1       28.486 -20.827   7.337  0.00  0.00    -0.292 NA
ATOM      2  C   LIG    1       28.798 -19.392   7.080  0.00  0.00    +0.113 C 
ATOM      3  C   LIG    1       29.865 -18.784   8.027  0.00  0.00    +0.165 C 
ATOM      4  C   LIG    1       31.158 -19.614   8.079  0.00  0.00    +0.174 C 
ATOM      5  C   LIG    1       30.851 -21.099   8.337  0.00  0.00    +0.159 C 
ATOM      6  C   LIG    1       29.725 -21.637   7.425  0.00  0.00    +0.118 C 
ENDROOT
BRANCH   3   7
ATOM      7  O   LIG    1       29.348 -18.682   9.366  0.00  0.00    -0.388 OA
ATOM      8  H   LIG    1       29.417 -17.743   9.626  0.00  0.00    +0.210 HD
ENDBRANCH   3   7
BRANCH   4   9
ATOM      9  O   LIG    1       31.914 -19.443   6.879  0.00  0.00    -0.387 OA
ATOM     10  H   LIG    1       32.832 -19.266   7.142  0.00  0.00    +0.210 HD
ENDBRANCH   4   9
BRANCH   5  11
ATOM     11  O   LIG    1       30.535 -21.316   9.715  0.00  0.00    -0.388 OA
ATOM     12  H   LIG    1       30.545 -20.437  10.149  0.00  0.00    +0.210 HD
ENDBRANCH   5  11
BRANCH   1  13
ATOM     13  C   LIG    1       27.595 -21.085   8.484  0.00  0.00    +0.085 C 
BRANCH  13  14
ATOM     14  C   LIG    1       26.175 -20.498   8.390  0.00  0.00    +0.015 C 
BRANCH  14  16
ATOM     15  C   LIG    1       23.966 -20.919   7.261  0.00  0.00    +0.004 C 
ATOM     16  C   LIG    1       25.471 -20.814   7.072  0.00  0.00    -0.002 C 
ENDBRANCH  14  16
ENDBRANCH  13  14
ENDBRANCH   1  13
BRANCH   2  17
ATOM     17  C   LIG    1       29.168 -19.185   5.588  0.00  0.00    +0.177 C 
BRANCH  17  18
ATOM     18  O   LIG    1       29.780 -17.906   5.404  0.00  0.00    -0.393 OA
ATOM     19  H   LIG    1       29.070 -17.346   5.028  0.00  0.00    +0.209 HD
ENDBRANCH  17  18
ENDBRANCH   2  17
TORSDOF 8
ENDMDL
MODEL 7
REMARK VINA RESULT:      -5.3      2.112      4.258
REMARK  Name = *****
REMARK                            x       y       z     vdW  Elec       q    Type
REMARK                         _______ _______ _______ _____ _____    ______ ____
ROOT
ATOM      1  N   LIG    1       25.370 -20.390   6.022  0.00  0.00    -0.292 NA
ATOM      2  C   LIG    1       25.136 -21.411   4.961  0.00  0.00    +0.113 C 
ATOM      3  C   LIG    1       24.790 -22.826   5.493  0.00  0.00    +0.165 C 
ATOM      4  C   LIG    1       23.627 -22.819   6.498  0.00  0.00    +0.174 C 
ATOM      5  C   LIG    1       23.852 -21.765   7.595  0.00  0.00    +0.159 C 
ATOM      6  C   LIG    1       24.273 -20.393   7.020  0.00  0.00    +0.118 C 
ENDROOT
BRANCH   3   7
ATOM      7  O   LIG    1       25.934 -23.411   6.141  0.00  0.00    -0.388 OA
ATOM      8  H   LIG    1       25.594 -24.061   6.785  0.00  0.00    +0.210 HD
ENDBRANCH   3   7
BRANCH   4   9
ATOM      9  O   LIG    1       22.384 -22.610   5.826  0.00  0.00    -0.387 OA
ATOM     10  H   LIG    1       21.732 -23.198   6.239  0.00  0.00    +0.210 HD
ENDBRANCH   4   9
BRANCH   5  11
ATOM     11  O   LIG    1       24.809 -22.230   8.551  0.00  0.00    -0.388 OA
ATOM     12  H   LIG    1       25.683 -22.212   8.107  0.00  0.00    +0.210 HD
ENDBRANCH   5  11
BRANCH   1  13
ATOM     13  C   LIG    1       26.690 -20.450   6.677  0.00  0.00    +0.085 C 
BRANCH  13  14
ATOM     14  C   LIG    1       27.899 -20.049   5.814  0.00  0.00    +0.015 C 
BRANCH  14  16
ATOM     15  C   LIG    1       30.055 -18.931   6.474  0.00  0.00    +0.004 C 
ATOM     16  C   LIG    1       29.239 -20.214   6.528  0.00  0.00    -0.002 C 
ENDBRANCH  14  16
ENDBRANCH  13  14
ENDBRANCH   1  13
BRANCH   2  17
ATOM     17  C   LIG    1       24.073 -20.900   3.954  0.00  0.00    +0.177 C 
BRANCH  17  18
ATOM     18  O   LIG    1       23.754 -21.926   3.010  0.00  0.00    -0.393 OA
ATOM     19  H   LIG    1       24.618 -22.188   2.632  0.00  0.00    +0.209 HD
ENDBRANCH  17  18
ENDBRANCH   2  17
TORSDOF 8
ENDMDL
MODEL 8
REMARK VINA RESULT:      -5.3      5.440      7.492
REMARK  Name = *****
REMARK                            x       y       z     vdW  Elec       q    Type
REMARK                         _______ _______ _______ _____ _____    ______ ____
ROOT
ATOM      1  N   LIG    1       29.263 -19.078   8.563  0.00  0.00    -0.292 NA
ATOM      2  C   LIG    1       30.112 -18.764   9.748  0.00  0.00    +0.113 C 
ATOM      3  C   LIG    1       31.629 -19.002   9.536  0.00  0.00    +0.165 C 
ATOM      4  C   LIG    1       32.175 -18.299   8.283  0.00  0.00    +0.174 C 
ATOM      5  C   LIG    1       31.305 -18.608   7.053  0.00  0.00    +0.159 C 
ATOM      6  C   LIG    1       29.795 -18.434   7.337  0.00  0.00    +0.118 C 
ENDROOT
BRANCH   3   7
ATOM      7  O   LIG    1       31.903 -20.410   9.410  0.00  0.00    -0.388 OA
ATOM      8  H   LIG    1       32.222 -20.557   8.499  0.00  0.00    +0.210 HD
ENDBRANCH   3   7
BRANCH   4   9
ATOM      9  O   LIG    1       32.279 -16.891   8.502  0.00  0.00    -0.387 OA
ATOM     10  H   LIG    1       32.061 -16.454   7.663  0.00  0.00    +0.210 HD
ENDBRANCH   4   9
BRANCH   5  11
ATOM     11  O   LIG    1       31.580 -19.923   6.560  0.00  0.00    -0.388 OA
ATOM     12  H   LIG    1       31.579 -20.521   7.336  0.00  0.00    +0.210 HD
ENDBRANCH   5  11
BRANCH   1  13
ATOM     13  C   LIG    1       28.992 -20.511   8.342  0.00  0.00    +0.085 C 
BRANCH  13  14
ATOM     14  C   LIG    1       28.144 -20.862   7.107  0.00  0.00    +0.015 C 
BRANCH  14  16
ATOM     15  C   LIG    1       26.117 -20.736   8.594  0.00  0.00    +0.004 C 
ATOM     16  C   LIG    1       26.688 -20.415   7.221  0.00  0.00    -0.002 C 
ENDBRANCH  14  16
ENDBRANCH  13  14
ENDBRANCH   1  13
BRANCH   2  17
ATOM     17  C   LIG    1       29.820 -17.325  10.247  0.00  0.00    +0.177 C 
BRANCH  17  18
ATOM     18  O   LIG    1       30.692 -16.991  11.330  0.00  0.00    -0.393 OA
ATOM     19  H   LIG    1       31.146 -17.831  11.546  0.00  0.00    +0.209 HD
ENDBRANCH  17  18
ENDBRANCH   2  17
TORSDOF 8
ENDMDL
MODEL 9
REMARK VINA RESULT:      -5.3      4.939      6.899
REMARK  Name = *****
REMARK                            x       y       z     vdW  Elec       q    Type
REMARK                         _______ _______ _______ _____ _____    ______ ____
ROOT
ATOM      1  N   LIG    1       29.135 -20.572   7.911  0.00  0.00    -0.292 NA
ATOM      2  C   LIG    1       30.534 -21.067   8.055  0.00  0.00    +0.113 C 
ATOM      3  C   LIG    1       31.627 -20.001   7.784  0.00  0.00    +0.165 C 
ATOM      4  C   LIG    1       31.424 -18.717   8.603  0.00  0.00    +0.174 C 
ATOM      5  C   LIG    1       29.983 -18.198   8.470  0.00  0.00    +0.159 C 
ATOM      6  C   LIG    1       28.931 -19.314   8.669  0.00  0.00    +0.118 C 
ENDROOT
BRANCH   3   7
ATOM      7  O   LIG    1       31.641 -19.641   6.390  0.00  0.00    -0.388 OA
ATOM      8  H   LIG    1       30.730 -19.759   6.057  0.00  0.00    +0.210 HD
ENDBRANCH   3   7
BRANCH   4   9
ATOM      9  O   LIG    1       31.771 -18.935   9.972  0.00  0.00    -0.387 OA
ATOM     10  H   LIG    1       32.510 -18.341  10.178  0.00  0.00    +0.210 HD
ENDBRANCH   4   9
BRANCH   5  11
ATOM     11  O   LIG    1       29.797 -17.545   7.211  0.00  0.00    -0.388 OA
ATOM     12  H   LIG    1       29.116 -16.855   7.348  0.00  0.00    +0.210 HD
ENDBRANCH   5  11
BRANCH   1  13
ATOM     13  C   LIG    1       28.648 -20.447   6.524  0.00  0.00    +0.085 C 
BRANCH  13  14
ATOM     14  C   LIG    1       27.123 -20.363   6.340  0.00  0.00    +0.015 C 
BRANCH  14  16
ATOM     15  C   LIG    1       25.658 -20.938   8.305  0.00  0.00    +0.004 C 
ATOM     16  C   LIG    1       26.360 -21.471   7.065  0.00  0.00    -0.002 C 
ENDBRANCH  14  16
ENDBRANCH  13  14
ENDBRANCH   1  13
BRANCH   2  17
ATOM     17  C   LIG    1       30.721 -21.743   9.438  0.00  0.00    +0.177 C 
BRANCH  17  18
ATOM     18  O   LIG    1       32.111 -21.956   9.700  0.00  0.00    -0.393 OA
ATOM     19  H   LIG    1       32.432 -21.092  10.031  0.00  0.00    +0.209 HD
ENDBRANCH  17  18
ENDBRANCH   2  17
TORSDOF 8
ENDMDL
