MODEL 1
REMARK VINA RESULT:      -6.1      0.000      0.000
REMARK  Name = *****
REMARK                            x       y       z     vdW  Elec       q    Type
REMARK                         _______ _______ _______ _____ _____    ______ ____
ROOT
ATOM      1  O   LIG    1       31.885 -21.985   9.508  0.00  0.00    -0.247 OA
ATOM      2  C   LIG    1       31.368 -21.081   8.861  0.00  0.00    +0.327 C 
ATOM      3  N   LIG    1       31.847 -19.799   8.879  0.00  0.00    -0.273 N 
ATOM      4  H   LIG    1       32.664 -19.621   9.443  0.00  0.00    +0.173 HD
ATOM      5  C   LIG    1       31.365 -18.756   8.125  0.00  0.00    +0.289 C 
ATOM      6  O   LIG    1       31.893 -17.650   8.125  0.00  0.00    -0.265 OA
ATOM      7  C   LIG    1       30.171 -19.073   7.308  0.00  0.00    +0.203 C 
ATOM      8  F   LIG    1       29.632 -18.083   6.575  0.00  0.00    -0.198 F 
ATOM      9  C   LIG    1       29.682 -20.313   7.312  0.00  0.00    +0.131 C 
ATOM     10  N   LIG    1       30.271 -21.295   8.065  0.00  0.00    -0.311 N 
ATOM     11  H   LIG    1       29.910 -22.242   8.054  0.00  0.00    +0.170 HD
ENDROOT
TORSDOF 0
ENDMDL
MODEL 2
REMARK VINA RESULT:      -5.7      1.516      2.224
REMARK  Name = *****
REMARK                            x       y       z     vdW  Elec       q    Type
REMARK                         _______ _______ _______ _____ _____    ______ ____
ROOT
ATOM      1  O   LIG    1       31.899 -21.864   9.563  0.00  0.00    -0.247 OA
ATOM      2  C   LIG    1       31.380 -21.012   8.850  0.00  0.00    +0.327 C 
ATOM      3  N   LIG    1       30.373 -21.304   7.971  0.00  0.00    -0.273 N 
ATOM      4  H   LIG    1       30.057 -22.261   7.936  0.00  0.00    +0.173 HD
ATOM      5  C   LIG    1       29.698 -20.390   7.199  0.00  0.00    +0.289 C 
ATOM      6  O   LIG    1       28.748 -20.705   6.492  0.00  0.00    -0.265 OA
ATOM      7  C   LIG    1       30.197 -18.999   7.294  0.00  0.00    +0.203 C 
ATOM      8  F   LIG    1       29.599 -18.065   6.534  0.00  0.00    -0.198 F 
ATOM      9  C   LIG    1       31.199 -18.715   8.126  0.00  0.00    +0.131 C 
ATOM     10  N   LIG    1       31.772 -19.697   8.891  0.00  0.00    -0.311 N 
ATOM     11  H   LIG    1       32.522 -19.478   9.538  0.00  0.00    +0.170 HD
ENDROOT
TORSDOF 0
ENDMDL
MODEL 3
REMARK VINA RESULT:      -5.6      1.216      1.350
REMARK  Name = *****
REMARK                            x       y       z     vdW  Elec       q    Type
REMARK                         _______ _______ _______ _____ _____    ______ ____
ROOT
ATOM      1  O   LIG    1       32.215 -21.451   9.448  0.00  0.00    -0.247 OA
ATOM      2  C   LIG    1       31.316 -21.032   8.727  0.00  0.00    +0.327 C 
ATOM      3  N   LIG    1       31.407 -19.842   8.058  0.00  0.00    -0.273 N 
ATOM      4  H   LIG    1       32.259 -19.315   8.170  0.00  0.00    +0.173 HD
ATOM      5  C   LIG    1       30.474 -19.348   7.179  0.00  0.00    +0.289 C 
ATOM      6  O   LIG    1       30.653 -18.313   6.548  0.00  0.00    -0.265 OA
ATOM      7  C   LIG    1       29.245 -20.163   7.046  0.00  0.00    +0.203 C 
ATOM      8  F   LIG    1       28.279 -19.713   6.226  0.00  0.00    -0.198 F 
ATOM      9  C   LIG    1       29.139 -21.308   7.720  0.00  0.00    +0.131 C 
ATOM     10  N   LIG    1       30.154 -21.735   8.536  0.00  0.00    -0.311 N 
ATOM     11  H   LIG    1       30.081 -22.616   9.035  0.00  0.00    +0.170 HD
ENDROOT
TORSDOF 0
ENDMDL
MODEL 4
REMARK VINA RESULT:      -5.4      2.410      3.195
REMARK  Name = *****
REMARK                            x       y       z     vdW  Elec       q    Type
REMARK                         _______ _______ _______ _____ _____    ______ ____
ROOT
ATOM      1  O   LIG    1       29.714 -18.127   5.753  0.00  0.00    -0.247 OA
ATOM      2  C   LIG    1       29.911 -19.036   6.552  0.00  0.00    +0.327 C 
ATOM      3  N   LIG    1       30.957 -19.023   7.435  0.00  0.00    -0.273 N 
ATOM      4  H   LIG    1       31.566 -18.220   7.414  0.00  0.00    +0.173 HD
ATOM      5  C   LIG    1       31.194 -19.968   8.404  0.00  0.00    +0.289 C 
ATOM      6  O   LIG    1       32.102 -19.855   9.219  0.00  0.00    -0.265 OA
ATOM      7  C   LIG    1       30.265 -21.121   8.396  0.00  0.00    +0.203 C 
ATOM      8  F   LIG    1       30.468 -22.096   9.300  0.00  0.00    -0.198 F 
ATOM      9  C   LIG    1       29.263 -21.152   7.517  0.00  0.00    +0.131 C 
ATOM     10  N   LIG    1       29.087 -20.131   6.622  0.00  0.00    -0.311 N 
ATOM     11  H   LIG    1       28.313 -20.145   5.965  0.00  0.00    +0.170 HD
ENDROOT
TORSDOF 0
ENDMDL
MODEL 5
REMARK VINA RESULT:      -5.3      1.646      3.013
REMARK  Name = *****
REMARK                            x       y       z     vdW  Elec       q    Type
REMARK                         _______ _______ _______ _____ _____    ______ ____
ROOT
ATOM      1  O   LIG    1       32.173 -17.444   8.517  0.00  0.00    -0.247 OA
ATOM      2  C   LIG    1       31.505 -18.462   8.378  0.00  0.00    +0.327 C 
ATOM      3  N   LIG    1       31.853 -19.653   8.957  0.00  0.00    -0.273 N 
ATOM      4  H   LIG    1       32.687 -19.662   9.522  0.00  0.00    +0.173 HD
ATOM      5  C   LIG    1       31.116 -20.811   8.905  0.00  0.00    +0.289 C 
ATOM      6  O   LIG    1       31.442 -21.822   9.515  0.00  0.00    -0.265 OA
ATOM      7  C   LIG    1       29.896 -20.740   8.068  0.00  0.00    +0.203 C 
ATOM      8  F   LIG    1       29.151 -21.853   7.950  0.00  0.00    -0.198 F 
ATOM      9  C   LIG    1       29.570 -19.591   7.477  0.00  0.00    +0.131 C 
ATOM     10  N   LIG    1       30.352 -18.477   7.634  0.00  0.00    -0.311 N 
ATOM     11  H   LIG    1       30.094 -17.597   7.200  0.00  0.00    +0.170 HD
ENDROOT
TORSDOF 0
ENDMDL
MODEL 6
REMARK VINA RESULT:      -5.3      2.084      2.842
REMARK  Name = *****
REMARK                            x       y       z     vdW  Elec       q    Type
REMARK                         _______ _______ _______ _____ _____    ______ ____
ROOT
ATOM      1  O   LIG    1       28.206 -21.632   7.192  0.00  0.00    -0.247 OA
ATOM      2  C   LIG    1       29.099 -20.919   7.635  0.00  0.00    +0.327 C 
ATOM      3  N   LIG    1       30.183 -21.427   8.299  0.00  0.00    -0.273 N 
ATOM      4  H   LIG    1       30.230 -22.429   8.403  0.00  0.00    +0.173 HD
ATOM      5  C   LIG    1       31.253 -20.697   8.757  0.00  0.00    +0.289 C 
ATOM      6  O   LIG    1       32.233 -21.223   9.271  0.00  0.00    -0.265 OA
ATOM      7  C   LIG    1       31.137 -19.232   8.572  0.00  0.00    +0.203 C 
ATOM      8  F   LIG    1       32.138 -18.461   9.031  0.00  0.00    -0.198 F 
ATOM      9  C   LIG    1       30.068 -18.730   7.954  0.00  0.00    +0.131 C 
ATOM     10  N   LIG    1       29.077 -19.554   7.490  0.00  0.00    -0.311 N 
ATOM     11  H   LIG    1       28.272 -19.174   7.003  0.00  0.00    +0.170 HD
ENDROOT
TORSDOF 0
ENDMDL
MODEL 7
REMARK VINA RESULT:      -5.3      1.992      2.772
REMARK  Name = *****
REMARK                            x       y       z     vdW  Elec       q    Type
REMARK                         _______ _______ _______ _____ _____    ______ ____
ROOT
ATOM      1  O   LIG    1       32.014 -20.351   9.119  0.00  0.00    -0.247 OA
ATOM      2  C   LIG    1       31.140 -20.219   8.269  0.00  0.00    +0.327 C 
ATOM      3  N   LIG    1       30.089 -21.088   8.155  0.00  0.00    -0.273 N 
ATOM      4  H   LIG    1       30.050 -21.849   8.815  0.00  0.00    +0.173 HD
ATOM      5  C   LIG    1       29.040 -20.961   7.278  0.00  0.00    +0.289 C 
ATOM      6  O   LIG    1       28.086 -21.730   7.283  0.00  0.00    -0.265 OA
ATOM      7  C   LIG    1       29.145 -19.822   6.337  0.00  0.00    +0.203 C 
ATOM      8  F   LIG    1       28.164 -19.666   5.430  0.00  0.00    -0.198 F 
ATOM      9  C   LIG    1       30.183 -18.991   6.423  0.00  0.00    +0.131 C 
ATOM     10  N   LIG    1       31.154 -19.181   7.371  0.00  0.00    -0.311 N 
ATOM     11  H   LIG    1       31.934 -18.538   7.449  0.00  0.00    +0.170 HD
ENDROOT
TORSDOF 0
ENDMDL
MODEL 8
REMARK VINA RESULT:      -5.2      2.230      3.180
REMARK  Name = *****
REMARK                            x       y       z     vdW  Elec       q    Type
REMARK                         _______ _______ _______ _____ _____    ______ ____
ROOT
ATOM      1  O   LIG    1       30.237 -16.895  11.230  0.00  0.00    -0.247 OA
ATOM      2  C   LIG    1       30.469 -17.575  10.237  0.00  0.00    +0.327 C 
ATOM      3  N   LIG    1       31.301 -18.663  10.270  0.00  0.00    -0.273 N 
ATOM      4  H   LIG    1       31.715 -18.897  11.159  0.00  0.00    +0.173 HD
ATOM      5  C   LIG    1       31.547 -19.511   9.219  0.00  0.00    +0.289 C 
ATOM      6  O   LIG    1       32.238 -20.516   9.337  0.00  0.00    -0.265 OA
ATOM      7  C   LIG    1       30.909 -19.125   7.939  0.00  0.00    +0.203 C 
ATOM      8  F   LIG    1       31.142 -19.898   6.864  0.00  0.00    -0.198 F 
ATOM      9  C   LIG    1       30.123 -18.049   7.895  0.00  0.00    +0.131 C 
ATOM     10  N   LIG    1       29.903 -17.297   9.018  0.00  0.00    -0.311 N 
ATOM     11  H   LIG    1       29.291 -16.489   8.989  0.00  0.00    +0.170 HD
ENDROOT
TORSDOF 0
ENDMDL
MODEL 9
REMARK VINA RESULT:      -5.2      4.525      5.241
REMARK  Name = *****
REMARK                            x       y       z     vdW  Elec       q    Type
REMARK                         _______ _______ _______ _____ _____    ______ ____
ROOT
ATOM      1  O   LIG    1       28.999 -20.202   6.141  0.00  0.00    -0.247 OA
ATOM      2  C   LIG    1       27.834 -20.373   6.481  0.00  0.00    +0.327 C 
ATOM      3  N   LIG    1       27.455 -20.440   7.795  0.00  0.00    -0.273 N 
ATOM      4  H   LIG    1       28.179 -20.330   8.488  0.00  0.00    +0.173 HD
ATOM      5  C   LIG    1       26.163 -20.556   8.248  0.00  0.00    +0.289 C 
ATOM      6  O   LIG    1       25.883 -20.526   9.440  0.00  0.00    -0.265 OA
ATOM      7  C   LIG    1       25.139 -20.707   7.189  0.00  0.00    +0.203 C 
ATOM      8  F   LIG    1       23.859 -20.859   7.572  0.00  0.00    -0.198 F 
ATOM      9  C   LIG    1       25.507 -20.674   5.908  0.00  0.00    +0.131 C 
ATOM     10  N   LIG    1       26.822 -20.504   5.563  0.00  0.00    -0.311 N 
ATOM     11  H   LIG    1       27.100 -20.460   4.589  0.00  0.00    +0.170 HD
ENDROOT
TORSDOF 0
ENDMDL
