MODEL 1
REMARK VINA RESULT:      -8.1      0.000      0.000
REMARK  Name = *****
REMARK                            x       y       z     vdW  Elec       q    Type
REMARK                         _______ _______ _______ _____ _____    ______ ____
ROOT
ATOM      1  O   LIG    1       26.252 -19.973   5.202  0.00  0.00    -0.267 OA
ATOM      2  C   LIG    1       27.261 -19.953   5.892  0.00  0.00    +0.266 C 
ATOM      3  C   LIG    1       27.350 -20.582   7.213  0.00  0.00    +0.135 C 
ATOM      4  C   LIG    1       28.506 -20.478   7.883  0.00  0.00    +0.111 C 
ATOM      5  N   LIG    1       29.614 -19.807   7.393  0.00  0.00    -0.273 N 
ATOM      6  C   LIG    1       29.607 -19.284   6.103  0.00  0.00    +0.331 C 
ATOM      7  O   LIG    1       30.591 -18.801   5.548  0.00  0.00    -0.246 OA
ATOM      8  N   LIG    1       28.403 -19.338   5.453  0.00  0.00    -0.274 N 
ATOM      9  H   LIG    1       28.377 -18.944   4.525  0.00  0.00    +0.173 HD
ENDROOT
BRANCH   5  10
ATOM     10  C1* LIG    1       30.892 -19.809   8.121  0.00  0.00    +0.226 C 
ATOM     11  O4* LIG    1       30.656 -19.665   9.541  0.00  0.00    -0.348 OA
ATOM     12  C4* LIG    1       31.095 -18.350   9.955  0.00  0.00    +0.175 C 
ATOM     13  C3* LIG    1       31.440 -17.579   8.691  0.00  0.00    +0.150 C 
ATOM     14  C2* LIG    1       31.853 -18.682   7.751  0.00  0.00    +0.088 C 
BRANCH  13  15
ATOM     15  O3* LIG    1       32.468 -16.624   8.887  0.00  0.00    -0.389 OA
ATOM     16  H3* LIG    1       33.333 -17.061   8.791  0.00  0.00    +0.210 HD
ENDBRANCH  13  15
BRANCH  12  17
ATOM     17  C5* LIG    1       29.990 -17.668  10.763  0.00  0.00    +0.190 C 
BRANCH  17  18
ATOM     18  O5* LIG    1       30.364 -16.326  11.071  0.00  0.00    -0.392 OA
ATOM     19  H5* LIG    1       29.707 -15.992  11.709  0.00  0.00    +0.209 HD
ENDBRANCH  17  18
ENDBRANCH  12  17
ENDBRANCH   5  10
BRANCH   3  20
ATOM     20  C   LIG    1       26.186 -21.328   7.751  0.00  0.00    +0.424 C 
ATOM     21  F   LIG    1       25.167 -20.477   8.048  0.00  0.00    -0.166 F 
ATOM     22  F   LIG    1       26.510 -21.940   8.925  0.00  0.00    -0.166 F 
ATOM     23  F   LIG    1       25.666 -22.287   6.953  0.00  0.00    -0.166 F 
ENDBRANCH   3  20
TORSDOF 5
ENDMDL
MODEL 2
REMARK VINA RESULT:      -8.0      4.161      7.075
REMARK  Name = *****
REMARK                            x       y       z     vdW  Elec       q    Type
REMARK                         _______ _______ _______ _____ _____    ______ ____
ROOT
ATOM      1  O   LIG    1       26.764 -21.819   9.122  0.00  0.00    -0.267 OA
ATOM      2  C   LIG    1       26.094 -21.624   8.118  0.00  0.00    +0.266 C 
ATOM      3  C   LIG    1       26.572 -20.858   6.964  0.00  0.00    +0.135 C 
ATOM      4  C   LIG    1       25.739 -20.697   5.927  0.00  0.00    +0.111 C 
ATOM      5  N   LIG    1       24.454 -21.214   5.893  0.00  0.00    -0.273 N 
ATOM      6  C   LIG    1       23.996 -22.032   6.923  0.00  0.00    +0.331 C 
ATOM      7  O   LIG    1       22.929 -22.638   6.900  0.00  0.00    -0.246 OA
ATOM      8  N   LIG    1       24.829 -22.137   8.004  0.00  0.00    -0.274 N 
ATOM      9  H   LIG    1       24.502 -22.710   8.768  0.00  0.00    +0.173 HD
ENDROOT
BRANCH   5  10
ATOM     10  C1* LIG    1       23.615 -21.098   4.690  0.00  0.00    +0.226 C 
ATOM     11  O4* LIG    1       24.323 -20.372   3.659  0.00  0.00    -0.348 OA
ATOM     12  C4* LIG    1       23.708 -19.072   3.498  0.00  0.00    +0.175 C 
ATOM     13  C3* LIG    1       22.692 -18.920   4.620  0.00  0.00    +0.150 C 
ATOM     14  C2* LIG    1       22.298 -20.351   4.885  0.00  0.00    +0.088 C 
BRANCH  13  15
ATOM     15  O3* LIG    1       21.585 -18.114   4.260  0.00  0.00    -0.389 OA
ATOM     16  H3* LIG    1       21.738 -17.737   3.375  0.00  0.00    +0.210 HD
ENDBRANCH  13  15
BRANCH  12  17
ATOM     17  C5* LIG    1       24.781 -17.984   3.540  0.00  0.00    +0.190 C 
BRANCH  17  18
ATOM     18  O5* LIG    1       26.049 -18.531   3.183  0.00  0.00    -0.392 OA
ATOM     19  H5* LIG    1       25.899 -19.100   2.406  0.00  0.00    +0.209 HD
ENDBRANCH  17  18
ENDBRANCH  12  17
ENDBRANCH   5  10
BRANCH   3  20
ATOM     20  C   LIG    1       27.952 -20.314   6.963  0.00  0.00    +0.424 C 
ATOM     21  F   LIG    1       28.161 -19.539   5.864  0.00  0.00    -0.166 F 
ATOM     22  F   LIG    1       28.864 -21.323   6.883  0.00  0.00    -0.166 F 
ATOM     23  F   LIG    1       28.304 -19.567   8.033  0.00  0.00    -0.166 F 
ENDBRANCH   3  20
TORSDOF 5
ENDMDL
MODEL 3
REMARK VINA RESULT:      -7.9      1.447      2.437
REMARK  Name = *****
REMARK                            x       y       z     vdW  Elec       q    Type
REMARK                         _______ _______ _______ _____ _____    ______ ____
ROOT
ATOM      1  O   LIG    1       25.566 -20.638   5.135  0.00  0.00    -0.267 OA
ATOM      2  C   LIG    1       26.625 -20.264   5.619  0.00  0.00    +0.266 C 
ATOM      3  C   LIG    1       27.171 -20.796   6.871  0.00  0.00    +0.135 C 
ATOM      4  C   LIG    1       28.333 -20.294   7.313  0.00  0.00    +0.111 C 
ATOM      5  N   LIG    1       29.038 -19.303   6.649  0.00  0.00    -0.273 N 
ATOM      6  C   LIG    1       28.607 -18.843   5.407  0.00  0.00    +0.331 C 
ATOM      7  O   LIG    1       29.246 -18.073   4.696  0.00  0.00    -0.246 OA
ATOM      8  N   LIG    1       27.388 -19.314   4.998  0.00  0.00    -0.274 N 
ATOM      9  H   LIG    1       27.052 -18.973   4.109  0.00  0.00    +0.173 HD
ENDROOT
BRANCH   5  10
ATOM     10  C1* LIG    1       30.359 -18.859   7.119  0.00  0.00    +0.226 C 
ATOM     11  O4* LIG    1       31.218 -20.003   7.338  0.00  0.00    -0.348 OA
ATOM     12  C4* LIG    1       31.418 -20.170   8.761  0.00  0.00    +0.175 C 
ATOM     13  C3* LIG    1       30.481 -19.197   9.458  0.00  0.00    +0.150 C 
ATOM     14  C2* LIG    1       30.356 -18.094   8.440  0.00  0.00    +0.088 C 
BRANCH  13  15
ATOM     15  O3* LIG    1       30.985 -18.733  10.698  0.00  0.00    -0.389 OA
ATOM     16  H3* LIG    1       31.956 -18.688  10.651  0.00  0.00    +0.210 HD
ENDBRANCH  13  15
BRANCH  12  17
ATOM     17  C5* LIG    1       31.141 -21.621   9.154  0.00  0.00    +0.190 C 
BRANCH  17  18
ATOM     18  O5* LIG    1       32.185 -22.468   8.676  0.00  0.00    -0.392 OA
ATOM     19  H5* LIG    1       32.343 -23.136   9.369  0.00  0.00    +0.209 HD
ENDBRANCH  17  18
ENDBRANCH  12  17
ENDBRANCH   5  10
BRANCH   3  20
ATOM     20  C   LIG    1       26.450 -21.875   7.589  0.00  0.00    +0.424 C 
ATOM     21  F   LIG    1       27.024 -22.110   8.801  0.00  0.00    -0.166 F 
ATOM     22  F   LIG    1       26.539 -23.049   6.904  0.00  0.00    -0.166 F 
ATOM     23  F   LIG    1       25.135 -21.667   7.820  0.00  0.00    -0.166 F 
ENDBRANCH   3  20
TORSDOF 5
ENDMDL
MODEL 4
REMARK VINA RESULT:      -7.9      3.965      6.932
REMARK  Name = *****
REMARK                            x       y       z     vdW  Elec       q    Type
REMARK                         _______ _______ _______ _____ _____    ______ ____
ROOT
ATOM      1  O   LIG    1       27.660 -21.787   8.786  0.00  0.00    -0.267 OA
ATOM      2  C   LIG    1       26.875 -21.635   7.861  0.00  0.00    +0.266 C 
ATOM      3  C   LIG    1       27.133 -20.752   6.720  0.00  0.00    +0.135 C 
ATOM      4  C   LIG    1       26.188 -20.654   5.775  0.00  0.00    +0.111 C 
ATOM      5  N   LIG    1       24.986 -21.341   5.823  0.00  0.00    -0.273 N 
ATOM      6  C   LIG    1       24.744 -22.267   6.835  0.00  0.00    +0.331 C 
ATOM      7  O   LIG    1       23.769 -23.013   6.869  0.00  0.00    -0.246 OA
ATOM      8  N   LIG    1       25.685 -22.311   7.828  0.00  0.00    -0.274 N 
ATOM      9  H   LIG    1       25.513 -22.962   8.579  0.00  0.00    +0.173 HD
ENDROOT
BRANCH   5  10
ATOM     10  C1* LIG    1       24.026 -21.280   4.710  0.00  0.00    +0.226 C 
ATOM     11  O4* LIG    1       24.557 -20.465   3.640  0.00  0.00    -0.348 OA
ATOM     12  C4* LIG    1       23.809 -19.228   3.580  0.00  0.00    +0.175 C 
ATOM     13  C3* LIG    1       22.898 -19.201   4.798  0.00  0.00    +0.150 C 
ATOM     14  C2* LIG    1       22.670 -20.669   5.054  0.00  0.00    +0.088 C 
BRANCH  13  15
ATOM     15  O3* LIG    1       21.690 -18.498   4.572  0.00  0.00    -0.389 OA
ATOM     16  H3* LIG    1       21.405 -18.641   3.652  0.00  0.00    +0.210 HD
ENDBRANCH  13  15
BRANCH  12  17
ATOM     17  C5* LIG    1       24.773 -18.042   3.554  0.00  0.00    +0.190 C 
BRANCH  17  18
ATOM     18  O5* LIG    1       26.078 -18.478   3.176  0.00  0.00    -0.392 OA
ATOM     19  H5* LIG    1       25.981 -18.940   2.322  0.00  0.00    +0.209 HD
ENDBRANCH  17  18
ENDBRANCH  12  17
ENDBRANCH   5  10
BRANCH   3  20
ATOM     20  C   LIG    1       28.422 -20.023   6.631  0.00  0.00    +0.424 C 
ATOM     21  F   LIG    1       28.615 -19.254   7.736  0.00  0.00    -0.166 F 
ATOM     22  F   LIG    1       28.412 -19.160   5.577  0.00  0.00    -0.166 F 
ATOM     23  F   LIG    1       29.532 -20.782   6.491  0.00  0.00    -0.166 F 
ENDBRANCH   3  20
TORSDOF 5
ENDMDL
MODEL 5
REMARK VINA RESULT:      -7.5      4.185      5.960
REMARK  Name = *****
REMARK                            x       y       z     vdW  Elec       q    Type
REMARK                         _______ _______ _______ _____ _____    ______ ____
ROOT
ATOM      1  O   LIG    1       25.035 -26.143   4.113  0.00  0.00    -0.267 OA
ATOM      2  C   LIG    1       25.125 -25.211   4.900  0.00  0.00    +0.266 C 
ATOM      3  C   LIG    1       25.666 -25.349   6.256  0.00  0.00    +0.135 C 
ATOM      4  C   LIG    1       25.698 -24.259   7.034  0.00  0.00    +0.111 C 
ATOM      5  N   LIG    1       25.245 -23.015   6.624  0.00  0.00    -0.273 N 
ATOM      6  C   LIG    1       24.819 -22.818   5.313  0.00  0.00    +0.331 C 
ATOM      7  O   LIG    1       24.537 -21.721   4.836  0.00  0.00    -0.246 OA
ATOM      8  N   LIG    1       24.730 -23.949   4.548  0.00  0.00    -0.274 N 
ATOM      9  H   LIG    1       24.402 -23.825   3.601  0.00  0.00    +0.173 HD
ENDROOT
BRANCH   5  10
ATOM     10  C1* LIG    1       25.397 -21.827   7.478  0.00  0.00    +0.226 C 
ATOM     11  O4* LIG    1       25.654 -20.660   6.663  0.00  0.00    -0.348 OA
ATOM     12  C4* LIG    1       27.029 -20.251   6.856  0.00  0.00    +0.175 C 
ATOM     13  C3* LIG    1       27.703 -21.335   7.683  0.00  0.00    +0.150 C 
ATOM     14  C2* LIG    1       26.548 -21.888   8.478  0.00  0.00    +0.088 C 
BRANCH  13  15
ATOM     15  O3* LIG    1       28.739 -20.837   8.510  0.00  0.00    -0.389 OA
ATOM     16  H3* LIG    1       28.603 -21.157   9.419  0.00  0.00    +0.210 HD
ENDBRANCH  13  15
BRANCH  12  17
ATOM     17  C5* LIG    1       27.705 -20.056   5.499  0.00  0.00    +0.190 C 
BRANCH  17  18
ATOM     18  O5* LIG    1       26.723 -19.977   4.467  0.00  0.00    -0.392 OA
ATOM     19  H5* LIG    1       25.853 -19.994   4.908  0.00  0.00    +0.209 HD
ENDBRANCH  17  18
ENDBRANCH  12  17
ENDBRANCH   5  10
BRANCH   3  20
ATOM     20  C   LIG    1       26.180 -26.664   6.712  0.00  0.00    +0.424 C 
ATOM     21  F   LIG    1       26.382 -26.658   8.058  0.00  0.00    -0.166 F 
ATOM     22  F   LIG    1       27.398 -26.920   6.157  0.00  0.00    -0.166 F 
ATOM     23  F   LIG    1       25.405 -27.738   6.443  0.00  0.00    -0.166 F 
ENDBRANCH   3  20
TORSDOF 5
ENDMDL
MODEL 6
REMARK VINA RESULT:      -7.5      4.061      6.813
REMARK  Name = *****
REMARK                            x       y       z     vdW  Elec       q    Type
REMARK                         _______ _______ _______ _____ _____    ______ ____
ROOT
ATOM      1  O   LIG    1       28.100 -18.754   4.707  0.00  0.00    -0.267 OA
ATOM      2  C   LIG    1       27.439 -19.531   5.382  0.00  0.00    +0.266 C 
ATOM      3  C   LIG    1       26.048 -19.880   5.082  0.00  0.00    +0.135 C 
ATOM      4  C   LIG    1       25.421 -20.730   5.906  0.00  0.00    +0.111 C 
ATOM      5  N   LIG    1       26.018 -21.290   7.024  0.00  0.00    -0.273 N 
ATOM      6  C   LIG    1       27.366 -21.065   7.289  0.00  0.00    +0.331 C 
ATOM      7  O   LIG    1       28.000 -21.634   8.174  0.00  0.00    -0.246 OA
ATOM      8  N   LIG    1       27.979 -20.147   6.479  0.00  0.00    -0.274 N 
ATOM      9  H   LIG    1       28.952 -19.958   6.672  0.00  0.00    +0.173 HD
ENDROOT
BRANCH   5  10
ATOM     10  C1* LIG    1       25.321 -22.297   7.839  0.00  0.00    +0.226 C 
ATOM     11  O4* LIG    1       25.753 -23.625   7.462  0.00  0.00    -0.348 OA
ATOM     12  C4* LIG    1       24.669 -24.289   6.770  0.00  0.00    +0.175 C 
ATOM     13  C3* LIG    1       23.585 -23.247   6.542  0.00  0.00    +0.150 C 
ATOM     14  C2* LIG    1       23.801 -22.307   7.700  0.00  0.00    +0.088 C 
BRANCH  13  15
ATOM     15  O3* LIG    1       22.280 -23.799   6.531  0.00  0.00    -0.389 OA
ATOM     16  H3* LIG    1       22.333 -24.741   6.292  0.00  0.00    +0.210 HD
ENDBRANCH  13  15
BRANCH  12  17
ATOM     17  C5* LIG    1       25.182 -24.884   5.459  0.00  0.00    +0.190 C 
BRANCH  17  18
ATOM     18  O5* LIG    1       24.782 -24.068   4.359  0.00  0.00    -0.392 OA
ATOM     19  H5* LIG    1       24.585 -24.673   3.619  0.00  0.00    +0.209 HD
ENDBRANCH  17  18
ENDBRANCH  12  17
ENDBRANCH   5  10
BRANCH   3  20
ATOM     20  C   LIG    1       25.392 -19.314   3.878  0.00  0.00    +0.424 C 
ATOM     21  F   LIG    1       24.056 -19.159   4.088  0.00  0.00    -0.166 F 
ATOM     22  F   LIG    1       25.502 -20.171   2.825  0.00  0.00    -0.166 F 
ATOM     23  F   LIG    1       25.855 -18.119   3.447  0.00  0.00    -0.166 F 
ENDBRANCH   3  20
TORSDOF 5
ENDMDL
MODEL 7
REMARK VINA RESULT:      -7.5      5.056      7.988
REMARK  Name = *****
REMARK                            x       y       z     vdW  Elec       q    Type
REMARK                         _______ _______ _______ _____ _____    ______ ____
ROOT
ATOM      1  O   LIG    1       24.663 -20.637   8.257  0.00  0.00    -0.267 OA
ATOM      2  C   LIG    1       24.628 -21.696   7.647  0.00  0.00    +0.266 C 
ATOM      3  C   LIG    1       25.823 -22.371   7.132  0.00  0.00    +0.135 C 
ATOM      4  C   LIG    1       25.657 -23.520   6.463  0.00  0.00    +0.111 C 
ATOM      5  N   LIG    1       24.419 -24.097   6.232  0.00  0.00    -0.273 N 
ATOM      6  C   LIG    1       23.269 -23.544   6.789  0.00  0.00    +0.331 C 
ATOM      7  O   LIG    1       22.160 -24.069   6.748  0.00  0.00    -0.246 OA
ATOM      8  N   LIG    1       23.441 -22.338   7.415  0.00  0.00    -0.274 N 
ATOM      9  H   LIG    1       22.613 -21.914   7.806  0.00  0.00    +0.173 HD
ENDROOT
BRANCH   5  10
ATOM     10  C1* LIG    1       24.297 -25.411   5.583  0.00  0.00    +0.226 C 
ATOM     11  O4* LIG    1       24.278 -26.458   6.580  0.00  0.00    -0.348 OA
ATOM     12  C4* LIG    1       25.523 -27.193   6.510  0.00  0.00    +0.175 C 
ATOM     13  C3* LIG    1       26.429 -26.437   5.550  0.00  0.00    +0.150 C 
ATOM     14  C2* LIG    1       25.435 -25.774   4.632  0.00  0.00    +0.088 C 
BRANCH  13  15
ATOM     15  O3* LIG    1       27.326 -27.283   4.853  0.00  0.00    -0.389 OA
ATOM     16  H3* LIG    1       28.240 -27.025   5.066  0.00  0.00    +0.210 HD
ENDBRANCH  13  15
BRANCH  12  17
ATOM     17  C5* LIG    1       26.133 -27.311   7.906  0.00  0.00    +0.190 C 
BRANCH  17  18
ATOM     18  O5* LIG    1       26.440 -28.675   8.194  0.00  0.00    -0.392 OA
ATOM     19  H5* LIG    1       25.821 -28.961   8.890  0.00  0.00    +0.209 HD
ENDBRANCH  17  18
ENDBRANCH  12  17
ENDBRANCH   5  10
BRANCH   3  20
ATOM     20  C   LIG    1       27.163 -21.788   7.387  0.00  0.00    +0.424 C 
ATOM     21  F   LIG    1       27.396 -21.689   8.724  0.00  0.00    -0.166 F 
ATOM     22  F   LIG    1       27.232 -20.516   6.904  0.00  0.00    -0.166 F 
ATOM     23  F   LIG    1       28.216 -22.453   6.861  0.00  0.00    -0.166 F 
ENDBRANCH   3  20
TORSDOF 5
ENDMDL
MODEL 8
REMARK VINA RESULT:      -7.5      3.956      5.593
REMARK  Name = *****
REMARK                            x       y       z     vdW  Elec       q    Type
REMARK                         _______ _______ _______ _____ _____    ______ ____
ROOT
ATOM      1  O   LIG    1       22.911 -24.806   6.222  0.00  0.00    -0.267 OA
ATOM      2  C   LIG    1       23.736 -24.023   6.672  0.00  0.00    +0.266 C 
ATOM      3  C   LIG    1       25.174 -24.304   6.721  0.00  0.00    +0.135 C 
ATOM      4  C   LIG    1       25.978 -23.374   7.254  0.00  0.00    +0.111 C 
ATOM      5  N   LIG    1       25.520 -22.168   7.760  0.00  0.00    -0.273 N 
ATOM      6  C   LIG    1       24.178 -21.819   7.642  0.00  0.00    +0.331 C 
ATOM      7  O   LIG    1       23.722 -20.717   7.937  0.00  0.00    -0.246 OA
ATOM      8  N   LIG    1       23.356 -22.800   7.156  0.00  0.00    -0.274 N 
ATOM      9  H   LIG    1       22.376 -22.569   7.084  0.00  0.00    +0.173 HD
ENDROOT
BRANCH   5  10
ATOM     10  C1* LIG    1       26.453 -21.137   8.240  0.00  0.00    +0.226 C 
ATOM     11  O4* LIG    1       26.457 -20.011   7.333  0.00  0.00    -0.348 OA
ATOM     12  C4* LIG    1       27.718 -19.988   6.623  0.00  0.00    +0.175 C 
ATOM     13  C3* LIG    1       28.447 -21.276   6.973  0.00  0.00    +0.150 C 
ATOM     14  C2* LIG    1       27.910 -21.579   8.348  0.00  0.00    +0.088 C 
BRANCH  13  15
ATOM     15  O3* LIG    1       29.857 -21.135   6.963  0.00  0.00    -0.389 OA
ATOM     16  H3* LIG    1       30.263 -22.002   6.787  0.00  0.00    +0.210 HD
ENDBRANCH  13  15
BRANCH  12  17
ATOM     17  C5* LIG    1       27.463 -19.859   5.121  0.00  0.00    +0.190 C 
BRANCH  17  18
ATOM     18  O5* LIG    1       26.264 -20.546   4.766  0.00  0.00    -0.392 OA
ATOM     19  H5* LIG    1       25.722 -20.600   5.575  0.00  0.00    +0.209 HD
ENDBRANCH  17  18
ENDBRANCH  12  17
ENDBRANCH   5  10
BRANCH   3  20
ATOM     20  C   LIG    1       25.694 -25.576   6.163  0.00  0.00    +0.424 C 
ATOM     21  F   LIG    1       25.355 -25.698   4.850  0.00  0.00    -0.166 F 
ATOM     22  F   LIG    1       25.125 -26.643   6.791  0.00  0.00    -0.166 F 
ATOM     23  F   LIG    1       27.031 -25.761   6.234  0.00  0.00    -0.166 F 
ENDBRANCH   3  20
TORSDOF 5
ENDMDL
MODEL 9
REMARK VINA RESULT:      -7.2      4.684      6.557
REMARK  Name = *****
REMARK                            x       y       z     vdW  Elec       q    Type
REMARK                         _______ _______ _______ _____ _____    ______ ____
ROOT
ATOM      1  O   LIG    1       23.551 -26.566   5.381  0.00  0.00    -0.267 OA
ATOM      2  C   LIG    1       24.074 -25.612   5.941  0.00  0.00    +0.266 C 
ATOM      3  C   LIG    1       25.510 -25.529   6.221  0.00  0.00    +0.135 C 
ATOM      4  C   LIG    1       25.964 -24.441   6.858  0.00  0.00    +0.111 C 
ATOM      5  N   LIG    1       25.148 -23.397   7.264  0.00  0.00    -0.273 N 
ATOM      6  C   LIG    1       23.796 -23.389   6.928  0.00  0.00    +0.331 C 
ATOM      7  O   LIG    1       23.041 -22.441   7.128  0.00  0.00    -0.246 OA
ATOM      8  N   LIG    1       23.331 -24.532   6.337  0.00  0.00    -0.274 N 
ATOM      9  H   LIG    1       22.348 -24.550   6.106  0.00  0.00    +0.173 HD
ENDROOT
BRANCH   5  10
ATOM     10  C1* LIG    1       25.708 -22.178   7.866  0.00  0.00    +0.226 C 
ATOM     11  O4* LIG    1       25.075 -21.008   7.299  0.00  0.00    -0.348 OA
ATOM     12  C4* LIG    1       26.029 -20.324   6.453  0.00  0.00    +0.175 C 
ATOM     13  C3* LIG    1       27.250 -21.225   6.343  0.00  0.00    +0.150 C 
ATOM     14  C2* LIG    1       27.206 -21.976   7.649  0.00  0.00    +0.088 C 
BRANCH  13  15
ATOM     15  O3* LIG    1       28.457 -20.504   6.175  0.00  0.00    -0.389 OA
ATOM     16  H3* LIG    1       28.723 -20.539   5.240  0.00  0.00    +0.210 HD
ENDBRANCH  13  15
BRANCH  12  17
ATOM     17  C5* LIG    1       25.399 -20.039   5.089  0.00  0.00    +0.190 C 
BRANCH  17  18
ATOM     18  O5* LIG    1       26.367 -20.209   4.055  0.00  0.00    -0.392 OA
ATOM     19  H5* LIG    1       26.619 -19.315   3.757  0.00  0.00    +0.209 HD
ENDBRANCH  17  18
ENDBRANCH  12  17
ENDBRANCH   5  10
BRANCH   3  20
ATOM     20  C   LIG    1       26.410 -26.620   5.776  0.00  0.00    +0.424 C 
ATOM     21  F   LIG    1       26.132 -27.774   6.443  0.00  0.00    -0.166 F 
ATOM     22  F   LIG    1       27.706 -26.325   6.075  0.00  0.00    -0.166 F 
ATOM     23  F   LIG    1       26.383 -26.921   4.458  0.00  0.00    -0.166 F 
ENDBRANCH   3  20
TORSDOF 5
ENDMDL
