MODEL 1
REMARK VINA RESULT:      -8.5      0.000      0.000
REMARK  Name = *****
REMARK                            x       y       z     vdW  Elec       q    Type
REMARK                         _______ _______ _______ _____ _____    ______ ____
ROOT
ATOM      1  O   LIG    1       24.989 -22.553   7.362  0.00  0.00    -0.489 OA
ENDROOT
BRANCH   1   2
ATOM      2  C   LIG    1       25.981 -21.675   6.968  0.00  0.00    +0.124 A 
ATOM      3  C   LIG    1       25.764 -20.837   5.843  0.00  0.00    -0.003 A 
ATOM      4  C   LIG    1       26.823 -20.008   5.441  0.00  0.00    +0.007 A 
ATOM      5  C   LIG    1       28.057 -19.987   6.083  0.00  0.00    +0.001 A 
ATOM      6  C   LIG    1       28.242 -20.769   7.211  0.00  0.00    +0.004 A 
ATOM      7  C   LIG    1       27.208 -21.577   7.656  0.00  0.00    +0.046 A 
BRANCH   3   8
ATOM      8  C   LIG    1       24.446 -20.786   5.054  0.00  0.00    +0.023 C 
ATOM      9  C   LIG    1       23.255 -20.232   5.880  0.00  0.00    +0.008 C 
ATOM     10  C   LIG    1       22.333 -19.576   4.857  0.00  0.00    +0.001 C 
ATOM     11  C   LIG    1       23.307 -18.880   3.928  0.00  0.00    +0.001 C 
ATOM     12  C   LIG    1       24.444 -19.890   3.771  0.00  0.00    +0.008 C 
ENDBRANCH   3   8
ENDBRANCH   1   2
BRANCH   1  13
ATOM     13  C   LIG    1       25.212 -23.929   6.938  0.00  0.00    +0.261 C 
BRANCH  13  14
ATOM     14  C   LIG    1       23.922 -24.681   6.576  0.00  0.00    +0.166 C 
BRANCH  14  15
ATOM     15  O   LIG    1       22.872 -23.753   6.286  0.00  0.00    -0.387 OA
ATOM     16  H   LIG    1       23.313 -22.947   5.954  0.00  0.00    +0.210 HD
ENDBRANCH  14  15
BRANCH  14  17
ATOM     17  C   LIG    1       24.148 -25.635   5.400  0.00  0.00    +0.116 C 
BRANCH  17  18
ATOM     18  N   LIG    1       23.964 -27.044   5.802  0.00  0.00    -0.309 NA
ATOM     19  H   LIG    1       23.483 -27.078   6.703  0.00  0.00    +0.122 HD
BRANCH  18  21
ATOM     20  C   LIG    1       26.275 -27.112   5.006  0.00  0.00    +0.027 C 
ATOM     21  C   LIG    1       25.230 -27.805   5.904  0.00  0.00    +0.011 C 
ATOM     22  C   LIG    1       25.756 -27.807   7.349  0.00  0.00    +0.027 C 
ATOM     23  C   LIG    1       25.059 -29.250   5.403  0.00  0.00    +0.027 C 
ENDBRANCH  18  21
ENDBRANCH  17  18
ENDBRANCH  14  17
ENDBRANCH  13  14
ENDBRANCH   1  13
TORSDOF 8
ENDMDL
MODEL 2
REMARK VINA RESULT:      -8.1      3.087      6.145
REMARK  Name = *****
REMARK                            x       y       z     vdW  Elec       q    Type
REMARK                         _______ _______ _______ _____ _____    ______ ____
ROOT
ATOM      1  O   LIG    1       26.258 -22.170   6.002  0.00  0.00    -0.489 OA
ENDROOT
BRANCH   1   2
ATOM      2  C   LIG    1       24.983 -22.680   6.161  0.00  0.00    +0.124 A 
ATOM      3  C   LIG    1       23.863 -21.823   5.999  0.00  0.00    -0.003 A 
ATOM      4  C   LIG    1       22.592 -22.369   6.233  0.00  0.00    +0.007 A 
ATOM      5  C   LIG    1       22.394 -23.690   6.623  0.00  0.00    +0.001 A 
ATOM      6  C   LIG    1       23.487 -24.533   6.727  0.00  0.00    +0.004 A 
ATOM      7  C   LIG    1       24.756 -24.036   6.473  0.00  0.00    +0.046 A 
BRANCH   3   8
ATOM      8  C   LIG    1       23.968 -20.347   5.582  0.00  0.00    +0.023 C 
ATOM      9  C   LIG    1       24.389 -20.155   4.100  0.00  0.00    +0.008 C 
ATOM     10  C   LIG    1       23.750 -18.838   3.673  0.00  0.00    +0.001 C 
ATOM     11  C   LIG    1       22.379 -18.908   4.315  0.00  0.00    +0.001 C 
ATOM     12  C   LIG    1       22.654 -19.504   5.696  0.00  0.00    +0.008 C 
ENDBRANCH   3   8
ENDBRANCH   1   2
BRANCH   1  13
ATOM     13  C   LIG    1       26.969 -21.949   7.254  0.00  0.00    +0.261 C 
BRANCH  13  14
ATOM     14  C   LIG    1       27.080 -20.468   7.648  0.00  0.00    +0.166 C 
BRANCH  14  15
ATOM     15  O   LIG    1       26.781 -20.300   9.037  0.00  0.00    -0.387 OA
ATOM     16  H   LIG    1       25.834 -20.063   9.078  0.00  0.00    +0.210 HD
ENDBRANCH  14  15
BRANCH  14  17
ATOM     17  C   LIG    1       28.467 -19.909   7.317  0.00  0.00    +0.116 C 
BRANCH  17  18
ATOM     18  N   LIG    1       29.162 -19.430   8.528  0.00  0.00    -0.309 NA
ATOM     19  H   LIG    1       28.948 -18.441   8.671  0.00  0.00    +0.122 HD
BRANCH  18  21
ATOM     20  C   LIG    1       31.098 -19.298   7.041  0.00  0.00    +0.027 C 
ATOM     21  C   LIG    1       30.632 -19.602   8.479  0.00  0.00    +0.011 C 
ATOM     22  C   LIG    1       31.332 -18.620   9.434  0.00  0.00    +0.027 C 
ATOM     23  C   LIG    1       31.041 -21.047   8.814  0.00  0.00    +0.027 C 
ENDBRANCH  18  21
ENDBRANCH  17  18
ENDBRANCH  14  17
ENDBRANCH  13  14
ENDBRANCH   1  13
TORSDOF 8
ENDMDL
MODEL 3
REMARK VINA RESULT:      -8.0      3.067      7.034
REMARK  Name = *****
REMARK                            x       y       z     vdW  Elec       q    Type
REMARK                         _______ _______ _______ _____ _____    ______ ____
ROOT
ATOM      1  O   LIG    1       26.882 -22.602   7.147  0.00  0.00    -0.489 OA
ENDROOT
BRANCH   1   2
ATOM      2  C   LIG    1       25.508 -22.747   7.108  0.00  0.00    +0.124 A 
ATOM      3  C   LIG    1       24.948 -23.945   6.592  0.00  0.00    -0.003 A 
ATOM      4  C   LIG    1       23.549 -24.022   6.514  0.00  0.00    +0.007 A 
ATOM      5  C   LIG    1       22.708 -22.984   6.904  0.00  0.00    +0.001 A 
ATOM      6  C   LIG    1       23.261 -21.841   7.455  0.00  0.00    +0.004 A 
ATOM      7  C   LIG    1       24.638 -21.742   7.577  0.00  0.00    +0.046 A 
BRANCH   3   8
ATOM      8  C   LIG    1       25.782 -25.148   6.123  0.00  0.00    +0.023 C 
ATOM      9  C   LIG    1       25.809 -26.313   7.148  0.00  0.00    +0.008 C 
ATOM     10  C   LIG    1       25.981 -27.576   6.308  0.00  0.00    +0.001 C 
ATOM     11  C   LIG    1       25.073 -27.316   5.124  0.00  0.00    +0.001 C 
ATOM     12  C   LIG    1       25.310 -25.840   4.801  0.00  0.00    +0.008 C 
ENDBRANCH   3   8
ENDBRANCH   1   2
BRANCH   1  13
ATOM     13  C   LIG    1       27.327 -21.242   7.423  0.00  0.00    +0.261 C 
BRANCH  13  14
ATOM     14  C   LIG    1       28.154 -20.619   6.287  0.00  0.00    +0.166 C 
BRANCH  14  15
ATOM     15  O   LIG    1       27.307 -20.283   5.184  0.00  0.00    -0.387 OA
ATOM     16  H   LIG    1       26.553 -20.902   5.229  0.00  0.00    +0.210 HD
ENDBRANCH  14  15
BRANCH  14  17
ATOM     17  C   LIG    1       28.930 -19.392   6.775  0.00  0.00    +0.116 C 
BRANCH  17  18
ATOM     18  N   LIG    1       29.240 -19.484   8.215  0.00  0.00    -0.309 NA
ATOM     19  H   LIG    1       28.873 -18.657   8.692  0.00  0.00    +0.122 HD
BRANCH  18  21
ATOM     20  C   LIG    1       31.463 -19.205   7.238  0.00  0.00    +0.027 C 
ATOM     21  C   LIG    1       30.686 -19.606   8.508  0.00  0.00    +0.011 C 
ATOM     22  C   LIG    1       31.098 -18.661   9.649  0.00  0.00    +0.027 C 
ATOM     23  C   LIG    1       31.068 -21.055   8.858  0.00  0.00    +0.027 C 
ENDBRANCH  18  21
ENDBRANCH  17  18
ENDBRANCH  14  17
ENDBRANCH  13  14
ENDBRANCH   1  13
TORSDOF 8
ENDMDL
MODEL 4
REMARK VINA RESULT:      -8.0      3.115      6.443
REMARK  Name = *****
REMARK                            x       y       z     vdW  Elec       q    Type
REMARK                         _______ _______ _______ _____ _____    ______ ____
ROOT
ATOM      1  O   LIG    1       26.764 -21.001   7.364  0.00  0.00    -0.489 OA
ENDROOT
BRANCH   1   2
ATOM      2  C   LIG    1       25.935 -22.044   6.995  0.00  0.00    +0.124 A 
ATOM      3  C   LIG    1       24.747 -21.768   6.269  0.00  0.00    -0.003 A 
ATOM      4  C   LIG    1       23.905 -22.851   5.971  0.00  0.00    +0.007 A 
ATOM      5  C   LIG    1       24.180 -24.157   6.366  0.00  0.00    +0.001 A 
ATOM      6  C   LIG    1       25.366 -24.425   7.027  0.00  0.00    +0.004 A 
ATOM      7  C   LIG    1       26.238 -23.385   7.310  0.00  0.00    +0.046 A 
BRANCH   3   8
ATOM      8  C   LIG    1       24.341 -20.364   5.793  0.00  0.00    +0.023 C 
ATOM      9  C   LIG    1       24.568 -20.140   4.274  0.00  0.00    +0.008 C 
ATOM     10  C   LIG    1       23.509 -19.122   3.861  0.00  0.00    +0.001 C 
ATOM     11  C   LIG    1       22.285 -19.584   4.625  0.00  0.00    +0.001 C 
ATOM     12  C   LIG    1       22.838 -19.976   5.996  0.00  0.00    +0.008 C 
ENDBRANCH   3   8
ENDBRANCH   1   2
BRANCH   1  13
ATOM     13  C   LIG    1       28.183 -21.279   7.185  0.00  0.00    +0.261 C 
BRANCH  13  14
ATOM     14  C   LIG    1       28.864 -20.373   6.148  0.00  0.00    +0.166 C 
BRANCH  14  15
ATOM     15  O   LIG    1       27.947 -20.040   5.101  0.00  0.00    -0.387 OA
ATOM     16  H   LIG    1       28.242 -20.546   4.319  0.00  0.00    +0.210 HD
ENDBRANCH  14  15
BRANCH  14  17
ATOM     17  C   LIG    1       29.427 -19.108   6.802  0.00  0.00    +0.116 C 
BRANCH  17  18
ATOM     18  N   LIG    1       29.409 -19.206   8.275  0.00  0.00    -0.309 NA
ATOM     19  H   LIG    1       28.792 -18.484   8.654  0.00  0.00    +0.122 HD
BRANCH  18  21
ATOM     20  C   LIG    1       31.274 -20.488   9.200  0.00  0.00    +0.027 C 
ATOM     21  C   LIG    1       30.745 -19.072   8.898  0.00  0.00    +0.011 C 
ATOM     22  C   LIG    1       31.731 -18.379   7.942  0.00  0.00    +0.027 C 
ATOM     23  C   LIG    1       30.671 -18.301  10.228  0.00  0.00    +0.027 C 
ENDBRANCH  18  21
ENDBRANCH  17  18
ENDBRANCH  14  17
ENDBRANCH  13  14
ENDBRANCH   1  13
TORSDOF 8
ENDMDL
MODEL 5
REMARK VINA RESULT:      -7.9      1.697      2.398
REMARK  Name = *****
REMARK                            x       y       z     vdW  Elec       q    Type
REMARK                         _______ _______ _______ _____ _____    ______ ____
ROOT
ATOM      1  O   LIG    1       24.878 -23.725   5.352  0.00  0.00    -0.489 OA
ENDROOT
BRANCH   1   2
ATOM      2  C   LIG    1       25.161 -22.828   6.366  0.00  0.00    +0.124 A 
ATOM      3  C   LIG    1       24.630 -21.513   6.303  0.00  0.00    -0.003 A 
ATOM      4  C   LIG    1       24.996 -20.619   7.321  0.00  0.00    +0.007 A 
ATOM      5  C   LIG    1       25.853 -20.963   8.361  0.00  0.00    +0.001 A 
ATOM      6  C   LIG    1       26.324 -22.262   8.444  0.00  0.00    +0.004 A 
ATOM      7  C   LIG    1       25.958 -23.182   7.474  0.00  0.00    +0.046 A 
BRANCH   3   8
ATOM      8  C   LIG    1       23.684 -21.024   5.194  0.00  0.00    +0.023 C 
ATOM      9  C   LIG    1       22.731 -19.890   5.656  0.00  0.00    +0.008 C 
ATOM     10  C   LIG    1       22.453 -19.069   4.400  0.00  0.00    +0.001 C 
ATOM     11  C   LIG    1       23.810 -19.014   3.730  0.00  0.00    +0.001 C 
ATOM     12  C   LIG    1       24.367 -20.426   3.920  0.00  0.00    +0.008 C 
ENDBRANCH   3   8
ENDBRANCH   1   2
BRANCH   1  13
ATOM     13  C   LIG    1       24.559 -25.068   5.820  0.00  0.00    +0.261 C 
BRANCH  13  14
ATOM     14  C   LIG    1       25.421 -26.166   5.179  0.00  0.00    +0.166 C 
BRANCH  14  15
ATOM     15  O   LIG    1       26.751 -26.124   5.705  0.00  0.00    -0.387 OA
ATOM     16  H   LIG    1       26.796 -26.839   6.370  0.00  0.00    +0.210 HD
ENDBRANCH  14  15
BRANCH  14  17
ATOM     17  C   LIG    1       24.797 -27.549   5.381  0.00  0.00    +0.116 C 
BRANCH  17  18
ATOM     18  N   LIG    1       25.744 -28.484   6.020  0.00  0.00    -0.309 NA
ATOM     19  H   LIG    1       26.584 -28.560   5.442  0.00  0.00    +0.122 HD
BRANCH  18  21
ATOM     20  C   LIG    1       23.669 -29.777   5.979  0.00  0.00    +0.027 C 
ATOM     21  C   LIG    1       25.187 -29.838   6.241  0.00  0.00    +0.011 C 
ATOM     22  C   LIG    1       25.808 -30.854   5.268  0.00  0.00    +0.027 C 
ATOM     23  C   LIG    1       25.398 -30.302   7.693  0.00  0.00    +0.027 C 
ENDBRANCH  18  21
ENDBRANCH  17  18
ENDBRANCH  14  17
ENDBRANCH  13  14
ENDBRANCH   1  13
TORSDOF 8
ENDMDL
MODEL 6
REMARK VINA RESULT:      -7.9      2.788      6.646
REMARK  Name = *****
REMARK                            x       y       z     vdW  Elec       q    Type
REMARK                         _______ _______ _______ _____ _____    ______ ____
ROOT
ATOM      1  O   LIG    1       25.048 -21.320   8.341  0.00  0.00    -0.489 OA
ENDROOT
BRANCH   1   2
ATOM      2  C   LIG    1       24.137 -21.258   7.303  0.00  0.00    +0.124 A 
ATOM      3  C   LIG    1       23.797 -22.444   6.601  0.00  0.00    -0.003 A 
ATOM      4  C   LIG    1       22.917 -22.321   5.515  0.00  0.00    +0.007 A 
ATOM      5  C   LIG    1       22.386 -21.103   5.101  0.00  0.00    +0.001 A 
ATOM      6  C   LIG    1       22.681 -19.960   5.824  0.00  0.00    +0.004 A 
ATOM      7  C   LIG    1       23.522 -20.047   6.923  0.00  0.00    +0.046 A 
BRANCH   3   8
ATOM      8  C   LIG    1       24.332 -23.837   6.964  0.00  0.00    +0.023 C 
ATOM      9  C   LIG    1       23.472 -24.995   6.391  0.00  0.00    +0.008 C 
ATOM     10  C   LIG    1       24.447 -26.150   6.183  0.00  0.00    +0.001 C 
ATOM     11  C   LIG    1       25.673 -25.454   5.628  0.00  0.00    +0.001 C 
ATOM     12  C   LIG    1       25.775 -24.175   6.459  0.00  0.00    +0.008 C 
ENDBRANCH   3   8
ENDBRANCH   1   2
BRANCH   1  13
ATOM     13  C   LIG    1       26.257 -20.538   8.117  0.00  0.00    +0.261 C 
BRANCH  13  14
ATOM     14  C   LIG    1       27.260 -21.209   7.167  0.00  0.00    +0.166 C 
BRANCH  14  15
ATOM     15  O   LIG    1       27.169 -20.635   5.860  0.00  0.00    -0.387 OA
ATOM     16  H   LIG    1       27.874 -21.059   5.333  0.00  0.00    +0.210 HD
ENDBRANCH  14  15
BRANCH  14  17
ATOM     17  C   LIG    1       28.689 -21.108   7.709  0.00  0.00    +0.116 C 
BRANCH  17  18
ATOM     18  N   LIG    1       28.897 -19.855   8.461  0.00  0.00    -0.309 NA
ATOM     19  H   LIG    1       28.153 -19.193   8.226  0.00  0.00    +0.122 HD
BRANCH  18  21
ATOM     20  C   LIG    1       30.185 -17.813   8.842  0.00  0.00    +0.027 C 
ATOM     21  C   LIG    1       30.207 -19.216   8.205  0.00  0.00    +0.011 C 
ATOM     22  C   LIG    1       31.347 -20.024   8.847  0.00  0.00    +0.027 C 
ATOM     23  C   LIG    1       30.465 -19.046   6.697  0.00  0.00    +0.027 C 
ENDBRANCH  18  21
ENDBRANCH  17  18
ENDBRANCH  14  17
ENDBRANCH  13  14
ENDBRANCH   1  13
TORSDOF 8
ENDMDL
MODEL 7
REMARK VINA RESULT:      -7.7      1.240      3.611
REMARK  Name = *****
REMARK                            x       y       z     vdW  Elec       q    Type
REMARK                         _______ _______ _______ _____ _____    ______ ____
ROOT
ATOM      1  O   LIG    1       24.494 -21.558   7.005  0.00  0.00    -0.489 OA
ENDROOT
BRANCH   1   2
ATOM      2  C   LIG    1       24.556 -20.763   5.876  0.00  0.00    +0.124 A 
ATOM      3  C   LIG    1       25.817 -20.303   5.415  0.00  0.00    -0.003 A 
ATOM      4  C   LIG    1       25.825 -19.446   4.303  0.00  0.00    +0.007 A 
ATOM      5  C   LIG    1       24.665 -19.029   3.658  0.00  0.00    +0.001 A 
ATOM      6  C   LIG    1       23.444 -19.524   4.082  0.00  0.00    +0.004 A 
ATOM      7  C   LIG    1       23.399 -20.397   5.157  0.00  0.00    +0.046 A 
BRANCH   3   8
ATOM      8  C   LIG    1       27.158 -20.692   6.057  0.00  0.00    +0.023 C 
ATOM      9  C   LIG    1       28.340 -19.795   5.603  0.00  0.00    +0.008 C 
ATOM     10  C   LIG    1       29.310 -19.790   6.781  0.00  0.00    +0.001 C 
ATOM     11  C   LIG    1       28.385 -19.685   7.976  0.00  0.00    +0.001 C 
ATOM     12  C   LIG    1       27.223 -20.612   7.619  0.00  0.00    +0.008 C 
ENDBRANCH   3   8
ENDBRANCH   1   2
BRANCH   1  13
ATOM     13  C   LIG    1       23.144 -21.969   7.368  0.00  0.00    +0.261 C 
BRANCH  13  14
ATOM     14  C   LIG    1       22.841 -23.441   7.050  0.00  0.00    +0.166 C 
BRANCH  14  15
ATOM     15  O   LIG    1       21.727 -23.537   6.157  0.00  0.00    -0.387 OA
ATOM     16  H   LIG    1       21.891 -24.331   5.612  0.00  0.00    +0.210 HD
ENDBRANCH  14  15
BRANCH  14  17
ATOM     17  C   LIG    1       24.069 -24.147   6.468  0.00  0.00    +0.116 C 
BRANCH  17  18
ATOM     18  N   LIG    1       23.719 -25.462   5.895  0.00  0.00    -0.309 NA
ATOM     19  H   LIG    1       22.939 -25.862   6.420  0.00  0.00    +0.122 HD
BRANCH  18  21
ATOM     20  C   LIG    1       25.872 -25.965   6.937  0.00  0.00    +0.027 C 
ATOM     21  C   LIG    1       24.840 -26.428   5.889  0.00  0.00    +0.011 C 
ATOM     22  C   LIG    1       24.355 -27.836   6.274  0.00  0.00    +0.027 C 
ATOM     23  C   LIG    1       25.542 -26.467   4.520  0.00  0.00    +0.027 C 
ENDBRANCH  18  21
ENDBRANCH  17  18
ENDBRANCH  14  17
ENDBRANCH  13  14
ENDBRANCH   1  13
TORSDOF 8
ENDMDL
MODEL 8
REMARK VINA RESULT:      -7.7      2.205      6.368
REMARK  Name = *****
REMARK                            x       y       z     vdW  Elec       q    Type
REMARK                         _______ _______ _______ _____ _____    ______ ____
ROOT
ATOM      1  O   LIG    1       26.642 -22.659   7.239  0.00  0.00    -0.489 OA
ENDROOT
BRANCH   1   2
ATOM      2  C   LIG    1       25.287 -22.919   7.161  0.00  0.00    +0.124 A 
ATOM      3  C   LIG    1       24.842 -24.135   6.578  0.00  0.00    -0.003 A 
ATOM      4  C   LIG    1       23.457 -24.327   6.463  0.00  0.00    +0.007 A 
ATOM      5  C   LIG    1       22.522 -23.384   6.878  0.00  0.00    +0.001 A 
ATOM      6  C   LIG    1       22.963 -22.225   7.494  0.00  0.00    +0.004 A 
ATOM      7  C   LIG    1       24.324 -22.015   7.654  0.00  0.00    +0.046 A 
BRANCH   3   8
ATOM      8  C   LIG    1       25.786 -25.239   6.076  0.00  0.00    +0.023 C 
ATOM      9  C   LIG    1       25.886 -26.449   7.043  0.00  0.00    +0.008 C 
ATOM     10  C   LIG    1       26.185 -27.648   6.149  0.00  0.00    +0.001 C 
ATOM     11  C   LIG    1       25.288 -27.404   4.952  0.00  0.00    +0.001 C 
ATOM     12  C   LIG    1       25.408 -25.900   4.709  0.00  0.00    +0.008 C 
ENDBRANCH   3   8
ENDBRANCH   1   2
BRANCH   1  13
ATOM     13  C   LIG    1       26.962 -21.299   7.655  0.00  0.00    +0.261 C 
BRANCH  13  14
ATOM     14  C   LIG    1       27.697 -20.482   6.582  0.00  0.00    +0.166 C 
BRANCH  14  15
ATOM     15  O   LIG    1       28.932 -21.115   6.236  0.00  0.00    -0.387 OA
ATOM     16  H   LIG    1       28.806 -21.467   5.333  0.00  0.00    +0.210 HD
ENDBRANCH  14  15
BRANCH  14  17
ATOM     17  C   LIG    1       26.821 -20.278   5.343  0.00  0.00    +0.116 C 
BRANCH  17  18
ATOM     18  N   LIG    1       25.411 -20.035   5.710  0.00  0.00    -0.309 NA
ATOM     19  H   LIG    1       25.113 -20.739   6.389  0.00  0.00    +0.122 HD
BRANCH  18  21
ATOM     20  C   LIG    1       25.030 -19.086   3.489  0.00  0.00    +0.027 C 
ATOM     21  C   LIG    1       24.484 -20.055   4.557  0.00  0.00    +0.011 C 
ATOM     22  C   LIG    1       24.403 -21.462   3.940  0.00  0.00    +0.027 C 
ATOM     23  C   LIG    1       23.078 -19.574   4.957  0.00  0.00    +0.027 C 
ENDBRANCH  18  21
ENDBRANCH  17  18
ENDBRANCH  14  17
ENDBRANCH  13  14
ENDBRANCH   1  13
TORSDOF 8
ENDMDL
MODEL 9
REMARK VINA RESULT:      -7.6      0.887      3.496
REMARK  Name = *****
REMARK                            x       y       z     vdW  Elec       q    Type
REMARK                         _______ _______ _______ _____ _____    ______ ____
ROOT
ATOM      1  O   LIG    1       24.668 -22.282   6.787  0.00  0.00    -0.489 OA
ENDROOT
BRANCH   1   2
ATOM      2  C   LIG    1       24.822 -21.341   5.786  0.00  0.00    +0.124 A 
ATOM      3  C   LIG    1       26.059 -20.657   5.657  0.00  0.00    -0.003 A 
ATOM      4  C   LIG    1       26.149 -19.665   4.668  0.00  0.00    +0.007 A 
ATOM      5  C   LIG    1       25.086 -19.326   3.835  0.00  0.00    +0.001 A 
ATOM      6  C   LIG    1       23.901 -20.034   3.933  0.00  0.00    +0.004 A 
ATOM      7  C   LIG    1       23.787 -21.042   4.877  0.00  0.00    +0.046 A 
BRANCH   3   8
ATOM      8  C   LIG    1       27.292 -20.944   6.529  0.00  0.00    +0.023 C 
ATOM      9  C   LIG    1       28.603 -20.340   5.958  0.00  0.00    +0.008 C 
ATOM     10  C   LIG    1       29.474 -20.056   7.178  0.00  0.00    +0.001 C 
ATOM     11  C   LIG    1       28.478 -19.503   8.177  0.00  0.00    +0.001 C 
ATOM     12  C   LIG    1       27.246 -20.389   7.991  0.00  0.00    +0.008 C 
ENDBRANCH   3   8
ENDBRANCH   1   2
BRANCH   1  13
ATOM     13  C   LIG    1       25.071 -23.629   6.402  0.00  0.00    +0.261 C 
BRANCH  13  14
ATOM     14  C   LIG    1       23.954 -24.673   6.552  0.00  0.00    +0.166 C 
BRANCH  14  15
ATOM     15  O   LIG    1       22.673 -24.038   6.529  0.00  0.00    -0.387 OA
ATOM     16  H   LIG    1       22.734 -23.293   7.159  0.00  0.00    +0.210 HD
ENDBRANCH  14  15
BRANCH  14  17
ATOM     17  C   LIG    1       24.051 -25.747   5.464  0.00  0.00    +0.116 C 
BRANCH  17  18
ATOM     18  N   LIG    1       23.997 -27.106   6.038  0.00  0.00    -0.309 NA
ATOM     19  H   LIG    1       23.618 -27.058   6.986  0.00  0.00    +0.122 HD
BRANCH  18  21
ATOM     20  C   LIG    1       25.076 -29.288   5.806  0.00  0.00    +0.027 C 
ATOM     21  C   LIG    1       25.310 -27.789   6.079  0.00  0.00    +0.011 C 
ATOM     22  C   LIG    1       26.250 -27.238   4.994  0.00  0.00    +0.027 C 
ATOM     23  C   LIG    1       25.968 -27.657   7.464  0.00  0.00    +0.027 C 
ENDBRANCH  18  21
ENDBRANCH  17  18
ENDBRANCH  14  17
ENDBRANCH  13  14
ENDBRANCH   1  13
TORSDOF 8
ENDMDL
