MODEL 1
REMARK VINA RESULT:      -3.8      0.000      0.000
REMARK  Name = *****
REMARK                            x       y       z     vdW  Elec       q    Type
REMARK                         _______ _______ _______ _____ _____    ______ ____
ROOT
ATOM      1  C   LIG    1       27.769 -14.018   3.829  0.00  0.00    +0.181 C 
ATOM      2  C   LIG    1       26.735 -13.559   4.785  0.00  0.00    +0.245 C 
ATOM      3  N   LIG    1       25.564 -13.278   4.338  0.00  0.00    -0.049 NA
ATOM      4  O   LIG    1       25.627 -13.505   2.938  0.00  0.00    -0.389 OA
ATOM      5  C   LIG    1       26.817 -14.268   2.669  0.00  0.00    +0.290 C 
ENDROOT
BRANCH   1   6
ATOM      6  N   LIG    1       28.767 -12.962   3.593  0.00  0.00    -0.317 NA
ATOM      7  H   LIG    1       28.595 -12.549   2.675  0.00  0.00    +0.119 HD
ATOM      8  H   LIG    1       28.650 -12.218   4.277  0.00  0.00    +0.119 HD
ENDBRANCH   1   6
BRANCH   2   9
ATOM      9  O   LIG    1       27.040 -13.434   6.075  0.00  0.00    -0.492 OA
ATOM     10  H   LIG    1       26.203 -13.433   6.571  0.00  0.00    +0.293 HD
ENDBRANCH   2   9
TORSDOF 2
ENDMDL
MODEL 2
REMARK VINA RESULT:      -3.8      2.270      2.581
REMARK  Name = *****
REMARK                            x       y       z     vdW  Elec       q    Type
REMARK                         _______ _______ _______ _____ _____    ______ ____
ROOT
ATOM      1  C   LIG    1       25.576 -14.210   4.140  0.00  0.00    +0.181 C 
ATOM      2  C   LIG    1       25.001 -13.358   3.072  0.00  0.00    +0.245 C 
ATOM      3  N   LIG    1       25.539 -13.386   1.906  0.00  0.00    -0.049 NA
ATOM      4  O   LIG    1       26.621 -14.299   2.009  0.00  0.00    -0.389 OA
ATOM      5  C   LIG    1       26.448 -15.053   3.222  0.00  0.00    +0.290 C 
ENDROOT
BRANCH   1   6
ATOM      6  N   LIG    1       26.313 -13.394   5.118  0.00  0.00    -0.317 NA
ATOM      7  H   LIG    1       26.563 -13.984   5.913  0.00  0.00    +0.119 HD
ATOM      8  H   LIG    1       27.186 -13.069   4.708  0.00  0.00    +0.119 HD
ENDBRANCH   1   6
BRANCH   2   9
ATOM      9  O   LIG    1       23.958 -12.578   3.344  0.00  0.00    -0.492 OA
ATOM     10  H   LIG    1       23.451 -13.010   4.054  0.00  0.00    +0.293 HD
ENDBRANCH   2   9
TORSDOF 2
ENDMDL
MODEL 3
REMARK VINA RESULT:      -3.7      1.971      2.311
REMARK  Name = *****
REMARK                            x       y       z     vdW  Elec       q    Type
REMARK                         _______ _______ _______ _____ _____    ______ ____
ROOT
ATOM      1  C   LIG    1       27.160 -14.515   3.156  0.00  0.00    +0.181 C 
ATOM      2  C   LIG    1       28.078 -13.566   3.828  0.00  0.00    +0.245 C 
ATOM      3  N   LIG    1       27.652 -12.920   4.854  0.00  0.00    -0.049 NA
ATOM      4  O   LIG    1       26.311 -13.345   5.040  0.00  0.00    -0.389 OA
ATOM      5  C   LIG    1       26.113 -14.537   4.259  0.00  0.00    +0.290 C 
ENDROOT
BRANCH   1   6
ATOM      6  N   LIG    1       26.694 -13.969   1.871  0.00  0.00    -0.317 NA
ATOM      7  H   LIG    1       27.475 -13.971   1.213  0.00  0.00    +0.119 HD
ATOM      8  H   LIG    1       25.977 -14.575   1.479  0.00  0.00    +0.119 HD
ENDBRANCH   1   6
BRANCH   2   9
ATOM      9  O   LIG    1       29.309 -13.393   3.353  0.00  0.00    -0.492 OA
ATOM     10  H   LIG    1       29.564 -14.218   2.905  0.00  0.00    +0.293 HD
ENDBRANCH   2   9
TORSDOF 2
ENDMDL
MODEL 4
REMARK VINA RESULT:      -3.7      2.043      2.903
REMARK  Name = *****
REMARK                            x       y       z     vdW  Elec       q    Type
REMARK                         _______ _______ _______ _____ _____    ______ ____
ROOT
ATOM      1  C   LIG    1       26.145 -13.245   2.973  0.00  0.00    +0.181 C 
ATOM      2  C   LIG    1       24.675 -13.132   2.824  0.00  0.00    +0.245 C 
ATOM      3  N   LIG    1       23.923 -13.736   3.673  0.00  0.00    -0.049 NA
ATOM      4  O   LIG    1       24.809 -14.391   4.568  0.00  0.00    -0.389 OA
ATOM      5  C   LIG    1       26.121 -13.834   4.376  0.00  0.00    +0.290 C 
ENDROOT
BRANCH   1   6
ATOM      6  N   LIG    1       26.708 -14.130   1.940  0.00  0.00    -0.317 NA
ATOM      7  H   LIG    1       27.048 -14.981   2.389  0.00  0.00    +0.119 HD
ATOM      8  H   LIG    1       25.977 -14.411   1.291  0.00  0.00    +0.119 HD
ENDBRANCH   1   6
BRANCH   2   9
ATOM      9  O   LIG    1       24.169 -12.427   1.816  0.00  0.00    -0.492 OA
ATOM     10  H   LIG    1       23.234 -12.682   1.727  0.00  0.00    +0.293 HD
ENDBRANCH   2   9
TORSDOF 2
ENDMDL
MODEL 5
REMARK VINA RESULT:      -3.7      1.453      2.391
REMARK  Name = *****
REMARK                            x       y       z     vdW  Elec       q    Type
REMARK                         _______ _______ _______ _____ _____    ______ ____
ROOT
ATOM      1  C   LIG    1       25.258 -13.305   3.730  0.00  0.00    +0.181 C 
ATOM      2  C   LIG    1       26.633 -13.623   4.182  0.00  0.00    +0.245 C 
ATOM      3  N   LIG    1       27.466 -14.103   3.329  0.00  0.00    -0.049 NA
ATOM      4  O   LIG    1       26.747 -14.199   2.109  0.00  0.00    -0.389 OA
ATOM      5  C   LIG    1       25.548 -13.414   2.241  0.00  0.00    +0.290 C 
ENDROOT
BRANCH   1   6
ATOM      6  N   LIG    1       24.297 -14.293   4.247  0.00  0.00    -0.317 NA
ATOM      7  H   LIG    1       24.101 -14.076   5.225  0.00  0.00    +0.119 HD
ATOM      8  H   LIG    1       23.416 -14.213   3.744  0.00  0.00    +0.119 HD
ENDBRANCH   1   6
BRANCH   2   9
ATOM      9  O   LIG    1       26.971 -13.420   5.453  0.00  0.00    -0.492 OA
ATOM     10  H   LIG    1       27.938 -13.317   5.481  0.00  0.00    +0.293 HD
ENDBRANCH   2   9
TORSDOF 2
ENDMDL
MODEL 6
REMARK VINA RESULT:      -3.7      2.024      2.402
REMARK  Name = *****
REMARK                            x       y       z     vdW  Elec       q    Type
REMARK                         _______ _______ _______ _____ _____    ______ ____
ROOT
ATOM      1  C   LIG    1       26.293 -13.298   4.447  0.00  0.00    +0.181 C 
ATOM      2  C   LIG    1       27.148 -13.930   3.416  0.00  0.00    +0.245 C 
ATOM      3  N   LIG    1       26.775 -15.050   2.909  0.00  0.00    -0.049 NA
ATOM      4  O   LIG    1       25.554 -15.372   3.556  0.00  0.00    -0.389 OA
ATOM      5  C   LIG    1       25.079 -14.185   4.216  0.00  0.00    +0.290 C 
ENDROOT
BRANCH   1   6
ATOM      6  N   LIG    1       26.905 -13.420   5.780  0.00  0.00    -0.317 NA
ATOM      7  H   LIG    1       26.883 -14.401   6.060  0.00  0.00    +0.119 HD
ATOM      8  H   LIG    1       27.884 -13.148   5.736  0.00  0.00    +0.119 HD
ENDBRANCH   1   6
BRANCH   2   9
ATOM      9  O   LIG    1       28.283 -13.339   3.049  0.00  0.00    -0.492 OA
ATOM     10  H   LIG    1       29.013 -13.836   3.458  0.00  0.00    +0.293 HD
ENDBRANCH   2   9
TORSDOF 2
ENDMDL
MODEL 7
REMARK VINA RESULT:      -3.6      1.155      3.026
REMARK  Name = *****
REMARK                            x       y       z     vdW  Elec       q    Type
REMARK                         _______ _______ _______ _____ _____    ______ ____
ROOT
ATOM      1  C   LIG    1       25.943 -13.926   4.050  0.00  0.00    +0.181 C 
ATOM      2  C   LIG    1       27.086 -13.811   3.114  0.00  0.00    +0.245 C 
ATOM      3  N   LIG    1       28.181 -13.291   3.540  0.00  0.00    -0.049 NA
ATOM      4  O   LIG    1       27.935 -12.945   4.895  0.00  0.00    -0.389 OA
ATOM      5  C   LIG    1       26.736 -13.624   5.312  0.00  0.00    +0.290 C 
ENDROOT
BRANCH   1   6
ATOM      6  N   LIG    1       24.900 -12.940   3.723  0.00  0.00    -0.317 NA
ATOM      7  H   LIG    1       24.312 -13.321   2.981  0.00  0.00    +0.119 HD
ATOM      8  H   LIG    1       24.299 -12.794   4.531  0.00  0.00    +0.119 HD
ENDBRANCH   1   6
BRANCH   2   9
ATOM      9  O   LIG    1       26.954 -14.233   1.859  0.00  0.00    -0.492 OA
ATOM     10  H   LIG    1       27.804 -14.628   1.596  0.00  0.00    +0.293 HD
ENDBRANCH   2   9
TORSDOF 2
ENDMDL
MODEL 8
REMARK VINA RESULT:      -3.6      2.109      3.275
REMARK  Name = *****
REMARK                            x       y       z     vdW  Elec       q    Type
REMARK                         _______ _______ _______ _____ _____    ______ ____
ROOT
ATOM      1  C   LIG    1       24.437 -13.328   2.723  0.00  0.00    +0.181 C 
ATOM      2  C   LIG    1       25.859 -13.715   2.872  0.00  0.00    +0.245 C 
ATOM      3  N   LIG    1       26.427 -13.544   4.012  0.00  0.00    -0.049 NA
ATOM      4  O   LIG    1       25.432 -12.979   4.851  0.00  0.00    -0.389 OA
ATOM      5  C   LIG    1       24.157 -13.162   4.209  0.00  0.00    +0.290 C 
ENDROOT
BRANCH   1   6
ATOM      6  N   LIG    1       24.311 -12.096   1.928  0.00  0.00    -0.317 NA
ATOM      7  H   LIG    1       25.006 -11.424   2.257  0.00  0.00    +0.119 HD
ATOM      8  H   LIG    1       24.528 -12.291   0.953  0.00  0.00    +0.119 HD
ENDBRANCH   1   6
BRANCH   2   9
ATOM      9  O   LIG    1       26.518 -14.213   1.829  0.00  0.00    -0.492 OA
ATOM     10  H   LIG    1       27.462 -14.014   1.962  0.00  0.00    +0.293 HD
ENDBRANCH   2   9
TORSDOF 2
ENDMDL
MODEL 9
REMARK VINA RESULT:      -3.6      1.872      2.149
REMARK  Name = *****
REMARK                            x       y       z     vdW  Elec       q    Type
REMARK                         _______ _______ _______ _____ _____    ______ ____
ROOT
ATOM      1  C   LIG    1       26.674 -13.930   2.430  0.00  0.00    +0.181 C 
ATOM      2  C   LIG    1       26.019 -14.978   3.247  0.00  0.00    +0.245 C 
ATOM      3  N   LIG    1       24.965 -14.670   3.914  0.00  0.00    -0.049 NA
ATOM      4  O   LIG    1       24.737 -13.294   3.649  0.00  0.00    -0.389 OA
ATOM      5  C   LIG    1       25.533 -12.927   2.508  0.00  0.00    +0.290 C 
ENDROOT
BRANCH   1   6
ATOM      6  N   LIG    1       27.930 -13.488   3.059  0.00  0.00    -0.317 NA
ATOM      7  H   LIG    1       28.507 -14.308   3.246  0.00  0.00    +0.119 HD
ATOM      8  H   LIG    1       28.452 -12.902   2.411  0.00  0.00    +0.119 HD
ENDBRANCH   1   6
BRANCH   2   9
ATOM      9  O   LIG    1       26.537 -16.203   3.283  0.00  0.00    -0.492 OA
ATOM     10  H   LIG    1       27.314 -16.171   3.868  0.00  0.00    +0.293 HD
ENDBRANCH   2   9
TORSDOF 2
ENDMDL
