MODEL 1
REMARK VINA RESULT:      -6.1      0.000      0.000
REMARK  Name = *****
REMARK                            x       y       z     vdW  Elec       q    Type
REMARK                         _______ _______ _______ _____ _____    ______ ____
ROOT
ATOM      1  N   UNK A  1       24.772 -31.101   8.586  0.00  0.00    -0.296 N 
ATOM      2  H   UNK A  1       25.486 -30.377   8.548  0.00  0.00    +0.150 HD
ATOM      3  C   UNK A  0       24.252 -31.506   7.369  0.00  0.00    +0.268 C 
ATOM      4  O   UNK A  0       23.282 -32.243   7.280  0.00  0.00    -0.268 OA
ENDROOT
BRANCH   1  12
ATOM      5  C   UNK A  1       23.637 -28.613  12.830  0.00  0.00    -0.010 C 
ATOM      6  C   UNK A  1       25.096 -28.465  12.449  0.00  0.00    +0.108 C 
ATOM      7  S   UNK A  1       25.518 -29.208  10.858  0.00  0.00    -0.131 S 
ATOM      8  C   UNK A  1       24.714 -30.797  11.193  0.00  0.00    +0.169 C 
ATOM      9  N   UNK A  1       23.310 -30.614  11.557  0.00  0.00    -0.249 N 
ATOM     10  C   UNK A  1       22.843 -30.948  10.329  0.00  0.00    +0.244 C 
ATOM     11  O   UNK A  1       21.735 -30.731   9.856  0.00  0.00    -0.273 OA
ATOM     12  C   UNK A  1       24.205 -31.539   9.899  0.00  0.00    +0.191 C 
ATOM     13  C   UNK A  1       22.831 -29.613  12.391  0.00  0.00    +0.126 C 
BRANCH   5  15
ATOM     14  C   UNK A  1       22.557 -26.418  13.249  0.00  0.00    +0.009 C 
ATOM     15  C   UNK A  1       23.241 -27.486  13.679  0.00  0.00    -0.001 C 
ENDBRANCH   5  15
BRANCH  13  16
ATOM     16  C   UNK A  1       21.389 -29.716  12.871  0.00  0.00    +0.352 C 
ATOM     17  O   UNK A  1       21.024 -30.394  13.820  0.00  0.00    -0.244 OA
BRANCH  16  18
ATOM     18  O   UNK A  1       20.473 -29.095  12.094  0.00  0.00    -0.476 OA
ATOM     19  H   UNK A  1       20.408 -29.430  11.174  0.00  0.00    +0.295 HD
ENDBRANCH  16  18
ENDBRANCH  13  16
ENDBRANCH   1  12
BRANCH   3  20
ATOM     20  C   UNK A  0       25.019 -31.005   6.121  0.00  0.00    +0.190 C 
ATOM     21  N   UNK A  0       25.089 -29.750   5.751  0.00  0.00    -0.077 NA
BRANCH  20  22
ATOM     22  C   UNK A  0       25.731 -31.953   5.253  0.00  0.00    +0.107 A 
ATOM     23  N   UNK A  0       25.442 -32.064   3.898  0.00  0.00    -0.223 NA
ATOM     24  C   UNK A  0       26.229 -32.931   3.315  0.00  0.00    +0.156 A 
ATOM     25  S   UNK A  0       27.373 -33.685   4.345  0.00  0.00    -0.060 S 
ATOM     26  C   UNK A  0       26.768 -32.775   5.665  0.00  0.00    +0.078 A 
BRANCH  24  27
ATOM     27  N   UNK A  0       26.164 -33.212   2.005  0.00  0.00    -0.338 N 
ATOM     28  H   UNK A  0       26.296 -32.425   1.379  0.00  0.00    +0.144 HD
ATOM     29  H   UNK A  0       26.543 -34.088   1.670  0.00  0.00    +0.144 HD
ENDBRANCH  24  27
ENDBRANCH  20  22
BRANCH  21  30
ATOM     30  O   UNK A  0       24.306 -28.864   6.505  0.00  0.00    -0.382 OA
BRANCH  30  31
ATOM     31  C   UNK A  0       24.477 -27.543   5.978  0.00  0.00    +0.382 C 
BRANCH  31  32
ATOM     32  C   UNK A  0       25.866 -27.015   6.292  0.00  0.00    +0.345 C 
ATOM     33  O   UNK A  0       26.422 -26.137   5.647  0.00  0.00    -0.247 OA
BRANCH  32  34
ATOM     34  O   UNK A  0       26.420 -27.541   7.411  0.00  0.00    -0.478 OA
ATOM     35  H   UNK A  0       26.175 -27.041   8.216  0.00  0.00    +0.295 HD
ENDBRANCH  32  34
ENDBRANCH  31  32
ENDBRANCH  30  31
ENDBRANCH  21  30
ENDBRANCH   3  20
TORSDOF 11
ENDMDL
MODEL 2
REMARK VINA RESULT:      -5.8      1.329      1.564
REMARK  Name = *****
REMARK                            x       y       z     vdW  Elec       q    Type
REMARK                         _______ _______ _______ _____ _____    ______ ____
ROOT
ATOM      1  N   UNK A  1       25.444 -30.641   8.560  0.00  0.00    -0.296 N 
ATOM      2  H   UNK A  1       26.186 -29.997   8.298  0.00  0.00    +0.150 HD
ATOM      3  C   UNK A  0       24.636 -31.088   7.527  0.00  0.00    +0.268 C 
ATOM      4  O   UNK A  0       23.616 -31.730   7.720  0.00  0.00    -0.268 OA
ENDROOT
BRANCH   1  12
ATOM      5  C   UNK A  1       25.355 -27.698  12.661  0.00  0.00    -0.010 C 
ATOM      6  C   UNK A  1       26.705 -27.687  11.973  0.00  0.00    +0.108 C 
ATOM      7  S   UNK A  1       26.743 -28.601  10.417  0.00  0.00    -0.131 S 
ATOM      8  C   UNK A  1       25.955 -30.093  11.075  0.00  0.00    +0.169 C 
ATOM      9  N   UNK A  1       24.671 -29.783  11.700  0.00  0.00    -0.249 N 
ATOM     10  C   UNK A  1       23.938 -30.196  10.638  0.00  0.00    +0.244 C 
ATOM     11  O   UNK A  1       22.767 -29.949  10.383  0.00  0.00    -0.273 OA
ATOM     12  C   UNK A  1       25.148 -30.916  10.000  0.00  0.00    +0.191 C 
ATOM     13  C   UNK A  1       24.427 -28.678  12.505  0.00  0.00    +0.126 C 
BRANCH   5  15
ATOM     14  C   UNK A  1       25.713 -26.291  14.674  0.00  0.00    +0.009 C 
ATOM     15  C   UNK A  1       25.201 -26.473  13.450  0.00  0.00    -0.001 C 
ENDBRANCH   5  15
BRANCH  13  16
ATOM     16  C   UNK A  1       23.117 -28.637  13.281  0.00  0.00    +0.352 C 
ATOM     17  O   UNK A  1       22.935 -29.187  14.357  0.00  0.00    -0.244 OA
BRANCH  16  18
ATOM     18  O   UNK A  1       22.083 -28.044  12.643  0.00  0.00    -0.476 OA
ATOM     19  H   UNK A  1       21.217 -28.496  12.739  0.00  0.00    +0.295 HD
ENDBRANCH  16  18
ENDBRANCH  13  16
ENDBRANCH   1  12
BRANCH   3  20
ATOM     20  C   UNK A  0       25.145 -30.766   6.101  0.00  0.00    +0.190 C 
ATOM     21  N   UNK A  0       25.047 -29.591   5.530  0.00  0.00    -0.077 NA
BRANCH  20  22
ATOM     22  C   UNK A  0       25.785 -31.806   5.285  0.00  0.00    +0.107 A 
ATOM     23  N   UNK A  0       25.452 -31.997   3.949  0.00  0.00    -0.223 NA
ATOM     24  C   UNK A  0       26.179 -32.941   3.410  0.00  0.00    +0.156 A 
ATOM     25  S   UNK A  0       27.315 -33.678   4.460  0.00  0.00    -0.060 S 
ATOM     26  C   UNK A  0       26.793 -32.648   5.728  0.00  0.00    +0.078 A 
BRANCH  24  27
ATOM     27  N   UNK A  0       26.062 -33.309   2.125  0.00  0.00    -0.338 N 
ATOM     28  H   UNK A  0       25.889 -34.294   1.962  0.00  0.00    +0.144 HD
ATOM     29  H   UNK A  0       25.600 -32.685   1.475  0.00  0.00    +0.144 HD
ENDBRANCH  24  27
ENDBRANCH  20  22
BRANCH  21  30
ATOM     30  O   UNK A  0       24.324 -28.635   6.257  0.00  0.00    -0.382 OA
BRANCH  30  31
ATOM     31  C   UNK A  0       25.169 -27.501   6.486  0.00  0.00    +0.382 C 
BRANCH  31  32
ATOM     32  C   UNK A  0       24.897 -26.413   5.462  0.00  0.00    +0.345 C 
ATOM     33  O   UNK A  0       25.723 -26.021   4.650  0.00  0.00    -0.247 OA
BRANCH  32  34
ATOM     34  O   UNK A  0       23.621 -25.959   5.461  0.00  0.00    -0.478 OA
ATOM     35  H   UNK A  0       23.023 -26.534   4.942  0.00  0.00    +0.295 HD
ENDBRANCH  32  34
ENDBRANCH  31  32
ENDBRANCH  30  31
ENDBRANCH  21  30
ENDBRANCH   3  20
TORSDOF 11
ENDMDL
MODEL 3
REMARK VINA RESULT:      -5.7      2.509      4.136
REMARK  Name = *****
REMARK                            x       y       z     vdW  Elec       q    Type
REMARK                         _______ _______ _______ _____ _____    ______ ____
ROOT
ATOM      1  N   UNK A  1       25.445 -30.246   8.419  0.00  0.00    -0.296 N 
ATOM      2  H   UNK A  1       26.157 -29.544   8.235  0.00  0.00    +0.150 HD
ATOM      3  C   UNK A  0       24.646 -30.596   7.343  0.00  0.00    +0.268 C 
ATOM      4  O   UNK A  0       23.655 -31.299   7.460  0.00  0.00    -0.268 OA
ENDROOT
BRANCH   1  12
ATOM      5  C   UNK A  1       25.206 -27.822  12.841  0.00  0.00    -0.010 C 
ATOM      6  C   UNK A  1       26.549 -27.649  12.161  0.00  0.00    +0.108 C 
ATOM      7  S   UNK A  1       26.632 -28.367  10.507  0.00  0.00    -0.131 S 
ATOM      8  C   UNK A  1       25.937 -29.972  10.982  0.00  0.00    +0.169 C 
ATOM      9  N   UNK A  1       24.641 -29.815  11.638  0.00  0.00    -0.249 N 
ATOM     10  C   UNK A  1       23.928 -30.141  10.533  0.00  0.00    +0.244 C 
ATOM     11  O   UNK A  1       22.742 -29.936  10.309  0.00  0.00    -0.273 OA
ATOM     12  C   UNK A  1       25.174 -30.707   9.816  0.00  0.00    +0.191 C 
ATOM     13  C   UNK A  1       24.337 -28.830  12.569  0.00  0.00    +0.126 C 
BRANCH   5  15
ATOM     14  C   UNK A  1       25.489 -25.480  13.613  0.00  0.00    +0.009 C 
ATOM     15  C   UNK A  1       24.985 -26.711  13.770  0.00  0.00    -0.001 C 
ENDBRANCH   5  15
BRANCH  13  16
ATOM     16  C   UNK A  1       23.031 -28.960  13.343  0.00  0.00    +0.352 C 
ATOM     17  O   UNK A  1       22.885 -29.654  14.338  0.00  0.00    -0.244 OA
BRANCH  16  18
ATOM     18  O   UNK A  1       21.964 -28.344  12.787  0.00  0.00    -0.476 OA
ATOM     19  H   UNK A  1       21.989 -27.363  12.806  0.00  0.00    +0.295 HD
ENDBRANCH  16  18
ENDBRANCH  13  16
ENDBRANCH   1  12
BRANCH   3  20
ATOM     20  C   UNK A  0       25.128 -30.081   5.965  0.00  0.00    +0.190 C 
ATOM     21  N   UNK A  0       25.570 -30.852   5.002  0.00  0.00    -0.077 NA
BRANCH  20  22
ATOM     22  C   UNK A  0       25.115 -28.644   5.659  0.00  0.00    +0.107 A 
ATOM     23  N   UNK A  0       24.285 -27.759   6.337  0.00  0.00    -0.223 NA
ATOM     24  C   UNK A  0       24.477 -26.528   5.937  0.00  0.00    +0.156 A 
ATOM     25  S   UNK A  0       25.662 -26.336   4.714  0.00  0.00    -0.060 S 
ATOM     26  C   UNK A  0       25.939 -28.027   4.731  0.00  0.00    +0.078 A 
BRANCH  24  27
ATOM     27  N   UNK A  0       23.808 -25.483   6.446  0.00  0.00    -0.338 N 
ATOM     28  H   UNK A  0       24.376 -24.771   6.892  0.00  0.00    +0.144 HD
ATOM     29  H   UNK A  0       22.998 -25.130   5.952  0.00  0.00    +0.144 HD
ENDBRANCH  24  27
ENDBRANCH  20  22
BRANCH  21  30
ATOM     30  O   UNK A  0       25.702 -32.207   5.338  0.00  0.00    -0.382 OA
BRANCH  30  31
ATOM     31  C   UNK A  0       26.438 -32.865   4.301  0.00  0.00    +0.382 C 
BRANCH  31  32
ATOM     32  C   UNK A  0       25.630 -32.911   3.015  0.00  0.00    +0.345 C 
ATOM     33  O   UNK A  0       26.096 -32.669   1.910  0.00  0.00    -0.247 OA
BRANCH  32  34
ATOM     34  O   UNK A  0       24.352 -33.329   3.177  0.00  0.00    -0.478 OA
ATOM     35  H   UNK A  0       23.777 -32.628   3.544  0.00  0.00    +0.295 HD
ENDBRANCH  32  34
ENDBRANCH  31  32
ENDBRANCH  30  31
ENDBRANCH  21  30
ENDBRANCH   3  20
TORSDOF 11
ENDMDL
MODEL 4
REMARK VINA RESULT:      -5.5      8.437     11.762
REMARK  Name = *****
REMARK                            x       y       z     vdW  Elec       q    Type
REMARK                         _______ _______ _______ _____ _____    ______ ____
ROOT
ATOM      1  N   UNK A  1       27.738 -20.550   7.999  0.00  0.00    -0.296 N 
ATOM      2  H   UNK A  1       27.266 -19.751   7.584  0.00  0.00    +0.150 HD
ATOM      3  C   UNK A  0       29.121 -20.480   8.049  0.00  0.00    +0.268 C 
ATOM      4  O   UNK A  0       29.817 -21.430   8.368  0.00  0.00    -0.268 OA
ENDROOT
BRANCH   1  12
ATOM      5  C   UNK A  1       23.215 -22.294   6.589  0.00  0.00    -0.010 C 
ATOM      6  C   UNK A  1       23.127 -20.932   7.247  0.00  0.00    +0.108 C 
ATOM      7  S   UNK A  1       24.732 -20.198   7.630  0.00  0.00    -0.131 S 
ATOM      8  C   UNK A  1       25.406 -21.672   8.439  0.00  0.00    +0.169 C 
ATOM      9  N   UNK A  1       25.336 -22.838   7.560  0.00  0.00    -0.249 N 
ATOM     10  C   UNK A  1       26.640 -22.773   7.200  0.00  0.00    +0.244 C 
ATOM     11  O   UNK A  1       27.191 -23.307   6.247  0.00  0.00    -0.273 OA
ATOM     12  C   UNK A  1       26.975 -21.790   8.344  0.00  0.00    +0.191 C 
ATOM     13  C   UNK A  1       24.257 -23.151   6.743  0.00  0.00    +0.126 C 
BRANCH   5  15
ATOM     14  C   UNK A  1       21.512 -21.551   4.943  0.00  0.00    +0.009 C 
ATOM     15  C   UNK A  1       22.044 -22.495   5.731  0.00  0.00    -0.001 C 
ENDBRANCH   5  15
BRANCH  13  16
ATOM     16  C   UNK A  1       24.236 -24.526   6.087  0.00  0.00    +0.352 C 
ATOM     17  O   UNK A  1       23.759 -25.528   6.601  0.00  0.00    -0.244 OA
BRANCH  16  18
ATOM     18  O   UNK A  1       24.904 -24.621   4.916  0.00  0.00    -0.476 OA
ATOM     19  H   UNK A  1       25.865 -24.426   4.965  0.00  0.00    +0.295 HD
ENDBRANCH  16  18
ENDBRANCH  13  16
ENDBRANCH   1  12
BRANCH   3  20
ATOM     20  C   UNK A  0       29.725 -19.092   7.725  0.00  0.00    +0.190 C 
ATOM     21  N   UNK A  0       29.643 -18.505   6.556  0.00  0.00    -0.077 NA
BRANCH  20  22
ATOM     22  C   UNK A  0       30.452 -18.337   8.754  0.00  0.00    +0.107 A 
ATOM     23  N   UNK A  0       31.532 -17.521   8.437  0.00  0.00    -0.223 NA
ATOM     24  C   UNK A  0       31.993 -16.911   9.499  0.00  0.00    +0.156 A 
ATOM     25  S   UNK A  0       31.171 -17.268  10.960  0.00  0.00    -0.060 S 
ATOM     26  C   UNK A  0       30.119 -18.314  10.099  0.00  0.00    +0.078 A 
BRANCH  24  27
ATOM     27  N   UNK A  0       33.025 -16.055   9.459  0.00  0.00    -0.338 N 
ATOM     28  H   UNK A  0       32.782 -15.071   9.446  0.00  0.00    +0.144 HD
ATOM     29  H   UNK A  0       33.867 -16.276   9.975  0.00  0.00    +0.144 HD
ENDBRANCH  24  27
ENDBRANCH  20  22
BRANCH  21  30
ATOM     30  O   UNK A  0       29.062 -19.279   5.542  0.00  0.00    -0.382 OA
BRANCH  30  31
ATOM     31  C   UNK A  0       28.101 -18.475   4.848  0.00  0.00    +0.382 C 
BRANCH  31  32
ATOM     32  C   UNK A  0       26.846 -19.276   4.546  0.00  0.00    +0.345 C 
ATOM     33  O   UNK A  0       25.902 -18.844   3.900  0.00  0.00    -0.247 OA
BRANCH  32  34
ATOM     34  O   UNK A  0       26.888 -20.557   4.983  0.00  0.00    -0.478 OA
ATOM     35  H   UNK A  0       27.630 -20.714   5.601  0.00  0.00    +0.295 HD
ENDBRANCH  32  34
ENDBRANCH  31  32
ENDBRANCH  30  31
ENDBRANCH  21  30
ENDBRANCH   3  20
TORSDOF 11
ENDMDL
MODEL 5
REMARK VINA RESULT:      -5.4      3.195      4.567
REMARK  Name = *****
REMARK                            x       y       z     vdW  Elec       q    Type
REMARK                         _______ _______ _______ _____ _____    ______ ____
ROOT
ATOM      1  N   UNK A  1       22.777 -30.108  11.447  0.00  0.00    -0.296 N 
ATOM      2  H   UNK A  1       22.470 -29.289  10.928  0.00  0.00    +0.150 HD
ATOM      3  C   UNK A  0       23.857 -30.793  10.915  0.00  0.00    +0.268 C 
ATOM      4  O   UNK A  0       24.224 -31.877  11.342  0.00  0.00    -0.268 OA
ENDROOT
BRANCH   1  12
ATOM      5  C   UNK A  1       19.282 -27.990  14.411  0.00  0.00    -0.010 C 
ATOM      6  C   UNK A  1       20.602 -27.247  14.456  0.00  0.00    +0.108 C 
ATOM      7  S   UNK A  1       21.837 -27.873  13.297  0.00  0.00    -0.131 S 
ATOM      8  C   UNK A  1       21.637 -29.614  13.759  0.00  0.00    +0.169 C 
ATOM      9  N   UNK A  1       20.245 -30.040  13.632  0.00  0.00    -0.249 N 
ATOM     10  C   UNK A  1       20.436 -30.661  12.444  0.00  0.00    +0.244 C 
ATOM     11  O   UNK A  1       19.594 -31.005  11.625  0.00  0.00    -0.273 OA
ATOM     12  C   UNK A  1       21.973 -30.625  12.597  0.00  0.00    +0.191 C 
ATOM     13  C   UNK A  1       19.146 -29.281  14.013  0.00  0.00    +0.126 C 
BRANCH   5  15
ATOM     14  C   UNK A  1       17.691 -26.127  14.006  0.00  0.00    +0.009 C 
ATOM     15  C   UNK A  1       18.200 -27.080  14.798  0.00  0.00    -0.001 C 
ENDBRANCH   5  15
BRANCH  13  16
ATOM     16  C   UNK A  1       17.786 -29.967  14.053  0.00  0.00    +0.352 C 
ATOM     17  O   UNK A  1       17.378 -30.635  14.991  0.00  0.00    -0.244 OA
BRANCH  16  18
ATOM     18  O   UNK A  1       17.071 -29.904  12.908  0.00  0.00    -0.476 OA
ATOM     19  H   UNK A  1       16.302 -30.513  12.860  0.00  0.00    +0.295 HD
ENDBRANCH  16  18
ENDBRANCH  13  16
ENDBRANCH   1  12
BRANCH   3  20
ATOM     20  C   UNK A  0       24.608 -30.064   9.775  0.00  0.00    +0.190 C 
ATOM     21  N   UNK A  0       25.513 -29.135   9.963  0.00  0.00    -0.077 NA
BRANCH  20  22
ATOM     22  C   UNK A  0       24.328 -30.389   8.370  0.00  0.00    +0.107 A 
ATOM     23  N   UNK A  0       24.089 -29.399   7.423  0.00  0.00    -0.223 NA
ATOM     24  C   UNK A  0       23.913 -29.914   6.234  0.00  0.00    +0.156 A 
ATOM     25  S   UNK A  0       24.014 -31.623   6.156  0.00  0.00    -0.060 S 
ATOM     26  C   UNK A  0       24.322 -31.670   7.842  0.00  0.00    +0.078 A 
BRANCH  24  27
ATOM     27  N   UNK A  0       23.680 -29.169   5.143  0.00  0.00    -0.338 N 
ATOM     28  H   UNK A  0       24.502 -28.805   4.674  0.00  0.00    +0.144 HD
ATOM     29  H   UNK A  0       22.919 -29.424   4.527  0.00  0.00    +0.144 HD
ENDBRANCH  24  27
ENDBRANCH  20  22
BRANCH  21  30
ATOM     30  O   UNK A  0       25.688 -28.736  11.296  0.00  0.00    -0.382 OA
BRANCH  30  31
ATOM     31  C   UNK A  0       27.035 -28.277  11.461  0.00  0.00    +0.382 C 
BRANCH  31  32
ATOM     32  C   UNK A  0       27.989 -29.450  11.603  0.00  0.00    +0.345 C 
ATOM     33  O   UNK A  0       28.600 -29.711  12.630  0.00  0.00    -0.247 OA
BRANCH  32  34
ATOM     34  O   UNK A  0       28.052 -30.249  10.511  0.00  0.00    -0.478 OA
ATOM     35  H   UNK A  0       28.344 -31.156  10.731  0.00  0.00    +0.295 HD
ENDBRANCH  32  34
ENDBRANCH  31  32
ENDBRANCH  30  31
ENDBRANCH  21  30
ENDBRANCH   3  20
TORSDOF 11
ENDMDL
MODEL 6
REMARK VINA RESULT:      -5.4      4.938      8.090
REMARK  Name = *****
REMARK                            x       y       z     vdW  Elec       q    Type
REMARK                         _______ _______ _______ _____ _____    ______ ____
ROOT
ATOM      1  N   UNK A  1       26.092 -25.084   6.578  0.00  0.00    -0.296 N 
ATOM      2  H   UNK A  1       26.272 -24.918   7.564  0.00  0.00    +0.150 HD
ATOM      3  C   UNK A  0       25.445 -24.065   5.898  0.00  0.00    +0.268 C 
ATOM      4  O   UNK A  0       25.026 -24.197   4.759  0.00  0.00    -0.268 OA
ENDROOT
BRANCH   1  12
ATOM      5  C   UNK A  1       25.182 -29.785   8.177  0.00  0.00    -0.010 C 
ATOM      6  C   UNK A  1       26.065 -29.011   9.136  0.00  0.00    +0.108 C 
ATOM      7  S   UNK A  1       26.293 -27.277   8.686  0.00  0.00    -0.131 S 
ATOM      8  C   UNK A  1       26.719 -27.604   6.956  0.00  0.00    +0.169 C 
ATOM      9  N   UNK A  1       25.682 -28.392   6.294  0.00  0.00    -0.249 N 
ATOM     10  C   UNK A  1       25.127 -27.326   5.670  0.00  0.00    +0.244 C 
ATOM     11  O   UNK A  1       24.019 -27.241   5.156  0.00  0.00    -0.273 OA
ATOM     12  C   UNK A  1       26.348 -26.429   5.974  0.00  0.00    +0.191 C 
ATOM     13  C   UNK A  1       25.015 -29.467   6.868  0.00  0.00    +0.126 C 
BRANCH   5  15
ATOM     14  C   UNK A  1       23.381 -30.718   9.608  0.00  0.00    +0.009 C 
ATOM     15  C   UNK A  1       24.509 -30.866   8.902  0.00  0.00    -0.001 C 
ENDBRANCH   5  15
BRANCH  13  16
ATOM     16  C   UNK A  1       24.152 -30.335   5.962  0.00  0.00    +0.352 C 
ATOM     17  O   UNK A  1       24.459 -31.457   5.584  0.00  0.00    -0.244 OA
BRANCH  16  18
ATOM     18  O   UNK A  1       23.041 -29.740   5.474  0.00  0.00    -0.476 OA
ATOM     19  H   UNK A  1       22.217 -29.909   5.980  0.00  0.00    +0.295 HD
ENDBRANCH  16  18
ENDBRANCH  13  16
ENDBRANCH   1  12
BRANCH   3  20
ATOM     20  C   UNK A  0       25.338 -22.723   6.662  0.00  0.00    +0.190 C 
ATOM     21  N   UNK A  0       24.250 -22.295   7.254  0.00  0.00    -0.077 NA
BRANCH  20  22
ATOM     22  C   UNK A  0       26.497 -21.826   6.760  0.00  0.00    +0.107 A 
ATOM     23  N   UNK A  0       27.642 -22.184   7.462  0.00  0.00    -0.223 NA
ATOM     24  C   UNK A  0       28.561 -21.258   7.375  0.00  0.00    +0.156 A 
ATOM     25  S   UNK A  0       28.125 -19.883   6.449  0.00  0.00    -0.060 S 
ATOM     26  C   UNK A  0       26.594 -20.590   6.141  0.00  0.00    +0.078 A 
BRANCH  24  27
ATOM     27  N   UNK A  0       29.767 -21.368   7.954  0.00  0.00    -0.338 N 
ATOM     28  H   UNK A  0       30.560 -21.371   7.323  0.00  0.00    +0.144 HD
ATOM     29  H   UNK A  0       29.931 -20.904   8.839  0.00  0.00    +0.144 HD
ENDBRANCH  24  27
ENDBRANCH  20  22
BRANCH  21  30
ATOM     30  O   UNK A  0       23.112 -23.088   7.052  0.00  0.00    -0.382 OA
BRANCH  30  31
ATOM     31  C   UNK A  0       22.141 -22.319   6.332  0.00  0.00    +0.382 C 
BRANCH  31  32
ATOM     32  C   UNK A  0       22.808 -21.181   5.579  0.00  0.00    +0.345 C 
ATOM     33  O   UNK A  0       22.864 -20.032   5.992  0.00  0.00    -0.247 OA
BRANCH  32  34
ATOM     34  O   UNK A  0       23.420 -21.560   4.431  0.00  0.00    -0.478 OA
ATOM     35  H   UNK A  0       23.032 -22.376   4.056  0.00  0.00    +0.295 HD
ENDBRANCH  32  34
ENDBRANCH  31  32
ENDBRANCH  30  31
ENDBRANCH  21  30
ENDBRANCH   3  20
TORSDOF 11
ENDMDL
MODEL 7
REMARK VINA RESULT:      -5.2      3.480      8.111
REMARK  Name = *****
REMARK                            x       y       z     vdW  Elec       q    Type
REMARK                         _______ _______ _______ _____ _____    ______ ____
ROOT
ATOM      1  N   UNK A  1       25.581 -29.186  11.590  0.00  0.00    -0.296 N 
ATOM      2  H   UNK A  1       24.683 -29.549  11.900  0.00  0.00    +0.150 HD
ATOM      3  C   UNK A  0       25.943 -27.949  12.097  0.00  0.00    +0.268 C 
ATOM      4  O   UNK A  0       26.910 -27.327  11.687  0.00  0.00    -0.268 OA
ENDROOT
BRANCH   1  12
ATOM      5  C   UNK A  1       24.169 -32.122   7.733  0.00  0.00    -0.010 C 
ATOM      6  C   UNK A  1       23.739 -32.684   9.073  0.00  0.00    +0.108 C 
ATOM      7  S   UNK A  1       24.084 -31.596  10.471  0.00  0.00    -0.131 S 
ATOM      8  C   UNK A  1       25.808 -31.272  10.014  0.00  0.00    +0.169 C 
ATOM      9  N   UNK A  1       25.906 -30.753   8.652  0.00  0.00    -0.249 N 
ATOM     10  C   UNK A  1       26.056 -29.465   9.044  0.00  0.00    +0.244 C 
ATOM     11  O   UNK A  1       25.913 -28.448   8.378  0.00  0.00    -0.273 OA
ATOM     12  C   UNK A  1       26.346 -29.875  10.506  0.00  0.00    +0.191 C 
ATOM     13  C   UNK A  1       25.169 -31.218   7.570  0.00  0.00    +0.126 C 
BRANCH   5  15
ATOM     14  C   UNK A  1       23.499 -33.824   6.056  0.00  0.00    +0.009 C 
ATOM     15  C   UNK A  1       23.300 -32.656   6.681  0.00  0.00    -0.001 C 
ENDBRANCH   5  15
BRANCH  13  16
ATOM     16  C   UNK A  1       25.573 -30.748   6.179  0.00  0.00    +0.352 C 
ATOM     17  O   UNK A  1       25.024 -29.840   5.571  0.00  0.00    -0.244 OA
BRANCH  16  18
ATOM     18  O   UNK A  1       26.524 -31.490   5.569  0.00  0.00    -0.476 OA
ATOM     19  H   UNK A  1       27.297 -30.987   5.233  0.00  0.00    +0.295 HD
ENDBRANCH  16  18
ENDBRANCH  13  16
ENDBRANCH   1  12
BRANCH   3  20
ATOM     20  C   UNK A  0       25.070 -27.430  13.265  0.00  0.00    +0.190 C 
ATOM     21  N   UNK A  0       25.547 -26.973  14.398  0.00  0.00    -0.077 NA
BRANCH  20  22
ATOM     22  C   UNK A  0       23.605 -27.429  13.158  0.00  0.00    +0.107 A 
ATOM     23  N   UNK A  0       22.908 -28.516  12.645  0.00  0.00    -0.223 NA
ATOM     24  C   UNK A  0       21.616 -28.315  12.690  0.00  0.00    +0.156 A 
ATOM     25  S   UNK A  0       21.135 -26.806  13.345  0.00  0.00    -0.060 S 
ATOM     26  C   UNK A  0       22.783 -26.400  13.589  0.00  0.00    +0.078 A 
BRANCH  24  27
ATOM     27  N   UNK A  0       20.721 -29.221  12.267  0.00  0.00    -0.338 N 
ATOM     28  H   UNK A  0       19.749 -28.937  12.318  0.00  0.00    +0.144 HD
ATOM     29  H   UNK A  0       20.951 -29.806  11.474  0.00  0.00    +0.144 HD
ENDBRANCH  24  27
ENDBRANCH  20  22
BRANCH  21  30
ATOM     30  O   UNK A  0       26.936 -27.093  14.549  0.00  0.00    -0.382 OA
BRANCH  30  31
ATOM     31  C   UNK A  0       27.411 -25.970  15.301  0.00  0.00    +0.382 C 
BRANCH  31  32
ATOM     32  C   UNK A  0       27.585 -24.757  14.403  0.00  0.00    +0.345 C 
ATOM     33  O   UNK A  0       27.601 -23.605  14.812  0.00  0.00    -0.247 OA
BRANCH  32  34
ATOM     34  O   UNK A  0       27.809 -25.058  13.102  0.00  0.00    -0.478 OA
ATOM     35  H   UNK A  0       27.434 -24.387  12.496  0.00  0.00    +0.295 HD
ENDBRANCH  32  34
ENDBRANCH  31  32
ENDBRANCH  30  31
ENDBRANCH  21  30
ENDBRANCH   3  20
TORSDOF 11
ENDMDL
MODEL 8
REMARK VINA RESULT:      -5.2      8.213     11.531
REMARK  Name = *****
REMARK                            x       y       z     vdW  Elec       q    Type
REMARK                         _______ _______ _______ _____ _____    ______ ____
ROOT
ATOM      1  N   UNK A  1       26.876 -21.317   6.148  0.00  0.00    -0.296 N 
ATOM      2  H   UNK A  1       26.602 -20.401   5.801  0.00  0.00    +0.150 HD
ATOM      3  C   UNK A  0       25.843 -22.151   6.542  0.00  0.00    +0.268 C 
ATOM      4  O   UNK A  0       26.035 -23.207   7.125  0.00  0.00    -0.268 OA
ENDROOT
BRANCH   1  12
ATOM      5  C   UNK A  1       30.781 -18.557   7.765  0.00  0.00    -0.010 C 
ATOM      6  C   UNK A  1       30.151 -17.983   6.512  0.00  0.00    +0.108 C 
ATOM      7  S   UNK A  1       28.656 -18.847   5.982  0.00  0.00    -0.131 S 
ATOM      8  C   UNK A  1       29.372 -20.508   6.087  0.00  0.00    +0.169 C 
ATOM      9  N   UNK A  1       29.923 -20.765   7.416  0.00  0.00    -0.249 N 
ATOM     10  C   UNK A  1       28.858 -21.495   7.828  0.00  0.00    +0.244 C 
ATOM     11  O   UNK A  1       28.541 -21.793   8.971  0.00  0.00    -0.273 OA
ATOM     12  C   UNK A  1       28.317 -21.639   6.387  0.00  0.00    +0.191 C 
ATOM     13  C   UNK A  1       30.648 -19.848   8.165  0.00  0.00    +0.126 C 
BRANCH   5  15
ATOM     14  C   UNK A  1       30.948 -16.755   9.464  0.00  0.00    +0.009 C 
ATOM     15  C   UNK A  1       31.486 -17.492   8.484  0.00  0.00    -0.001 C 
ENDBRANCH   5  15
BRANCH  13  16
ATOM     16  C   UNK A  1       31.365 -20.353   9.411  0.00  0.00    +0.352 C 
ATOM     17  O   UNK A  1       32.325 -21.109   9.395  0.00  0.00    -0.244 OA
BRANCH  16  18
ATOM     18  O   UNK A  1       30.793 -20.013  10.587  0.00  0.00    -0.476 OA
ATOM     19  H   UNK A  1       29.894 -20.380  10.738  0.00  0.00    +0.295 HD
ENDBRANCH  16  18
ENDBRANCH  13  16
ENDBRANCH   1  12
BRANCH   3  20
ATOM     20  C   UNK A  0       24.423 -21.682   6.142  0.00  0.00    +0.190 C 
ATOM     21  N   UNK A  0       23.316 -22.264   6.533  0.00  0.00    -0.077 NA
BRANCH  20  22
ATOM     22  C   UNK A  0       24.242 -20.516   5.267  0.00  0.00    +0.107 A 
ATOM     23  N   UNK A  0       25.307 -19.941   4.584  0.00  0.00    -0.223 NA
ATOM     24  C   UNK A  0       24.907 -18.950   3.830  0.00  0.00    +0.156 A 
ATOM     25  S   UNK A  0       23.225 -18.627   3.882  0.00  0.00    -0.060 S 
ATOM     26  C   UNK A  0       23.023 -19.915   4.994  0.00  0.00    +0.078 A 
BRANCH  24  27
ATOM     27  N   UNK A  0       25.741 -18.238   3.057  0.00  0.00    -0.338 N 
ATOM     28  H   UNK A  0       25.301 -17.662   2.348  0.00  0.00    +0.144 HD
ATOM     29  H   UNK A  0       26.573 -17.837   3.471  0.00  0.00    +0.144 HD
ENDBRANCH  24  27
ENDBRANCH  20  22
BRANCH  21  30
ATOM     30  O   UNK A  0       23.492 -23.448   7.261  0.00  0.00    -0.382 OA
BRANCH  30  31
ATOM     31  C   UNK A  0       22.950 -24.536   6.502  0.00  0.00    +0.382 C 
BRANCH  31  32
ATOM     32  C   UNK A  0       24.062 -25.393   5.923  0.00  0.00    +0.345 C 
ATOM     33  O   UNK A  0       24.365 -26.497   6.354  0.00  0.00    -0.247 OA
BRANCH  32  34
ATOM     34  O   UNK A  0       24.648 -24.870   4.820  0.00  0.00    -0.478 OA
ATOM     35  H   UNK A  0       24.567 -25.458   4.042  0.00  0.00    +0.295 HD
ENDBRANCH  32  34
ENDBRANCH  31  32
ENDBRANCH  30  31
ENDBRANCH  21  30
ENDBRANCH   3  20
TORSDOF 11
ENDMDL
MODEL 9
REMARK VINA RESULT:      -5.0      5.001      7.220
REMARK  Name = *****
REMARK                            x       y       z     vdW  Elec       q    Type
REMARK                         _______ _______ _______ _____ _____    ______ ____
ROOT
ATOM      1  N   UNK A  1       22.542 -29.568  12.993  0.00  0.00    -0.296 N 
ATOM      2  H   UNK A  1       22.329 -29.109  12.111  0.00  0.00    +0.150 HD
ATOM      3  C   UNK A  0       23.876 -29.571  13.369  0.00  0.00    +0.268 C 
ATOM      4  O   UNK A  0       24.292 -30.222  14.315  0.00  0.00    -0.268 OA
ENDROOT
BRANCH   1  12
ATOM      5  C   UNK A  1       17.851 -28.445  14.482  0.00  0.00    -0.010 C 
ATOM      6  C   UNK A  1       18.883 -27.503  15.070  0.00  0.00    +0.108 C 
ATOM      7  S   UNK A  1       20.557 -27.767  14.447  0.00  0.00    -0.131 S 
ATOM      8  C   UNK A  1       20.556 -29.561  14.708  0.00  0.00    +0.169 C 
ATOM      9  N   UNK A  1       19.425 -30.194  14.034  0.00  0.00    -0.249 N 
ATOM     10  C   UNK A  1       20.161 -30.624  12.981  0.00  0.00    +0.244 C 
ATOM     11  O   UNK A  1       19.769 -31.000  11.885  0.00  0.00    -0.273 OA
ATOM     12  C   UNK A  1       21.493 -30.350  13.717  0.00  0.00    +0.191 C 
ATOM     13  C   UNK A  1       18.134 -29.682  13.998  0.00  0.00    +0.126 C 
BRANCH   5  15
ATOM     14  C   UNK A  1       16.361 -26.470  14.282  0.00  0.00    +0.009 C 
ATOM     15  C   UNK A  1       16.543 -27.784  14.467  0.00  0.00    -0.001 C 
ENDBRANCH   5  15
BRANCH  13  16
ATOM     16  C   UNK A  1       17.024 -30.585  13.476  0.00  0.00    +0.352 C 
ATOM     17  O   UNK A  1       16.400 -31.380  14.165  0.00  0.00    -0.244 OA
BRANCH  16  18
ATOM     18  O   UNK A  1       16.833 -30.556  12.139  0.00  0.00    -0.476 OA
ATOM     19  H   UNK A  1       17.505 -31.036  11.609  0.00  0.00    +0.295 HD
ENDBRANCH  16  18
ENDBRANCH  13  16
ENDBRANCH   1  12
BRANCH   3  20
ATOM     20  C   UNK A  0       24.799 -28.643  12.542  0.00  0.00    +0.190 C 
ATOM     21  N   UNK A  0       25.250 -28.928  11.345  0.00  0.00    -0.077 NA
BRANCH  20  22
ATOM     22  C   UNK A  0       25.235 -27.349  13.084  0.00  0.00    +0.107 A 
ATOM     23  N   UNK A  0       26.565 -26.948  13.040  0.00  0.00    -0.223 NA
ATOM     24  C   UNK A  0       26.714 -25.745  13.533  0.00  0.00    +0.156 A 
ATOM     25  S   UNK A  0       25.274 -25.003  14.091  0.00  0.00    -0.060 S 
ATOM     26  C   UNK A  0       24.389 -26.398  13.632  0.00  0.00    +0.078 A 
BRANCH  24  27
ATOM     27  N   UNK A  0       27.900 -25.122  13.592  0.00  0.00    -0.338 N 
ATOM     28  H   UNK A  0       28.711 -25.725  13.668  0.00  0.00    +0.144 HD
ATOM     29  H   UNK A  0       28.044 -24.286  13.040  0.00  0.00    +0.144 HD
ENDBRANCH  24  27
ENDBRANCH  20  22
BRANCH  21  30
ATOM     30  O   UNK A  0       24.938 -30.214  10.883  0.00  0.00    -0.382 OA
BRANCH  30  31
ATOM     31  C   UNK A  0       26.160 -30.939  10.693  0.00  0.00    +0.382 C 
BRANCH  31  32
ATOM     32  C   UNK A  0       27.294 -29.995  10.331  0.00  0.00    +0.345 C 
ATOM     33  O   UNK A  0       28.318 -29.878  10.989  0.00  0.00    -0.247 OA
BRANCH  32  34
ATOM     34  O   UNK A  0       27.118 -29.342   9.158  0.00  0.00    -0.478 OA
ATOM     35  H   UNK A  0       26.792 -28.428   9.287  0.00  0.00    +0.295 HD
ENDBRANCH  32  34
ENDBRANCH  31  32
ENDBRANCH  30  31
ENDBRANCH  21  30
ENDBRANCH   3  20
TORSDOF 11
ENDMDL
