MODEL 1
REMARK VINA RESULT:      -3.7      0.000      0.000
REMARK  Name = *****
REMARK                            x       y       z     vdW  Elec       q    Type
REMARK                         _______ _______ _______ _____ _____    ______ ____
ROOT
ATOM      1  C   LIG    1       25.219 -21.137   6.327  0.00  0.00    +0.284 C 
ENDROOT
BRANCH   1   2
ATOM      2  C   LIG    1       23.789 -20.556   6.420  0.00  0.00    +0.174 C 
BRANCH   2   4
ATOM      3  C   LIG    1       22.491 -19.027   4.844  0.00  0.00    +0.192 C 
ATOM      4  N   LIG    1       23.036 -20.428   5.063  0.00  0.00    +0.239 N 
ATOM      5  C   LIG    1       24.022 -20.733   3.927  0.00  0.00    +0.192 C 
ATOM      6  C   LIG    1       21.899 -21.436   4.982  0.00  0.00    +0.192 C 
ENDBRANCH   2   4
ENDBRANCH   1   2
BRANCH   1   7
ATOM      7  O   LIG    1       26.254 -20.346   6.938  0.00  0.00    -0.445 OA
BRANCH   7   8
ATOM      8  C   LIG    1       27.465 -20.398   6.334  0.00  0.00    +0.398 C 
ATOM      9  O   LIG    1       28.495 -20.738   6.873  0.00  0.00    -0.227 OA
ATOM     10  N   LIG    1       27.363 -19.983   5.050  0.00  0.00    -0.295 N 
ATOM     11  H   LIG    1       28.163 -20.096   4.440  0.00  0.00    +0.148 HD
ATOM     12  H   LIG    1       26.470 -19.754   4.642  0.00  0.00    +0.148 HD
ENDBRANCH   7   8
ENDBRANCH   1   7
TORSDOF 4
ENDMDL
MODEL 2
REMARK VINA RESULT:      -3.7      0.112      1.369
REMARK  Name = *****
REMARK                            x       y       z     vdW  Elec       q    Type
REMARK                         _______ _______ _______ _____ _____    ______ ____
ROOT
ATOM      1  C   LIG    1       25.112 -21.140   6.454  0.00  0.00    +0.284 C 
ENDROOT
BRANCH   1   2
ATOM      2  C   LIG    1       23.705 -20.500   6.437  0.00  0.00    +0.174 C 
BRANCH   2   4
ATOM      3  C   LIG    1       24.011 -20.748   3.917  0.00  0.00    +0.192 C 
ATOM      4  N   LIG    1       23.042 -20.395   5.032  0.00  0.00    +0.239 N 
ATOM      5  C   LIG    1       21.870 -21.385   4.969  0.00  0.00    +0.192 C 
ATOM      6  C   LIG    1       22.488 -18.996   4.802  0.00  0.00    +0.192 C 
ENDBRANCH   2   4
ENDBRANCH   1   2
BRANCH   1   7
ATOM      7  O   LIG    1       26.163 -20.320   6.997  0.00  0.00    -0.445 OA
BRANCH   7   8
ATOM      8  C   LIG    1       27.372 -20.444   6.400  0.00  0.00    +0.398 C 
ATOM      9  O   LIG    1       28.367 -20.887   6.932  0.00  0.00    -0.227 OA
ATOM     10  N   LIG    1       27.317 -19.971   5.134  0.00  0.00    -0.295 N 
ATOM     11  H   LIG    1       28.110 -20.123   4.525  0.00  0.00    +0.148 HD
ATOM     12  H   LIG    1       26.448 -19.656   4.729  0.00  0.00    +0.148 HD
ENDBRANCH   7   8
ENDBRANCH   1   7
TORSDOF 4
ENDMDL
MODEL 3
REMARK VINA RESULT:      -3.7      5.493      6.553
REMARK  Name = *****
REMARK                            x       y       z     vdW  Elec       q    Type
REMARK                         _______ _______ _______ _____ _____    ______ ____
ROOT
ATOM      1  C   LIG    1       25.887 -16.204   3.352  0.00  0.00    +0.284 C 
ENDROOT
BRANCH   1   2
ATOM      2  C   LIG    1       27.178 -15.420   3.684  0.00  0.00    +0.174 C 
BRANCH   2   4
ATOM      3  C   LIG    1       26.311 -13.460   5.068  0.00  0.00    +0.192 C 
ATOM      4  N   LIG    1       27.007 -13.875   3.782  0.00  0.00    +0.239 N 
ATOM      5  C   LIG    1       28.399 -13.228   3.770  0.00  0.00    +0.192 C 
ATOM      6  C   LIG    1       26.231 -13.342   2.587  0.00  0.00    +0.192 C 
ENDBRANCH   2   4
ENDBRANCH   1   2
BRANCH   1   7
ATOM      7  O   LIG    1       26.076 -17.570   2.943  0.00  0.00    -0.445 OA
BRANCH   7   8
ATOM      8  C   LIG    1       25.267 -18.479   3.538  0.00  0.00    +0.398 C 
ATOM      9  O   LIG    1       24.063 -18.382   3.628  0.00  0.00    -0.227 OA
ATOM     10  N   LIG    1       26.002 -19.493   4.048  0.00  0.00    -0.295 N 
ATOM     11  H   LIG    1       25.521 -20.309   4.404  0.00  0.00    +0.148 HD
ATOM     12  H   LIG    1       26.999 -19.543   3.903  0.00  0.00    +0.148 HD
ENDBRANCH   7   8
ENDBRANCH   1   7
TORSDOF 4
ENDMDL
MODEL 4
REMARK VINA RESULT:      -3.7      5.498      6.643
REMARK  Name = *****
REMARK                            x       y       z     vdW  Elec       q    Type
REMARK                         _______ _______ _______ _____ _____    ______ ____
ROOT
ATOM      1  C   LIG    1       25.902 -16.191   3.358  0.00  0.00    +0.284 C 
ENDROOT
BRANCH   1   2
ATOM      2  C   LIG    1       27.195 -15.422   3.712  0.00  0.00    +0.174 C 
BRANCH   2   4
ATOM      3  C   LIG    1       26.252 -13.343   2.573  0.00  0.00    +0.192 C 
ATOM      4  N   LIG    1       27.054 -13.872   3.751  0.00  0.00    +0.239 N 
ATOM      5  C   LIG    1       26.316 -13.479   5.038  0.00  0.00    +0.192 C 
ATOM      6  C   LIG    1       28.423 -13.208   3.773  0.00  0.00    +0.192 C 
ENDBRANCH   2   4
ENDBRANCH   1   2
BRANCH   1   7
ATOM      7  O   LIG    1       26.083 -17.556   2.941  0.00  0.00    -0.445 OA
BRANCH   7   8
ATOM      8  C   LIG    1       25.273 -18.464   3.536  0.00  0.00    +0.398 C 
ATOM      9  O   LIG    1       24.070 -18.362   3.634  0.00  0.00    -0.227 OA
ATOM     10  N   LIG    1       26.007 -19.485   4.036  0.00  0.00    -0.295 N 
ATOM     11  H   LIG    1       25.524 -20.300   4.390  0.00  0.00    +0.148 HD
ATOM     12  H   LIG    1       27.002 -19.538   3.885  0.00  0.00    +0.148 HD
ENDBRANCH   7   8
ENDBRANCH   1   7
TORSDOF 4
ENDMDL
MODEL 5
REMARK VINA RESULT:      -3.6      6.547      7.392
REMARK  Name = *****
REMARK                            x       y       z     vdW  Elec       q    Type
REMARK                         _______ _______ _______ _____ _____    ______ ____
ROOT
ATOM      1  C   LIG    1       26.559 -13.319   2.576  0.00  0.00    +0.284 C 
ENDROOT
BRANCH   1   2
ATOM      2  C   LIG    1       25.095 -12.847   2.730  0.00  0.00    +0.174 C 
BRANCH   2   4
ATOM      3  C   LIG    1       23.692 -14.213   4.364  0.00  0.00    +0.192 C 
ATOM      4  N   LIG    1       24.514 -12.949   4.170  0.00  0.00    +0.239 N 
ATOM      5  C   LIG    1       25.681 -12.988   5.167  0.00  0.00    +0.192 C 
ATOM      6  C   LIG    1       23.660 -11.732   4.494  0.00  0.00    +0.192 C 
ENDBRANCH   2   4
ENDBRANCH   1   2
BRANCH   1   7
ATOM      7  O   LIG    1       26.733 -14.677   2.134  0.00  0.00    -0.445 OA
BRANCH   7   8
ATOM      8  C   LIG    1       26.813 -15.607   3.115  0.00  0.00    +0.398 C 
ATOM      9  O   LIG    1       26.082 -16.568   3.221  0.00  0.00    -0.227 OA
ATOM     10  N   LIG    1       27.805 -15.290   3.978  0.00  0.00    -0.295 N 
ATOM     11  H   LIG    1       28.067 -15.966   4.684  0.00  0.00    +0.148 HD
ATOM     12  H   LIG    1       28.411 -14.501   3.813  0.00  0.00    +0.148 HD
ENDBRANCH   7   8
ENDBRANCH   1   7
TORSDOF 4
ENDMDL
MODEL 6
REMARK VINA RESULT:      -3.4      7.305      8.527
REMARK  Name = *****
REMARK                            x       y       z     vdW  Elec       q    Type
REMARK                         _______ _______ _______ _____ _____    ______ ____
ROOT
ATOM      1  C   LIG    1       25.500 -13.511   2.183  0.00  0.00    +0.284 C 
ENDROOT
BRANCH   1   2
ATOM      2  C   LIG    1       26.619 -12.754   2.934  0.00  0.00    +0.174 C 
BRANCH   2   4
ATOM      3  C   LIG    1       27.330 -15.106   3.621  0.00  0.00    +0.192 C 
ATOM      4  N   LIG    1       27.462 -13.621   3.915  0.00  0.00    +0.239 N 
ATOM      5  C   LIG    1       28.941 -13.239   3.757  0.00  0.00    +0.192 C 
ATOM      6  C   LIG    1       27.059 -13.348   5.357  0.00  0.00    +0.192 C 
ENDBRANCH   2   4
ENDBRANCH   1   2
BRANCH   1   7
ATOM      7  O   LIG    1       24.154 -13.159   2.551  0.00  0.00    -0.445 OA
BRANCH   7   8
ATOM      8  C   LIG    1       23.884 -13.180   3.877  0.00  0.00    +0.398 C 
ATOM      9  O   LIG    1       23.813 -12.200   4.587  0.00  0.00    -0.227 OA
ATOM     10  N   LIG    1       23.739 -14.456   4.303  0.00  0.00    -0.295 N 
ATOM     11  H   LIG    1       23.402 -14.617   5.244  0.00  0.00    +0.148 HD
ATOM     12  H   LIG    1       23.764 -15.230   3.657  0.00  0.00    +0.148 HD
ENDBRANCH   7   8
ENDBRANCH   1   7
TORSDOF 4
ENDMDL
MODEL 7
REMARK VINA RESULT:      -3.4      7.379      7.885
REMARK  Name = *****
REMARK                            x       y       z     vdW  Elec       q    Type
REMARK                         _______ _______ _______ _____ _____    ______ ____
ROOT
ATOM      1  C   LIG    1       26.477 -13.812   4.920  0.00  0.00    +0.284 C 
ENDROOT
BRANCH   1   2
ATOM      2  C   LIG    1       25.338 -12.782   4.744  0.00  0.00    +0.174 C 
BRANCH   2   4
ATOM      3  C   LIG    1       23.806 -11.616   3.069  0.00  0.00    +0.192 C 
ATOM      4  N   LIG    1       24.533 -12.905   3.417  0.00  0.00    +0.239 N 
ATOM      5  C   LIG    1       25.514 -13.214   2.277  0.00  0.00    +0.192 C 
ATOM      6  C   LIG    1       23.532 -14.049   3.498  0.00  0.00    +0.192 C 
ENDBRANCH   2   4
ENDBRANCH   1   2
BRANCH   1   7
ATOM      7  O   LIG    1       27.672 -13.318   5.551  0.00  0.00    -0.445 OA
BRANCH   7   8
ATOM      8  C   LIG    1       28.576 -12.742   4.725  0.00  0.00    +0.398 C 
ATOM      9  O   LIG    1       28.813 -13.104   3.593  0.00  0.00    -0.227 OA
ATOM     10  N   LIG    1       29.203 -11.723   5.358  0.00  0.00    -0.295 N 
ATOM     11  H   LIG    1       29.808 -11.117   4.819  0.00  0.00    +0.148 HD
ATOM     12  H   LIG    1       28.932 -11.438   6.287  0.00  0.00    +0.148 HD
ENDBRANCH   7   8
ENDBRANCH   1   7
TORSDOF 4
ENDMDL
MODEL 8
REMARK VINA RESULT:      -3.2      6.359      7.136
REMARK  Name = *****
REMARK                            x       y       z     vdW  Elec       q    Type
REMARK                         _______ _______ _______ _____ _____    ______ ____
ROOT
ATOM      1  C   LIG    1       26.633 -13.749   2.572  0.00  0.00    +0.284 C 
ENDROOT
BRANCH   1   2
ATOM      2  C   LIG    1       25.314 -12.949   2.677  0.00  0.00    +0.174 C 
BRANCH   2   4
ATOM      3  C   LIG    1       23.750 -11.742   4.290  0.00  0.00    +0.192 C 
ATOM      4  N   LIG    1       24.647 -12.951   4.084  0.00  0.00    +0.239 N 
ATOM      5  C   LIG    1       23.778 -14.210   4.212  0.00  0.00    +0.192 C 
ATOM      6  C   LIG    1       25.703 -12.995   5.179  0.00  0.00    +0.192 C 
ENDBRANCH   2   4
ENDBRANCH   1   2
BRANCH   1   7
ATOM      7  O   LIG    1       26.490 -15.176   2.453  0.00  0.00    -0.445 OA
BRANCH   7   8
ATOM      8  C   LIG    1       27.019 -15.905   3.463  0.00  0.00    +0.398 C 
ATOM      9  O   LIG    1       27.812 -15.488   4.278  0.00  0.00    -0.227 OA
ATOM     10  N   LIG    1       26.560 -17.177   3.410  0.00  0.00    -0.295 N 
ATOM     11  H   LIG    1       26.767 -17.799   4.180  0.00  0.00    +0.148 HD
ATOM     12  H   LIG    1       25.865 -17.455   2.734  0.00  0.00    +0.148 HD
ENDBRANCH   7   8
ENDBRANCH   1   7
TORSDOF 4
ENDMDL
MODEL 9
REMARK VINA RESULT:      -3.1      3.712      4.298
REMARK  Name = *****
REMARK                            x       y       z     vdW  Elec       q    Type
REMARK                         _______ _______ _______ _____ _____    ______ ____
ROOT
ATOM      1  C   LIG    1       25.443 -17.857   3.283  0.00  0.00    +0.284 C 
ENDROOT
BRANCH   1   2
ATOM      2  C   LIG    1       25.611 -19.233   3.969  0.00  0.00    +0.174 C 
BRANCH   2   4
ATOM      3  C   LIG    1       24.277 -20.452   5.769  0.00  0.00    +0.192 C 
ATOM      4  N   LIG    1       24.282 -19.959   4.332  0.00  0.00    +0.239 N 
ATOM      5  C   LIG    1       23.123 -18.965   4.170  0.00  0.00    +0.192 C 
ATOM      6  C   LIG    1       24.033 -21.128   3.391  0.00  0.00    +0.192 C 
ENDBRANCH   2   4
ENDBRANCH   1   2
BRANCH   1   7
ATOM      7  O   LIG    1       26.615 -17.022   3.265  0.00  0.00    -0.445 OA
BRANCH   7   8
ATOM      8  C   LIG    1       26.402 -15.708   3.510  0.00  0.00    +0.398 C 
ATOM      9  O   LIG    1       25.316 -15.172   3.525  0.00  0.00    -0.227 OA
ATOM     10  N   LIG    1       27.581 -15.073   3.700  0.00  0.00    -0.295 N 
ATOM     11  H   LIG    1       27.568 -14.114   4.024  0.00  0.00    +0.148 HD
ATOM     12  H   LIG    1       28.453 -15.580   3.720  0.00  0.00    +0.148 HD
ENDBRANCH   7   8
ENDBRANCH   1   7
TORSDOF 4
ENDMDL
