MODEL 1
REMARK VINA RESULT:       2.8      0.000      0.000
REMARK  Name = *****
REMARK                            x       y       z     vdW  Elec       q    Type
REMARK                         _______ _______ _______ _____ _____    ______ ____
ROOT
ATOM      1  C   LIG    1       23.478 -13.672   4.065  0.00  0.00    +0.048 C 
ATOM      2  C   LIG    1       24.323 -14.917   4.058  0.00  0.00    -0.001 C 
ATOM      3  C   LIG    1       25.733 -14.887   4.119  0.00  0.00    +0.052 C 
ATOM      4  C   LIG    1       26.495 -13.596   4.202  0.00  0.00    +0.204 C 
ATOM      5  C   LIG    1       27.969 -13.639   4.310  0.00  0.00    +0.122 C 
ATOM      6  C   LIG    1       28.548 -14.847   4.316  0.00  0.00    +0.105 C 
ATOM      7  N   LIG    1       27.890 -16.058   4.247  0.00  0.00    -0.343 NA
ATOM      8  O   LIG    1       25.948 -12.496   4.174  0.00  0.00    -0.286 OA
ATOM      9  C   LIG    1       26.471 -16.092   4.103  0.00  0.00    +0.055 C 
ATOM     10  C   LIG    1       25.771 -17.307   3.967  0.00  0.00    +0.052 C 
ATOM     11  C   LIG    1       24.369 -17.385   3.913  0.00  0.00    +0.068 C 
ATOM     12  C   LIG    1       23.675 -16.165   3.980  0.00  0.00    +0.148 C 
ATOM     13  F   LIG    1       22.332 -16.164   3.936  0.00  0.00    -0.203 F 
ENDROOT
BRANCH  11  14
ATOM     14  N   LIG    1       23.777 -18.664   3.830  0.00  0.00    -0.325 NA
ATOM     15  C   LIG    1       23.534 -19.290   5.156  0.00  0.00    +0.123 C 
ATOM     16  C   LIG    1       22.738 -20.623   5.023  0.00  0.00    +0.068 C 
ATOM     17  C   LIG    1       22.650 -21.328   6.378  0.00  0.00    +0.025 C 
ATOM     18  N   LIG    1       23.318 -21.571   4.044  0.00  0.00    -0.310 NA
ATOM     19  H   LIG    1       24.251 -21.836   4.363  0.00  0.00    +0.122 HD
ATOM     20  C   LIG    1       23.456 -20.880   2.747  0.00  0.00    +0.100 C 
ATOM     21  C   LIG    1       24.329 -19.608   2.833  0.00  0.00    +0.120 C 
ENDBRANCH  11  14
BRANCH   7  22
ATOM     22  C   LIG    1       28.706 -17.288   4.276  0.00  0.00    +0.087 C 
ATOM     23  C   LIG    1       29.247 -17.861   5.565  0.00  0.00    +0.027 C 
ATOM     24  C   LIG    1       28.167 -18.585   4.831  0.00  0.00    +0.027 C 
ENDBRANCH   7  22
BRANCH   5  25
ATOM     25  C   LIG    1       28.826 -12.438   4.412  0.00  0.00    +0.342 C 
ATOM     26  O   LIG    1       29.466 -11.985   3.470  0.00  0.00    -0.245 OA
BRANCH  25  27
ATOM     27  O   LIG    1       28.857 -11.868   5.636  0.00  0.00    -0.477 OA
ATOM     28  H   LIG    1       28.594 -12.480   6.367  0.00  0.00    +0.295 HD
ENDBRANCH  25  27
ENDBRANCH   5  25
TORSDOF 4
ENDMDL
MODEL 2
REMARK VINA RESULT:       2.8      2.075      3.829
REMARK  Name = *****
REMARK                            x       y       z     vdW  Elec       q    Type
REMARK                         _______ _______ _______ _____ _____    ______ ____
ROOT
ATOM      1  C   LIG    1       28.290 -18.417   4.443  0.00  0.00    +0.048 C 
ATOM      2  C   LIG    1       26.944 -17.796   4.183  0.00  0.00    -0.001 C 
ATOM      3  C   LIG    1       26.755 -16.404   4.047  0.00  0.00    +0.052 C 
ATOM      4  C   LIG    1       27.898 -15.436   4.148  0.00  0.00    +0.204 C 
ATOM      5  C   LIG    1       27.636 -13.994   3.950  0.00  0.00    +0.122 C 
ATOM      6  C   LIG    1       26.372 -13.630   3.698  0.00  0.00    +0.105 C 
ATOM      7  N   LIG    1       25.292 -14.482   3.591  0.00  0.00    -0.343 NA
ATOM      8  O   LIG    1       29.049 -15.787   4.400  0.00  0.00    -0.286 OA
ATOM      9  C   LIG    1       25.464 -15.882   3.809  0.00  0.00    +0.055 C 
ATOM     10  C   LIG    1       24.374 -16.775   3.769  0.00  0.00    +0.052 C 
ATOM     11  C   LIG    1       24.517 -18.167   3.889  0.00  0.00    +0.068 C 
ATOM     12  C   LIG    1       25.825 -18.646   4.078  0.00  0.00    +0.148 C 
ATOM     13  F   LIG    1       26.036 -19.967   4.199  0.00  0.00    -0.203 F 
ENDROOT
BRANCH  11  14
ATOM     14  N   LIG    1       23.357 -18.966   3.780  0.00  0.00    -0.325 NA
ATOM     15  C   LIG    1       22.113 -18.177   3.590  0.00  0.00    +0.123 C 
ATOM     16  C   LIG    1       20.886 -19.098   3.316  0.00  0.00    +0.068 C 
ATOM     17  C   LIG    1       19.596 -18.276   3.293  0.00  0.00    +0.025 C 
ATOM     18  N   LIG    1       20.723 -20.188   4.306  0.00  0.00    -0.310 NA
ATOM     19  H   LIG    1       20.557 -19.770   5.222  0.00  0.00    +0.122 HD
ATOM     20  C   LIG    1       21.984 -20.953   4.373  0.00  0.00    +0.100 C 
ATOM     21  C   LIG    1       23.201 -20.077   4.745  0.00  0.00    +0.120 C 
ENDBRANCH  11  14
BRANCH   7  22
ATOM     22  C   LIG    1       23.973 -13.888   3.300  0.00  0.00    +0.087 C 
ATOM     23  C   LIG    1       23.493 -12.629   3.984  0.00  0.00    +0.027 C 
ATOM     24  C   LIG    1       23.837 -12.596   2.531  0.00  0.00    +0.027 C 
ENDBRANCH   7  22
BRANCH   5  25
ATOM     25  C   LIG    1       28.680 -12.949   4.010  0.00  0.00    +0.342 C 
ATOM     26  O   LIG    1       28.826 -12.197   4.968  0.00  0.00    -0.245 OA
BRANCH  25  27
ATOM     27  O   LIG    1       29.472 -12.876   2.919  0.00  0.00    -0.477 OA
ATOM     28  H   LIG    1       28.976 -12.914   2.065  0.00  0.00    +0.295 HD
ENDBRANCH  25  27
ENDBRANCH   5  25
TORSDOF 4
ENDMDL
MODEL 3
REMARK VINA RESULT:       3.7      1.059      1.408
REMARK  Name = *****
REMARK                            x       y       z     vdW  Elec       q    Type
REMARK                         _______ _______ _______ _____ _____    ______ ____
ROOT
ATOM      1  C   LIG    1       23.294 -14.056   3.990  0.00  0.00    +0.048 C 
ATOM      2  C   LIG    1       24.096 -15.329   4.028  0.00  0.00    -0.001 C 
ATOM      3  C   LIG    1       25.508 -15.346   4.035  0.00  0.00    +0.052 C 
ATOM      4  C   LIG    1       26.315 -14.081   4.010  0.00  0.00    +0.204 C 
ATOM      5  C   LIG    1       27.791 -14.171   4.066  0.00  0.00    +0.122 C 
ATOM      6  C   LIG    1       28.328 -15.396   4.126  0.00  0.00    +0.105 C 
ATOM      7  N   LIG    1       27.628 -16.585   4.157  0.00  0.00    -0.343 NA
ATOM      8  O   LIG    1       25.805 -12.965   3.935  0.00  0.00    -0.286 OA
ATOM      9  C   LIG    1       26.203 -16.575   4.067  0.00  0.00    +0.055 C 
ATOM     10  C   LIG    1       25.458 -17.771   4.033  0.00  0.00    +0.052 C 
ATOM     11  C   LIG    1       24.054 -17.802   4.036  0.00  0.00    +0.068 C 
ATOM     12  C   LIG    1       23.404 -16.556   4.052  0.00  0.00    +0.148 C 
ATOM     13  F   LIG    1       22.061 -16.509   4.057  0.00  0.00    -0.203 F 
ENDROOT
BRANCH  11  14
ATOM     14  N   LIG    1       23.417 -19.062   4.054  0.00  0.00    -0.325 NA
ATOM     15  C   LIG    1       21.934 -18.973   4.040  0.00  0.00    +0.123 C 
ATOM     16  C   LIG    1       21.277 -20.379   3.899  0.00  0.00    +0.068 C 
ATOM     17  C   LIG    1       19.759 -20.277   4.059  0.00  0.00    +0.025 C 
ATOM     18  N   LIG    1       21.778 -21.374   4.875  0.00  0.00    -0.310 NA
ATOM     19  H   LIG    1       21.545 -21.053   5.815  0.00  0.00    +0.122 HD
ATOM     20  C   LIG    1       23.249 -21.439   4.765  0.00  0.00    +0.100 C 
ATOM     21  C   LIG    1       23.931 -20.074   5.003  0.00  0.00    +0.120 C 
ENDBRANCH  11  14
BRANCH   7  22
ATOM     22  C   LIG    1       28.403 -17.838   4.231  0.00  0.00    +0.087 C 
ATOM     23  C   LIG    1       29.288 -18.165   5.412  0.00  0.00    +0.027 C 
ATOM     24  C   LIG    1       28.033 -18.944   5.192  0.00  0.00    +0.027 C 
ENDBRANCH   7  22
BRANCH   5  25
ATOM     25  C   LIG    1       28.690 -12.997   4.062  0.00  0.00    +0.342 C 
ATOM     26  O   LIG    1       28.729 -12.175   4.971  0.00  0.00    -0.245 OA
BRANCH  25  27
ATOM     27  O   LIG    1       29.475 -12.889   2.969  0.00  0.00    -0.477 OA
ATOM     28  H   LIG    1       30.412 -13.166   3.123  0.00  0.00    +0.295 HD
ENDBRANCH  25  27
ENDBRANCH   5  25
TORSDOF 4
ENDMDL
MODEL 4
REMARK VINA RESULT:       3.7      3.826      7.555
REMARK  Name = *****
REMARK                            x       y       z     vdW  Elec       q    Type
REMARK                         _______ _______ _______ _____ _____    ______ ____
ROOT
ATOM      1  C   LIG    1       27.420 -19.903   4.491  0.00  0.00    +0.048 C 
ATOM      2  C   LIG    1       26.555 -18.691   4.278  0.00  0.00    -0.001 C 
ATOM      3  C   LIG    1       25.150 -18.719   4.414  0.00  0.00    +0.052 C 
ATOM      4  C   LIG    1       24.415 -19.972   4.790  0.00  0.00    +0.204 C 
ATOM      5  C   LIG    1       22.946 -19.919   4.960  0.00  0.00    +0.122 C 
ATOM      6  C   LIG    1       22.349 -18.739   4.755  0.00  0.00    +0.105 C 
ATOM      7  N   LIG    1       22.982 -17.560   4.414  0.00  0.00    -0.343 NA
ATOM      8  O   LIG    1       24.978 -21.052   4.954  0.00  0.00    -0.286 OA
ATOM      9  C   LIG    1       24.392 -17.546   4.196  0.00  0.00    +0.055 C 
ATOM     10  C   LIG    1       25.064 -16.377   3.787  0.00  0.00    +0.052 C 
ATOM     11  C   LIG    1       26.460 -16.302   3.649  0.00  0.00    +0.068 C 
ATOM     12  C   LIG    1       27.177 -17.479   3.922  0.00  0.00    +0.148 C 
ATOM     13  F   LIG    1       28.517 -17.479   3.812  0.00  0.00    -0.203 F 
ENDROOT
BRANCH  11  14
ATOM     14  N   LIG    1       27.025 -15.060   3.284  0.00  0.00    -0.325 NA
ATOM     15  C   LIG    1       27.688 -14.358   4.414  0.00  0.00    +0.123 C 
ATOM     16  C   LIG    1       28.433 -13.076   3.934  0.00  0.00    +0.068 C 
ATOM     17  C   LIG    1       28.959 -12.285   5.133  0.00  0.00    +0.025 C 
ATOM     18  N   LIG    1       27.597 -12.170   3.113  0.00  0.00    -0.310 NA
ATOM     19  H   LIG    1       26.818 -11.840   3.685  0.00  0.00    +0.122 HD
ATOM     20  C   LIG    1       27.041 -12.940   1.983  0.00  0.00    +0.100 C 
ATOM     21  C   LIG    1       26.211 -14.161   2.437  0.00  0.00    +0.120 C 
ENDBRANCH  11  14
BRANCH   7  22
ATOM     22  C   LIG    1       22.147 -16.356   4.239  0.00  0.00    +0.087 C 
ATOM     23  C   LIG    1       21.874 -15.397   5.375  0.00  0.00    +0.027 C 
ATOM     24  C   LIG    1       22.745 -14.969   4.240  0.00  0.00    +0.027 C 
ENDBRANCH   7  22
BRANCH   5  25
ATOM     25  C   LIG    1       22.116 -21.082   5.341  0.00  0.00    +0.342 C 
ATOM     26  O   LIG    1       21.265 -21.572   4.607  0.00  0.00    -0.245 OA
BRANCH  25  27
ATOM     27  O   LIG    1       22.362 -21.572   6.575  0.00  0.00    -0.477 OA
ATOM     28  H   LIG    1       23.078 -21.092   7.059  0.00  0.00    +0.295 HD
ENDBRANCH  25  27
ENDBRANCH   5  25
TORSDOF 4
ENDMDL
MODEL 5
REMARK VINA RESULT:       4.8      3.487      6.808
REMARK  Name = *****
REMARK                            x       y       z     vdW  Elec       q    Type
REMARK                         _______ _______ _______ _____ _____    ______ ____
ROOT
ATOM      1  C   LIG    1       22.042 -15.716   3.864  0.00  0.00    +0.048 C 
ATOM      2  C   LIG    1       23.471 -16.186   3.910  0.00  0.00    -0.001 C 
ATOM      3  C   LIG    1       23.830 -17.521   4.196  0.00  0.00    +0.052 C 
ATOM      4  C   LIG    1       22.800 -18.577   4.472  0.00  0.00    +0.204 C 
ATOM      5  C   LIG    1       23.245 -19.966   4.719  0.00  0.00    +0.122 C 
ATOM      6  C   LIG    1       24.563 -20.200   4.692  0.00  0.00    +0.105 C 
ATOM      7  N   LIG    1       25.545 -19.265   4.438  0.00  0.00    -0.343 NA
ATOM      8  O   LIG    1       21.595 -18.339   4.512  0.00  0.00    -0.286 OA
ATOM      9  C   LIG    1       25.191 -17.899   4.229  0.00  0.00    +0.055 C 
ATOM     10  C   LIG    1       26.170 -16.905   4.029  0.00  0.00    +0.052 C 
ATOM     11  C   LIG    1       25.858 -15.568   3.732  0.00  0.00    +0.068 C 
ATOM     12  C   LIG    1       24.492 -15.248   3.662  0.00  0.00    +0.148 C 
ATOM     13  F   LIG    1       24.119 -13.988   3.380  0.00  0.00    -0.203 F 
ENDROOT
BRANCH  11  14
ATOM     14  N   LIG    1       26.925 -14.672   3.499  0.00  0.00    -0.325 NA
ATOM     15  C   LIG    1       27.311 -13.889   4.700  0.00  0.00    +0.123 C 
ATOM     16  C   LIG    1       28.589 -13.035   4.442  0.00  0.00    +0.068 C 
ATOM     17  C   LIG    1       28.865 -12.113   5.631  0.00  0.00    +0.025 C 
ATOM     18  N   LIG    1       28.515 -12.202   3.219  0.00  0.00    -0.310 NA
ATOM     19  H   LIG    1       27.752 -11.533   3.329  0.00  0.00    +0.122 HD
ATOM     20  C   LIG    1       28.196 -13.078   2.074  0.00  0.00    +0.100 C 
ATOM     21  C   LIG    1       26.876 -13.859   2.264  0.00  0.00    +0.120 C 
ENDBRANCH  11  14
BRANCH   7  22
ATOM     22  C   LIG    1       26.949 -19.721   4.445  0.00  0.00    +0.087 C 
ATOM     23  C   LIG    1       27.982 -19.122   5.371  0.00  0.00    +0.027 C 
ATOM     24  C   LIG    1       27.516 -20.524   5.591  0.00  0.00    +0.027 C 
ENDBRANCH   7  22
BRANCH   5  25
ATOM     25  C   LIG    1       22.325 -21.092   4.987  0.00  0.00    +0.342 C 
ATOM     26  O   LIG    1       21.577 -21.568   4.140  0.00  0.00    -0.245 OA
BRANCH  25  27
ATOM     27  O   LIG    1       22.364 -21.566   6.251  0.00  0.00    -0.477 OA
ATOM     28  H   LIG    1       23.270 -21.824   6.551  0.00  0.00    +0.295 HD
ENDBRANCH  25  27
ENDBRANCH   5  25
TORSDOF 4
ENDMDL
