MODEL 1
REMARK VINA RESULT:      -1.2      0.000      0.000
REMARK  Name = *****
REMARK                            x       y       z     vdW  Elec       q    Type
REMARK                         _______ _______ _______ _____ _____    ______ ____
ROOT
ATOM      1  C   LIG    1       23.627 -19.166   4.484  0.00  0.00    +0.008 C 
ATOM      2  C   LIG    1       24.153 -20.190   5.194  0.00  0.00    +0.056 C 
ATOM      3 CL   LIG    1       23.188 -21.572   5.669  0.00  0.00    -0.082 Cl
ENDROOT
BRANCH   1   7
ATOM      4  C   LIG    1       26.150 -16.005   3.030  0.00  0.00    +0.121 A 
ATOM      5  C   LIG    1       26.560 -17.335   2.955  0.00  0.00    +0.046 A 
ATOM      6  C   LIG    1       25.739 -18.354   3.446  0.00  0.00    +0.012 A 
ATOM      7  C   LIG    1       24.500 -18.057   4.022  0.00  0.00    -0.016 A 
ATOM      8  C   LIG    1       24.085 -16.726   4.098  0.00  0.00    +0.012 A 
ATOM      9  C   LIG    1       24.915 -15.706   3.614  0.00  0.00    +0.046 A 
BRANCH   4  10
ATOM     10  O   LIG    1       26.888 -14.929   2.621  0.00  0.00    -0.491 OA
BRANCH  10  11
ATOM     11  C   LIG    1       27.594 -14.168   3.618  0.00  0.00    +0.244 C 
BRANCH  11  12
ATOM     12  C   LIG    1       27.451 -12.664   3.315  0.00  0.00    +0.125 C 
BRANCH  12  13
ATOM     13  N   LIG    1       26.128 -12.019   3.481  0.00  0.00    -0.300 NA
BRANCH  13  15
ATOM     14  C   LIG    1       24.375 -12.770   1.812  0.00  0.00    +0.020 C 
ATOM     15  C   LIG    1       25.431 -11.740   2.216  0.00  0.00    +0.081 C 
ENDBRANCH  13  15
BRANCH  13  16
ATOM     16  C   LIG    1       25.290 -12.760   4.443  0.00  0.00    +0.081 C 
ATOM     17  C   LIG    1       24.245 -11.909   5.164  0.00  0.00    +0.020 C 
ENDBRANCH  13  16
ENDBRANCH  12  13
ENDBRANCH  11  12
ENDBRANCH  10  11
ENDBRANCH   4  10
ENDBRANCH   1   7
BRANCH   1  18
ATOM     18  C   LIG    1       22.175 -19.130   4.123  0.00  0.00    -0.016 A 
ATOM     19  C   LIG    1       21.651 -18.044   3.407  0.00  0.00    +0.008 A 
ATOM     20  C   LIG    1       20.306 -18.026   3.023  0.00  0.00    +0.001 A 
ATOM     21  C   LIG    1       19.474 -19.097   3.343  0.00  0.00    +0.000 A 
ATOM     22  C   LIG    1       19.986 -20.187   4.045  0.00  0.00    +0.001 A 
ATOM     23  C   LIG    1       21.330 -20.204   4.435  0.00  0.00    +0.008 A 
ENDBRANCH   1  18
BRANCH   2  24
ATOM     24  C   LIG    1       25.556 -20.304   5.675  0.00  0.00    -0.006 A 
ATOM     25  C   LIG    1       25.888 -21.262   6.646  0.00  0.00    +0.009 A 
ATOM     26  C   LIG    1       27.215 -21.435   7.062  0.00  0.00    +0.001 A 
ATOM     27  C   LIG    1       28.228 -20.660   6.503  0.00  0.00    +0.000 A 
ATOM     28  C   LIG    1       27.914 -19.709   5.532  0.00  0.00    +0.001 A 
ATOM     29  C   LIG    1       26.585 -19.528   5.123  0.00  0.00    +0.009 A 
ENDBRANCH   2  24
TORSDOF 9
ENDMDL
MODEL 2
REMARK VINA RESULT:      -0.1      1.094      2.098
REMARK  Name = *****
REMARK                            x       y       z     vdW  Elec       q    Type
REMARK                         _______ _______ _______ _____ _____    ______ ____
ROOT
ATOM      1  C   LIG    1       24.570 -19.235   4.602  0.00  0.00    +0.008 C 
ATOM      2  C   LIG    1       25.373 -20.057   5.317  0.00  0.00    +0.056 C 
ATOM      3 CL   LIG    1       24.784 -21.561   5.991  0.00  0.00    -0.082 Cl
ENDROOT
BRANCH   1   7
ATOM      4  C   LIG    1       26.191 -15.760   2.663  0.00  0.00    +0.121 A 
ATOM      5  C   LIG    1       26.887 -16.968   2.658  0.00  0.00    +0.046 A 
ATOM      6  C   LIG    1       26.359 -18.087   3.306  0.00  0.00    +0.012 A 
ATOM      7  C   LIG    1       25.131 -18.014   3.971  0.00  0.00    -0.016 A 
ATOM      8  C   LIG    1       24.429 -16.806   3.976  0.00  0.00    +0.012 A 
ATOM      9  C   LIG    1       24.967 -15.683   3.334  0.00  0.00    +0.046 A 
BRANCH   4  10
ATOM     10  O   LIG    1       26.632 -14.595   2.099  0.00  0.00    -0.491 OA
BRANCH  10  11
ATOM     11  C   LIG    1       25.740 -13.467   2.078  0.00  0.00    +0.244 C 
BRANCH  11  12
ATOM     12  C   LIG    1       26.305 -12.345   2.971  0.00  0.00    +0.125 C 
BRANCH  12  13
ATOM     13  N   LIG    1       26.118 -12.429   4.438  0.00  0.00    -0.300 NA
BRANCH  13  15
ATOM     14  C   LIG    1       23.684 -11.797   4.753  0.00  0.00    +0.020 C 
ATOM     15  C   LIG    1       24.775 -12.865   4.850  0.00  0.00    +0.081 C 
ENDBRANCH  13  15
BRANCH  13  16
ATOM     16  C   LIG    1       27.193 -13.219   5.067  0.00  0.00    +0.081 C 
ATOM     17  C   LIG    1       28.422 -12.408   5.478  0.00  0.00    +0.020 C 
ENDBRANCH  13  16
ENDBRANCH  12  13
ENDBRANCH  11  12
ENDBRANCH  10  11
ENDBRANCH   4  10
ENDBRANCH   1   7
BRANCH   1  18
ATOM     18  C   LIG    1       23.118 -19.540   4.405  0.00  0.00    -0.016 A 
ATOM     19  C   LIG    1       22.628 -20.832   4.646  0.00  0.00    +0.008 A 
ATOM     20  C   LIG    1       21.264 -21.113   4.513  0.00  0.00    +0.001 A 
ATOM     21  C   LIG    1       20.376 -20.104   4.146  0.00  0.00    +0.000 A 
ATOM     22  C   LIG    1       20.850 -18.814   3.914  0.00  0.00    +0.001 A 
ATOM     23  C   LIG    1       22.214 -18.533   4.041  0.00  0.00    +0.008 A 
ENDBRANCH   1  18
BRANCH   2  24
ATOM     24  C   LIG    1       26.806 -19.827   5.645  0.00  0.00    -0.006 A 
ATOM     25  C   LIG    1       27.474 -18.710   5.118  0.00  0.00    +0.009 A 
ATOM     26  C   LIG    1       28.802 -18.435   5.470  0.00  0.00    +0.001 A 
ATOM     27  C   LIG    1       29.475 -19.266   6.362  0.00  0.00    +0.000 A 
ATOM     28  C   LIG    1       28.820 -20.375   6.900  0.00  0.00    +0.001 A 
ATOM     29  C   LIG    1       27.495 -20.657   6.539  0.00  0.00    +0.009 A 
ENDBRANCH   2  24
TORSDOF 9
ENDMDL
MODEL 3
REMARK VINA RESULT:       0.3      1.272      4.991
REMARK  Name = *****
REMARK                            x       y       z     vdW  Elec       q    Type
REMARK                         _______ _______ _______ _____ _____    ______ ____
ROOT
ATOM      1  C   LIG    1       24.082 -19.160   4.738  0.00  0.00    +0.008 C 
ATOM      2  C   LIG    1       22.882 -19.773   4.626  0.00  0.00    +0.056 C 
ATOM      3 CL   LIG    1       22.607 -21.382   5.261  0.00  0.00    -0.082 Cl
ENDROOT
BRANCH   1   7
ATOM      4  C   LIG    1       24.582 -15.076   3.497  0.00  0.00    +0.121 A 
ATOM      5  C   LIG    1       23.556 -15.435   4.369  0.00  0.00    +0.046 A 
ATOM      6  C   LIG    1       23.392 -16.768   4.753  0.00  0.00    +0.012 A 
ATOM      7  C   LIG    1       24.248 -17.762   4.267  0.00  0.00    -0.016 A 
ATOM      8  C   LIG    1       25.278 -17.406   3.394  0.00  0.00    +0.012 A 
ATOM      9  C   LIG    1       25.434 -16.070   3.003  0.00  0.00    +0.046 A 
BRANCH   4  10
ATOM     10  O   LIG    1       24.807 -13.813   3.023  0.00  0.00    -0.491 OA
BRANCH  10  11
ATOM     11  C   LIG    1       26.030 -13.562   2.308  0.00  0.00    +0.244 C 
BRANCH  11  12
ATOM     12  C   LIG    1       27.141 -14.485   2.845  0.00  0.00    +0.125 C 
BRANCH  12  13
ATOM     13  N   LIG    1       28.057 -13.976   3.892  0.00  0.00    -0.300 NA
BRANCH  13  15
ATOM     14  C   LIG    1       29.210 -11.963   4.912  0.00  0.00    +0.020 C 
ATOM     15  C   LIG    1       28.377 -12.545   3.769  0.00  0.00    +0.081 C 
ENDBRANCH  13  15
BRANCH  13  16
ATOM     16  C   LIG    1       27.582 -14.341   5.239  0.00  0.00    +0.081 C 
ATOM     17  C   LIG    1       26.659 -13.310   5.891  0.00  0.00    +0.020 C 
ENDBRANCH  13  16
ENDBRANCH  12  13
ENDBRANCH  11  12
ENDBRANCH  10  11
ENDBRANCH   4  10
ENDBRANCH   1   7
BRANCH   1  18
ATOM     18  C   LIG    1       25.258 -19.852   5.353  0.00  0.00    -0.016 A 
ATOM     19  C   LIG    1       26.562 -19.508   4.967  0.00  0.00    +0.008 A 
ATOM     20  C   LIG    1       27.668 -20.114   5.573  0.00  0.00    +0.001 A 
ATOM     21  C   LIG    1       27.482 -21.063   6.576  0.00  0.00    +0.000 A 
ATOM     22  C   LIG    1       26.191 -21.405   6.975  0.00  0.00    +0.001 A 
ATOM     23  C   LIG    1       25.083 -20.804   6.366  0.00  0.00    +0.008 A 
ENDBRANCH   1  18
BRANCH   2  24
ATOM     24  C   LIG    1       21.665 -19.222   3.971  0.00  0.00    -0.006 A 
ATOM     25  C   LIG    1       21.727 -17.990   3.301  0.00  0.00    +0.009 A 
ATOM     26  C   LIG    1       20.613 -17.486   2.617  0.00  0.00    +0.001 A 
ATOM     27  C   LIG    1       19.426 -18.214   2.585  0.00  0.00    +0.000 A 
ATOM     28  C   LIG    1       19.352 -19.443   3.239  0.00  0.00    +0.001 A 
ATOM     29  C   LIG    1       20.463 -19.943   3.933  0.00  0.00    +0.009 A 
ENDBRANCH   2  24
TORSDOF 9
ENDMDL
MODEL 4
REMARK VINA RESULT:       0.4      1.014      4.873
REMARK  Name = *****
REMARK                            x       y       z     vdW  Elec       q    Type
REMARK                         _______ _______ _______ _____ _____    ______ ____
ROOT
ATOM      1  C   LIG    1       24.902 -19.437   5.028  0.00  0.00    +0.008 C 
ATOM      2  C   LIG    1       23.730 -20.098   5.168  0.00  0.00    +0.056 C 
ATOM      3 CL   LIG    1       23.602 -21.552   6.136  0.00  0.00    -0.082 Cl
ENDROOT
BRANCH   1   7
ATOM      4  C   LIG    1       25.042 -15.675   2.958  0.00  0.00    +0.121 A 
ATOM      5  C   LIG    1       23.995 -15.969   3.829  0.00  0.00    +0.046 A 
ATOM      6  C   LIG    1       23.950 -17.202   4.485  0.00  0.00    +0.012 A 
ATOM      7  C   LIG    1       24.948 -18.159   4.275  0.00  0.00    -0.016 A 
ATOM      8  C   LIG    1       26.000 -17.867   3.404  0.00  0.00    +0.012 A 
ATOM      9  C   LIG    1       26.037 -16.633   2.740  0.00  0.00    +0.046 A 
BRANCH   4  10
ATOM     10  O   LIG    1       25.163 -14.521   2.234  0.00  0.00    -0.491 OA
BRANCH  10  11
ATOM     11  C   LIG    1       26.439 -13.856   2.218  0.00  0.00    +0.244 C 
BRANCH  11  12
ATOM     12  C   LIG    1       26.480 -12.792   3.333  0.00  0.00    +0.125 C 
BRANCH  12  13
ATOM     13  N   LIG    1       26.517 -13.232   4.747  0.00  0.00    -0.300 NA
BRANCH  13  15
ATOM     14  C   LIG    1       28.831 -12.212   4.594  0.00  0.00    +0.020 C 
ATOM     15  C   LIG    1       27.770 -12.909   5.446  0.00  0.00    +0.081 C 
ENDBRANCH  13  15
BRANCH  13  16
ATOM     16  C   LIG    1       25.320 -12.774   5.479  0.00  0.00    +0.081 C 
ATOM     17  C   LIG    1       24.343 -11.944   4.645  0.00  0.00    +0.020 C 
ENDBRANCH  13  16
ENDBRANCH  12  13
ENDBRANCH  11  12
ENDBRANCH  10  11
ENDBRANCH   4  10
ENDBRANCH   1   7
BRANCH   1  18
ATOM     18  C   LIG    1       26.166 -19.952   5.642  0.00  0.00    -0.016 A 
ATOM     19  C   LIG    1       26.131 -21.042   6.524  0.00  0.00    +0.008 A 
ATOM     20  C   LIG    1       27.313 -21.562   7.062  0.00  0.00    +0.001 A 
ATOM     21  C   LIG    1       28.542 -21.002   6.718  0.00  0.00    +0.000 A 
ATOM     22  C   LIG    1       28.590 -19.926   5.833  0.00  0.00    +0.001 A 
ATOM     23  C   LIG    1       27.408 -19.401   5.299  0.00  0.00    +0.008 A 
ENDBRANCH   1  18
BRANCH   2  24
ATOM     24  C   LIG    1       22.428 -19.730   4.548  0.00  0.00    -0.006 A 
ATOM     25  C   LIG    1       21.373 -20.657   4.531  0.00  0.00    +0.009 A 
ATOM     26  C   LIG    1       20.118 -20.309   4.018  0.00  0.00    +0.001 A 
ATOM     27  C   LIG    1       19.897 -19.025   3.525  0.00  0.00    +0.000 A 
ATOM     28  C   LIG    1       20.933 -18.091   3.543  0.00  0.00    +0.001 A 
ATOM     29  C   LIG    1       22.193 -18.443   4.047  0.00  0.00    +0.009 A 
ENDBRANCH   2  24
TORSDOF 9
ENDMDL
MODEL 5
REMARK VINA RESULT:       0.5      1.063      4.733
REMARK  Name = *****
REMARK                            x       y       z     vdW  Elec       q    Type
REMARK                         _______ _______ _______ _____ _____    ______ ____
ROOT
ATOM      1  C   LIG    1       25.308 -19.496   4.972  0.00  0.00    +0.008 C 
ATOM      2  C   LIG    1       24.126 -20.131   5.140  0.00  0.00    +0.056 C 
ATOM      3 CL   LIG    1       23.986 -21.571   6.125  0.00  0.00    -0.082 Cl
ENDROOT
BRANCH   1   7
ATOM      4  C   LIG    1       25.483 -15.758   2.859  0.00  0.00    +0.121 A 
ATOM      5  C   LIG    1       24.428 -16.037   3.725  0.00  0.00    +0.046 A 
ATOM      6  C   LIG    1       24.372 -17.263   4.395  0.00  0.00    +0.012 A 
ATOM      7  C   LIG    1       25.367 -18.226   4.204  0.00  0.00    -0.016 A 
ATOM      8  C   LIG    1       26.427 -17.950   3.337  0.00  0.00    +0.012 A 
ATOM      9  C   LIG    1       26.475 -16.724   2.660  0.00  0.00    +0.046 A 
BRANCH   4  10
ATOM     10  O   LIG    1       25.616 -14.613   2.123  0.00  0.00    -0.491 OA
BRANCH  10  11
ATOM     11  C   LIG    1       26.858 -13.891   2.202  0.00  0.00    +0.244 C 
BRANCH  11  12
ATOM     12  C   LIG    1       26.657 -12.609   3.032  0.00  0.00    +0.125 C 
BRANCH  12  13
ATOM     13  N   LIG    1       26.096 -12.716   4.399  0.00  0.00    -0.300 NA
BRANCH  13  15
ATOM     14  C   LIG    1       23.947 -12.076   3.220  0.00  0.00    +0.020 C 
ATOM     15  C   LIG    1       24.627 -12.672   4.453  0.00  0.00    +0.081 C 
ENDBRANCH  13  15
BRANCH  13  16
ATOM     16  C   LIG    1       26.659 -13.876   5.116  0.00  0.00    +0.081 C 
ATOM     17  C   LIG    1       26.941 -13.633   6.599  0.00  0.00    +0.020 C 
ENDBRANCH  13  16
ENDBRANCH  12  13
ENDBRANCH  11  12
ENDBRANCH  10  11
ENDBRANCH   4  10
ENDBRANCH   1   7
BRANCH   1  18
ATOM     18  C   LIG    1       26.573 -20.030   5.568  0.00  0.00    -0.016 A 
ATOM     19  C   LIG    1       27.802 -19.417   5.285  0.00  0.00    +0.008 A 
ATOM     20  C   LIG    1       28.982 -19.879   5.877  0.00  0.00    +0.001 A 
ATOM     21  C   LIG    1       28.944 -20.953   6.764  0.00  0.00    +0.000 A 
ATOM     22  C   LIG    1       27.727 -21.563   7.062  0.00  0.00    +0.001 A 
ATOM     23  C   LIG    1       26.547 -21.106   6.466  0.00  0.00    +0.008 A 
ENDBRANCH   1  18
BRANCH   2  24
ATOM     24  C   LIG    1       22.821 -19.743   4.539  0.00  0.00    -0.006 A 
ATOM     25  C   LIG    1       21.776 -20.679   4.470  0.00  0.00    +0.009 A 
ATOM     26  C   LIG    1       20.517 -20.315   3.974  0.00  0.00    +0.001 A 
ATOM     27  C   LIG    1       20.284 -19.009   3.553  0.00  0.00    +0.000 A 
ATOM     28  C   LIG    1       21.309 -18.067   3.624  0.00  0.00    +0.001 A 
ATOM     29  C   LIG    1       22.573 -18.432   4.110  0.00  0.00    +0.009 A 
ENDBRANCH   2  24
TORSDOF 9
ENDMDL
MODEL 6
REMARK VINA RESULT:       1.0      3.334      6.761
REMARK  Name = *****
REMARK                            x       y       z     vdW  Elec       q    Type
REMARK                         _______ _______ _______ _____ _____    ______ ____
ROOT
ATOM      1  C   LIG    1       26.217 -15.172   3.668  0.00  0.00    +0.008 C 
ATOM      2  C   LIG    1       27.456 -15.169   4.210  0.00  0.00    +0.056 C 
ATOM      3 CL   LIG    1       28.421 -13.711   4.296  0.00  0.00    -0.082 Cl
ENDROOT
BRANCH   1   7
ATOM      4  C   LIG    1       23.761 -18.698   3.669  0.00  0.00    +0.121 A 
ATOM      5  C   LIG    1       23.246 -17.471   4.085  0.00  0.00    +0.046 A 
ATOM      6  C   LIG    1       24.058 -16.334   4.097  0.00  0.00    +0.012 A 
ATOM      7  C   LIG    1       25.396 -16.408   3.697  0.00  0.00    -0.016 A 
ATOM      8  C   LIG    1       25.915 -17.635   3.278  0.00  0.00    +0.012 A 
ATOM      9  C   LIG    1       25.101 -18.775   3.277  0.00  0.00    +0.046 A 
BRANCH   4  10
ATOM     10  O   LIG    1       23.071 -19.878   3.657  0.00  0.00    -0.491 OA
BRANCH  10  11
ATOM     11  C   LIG    1       23.820 -21.106   3.614  0.00  0.00    +0.244 C 
BRANCH  11  12
ATOM     12  C   LIG    1       24.930 -21.070   4.683  0.00  0.00    +0.125 C 
BRANCH  12  13
ATOM     13  N   LIG    1       24.634 -21.568   6.046  0.00  0.00    -0.300 NA
BRANCH  13  15
ATOM     14  C   LIG    1       27.081 -21.222   6.607  0.00  0.00    +0.020 C 
ATOM     15  C   LIG    1       25.622 -21.170   7.061  0.00  0.00    +0.081 C 
ENDBRANCH  13  15
BRANCH  13  16
ATOM     16  C   LIG    1       23.249 -21.250   6.441  0.00  0.00    +0.081 C 
ATOM     17  C   LIG    1       23.067 -19.864   7.062  0.00  0.00    +0.020 C 
ENDBRANCH  13  16
ENDBRANCH  12  13
ENDBRANCH  11  12
ENDBRANCH  10  11
ENDBRANCH   4  10
ENDBRANCH   1   7
BRANCH   1  18
ATOM     18  C   LIG    1       25.632 -13.939   3.054  0.00  0.00    -0.016 A 
ATOM     19  C   LIG    1       24.266 -13.655   3.202  0.00  0.00    +0.008 A 
ATOM     20  C   LIG    1       23.721 -12.480   2.674  0.00  0.00    +0.001 A 
ATOM     21  C   LIG    1       24.537 -11.573   2.000  0.00  0.00    +0.000 A 
ATOM     22  C   LIG    1       25.897 -11.838   1.857  0.00  0.00    +0.001 A 
ATOM     23  C   LIG    1       26.443 -13.016   2.379  0.00  0.00    +0.008 A 
ENDBRANCH   1  18
BRANCH   2  24
ATOM     24  C   LIG    1       28.174 -16.341   4.781  0.00  0.00    -0.006 A 
ATOM     25  C   LIG    1       28.770 -16.249   6.049  0.00  0.00    +0.009 A 
ATOM     26  C   LIG    1       29.388 -17.360   6.636  0.00  0.00    +0.001 A 
ATOM     27  C   LIG    1       29.409 -18.582   5.966  0.00  0.00    +0.000 A 
ATOM     28  C   LIG    1       28.814 -18.691   4.710  0.00  0.00    +0.001 A 
ATOM     29  C   LIG    1       28.204 -17.576   4.117  0.00  0.00    +0.009 A 
ENDBRANCH   2  24
TORSDOF 9
ENDMDL
MODEL 7
REMARK VINA RESULT:       1.1      3.169      7.520
REMARK  Name = *****
REMARK                            x       y       z     vdW  Elec       q    Type
REMARK                         _______ _______ _______ _____ _____    ______ ____
ROOT
ATOM      1  C   LIG    1       26.517 -14.887   4.141  0.00  0.00    +0.008 C 
ATOM      2  C   LIG    1       25.193 -14.662   3.975  0.00  0.00    +0.056 C 
ATOM      3 CL   LIG    1       24.568 -13.068   3.613  0.00  0.00    -0.082 Cl
ENDROOT
BRANCH   1   7
ATOM      4  C   LIG    1       27.944 -18.870   4.890  0.00  0.00    +0.121 A 
ATOM      5  C   LIG    1       28.633 -17.763   5.381  0.00  0.00    +0.046 A 
ATOM      6  C   LIG    1       28.170 -16.471   5.118  0.00  0.00    +0.012 A 
ATOM      7  C   LIG    1       27.014 -16.269   4.356  0.00  0.00    -0.016 A 
ATOM      8  C   LIG    1       26.320 -17.376   3.863  0.00  0.00    +0.012 A 
ATOM      9  C   LIG    1       26.793 -18.670   4.121  0.00  0.00    +0.046 A 
BRANCH   4  10
ATOM     10  O   LIG    1       28.329 -20.172   5.051  0.00  0.00    -0.491 OA
BRANCH  10  11
ATOM     11  C   LIG    1       28.193 -20.768   6.353  0.00  0.00    +0.244 C 
BRANCH  11  12
ATOM     12  C   LIG    1       26.856 -21.532   6.433  0.00  0.00    +0.125 C 
BRANCH  12  13
ATOM     13  N   LIG    1       25.621 -20.873   5.947  0.00  0.00    -0.300 NA
BRANCH  13  15
ATOM     14  C   LIG    1       24.619 -20.695   3.626  0.00  0.00    +0.020 C 
ATOM     15  C   LIG    1       24.964 -21.572   4.831  0.00  0.00    +0.081 C 
ENDBRANCH  13  15
BRANCH  13  16
ATOM     16  C   LIG    1       24.698 -20.584   7.061  0.00  0.00    +0.081 C 
ATOM     17  C   LIG    1       23.223 -20.835   6.748  0.00  0.00    +0.020 C 
ENDBRANCH  13  16
ENDBRANCH  12  13
ENDBRANCH  11  12
ENDBRANCH  10  11
ENDBRANCH   4  10
ENDBRANCH   1   7
BRANCH   1  18
ATOM     18  C   LIG    1       27.511 -13.769   4.088  0.00  0.00    -0.016 A 
ATOM     19  C   LIG    1       27.839 -13.059   5.252  0.00  0.00    +0.008 A 
ATOM     20  C   LIG    1       28.804 -12.046   5.220  0.00  0.00    +0.001 A 
ATOM     21  C   LIG    1       29.456 -11.739   4.028  0.00  0.00    +0.000 A 
ATOM     22  C   LIG    1       29.146 -12.446   2.867  0.00  0.00    +0.001 A 
ATOM     23  C   LIG    1       28.177 -13.455   2.895  0.00  0.00    +0.008 A 
ENDBRANCH   1  18
BRANCH   2  24
ATOM     24  C   LIG    1       24.106 -15.672   4.080  0.00  0.00    -0.006 A 
ATOM     25  C   LIG    1       24.273 -16.944   3.507  0.00  0.00    +0.009 A 
ATOM     26  C   LIG    1       23.292 -17.933   3.655  0.00  0.00    +0.001 A 
ATOM     27  C   LIG    1       22.137 -17.668   4.386  0.00  0.00    +0.000 A 
ATOM     28  C   LIG    1       21.961 -16.412   4.967  0.00  0.00    +0.001 A 
ATOM     29  C   LIG    1       22.937 -15.418   4.811  0.00  0.00    +0.009 A 
ENDBRANCH   2  24
TORSDOF 9
ENDMDL
