MODEL 1
REMARK VINA RESULT:      -5.8      0.000      0.000
REMARK  Name = *****
REMARK                            x       y       z     vdW  Elec       q    Type
REMARK                         _______ _______ _______ _____ _____    ______ ____
ROOT
ATOM      1  C   LIG    1       26.001 -16.429   3.767  0.00  0.00    +0.014 C 
ATOM      2  C   LIG    1       25.558 -17.764   3.187  0.00  0.00    +0.024 C 
ATOM      3  C   LIG    1       26.953 -17.594   3.737  0.00  0.00    +0.014 C 
ENDROOT
BRANCH   2   4
ATOM      4  C   LIG    1       24.542 -18.604   3.920  0.00  0.00    -0.037 A 
ATOM      5  C   LIG    1       24.893 -19.693   4.717  0.00  0.00    +0.001 A 
ATOM      6  C   LIG    1       26.234 -20.256   5.005  0.00  0.00    +0.080 C 
ATOM      7  C   LIG    1       25.866 -21.231   6.123  0.00  0.00    +0.234 C 
ATOM      8  O   LIG    1       24.456 -21.537   6.048  0.00  0.00    -0.491 OA
ATOM      9  C   LIG    1       23.935 -20.492   5.331  0.00  0.00    +0.124 A 
ATOM     10  C   LIG    1       22.584 -20.255   5.196  0.00  0.00    +0.046 A 
ATOM     11  C   LIG    1       22.195 -19.166   4.422  0.00  0.00    +0.004 A 
ATOM     12  C   LIG    1       23.160 -18.360   3.792  0.00  0.00    +0.004 A 
ENDBRANCH   2   4
BRANCH   1  13
ATOM     13  C   LIG    1       26.180 -15.248   2.866  0.00  0.00    +0.108 C 
BRANCH  13  15
ATOM     14  C   LIG    1       25.328 -13.401   4.271  0.00  0.00    +0.213 C 
ATOM     15  N   LIG    1       25.203 -14.228   3.168  0.00  0.00    -0.315 N 
ATOM     16  H   LIG    1       24.394 -14.140   2.574  0.00  0.00    +0.149 HD
ATOM     17  O   LIG    1       26.268 -13.442   5.047  0.00  0.00    -0.276 OA
BRANCH  14  19
ATOM     18  C   LIG    1       23.872 -11.697   3.116  0.00  0.00    +0.013 C 
ATOM     19  C   LIG    1       24.166 -12.436   4.411  0.00  0.00    +0.092 C 
ENDBRANCH  14  19
ENDBRANCH  13  15
ENDBRANCH   1  13
TORSDOF 4
ENDMDL
MODEL 2
REMARK VINA RESULT:      -5.5      2.349      5.990
REMARK  Name = *****
REMARK                            x       y       z     vdW  Elec       q    Type
REMARK                         _______ _______ _______ _____ _____    ______ ____
ROOT
ATOM      1  C   LIG    1       24.906 -19.339   4.547  0.00  0.00    +0.014 C 
ATOM      2  C   LIG    1       24.932 -18.305   3.432  0.00  0.00    +0.024 C 
ATOM      3  C   LIG    1       23.853 -19.360   3.474  0.00  0.00    +0.014 C 
ENDROOT
BRANCH   2   4
ATOM      4  C   LIG    1       24.606 -16.864   3.733  0.00  0.00    -0.037 A 
ATOM      5  C   LIG    1       25.552 -15.842   3.660  0.00  0.00    +0.001 A 
ATOM      6  C   LIG    1       26.992 -15.914   3.313  0.00  0.00    +0.080 C 
ATOM      7  C   LIG    1       27.299 -14.422   3.186  0.00  0.00    +0.234 C 
ATOM      8  O   LIG    1       26.302 -13.665   3.906  0.00  0.00    -0.491 OA
ATOM      9  C   LIG    1       25.244 -14.531   4.005  0.00  0.00    +0.124 A 
ATOM     10  C   LIG    1       23.988 -14.159   4.432  0.00  0.00    +0.046 A 
ATOM     11  C   LIG    1       23.012 -15.148   4.502  0.00  0.00    +0.004 A 
ATOM     12  C   LIG    1       23.321 -16.478   4.162  0.00  0.00    +0.004 A 
ENDBRANCH   2   4
BRANCH   1  13
ATOM     13  C   LIG    1       25.974 -20.386   4.618  0.00  0.00    +0.108 C 
BRANCH  13  15
ATOM     14  C   LIG    1       27.806 -20.308   6.275  0.00  0.00    +0.213 C 
ATOM     15  N   LIG    1       27.203 -19.823   5.128  0.00  0.00    -0.315 N 
ATOM     16  H   LIG    1       27.610 -19.036   4.649  0.00  0.00    +0.149 HD
ATOM     17  O   LIG    1       27.380 -21.250   6.921  0.00  0.00    -0.276 OA
BRANCH  14  19
ATOM     18  C   LIG    1       29.386 -18.450   5.633  0.00  0.00    +0.013 C 
ATOM     19  C   LIG    1       29.061 -19.538   6.643  0.00  0.00    +0.092 C 
ENDBRANCH  14  19
ENDBRANCH  13  15
ENDBRANCH   1  13
TORSDOF 4
ENDMDL
MODEL 3
REMARK VINA RESULT:      -5.0      1.707      2.869
REMARK  Name = *****
REMARK                            x       y       z     vdW  Elec       q    Type
REMARK                         _______ _______ _______ _____ _____    ______ ____
ROOT
ATOM      1  C   LIG    1       25.942 -16.501   3.852  0.00  0.00    +0.014 C 
ATOM      2  C   LIG    1       25.811 -17.857   3.174  0.00  0.00    +0.024 C 
ATOM      3  C   LIG    1       27.158 -17.360   3.639  0.00  0.00    +0.014 C 
ENDROOT
BRANCH   2   4
ATOM      4  C   LIG    1       25.126 -18.994   3.890  0.00  0.00    -0.037 A 
ATOM      5  C   LIG    1       23.748 -19.037   4.099  0.00  0.00    +0.001 A 
ATOM      6  C   LIG    1       22.706 -18.054   3.715  0.00  0.00    +0.080 C 
ATOM      7  C   LIG    1       21.455 -18.876   4.023  0.00  0.00    +0.234 C 
ATOM      8  O   LIG    1       21.789 -19.929   4.953  0.00  0.00    -0.491 OA
ATOM      9  C   LIG    1       23.147 -20.064   4.818  0.00  0.00    +0.124 A 
ATOM     10  C   LIG    1       23.870 -21.102   5.361  0.00  0.00    +0.046 A 
ATOM     11  C   LIG    1       25.248 -21.104   5.159  0.00  0.00    +0.004 A 
ATOM     12  C   LIG    1       25.862 -20.063   4.440  0.00  0.00    +0.004 A 
ENDBRANCH   2   4
BRANCH   1  13
ATOM     13  C   LIG    1       25.719 -15.249   3.062  0.00  0.00    +0.108 C 
BRANCH  13  15
ATOM     14  C   LIG    1       27.364 -13.706   4.074  0.00  0.00    +0.213 C 
ATOM     15  N   LIG    1       26.932 -14.467   3.001  0.00  0.00    -0.315 N 
ATOM     16  H   LIG    1       27.457 -14.453   2.142  0.00  0.00    +0.149 HD
ATOM     17  O   LIG    1       26.789 -13.657   5.147  0.00  0.00    -0.276 OA
BRANCH  14  19
ATOM     18  C   LIG    1       29.023 -11.992   4.893  0.00  0.00    +0.013 C 
ATOM     19  C   LIG    1       28.637 -12.938   3.768  0.00  0.00    +0.092 C 
ENDBRANCH  14  19
ENDBRANCH  13  15
ENDBRANCH   1  13
TORSDOF 4
ENDMDL
MODEL 4
REMARK VINA RESULT:      -5.0      1.223      2.359
REMARK  Name = *****
REMARK                            x       y       z     vdW  Elec       q    Type
REMARK                         _______ _______ _______ _____ _____    ______ ____
ROOT
ATOM      1  C   LIG    1       26.007 -16.450   3.730  0.00  0.00    +0.014 C 
ATOM      2  C   LIG    1       26.024 -17.888   3.237  0.00  0.00    +0.024 C 
ATOM      3  C   LIG    1       27.296 -17.225   3.705  0.00  0.00    +0.014 C 
ENDROOT
BRANCH   2   4
ATOM      4  C   LIG    1       25.378 -18.975   4.060  0.00  0.00    -0.037 A 
ATOM      5  C   LIG    1       23.998 -19.077   4.231  0.00  0.00    +0.001 A 
ATOM      6  C   LIG    1       22.916 -18.210   3.704  0.00  0.00    +0.080 C 
ATOM      7  C   LIG    1       21.703 -19.066   4.068  0.00  0.00    +0.234 C 
ATOM      8  O   LIG    1       22.063 -19.982   5.126  0.00  0.00    -0.491 OA
ATOM      9  C   LIG    1       23.430 -20.048   5.047  0.00  0.00    +0.124 A 
ATOM     10  C   LIG    1       24.191 -20.971   5.730  0.00  0.00    +0.046 A 
ATOM     11  C   LIG    1       25.572 -20.912   5.571  0.00  0.00    +0.004 A 
ATOM     12  C   LIG    1       26.153 -19.926   4.754  0.00  0.00    +0.004 A 
ENDBRANCH   2   4
BRANCH   1  13
ATOM     13  C   LIG    1       25.746 -15.334   2.767  0.00  0.00    +0.108 C 
BRANCH  13  15
ATOM     14  C   LIG    1       24.260 -13.893   4.119  0.00  0.00    +0.213 C 
ATOM     15  N   LIG    1       25.468 -14.107   3.477  0.00  0.00    -0.315 N 
ATOM     16  H   LIG    1       26.163 -13.378   3.475  0.00  0.00    +0.149 HD
ATOM     17  O   LIG    1       23.361 -14.715   4.166  0.00  0.00    -0.276 OA
BRANCH  14  19
ATOM     18  C   LIG    1       23.746 -11.448   3.774  0.00  0.00    +0.013 C 
ATOM     19  C   LIG    1       24.177 -12.520   4.761  0.00  0.00    +0.092 C 
ENDBRANCH  14  19
ENDBRANCH  13  15
ENDBRANCH   1  13
TORSDOF 4
ENDMDL
MODEL 5
REMARK VINA RESULT:      -4.9      1.981      3.014
REMARK  Name = *****
REMARK                            x       y       z     vdW  Elec       q    Type
REMARK                         _______ _______ _______ _____ _____    ______ ____
ROOT
ATOM      1  C   LIG    1       23.736 -13.988   3.356  0.00  0.00    +0.014 C 
ATOM      2  C   LIG    1       24.391 -15.144   4.096  0.00  0.00    +0.024 C 
ATOM      3  C   LIG    1       23.863 -13.951   4.854  0.00  0.00    +0.014 C 
ENDROOT
BRANCH   2   4
ATOM      4  C   LIG    1       23.691 -16.477   4.181  0.00  0.00    -0.037 A 
ATOM      5  C   LIG    1       24.306 -17.680   3.835  0.00  0.00    +0.001 A 
ATOM      6  C   LIG    1       25.678 -17.924   3.328  0.00  0.00    +0.080 C 
ATOM      7  C   LIG    1       25.719 -19.449   3.428  0.00  0.00    +0.234 C 
ATOM      8  O   LIG    1       24.370 -19.964   3.459  0.00  0.00    -0.491 OA
ATOM      9  C   LIG    1       23.620 -18.889   3.860  0.00  0.00    +0.124 A 
ATOM     10  C   LIG    1       22.297 -18.975   4.233  0.00  0.00    +0.046 A 
ATOM     11  C   LIG    1       21.653 -17.798   4.602  0.00  0.00    +0.004 A 
ATOM     12  C   LIG    1       22.340 -16.571   4.570  0.00  0.00    +0.004 A 
ENDBRANCH   2   4
BRANCH   1  13
ATOM     13  C   LIG    1       24.564 -13.101   2.478  0.00  0.00    +0.108 C 
BRANCH  13  15
ATOM     14  C   LIG    1       26.979 -13.577   2.698  0.00  0.00    +0.213 C 
ATOM     15  N   LIG    1       25.857 -12.860   3.076  0.00  0.00    -0.315 N 
ATOM     16  H   LIG    1       25.931 -12.173   3.808  0.00  0.00    +0.149 HD
ATOM     17  O   LIG    1       26.980 -14.430   1.828  0.00  0.00    -0.276 OA
BRANCH  14  19
ATOM     18  C   LIG    1       27.929 -13.050   4.975  0.00  0.00    +0.013 C 
ATOM     19  C   LIG    1       28.214 -13.183   3.488  0.00  0.00    +0.092 C 
ENDBRANCH  14  19
ENDBRANCH  13  15
ENDBRANCH   1  13
TORSDOF 4
ENDMDL
MODEL 6
REMARK VINA RESULT:      -4.8      2.417      7.128
REMARK  Name = *****
REMARK                            x       y       z     vdW  Elec       q    Type
REMARK                         _______ _______ _______ _____ _____    ______ ____
ROOT
ATOM      1  C   LIG    1       23.096 -16.586   4.799  0.00  0.00    +0.014 C 
ATOM      2  C   LIG    1       23.218 -15.322   3.962  0.00  0.00    +0.024 C 
ATOM      3  C   LIG    1       22.698 -15.256   5.378  0.00  0.00    +0.014 C 
ENDROOT
BRANCH   2   4
ATOM      4  C   LIG    1       24.581 -14.774   3.620  0.00  0.00    -0.037 A 
ATOM      5  C   LIG    1       24.765 -13.570   2.941  0.00  0.00    +0.001 A 
ATOM      6  C   LIG    1       23.753 -12.619   2.419  0.00  0.00    +0.080 C 
ATOM      7  C   LIG    1       24.669 -11.451   2.052  0.00  0.00    +0.234 C 
ATOM      8  O   LIG    1       26.020 -11.933   1.889  0.00  0.00    -0.491 OA
ATOM      9  C   LIG    1       26.028 -13.117   2.579  0.00  0.00    +0.124 A 
ATOM     10  C   LIG    1       27.174 -13.823   2.874  0.00  0.00    +0.046 A 
ATOM     11  C   LIG    1       27.033 -15.022   3.567  0.00  0.00    +0.004 A 
ATOM     12  C   LIG    1       25.756 -15.489   3.927  0.00  0.00    +0.004 A 
ENDBRANCH   2   4
BRANCH   1  13
ATOM     13  C   LIG    1       22.075 -17.621   4.441  0.00  0.00    +0.108 C 
BRANCH  13  15
ATOM     14  C   LIG    1       23.189 -19.821   4.615  0.00  0.00    +0.213 C 
ATOM     15  N   LIG    1       22.342 -18.858   5.137  0.00  0.00    -0.315 N 
ATOM     16  H   LIG    1       21.873 -19.034   6.011  0.00  0.00    +0.149 HD
ATOM     17  O   LIG    1       23.791 -19.697   3.563  0.00  0.00    -0.276 OA
BRANCH  14  19
ATOM     18  C   LIG    1       23.499 -20.696   6.960  0.00  0.00    +0.013 C 
ATOM     19  C   LIG    1       23.286 -21.051   5.498  0.00  0.00    +0.092 C 
ENDBRANCH  14  19
ENDBRANCH  13  15
ENDBRANCH   1  13
TORSDOF 4
ENDMDL
MODEL 7
REMARK VINA RESULT:      -4.8      1.783      2.876
REMARK  Name = *****
REMARK                            x       y       z     vdW  Elec       q    Type
REMARK                         _______ _______ _______ _____ _____    ______ ____
ROOT
ATOM      1  C   LIG    1       26.100 -17.658   3.374  0.00  0.00    +0.014 C 
ATOM      2  C   LIG    1       25.089 -18.773   3.590  0.00  0.00    +0.024 C 
ATOM      3  C   LIG    1       26.051 -18.826   2.428  0.00  0.00    +0.014 C 
ENDROOT
BRANCH   2   4
ATOM      4  C   LIG    1       25.245 -19.716   4.757  0.00  0.00    -0.037 A 
ATOM      5  C   LIG    1       24.160 -20.297   5.412  0.00  0.00    +0.001 A 
ATOM      6  C   LIG    1       22.708 -20.137   5.154  0.00  0.00    +0.080 C 
ATOM      7  C   LIG    1       22.166 -21.245   6.057  0.00  0.00    +0.234 C 
ATOM      8  O   LIG    1       23.151 -21.571   7.062  0.00  0.00    -0.491 OA
ATOM      9  C   LIG    1       24.326 -21.112   6.526  0.00  0.00    +0.124 A 
ATOM     10  C   LIG    1       25.568 -21.400   7.048  0.00  0.00    +0.046 A 
ATOM     11  C   LIG    1       26.678 -20.851   6.411  0.00  0.00    +0.004 A 
ATOM     12  C   LIG    1       26.515 -20.020   5.289  0.00  0.00    +0.004 A 
ENDBRANCH   2   4
BRANCH   1  13
ATOM     13  C   LIG    1       25.631 -16.297   2.962  0.00  0.00    +0.108 C 
BRANCH  13  15
ATOM     14  C   LIG    1       26.954 -14.218   3.158  0.00  0.00    +0.213 C 
ATOM     15  N   LIG    1       26.285 -15.277   3.748  0.00  0.00    -0.315 N 
ATOM     16  H   LIG    1       26.279 -15.360   4.752  0.00  0.00    +0.149 HD
ATOM     17  O   LIG    1       27.019 -14.043   1.954  0.00  0.00    -0.276 OA
BRANCH  14  19
ATOM     18  C   LIG    1       26.981 -13.443   5.558  0.00  0.00    +0.013 C 
ATOM     19  C   LIG    1       27.598 -13.296   4.176  0.00  0.00    +0.092 C 
ENDBRANCH  14  19
ENDBRANCH  13  15
ENDBRANCH   1  13
TORSDOF 4
ENDMDL
MODEL 8
REMARK VINA RESULT:      -4.7      2.175      6.674
REMARK  Name = *****
REMARK                            x       y       z     vdW  Elec       q    Type
REMARK                         _______ _______ _______ _____ _____    ______ ____
ROOT
ATOM      1  C   LIG    1       25.203 -18.520   4.292  0.00  0.00    +0.014 C 
ATOM      2  C   LIG    1       25.378 -17.453   3.222  0.00  0.00    +0.024 C 
ATOM      3  C   LIG    1       23.999 -17.858   3.680  0.00  0.00    +0.014 C 
ENDROOT
BRANCH   2   4
ATOM      4  C   LIG    1       25.942 -16.103   3.589  0.00  0.00    -0.037 A 
ATOM      5  C   LIG    1       25.140 -15.000   3.879  0.00  0.00    +0.001 A 
ATOM      6  C   LIG    1       23.661 -14.886   3.884  0.00  0.00    +0.080 C 
ATOM      7  C   LIG    1       23.515 -13.510   4.533  0.00  0.00    +0.234 C 
ATOM      8  O   LIG    1       24.748 -12.774   4.381  0.00  0.00    -0.491 OA
ATOM      9  C   LIG    1       25.683 -13.749   4.151  0.00  0.00    +0.124 A 
ATOM     10  C   LIG    1       27.042 -13.524   4.158  0.00  0.00    +0.046 A 
ATOM     11  C   LIG    1       27.876 -14.605   3.890  0.00  0.00    +0.004 A 
ATOM     12  C   LIG    1       27.332 -15.870   3.605  0.00  0.00    +0.004 A 
ENDBRANCH   2   4
BRANCH   1  13
ATOM     13  C   LIG    1       25.552 -19.944   3.990  0.00  0.00    +0.108 C 
BRANCH  13  15
ATOM     14  C   LIG    1       26.475 -20.635   6.176  0.00  0.00    +0.213 C 
ATOM     15  N   LIG    1       26.645 -20.385   4.825  0.00  0.00    -0.315 N 
ATOM     16  H   LIG    1       27.560 -20.481   4.416  0.00  0.00    +0.149 HD
ATOM     17  O   LIG    1       25.407 -20.538   6.756  0.00  0.00    -0.276 OA
BRANCH  14  19
ATOM     18  C   LIG    1       28.928 -20.142   6.487  0.00  0.00    +0.013 C 
ATOM     19  C   LIG    1       27.766 -21.047   6.859  0.00  0.00    +0.092 C 
ENDBRANCH  14  19
ENDBRANCH  13  15
ENDBRANCH   1  13
TORSDOF 4
ENDMDL
MODEL 9
REMARK VINA RESULT:      -4.5      2.212      6.040
REMARK  Name = *****
REMARK                            x       y       z     vdW  Elec       q    Type
REMARK                         _______ _______ _______ _____ _____    ______ ____
ROOT
ATOM      1  C   LIG    1       22.435 -19.086   5.184  0.00  0.00    +0.014 C 
ATOM      2  C   LIG    1       23.032 -18.402   3.964  0.00  0.00    +0.024 C 
ATOM      3  C   LIG    1       21.560 -18.732   4.013  0.00  0.00    +0.014 C 
ENDROOT
BRANCH   2   4
ATOM      4  C   LIG    1       23.500 -16.971   4.057  0.00  0.00    -0.037 A 
ATOM      5  C   LIG    1       24.817 -16.586   3.809  0.00  0.00    +0.001 A 
ATOM      6  C   LIG    1       25.988 -17.419   3.439  0.00  0.00    +0.080 C 
ATOM      7  C   LIG    1       26.983 -16.315   3.084  0.00  0.00    +0.234 C 
ATOM      8  O   LIG    1       26.572 -15.079   3.710  0.00  0.00    -0.491 OA
ATOM      9  C   LIG    1       25.239 -15.271   3.964  0.00  0.00    +0.124 A 
ATOM     10  C   LIG    1       24.385 -14.267   4.364  0.00  0.00    +0.046 A 
ATOM     11  C   LIG    1       23.057 -14.608   4.604  0.00  0.00    +0.004 A 
ATOM     12  C   LIG    1       22.627 -15.939   4.458  0.00  0.00    +0.004 A 
ENDBRANCH   2   4
BRANCH   1  13
ATOM     13  C   LIG    1       22.794 -20.507   5.492  0.00  0.00    +0.108 C 
BRANCH  13  15
ATOM     14  C   LIG    1       25.241 -20.756   5.737  0.00  0.00    +0.213 C 
ATOM     15  N   LIG    1       23.991 -20.563   6.299  0.00  0.00    -0.315 N 
ATOM     16  H   LIG    1       23.904 -20.490   7.300  0.00  0.00    +0.149 HD
ATOM     17  O   LIG    1       25.438 -20.862   4.539  0.00  0.00    -0.276 OA
BRANCH  14  19
ATOM     18  C   LIG    1       27.645 -20.221   6.277  0.00  0.00    +0.013 C 
ATOM     19  C   LIG    1       26.343 -20.822   6.778  0.00  0.00    +0.092 C 
ENDBRANCH  14  19
ENDBRANCH  13  15
ENDBRANCH   1  13
TORSDOF 4
ENDMDL
