MODEL 1
REMARK VINA RESULT:      -3.4      0.000      0.000
REMARK  Name = *****
REMARK                            x       y       z     vdW  Elec       q    Type
REMARK                         _______ _______ _______ _____ _____    ______ ____
ROOT
ATOM      1  O   LIG    1       21.585 -21.106   4.860  0.00  0.00    -0.273 OA
ATOM      2  C   LIG    1       22.555 -20.448   4.481  0.00  0.00    +0.239 C 
ATOM      3  N   LIG    1       22.560 -19.094   4.691  0.00  0.00    -0.283 N 
ATOM      4  H   LIG    1       21.672 -18.757   5.042  0.00  0.00    +0.155 HD
ATOM      5  C   LIG    1       23.542 -18.169   4.307  0.00  0.00    +0.043 A 
ATOM      6  C   LIG    1       24.904 -18.468   4.124  0.00  0.00    +0.023 A 
ATOM      7  C   LIG    1       25.779 -17.462   3.678  0.00  0.00    +0.032 A 
ATOM      8  C   LIG    1       25.311 -16.168   3.459  0.00  0.00    +0.042 A 
ATOM      9  C   LIG    1       23.978 -15.854   3.695  0.00  0.00    +0.022 A 
ATOM     10 CL   LIG    1       26.395 -14.946   2.923  0.00  0.00    -0.084 Cl
ATOM     11  C   LIG    1       25.490 -19.779   4.536  0.00  0.00    +0.076 C 
ATOM     12  N   LIG    1       24.950 -20.937   4.382  0.00  0.00    -0.273 NA
ATOM     13  C   LIG    1       23.099 -16.849   4.124  0.00  0.00    +0.025 A 
ATOM     14  C   LIG    1       23.685 -21.048   3.669  0.00  0.00    +0.238 C 
ENDROOT
BRANCH  11  15
ATOM     15  C   LIG    1       26.794 -19.753   5.250  0.00  0.00    +0.019 A 
ATOM     16  C   LIG    1       27.013 -20.502   6.411  0.00  0.00    +0.050 A 
ATOM     17 CL   LIG    1       25.824 -21.572   7.062  0.00  0.00    -0.083 Cl
ATOM     18  C   LIG    1       28.254 -20.433   7.050  0.00  0.00    +0.021 A 
ATOM     19  C   LIG    1       29.266 -19.619   6.534  0.00  0.00    +0.002 A 
ATOM     20  C   LIG    1       29.044 -18.871   5.378  0.00  0.00    +0.001 A 
ATOM     21  C   LIG    1       27.807 -18.934   4.733  0.00  0.00    +0.011 A 
ENDBRANCH  11  15
TORSDOF 1
ENDMDL
MODEL 2
REMARK VINA RESULT:      -2.4      1.088      1.227
REMARK  Name = *****
REMARK                            x       y       z     vdW  Elec       q    Type
REMARK                         _______ _______ _______ _____ _____    ______ ____
ROOT
ATOM      1  O   LIG    1       21.596 -19.526   4.266  0.00  0.00    -0.273 OA
ATOM      2  C   LIG    1       22.659 -18.987   3.953  0.00  0.00    +0.239 C 
ATOM      3  N   LIG    1       22.869 -17.680   4.305  0.00  0.00    -0.283 N 
ATOM      4  H   LIG    1       22.039 -17.251   4.697  0.00  0.00    +0.155 HD
ATOM      5  C   LIG    1       23.983 -16.880   4.016  0.00  0.00    +0.043 A 
ATOM      6  C   LIG    1       25.285 -17.362   3.791  0.00  0.00    +0.023 A 
ATOM      7  C   LIG    1       26.307 -16.460   3.448  0.00  0.00    +0.032 A 
ATOM      8  C   LIG    1       26.044 -15.094   3.372  0.00  0.00    +0.042 A 
ATOM      9  C   LIG    1       24.773 -14.607   3.650  0.00  0.00    +0.022 A 
ATOM     10 CL   LIG    1       27.307 -14.001   2.962  0.00  0.00    -0.084 Cl
ATOM     11  C   LIG    1       25.661 -18.783   4.057  0.00  0.00    +0.076 C 
ATOM     12  N   LIG    1       24.952 -19.823   3.785  0.00  0.00    -0.273 NA
ATOM     13  C   LIG    1       23.749 -15.496   3.977  0.00  0.00    +0.025 A 
ATOM     14  C   LIG    1       23.692 -19.663   3.073  0.00  0.00    +0.238 C 
ENDROOT
BRANCH  11  15
ATOM     15  C   LIG    1       26.947 -19.033   4.760  0.00  0.00    +0.019 A 
ATOM     16  C   LIG    1       27.105 -20.102   5.649  0.00  0.00    +0.050 A 
ATOM     17 CL   LIG    1       25.856 -21.258   5.939  0.00  0.00    -0.083 Cl
ATOM     18  C   LIG    1       28.332 -20.285   6.292  0.00  0.00    +0.021 A 
ATOM     19  C   LIG    1       29.390 -19.405   6.052  0.00  0.00    +0.002 A 
ATOM     20  C   LIG    1       29.229 -18.338   5.169  0.00  0.00    +0.001 A 
ATOM     21  C   LIG    1       28.007 -18.148   4.521  0.00  0.00    +0.011 A 
ENDBRANCH  11  15
TORSDOF 1
ENDMDL
MODEL 3
REMARK VINA RESULT:      -1.7      2.620      5.163
REMARK  Name = *****
REMARK                            x       y       z     vdW  Elec       q    Type
REMARK                         _______ _______ _______ _____ _____    ______ ____
ROOT
ATOM      1  O   LIG    1       26.892 -20.841   5.662  0.00  0.00    -0.273 OA
ATOM      2  C   LIG    1       26.009 -20.266   5.023  0.00  0.00    +0.239 C 
ATOM      3  N   LIG    1       24.712 -20.355   5.455  0.00  0.00    -0.283 N 
ATOM      4  H   LIG    1       24.607 -21.012   6.218  0.00  0.00    +0.155 HD
ATOM      5  C   LIG    1       23.568 -19.810   4.856  0.00  0.00    +0.043 A 
ATOM      6  C   LIG    1       23.552 -18.667   4.038  0.00  0.00    +0.023 A 
ATOM      7  C   LIG    1       22.345 -18.256   3.445  0.00  0.00    +0.032 A 
ATOM      8  C   LIG    1       21.164 -18.950   3.700  0.00  0.00    +0.042 A 
ATOM      9  C   LIG    1       21.164 -20.045   4.555  0.00  0.00    +0.022 A 
ATOM     10 CL   LIG    1       19.693 -18.429   2.977  0.00  0.00    -0.084 Cl
ATOM     11  C   LIG    1       24.743 -17.777   3.897  0.00  0.00    +0.076 C 
ATOM     12  N   LIG    1       25.969 -18.155   3.786  0.00  0.00    -0.273 NA
ATOM     13  C   LIG    1       22.359 -20.469   5.135  0.00  0.00    +0.025 A 
ATOM     14  C   LIG    1       26.273 -19.577   3.699  0.00  0.00    +0.238 C 
ENDROOT
BRANCH  11  15
ATOM     15  C   LIG    1       24.514 -16.309   3.952  0.00  0.00    +0.019 A 
ATOM     16  C   LIG    1       25.540 -15.393   3.697  0.00  0.00    +0.050 A 
ATOM     17 CL   LIG    1       27.125 -15.885   3.221  0.00  0.00    -0.083 Cl
ATOM     18  C   LIG    1       25.273 -14.023   3.773  0.00  0.00    +0.021 A 
ATOM     19  C   LIG    1       23.993 -13.573   4.105  0.00  0.00    +0.002 A 
ATOM     20  C   LIG    1       22.973 -14.489   4.363  0.00  0.00    +0.001 A 
ATOM     21  C   LIG    1       23.230 -15.859   4.288  0.00  0.00    +0.011 A 
ENDBRANCH  11  15
TORSDOF 1
ENDMDL
