MODEL 1
REMARK VINA RESULT:      -8.6      0.000      0.000
REMARK  Name = *****
REMARK                            x       y       z     vdW  Elec       q    Type
REMARK                         _______ _______ _______ _____ _____    ______ ____
ROOT
ATOM      1  C   LIG    1       28.515 -19.556   6.476  0.00  0.00    +0.068 C 
ATOM      2  C   LIG    1       28.579 -19.974   7.860  0.00  0.00    +0.017 C 
ATOM      3  C   LIG    1       27.727 -20.875   8.364  0.00  0.00    +0.012 C 
ATOM      4  C   LIG    1       26.692 -21.494   7.542  0.00  0.00    +0.022 C 
ATOM      5  C   LIG    1       25.865 -22.396   8.108  0.00  0.00    +0.012 C 
ATOM      6  C   LIG    1       26.624 -21.079   6.089  0.00  0.00    +0.187 C 
ATOM      7  O   LIG    1       25.830 -21.518   5.264  0.00  0.00    -0.287 OA
ATOM      8  C   LIG    1       27.604 -20.063   5.636  0.00  0.00    +0.067 C 
ENDROOT
BRANCH   5   9
ATOM      9  C   LIG    1       24.808 -23.169   7.481  0.00  0.00    +0.008 C 
ATOM     10  C   LIG    1       24.896 -24.390   6.910  0.00  0.00    -0.025 A 
ATOM     11  C   LIG    1       26.132 -25.170   6.842  0.00  0.00    +0.009 A 
ATOM     12  C   LIG    1       26.128 -26.412   6.329  0.00  0.00    +0.016 A 
ATOM     13  C   LIG    1       24.883 -27.033   5.838  0.00  0.00    +0.059 A 
ATOM     14  C   LIG    1       24.856 -28.340   5.438  0.00  0.00    +0.258 C 
ATOM     15  C   LIG    1       23.694 -26.166   5.732  0.00  0.00    +0.016 A 
ATOM     16  C   LIG    1       23.696 -24.928   6.257  0.00  0.00    +0.009 A 
BRANCH  14  17
ATOM     17  N   LIG    1       25.951 -29.167   5.528  0.00  0.00    -0.251 N 
ATOM     18  H   LIG    1       26.633 -29.012   4.801  0.00  0.00    +0.288 HD
ATOM     19  H   LIG    1       25.705 -30.148   5.610  0.00  0.00    +0.288 HD
ENDBRANCH  14  17
BRANCH  14  20
ATOM     20  N   LIG    1       23.729 -28.945   4.940  0.00  0.00    -0.251 N 
ATOM     21  H   LIG    1       23.317 -28.459   4.155  0.00  0.00    +0.288 HD
ATOM     22  H   LIG    1       23.844 -29.936   4.755  0.00  0.00    +0.288 HD
ENDBRANCH  14  20
ENDBRANCH   5   9
BRANCH   1  25
ATOM     23  N   LIG    1       30.638 -18.415   6.516  0.00  0.00    -0.099 NA
ATOM     24  H   LIG    1       31.155 -17.650   6.085  0.00  0.00    +0.363 HD
ATOM     25  C   LIG    1       29.476 -18.532   5.948  0.00  0.00    +0.308 C 
BRANCH  25  26
ATOM     26  N   LIG    1       29.182 -17.715   4.892  0.00  0.00    -0.247 N 
ATOM     27  H   LIG    1       29.815 -17.762   4.100  0.00  0.00    +0.288 HD
ATOM     28  H   LIG    1       28.944 -16.760   5.125  0.00  0.00    +0.288 HD
ENDBRANCH  25  26
ENDBRANCH   1  25
TORSDOF 5
ENDMDL
MODEL 2
REMARK VINA RESULT:      -8.6      4.085      8.417
REMARK  Name = *****
REMARK                            x       y       z     vdW  Elec       q    Type
REMARK                         _______ _______ _______ _____ _____    ______ ____
ROOT
ATOM      1  C   LIG    1       24.073 -20.772   5.713  0.00  0.00    +0.068 C 
ATOM      2  C   LIG    1       24.239 -21.749   6.767  0.00  0.00    +0.017 C 
ATOM      3  C   LIG    1       25.440 -22.019   7.293  0.00  0.00    +0.012 C 
ATOM      4  C   LIG    1       26.647 -21.335   6.839  0.00  0.00    +0.022 C 
ATOM      5  C   LIG    1       27.827 -21.651   7.411  0.00  0.00    +0.012 C 
ATOM      6  C   LIG    1       26.485 -20.299   5.750  0.00  0.00    +0.187 C 
ATOM      7  O   LIG    1       27.393 -19.625   5.274  0.00  0.00    -0.287 OA
ATOM      8  C   LIG    1       25.115 -20.087   5.225  0.00  0.00    +0.067 C 
ENDROOT
BRANCH   5   9
ATOM      9  C   LIG    1       29.134 -21.072   7.161  0.00  0.00    +0.008 C 
ATOM     10  C   LIG    1       29.685 -19.981   7.735  0.00  0.00    -0.025 A 
ATOM     11  C   LIG    1       29.020 -19.177   8.761  0.00  0.00    +0.009 A 
ATOM     12  C   LIG    1       29.661 -18.150   9.345  0.00  0.00    +0.016 A 
ATOM     13  C   LIG    1       31.052 -17.812   8.987  0.00  0.00    +0.059 A 
ATOM     14  C   LIG    1       31.744 -16.853   9.671  0.00  0.00    +0.258 C 
ATOM     15  C   LIG    1       31.632 -18.501   7.819  0.00  0.00    +0.016 A 
ATOM     16  C   LIG    1       30.996 -19.537   7.244  0.00  0.00    +0.009 A 
BRANCH  14  17
ATOM     17  N   LIG    1       31.224 -16.198  10.763  0.00  0.00    -0.251 N 
ATOM     18  H   LIG    1       31.924 -15.738  11.327  0.00  0.00    +0.288 HD
ATOM     19  H   LIG    1       30.612 -16.780  11.325  0.00  0.00    +0.288 HD
ENDBRANCH  14  17
BRANCH  14  20
ATOM     20  N   LIG    1       33.025 -16.483   9.347  0.00  0.00    -0.251 N 
ATOM     21  H   LIG    1       33.491 -15.949  10.068  0.00  0.00    +0.288 HD
ATOM     22  H   LIG    1       33.600 -17.248   9.011  0.00  0.00    +0.288 HD
ENDBRANCH  14  20
ENDBRANCH   5   9
BRANCH   1  25
ATOM     23  N   LIG    1       21.886 -21.495   5.003  0.00  0.00    -0.099 NA
ATOM     24  H   LIG    1       21.032 -21.171   4.552  0.00  0.00    +0.363 HD
ATOM     25  C   LIG    1       22.714 -20.504   5.134  0.00  0.00    +0.308 C 
BRANCH  25  26
ATOM     26  N   LIG    1       22.309 -19.260   4.738  0.00  0.00    -0.247 N 
ATOM     27  H   LIG    1       21.340 -19.025   4.925  0.00  0.00    +0.288 HD
ATOM     28  H   LIG    1       22.591 -18.978   3.809  0.00  0.00    +0.288 HD
ENDBRANCH  25  26
ENDBRANCH   1  25
TORSDOF 5
ENDMDL
MODEL 3
REMARK VINA RESULT:      -8.1      3.849      9.066
REMARK  Name = *****
REMARK                            x       y       z     vdW  Elec       q    Type
REMARK                         _______ _______ _______ _____ _____    ______ ____
ROOT
ATOM      1  C   LIG    1       25.325 -21.645   6.828  0.00  0.00    +0.068 C 
ATOM      2  C   LIG    1       25.478 -20.769   5.686  0.00  0.00    +0.017 C 
ATOM      3  C   LIG    1       26.614 -20.098   5.461  0.00  0.00    +0.012 C 
ATOM      4  C   LIG    1       27.765 -20.220   6.350  0.00  0.00    +0.022 C 
ATOM      5  C   LIG    1       28.882 -19.519   6.068  0.00  0.00    +0.012 C 
ATOM      6  C   LIG    1       27.625 -21.145   7.538  0.00  0.00    +0.187 C 
ATOM      7  O   LIG    1       28.502 -21.374   8.365  0.00  0.00    -0.287 OA
ATOM      8  C   LIG    1       26.321 -21.829   7.704  0.00  0.00    +0.067 C 
ENDROOT
BRANCH   5   9
ATOM      9  C   LIG    1       30.152 -19.523   6.771  0.00  0.00    +0.008 C 
ATOM     10  C   LIG    1       30.536 -18.736   7.799  0.00  0.00    -0.025 A 
ATOM     11  C   LIG    1       29.684 -17.713   8.404  0.00  0.00    +0.009 A 
ATOM     12  C   LIG    1       30.104 -17.021   9.478  0.00  0.00    +0.016 A 
ATOM     13  C   LIG    1       31.423 -17.281  10.087  0.00  0.00    +0.059 A 
ATOM     14  C   LIG    1       31.795 -16.671  11.252  0.00  0.00    +0.258 C 
ATOM     15  C   LIG    1       32.342 -18.169   9.349  0.00  0.00    +0.016 A 
ATOM     16  C   LIG    1       31.916 -18.870   8.285  0.00  0.00    +0.009 A 
BRANCH  14  17
ATOM     17  N   LIG    1       30.955 -15.841  11.957  0.00  0.00    -0.251 N 
ATOM     18  H   LIG    1       31.301 -15.604  12.875  0.00  0.00    +0.288 HD
ATOM     19  H   LIG    1       29.998 -16.175  11.990  0.00  0.00    +0.288 HD
ENDBRANCH  14  17
BRANCH  14  20
ATOM     20  N   LIG    1       33.025 -16.856  11.832  0.00  0.00    -0.251 N 
ATOM     21  H   LIG    1       33.712 -16.164  11.564  0.00  0.00    +0.288 HD
ATOM     22  H   LIG    1       32.989 -16.984  12.838  0.00  0.00    +0.288 HD
ENDBRANCH  14  20
ENDBRANCH   5   9
BRANCH   1  25
ATOM     23  N   LIG    1       23.128 -21.812   7.804  0.00  0.00    -0.099 NA
ATOM     24  H   LIG    1       22.334 -22.442   7.911  0.00  0.00    +0.363 HD
ATOM     25  C   LIG    1       24.032 -22.371   7.059  0.00  0.00    +0.308 C 
BRANCH  25  26
ATOM     26  N   LIG    1       23.764 -23.597   6.519  0.00  0.00    -0.247 N 
ATOM     27  H   LIG    1       23.839 -24.390   7.149  0.00  0.00    +0.288 HD
ATOM     28  H   LIG    1       24.192 -23.790   5.623  0.00  0.00    +0.288 HD
ENDBRANCH  25  26
ENDBRANCH   1  25
TORSDOF 5
ENDMDL
MODEL 4
REMARK VINA RESULT:      -8.0      1.453      2.061
REMARK  Name = *****
REMARK                            x       y       z     vdW  Elec       q    Type
REMARK                         _______ _______ _______ _____ _____    ______ ____
ROOT
ATOM      1  C   LIG    1       29.334 -20.067   7.060  0.00  0.00    +0.068 C 
ATOM      2  C   LIG    1       28.651 -19.361   5.997  0.00  0.00    +0.017 C 
ATOM      3  C   LIG    1       27.417 -19.703   5.605  0.00  0.00    +0.012 C 
ATOM      4  C   LIG    1       26.689 -20.800   6.235  0.00  0.00    +0.022 C 
ATOM      5  C   LIG    1       25.449 -21.095   5.795  0.00  0.00    +0.012 C 
ATOM      6  C   LIG    1       27.385 -21.536   7.358  0.00  0.00    +0.187 C 
ATOM      7  O   LIG    1       26.905 -22.463   8.001  0.00  0.00    -0.287 OA
ATOM      8  C   LIG    1       28.755 -21.088   7.704  0.00  0.00    +0.067 C 
ENDROOT
BRANCH   5   9
ATOM      9  C   LIG    1       24.527 -22.097   6.298  0.00  0.00    +0.008 C 
ATOM     10  C   LIG    1       24.555 -23.431   6.091  0.00  0.00    -0.025 A 
ATOM     11  C   LIG    1       25.578 -24.111   5.298  0.00  0.00    +0.009 A 
ATOM     12  C   LIG    1       25.588 -25.452   5.201  0.00  0.00    +0.016 A 
ATOM     13  C   LIG    1       24.585 -26.277   5.900  0.00  0.00    +0.059 A 
ATOM     14  C   LIG    1       24.673 -27.641   5.907  0.00  0.00    +0.258 C 
ATOM     15  C   LIG    1       23.451 -25.571   6.528  0.00  0.00    +0.016 A 
ATOM     16  C   LIG    1       23.450 -24.231   6.636  0.00  0.00    +0.009 A 
BRANCH  14  17
ATOM     17  N   LIG    1       25.720 -28.320   5.330  0.00  0.00    -0.251 N 
ATOM     18  H   LIG    1       26.124 -29.023   5.932  0.00  0.00    +0.288 HD
ATOM     19  H   LIG    1       26.428 -27.708   4.940  0.00  0.00    +0.288 HD
ENDBRANCH  14  17
BRANCH  14  20
ATOM     20  N   LIG    1       23.741 -28.446   6.514  0.00  0.00    -0.251 N 
ATOM     21  H   LIG    1       23.339 -28.047   7.351  0.00  0.00    +0.288 HD
ATOM     22  H   LIG    1       23.030 -28.797   5.882  0.00  0.00    +0.288 HD
ENDBRANCH  14  20
ENDBRANCH   5   9
BRANCH   1  25
ATOM     23  N   LIG    1       31.107 -18.446   7.252  0.00  0.00    -0.099 NA
ATOM     24  H   LIG    1       32.082 -18.340   7.529  0.00  0.00    +0.363 HD
ATOM     25  C   LIG    1       30.723 -19.667   7.465  0.00  0.00    +0.308 C 
BRANCH  25  26
ATOM     26  N   LIG    1       31.603 -20.535   8.048  0.00  0.00    -0.247 N 
ATOM     27  H   LIG    1       31.198 -21.358   8.482  0.00  0.00    +0.288 HD
ATOM     28  H   LIG    1       32.316 -20.117   8.631  0.00  0.00    +0.288 HD
ENDBRANCH  25  26
ENDBRANCH   1  25
TORSDOF 5
ENDMDL
MODEL 5
REMARK VINA RESULT:      -8.0      4.252      5.494
REMARK  Name = *****
REMARK                            x       y       z     vdW  Elec       q    Type
REMARK                         _______ _______ _______ _____ _____    ______ ____
ROOT
ATOM      1  C   LIG    1       31.257 -17.703   8.951  0.00  0.00    +0.068 C 
ATOM      2  C   LIG    1       31.906 -18.450   7.895  0.00  0.00    +0.017 C 
ATOM      3  C   LIG    1       31.314 -19.498   7.308  0.00  0.00    +0.012 C 
ATOM      4  C   LIG    1       29.976 -19.937   7.693  0.00  0.00    +0.022 C 
ATOM      5  C   LIG    1       29.434 -20.999   7.062  0.00  0.00    +0.012 C 
ATOM      6  C   LIG    1       29.279 -19.154   8.783  0.00  0.00    +0.187 C 
ATOM      7  O   LIG    1       28.150 -19.381   9.206  0.00  0.00    -0.287 OA
ATOM      8  C   LIG    1       30.028 -18.022   9.378  0.00  0.00    +0.067 C 
ENDROOT
BRANCH   5   9
ATOM      9  C   LIG    1       28.114 -21.576   7.239  0.00  0.00    +0.008 C 
ATOM     10  C   LIG    1       26.959 -21.210   6.643  0.00  0.00    -0.025 A 
ATOM     11  C   LIG    1       26.855 -20.127   5.665  0.00  0.00    +0.009 A 
ATOM     12  C   LIG    1       25.686 -19.871   5.052  0.00  0.00    +0.016 A 
ATOM     13  C   LIG    1       24.482 -20.678   5.331  0.00  0.00    +0.059 A 
ATOM     14  C   LIG    1       23.332 -20.501   4.614  0.00  0.00    +0.258 C 
ATOM     15  C   LIG    1       24.555 -21.629   6.457  0.00  0.00    +0.016 A 
ATOM     16  C   LIG    1       25.728 -21.894   7.059  0.00  0.00    +0.009 A 
BRANCH  14  17
ATOM     17  N   LIG    1       23.241 -19.622   3.561  0.00  0.00    -0.251 N 
ATOM     18  H   LIG    1       24.062 -19.611   2.974  0.00  0.00    +0.288 HD
ATOM     19  H   LIG    1       22.969 -18.686   3.843  0.00  0.00    +0.288 HD
ENDBRANCH  14  17
BRANCH  14  20
ATOM     20  N   LIG    1       22.181 -21.204   4.866  0.00  0.00    -0.251 N 
ATOM     21  H   LIG    1       22.042 -21.995   4.251  0.00  0.00    +0.288 HD
ATOM     22  H   LIG    1       22.059 -21.457   5.841  0.00  0.00    +0.288 HD
ENDBRANCH  14  20
ENDBRANCH   5   9
BRANCH   1  25
ATOM     23  N   LIG    1       32.792 -15.845   8.892  0.00  0.00    -0.099 NA
ATOM     24  H   LIG    1       33.222 -15.131   9.477  0.00  0.00    +0.363 HD
ATOM     25  C   LIG    1       31.955 -16.543   9.598  0.00  0.00    +0.308 C 
BRANCH  25  26
ATOM     26  N   LIG    1       31.748 -16.187  10.902  0.00  0.00    -0.247 N 
ATOM     27  H   LIG    1       32.125 -15.288  11.185  0.00  0.00    +0.288 HD
ATOM     28  H   LIG    1       31.930 -16.904  11.590  0.00  0.00    +0.288 HD
ENDBRANCH  25  26
ENDBRANCH   1  25
TORSDOF 5
ENDMDL
MODEL 6
REMARK VINA RESULT:      -7.9      3.069      4.954
REMARK  Name = *****
REMARK                            x       y       z     vdW  Elec       q    Type
REMARK                         _______ _______ _______ _____ _____    ______ ____
ROOT
ATOM      1  C   LIG    1       25.303 -22.826   7.323  0.00  0.00    +0.068 C 
ATOM      2  C   LIG    1       23.891 -23.091   7.149  0.00  0.00    +0.017 C 
ATOM      3  C   LIG    1       23.451 -24.237   6.613  0.00  0.00    +0.012 C 
ATOM      4  C   LIG    1       24.371 -25.286   6.187  0.00  0.00    +0.022 C 
ATOM      5  C   LIG    1       23.865 -26.418   5.657  0.00  0.00    +0.012 C 
ATOM      6  C   LIG    1       25.849 -25.029   6.379  0.00  0.00    +0.187 C 
ATOM      7  O   LIG    1       26.746 -25.814   6.093  0.00  0.00    -0.287 OA
ATOM      8  C   LIG    1       26.231 -23.723   6.966  0.00  0.00    +0.067 C 
ENDROOT
BRANCH   5   9
ATOM      9  C   LIG    1       24.575 -27.604   5.215  0.00  0.00    +0.008 C 
ATOM     10  C   LIG    1       24.751 -28.765   5.882  0.00  0.00    -0.025 A 
ATOM     11  C   LIG    1       24.213 -29.027   7.217  0.00  0.00    +0.009 A 
ATOM     12  C   LIG    1       24.360 -30.236   7.787  0.00  0.00    +0.016 A 
ATOM     13  C   LIG    1       25.048 -31.336   7.084  0.00  0.00    +0.059 A 
ATOM     14  C   LIG    1       25.082 -32.597   7.608  0.00  0.00    +0.258 C 
ATOM     15  C   LIG    1       25.752 -30.998   5.832  0.00  0.00    +0.016 A 
ATOM     16  C   LIG    1       25.593 -29.793   5.256  0.00  0.00    +0.009 A 
BRANCH  14  17
ATOM     17  N   LIG    1       24.434 -32.935   8.773  0.00  0.00    -0.251 N 
ATOM     18  H   LIG    1       23.904 -33.792   8.704  0.00  0.00    +0.288 HD
ATOM     19  H   LIG    1       23.876 -32.179   9.154  0.00  0.00    +0.288 HD
ENDBRANCH  14  17
BRANCH  14  20
ATOM     20  N   LIG    1       25.742 -33.639   7.005  0.00  0.00    -0.251 N 
ATOM     21  H   LIG    1       25.128 -34.347   6.628  0.00  0.00    +0.288 HD
ATOM     22  H   LIG    1       26.442 -33.345   6.332  0.00  0.00    +0.288 HD
ENDBRANCH  14  20
ENDBRANCH   5   9
BRANCH   1  25
ATOM     23  N   LIG    1       25.863 -21.425   9.202  0.00  0.00    -0.099 NA
ATOM     24  H   LIG    1       26.134 -20.475   9.453  0.00  0.00    +0.363 HD
ATOM     25  C   LIG    1       25.763 -21.524   7.912  0.00  0.00    +0.308 C 
BRANCH  25  26
ATOM     26  N   LIG    1       26.082 -20.437   7.148  0.00  0.00    -0.247 N 
ATOM     27  H   LIG    1       25.410 -20.182   6.430  0.00  0.00    +0.288 HD
ATOM     28  H   LIG    1       27.031 -20.401   6.804  0.00  0.00    +0.288 HD
ENDBRANCH  25  26
ENDBRANCH   1  25
TORSDOF 5
ENDMDL
MODEL 7
REMARK VINA RESULT:      -7.9      1.418      8.227
REMARK  Name = *****
REMARK                            x       y       z     vdW  Elec       q    Type
REMARK                         _______ _______ _______ _____ _____    ______ ____
ROOT
ATOM      1  C   LIG    1       25.100 -28.303   6.074  0.00  0.00    +0.068 C 
ATOM      2  C   LIG    1       25.535 -27.934   7.404  0.00  0.00    +0.017 C 
ATOM      3  C   LIG    1       25.760 -26.658   7.742  0.00  0.00    +0.012 C 
ATOM      4  C   LIG    1       25.569 -25.568   6.790  0.00  0.00    +0.022 C 
ATOM      5  C   LIG    1       25.811 -24.304   7.193  0.00  0.00    +0.012 C 
ATOM      6  C   LIG    1       25.099 -25.938   5.402  0.00  0.00    +0.187 C 
ATOM      7  O   LIG    1       24.872 -25.143   4.496  0.00  0.00    -0.287 OA
ATOM      8  C   LIG    1       24.894 -27.380   5.126  0.00  0.00    +0.067 C 
ENDROOT
BRANCH   5   9
ATOM      9  C   LIG    1       25.642 -23.071   6.446  0.00  0.00    +0.008 C 
ATOM     10  C   LIG    1       26.488 -22.021   6.372  0.00  0.00    -0.025 A 
ATOM     11  C   LIG    1       27.778 -21.964   7.058  0.00  0.00    +0.009 A 
ATOM     12  C   LIG    1       28.604 -20.919   6.875  0.00  0.00    +0.016 A 
ATOM     13  C   LIG    1       28.246 -19.811   5.968  0.00  0.00    +0.059 A 
ATOM     14  C   LIG    1       29.139 -18.816   5.683  0.00  0.00    +0.258 C 
ATOM     15  C   LIG    1       26.868 -19.789   5.443  0.00  0.00    +0.016 A 
ATOM     16  C   LIG    1       26.048 -20.840   5.616  0.00  0.00    +0.009 A 
BRANCH  14  17
ATOM     17  N   LIG    1       30.428 -18.816   6.159  0.00  0.00    -0.251 N 
ATOM     18  H   LIG    1       30.485 -18.845   7.167  0.00  0.00    +0.288 HD
ATOM     19  H   LIG    1       30.998 -18.072   5.773  0.00  0.00    +0.288 HD
ENDBRANCH  14  17
BRANCH  14  20
ATOM     20  N   LIG    1       28.835 -17.750   4.874  0.00  0.00    -0.251 N 
ATOM     21  H   LIG    1       28.068 -17.185   5.215  0.00  0.00    +0.288 HD
ATOM     22  H   LIG    1       29.638 -17.185   4.621  0.00  0.00    +0.288 HD
ENDBRANCH  14  20
ENDBRANCH   5   9
BRANCH   1  25
ATOM     23  N   LIG    1       23.656 -30.199   5.715  0.00  0.00    -0.099 NA
ATOM     24  H   LIG    1       23.664 -31.198   5.512  0.00  0.00    +0.363 HD
ATOM     25  C   LIG    1       24.872 -29.744   5.724  0.00  0.00    +0.308 C 
BRANCH  25  26
ATOM     26  N   LIG    1       25.890 -30.602   5.414  0.00  0.00    -0.247 N 
ATOM     27  H   LIG    1       25.642 -31.585   5.347  0.00  0.00    +0.288 HD
ATOM     28  H   LIG    1       26.753 -30.467   5.922  0.00  0.00    +0.288 HD
ENDBRANCH  25  26
ENDBRANCH   1  25
TORSDOF 5
ENDMDL
MODEL 8
REMARK VINA RESULT:      -7.6      3.449      7.873
REMARK  Name = *****
REMARK                            x       y       z     vdW  Elec       q    Type
REMARK                         _______ _______ _______ _____ _____    ______ ____
ROOT
ATOM      1  C   LIG    1       25.003 -27.831   5.894  0.00  0.00    +0.068 C 
ATOM      2  C   LIG    1       26.356 -27.381   6.138  0.00  0.00    +0.017 C 
ATOM      3  C   LIG    1       26.622 -26.128   6.527  0.00  0.00    +0.012 C 
ATOM      4  C   LIG    1       25.560 -25.149   6.735  0.00  0.00    +0.022 C 
ATOM      5  C   LIG    1       25.893 -23.902   7.128  0.00  0.00    +0.012 C 
ATOM      6  C   LIG    1       24.139 -25.610   6.500  0.00  0.00    +0.187 C 
ATOM      7  O   LIG    1       23.137 -24.920   6.650  0.00  0.00    -0.287 OA
ATOM      8  C   LIG    1       23.955 -27.013   6.057  0.00  0.00    +0.067 C 
ENDROOT
BRANCH   5   9
ATOM      9  C   LIG    1       25.014 -22.790   7.443  0.00  0.00    +0.008 C 
ATOM     10  C   LIG    1       24.574 -21.817   6.617  0.00  0.00    -0.025 A 
ATOM     11  C   LIG    1       24.922 -21.734   5.198  0.00  0.00    +0.009 A 
ATOM     12  C   LIG    1       24.383 -20.782   4.417  0.00  0.00    +0.016 A 
ATOM     13  C   LIG    1       23.416 -19.807   4.957  0.00  0.00    +0.059 A 
ATOM     14  C   LIG    1       22.772 -18.924   4.136  0.00  0.00    +0.258 C 
ATOM     15  C   LIG    1       23.231 -19.782   6.420  0.00  0.00    +0.016 A 
ATOM     16  C   LIG    1       23.760 -20.742   7.198  0.00  0.00    +0.009 A 
BRANCH  14  17
ATOM     17  N   LIG    1       22.928 -18.930   2.770  0.00  0.00    -0.251 N 
ATOM     18  H   LIG    1       23.758 -19.415   2.462  0.00  0.00    +0.288 HD
ATOM     19  H   LIG    1       22.857 -18.007   2.356  0.00  0.00    +0.288 HD
ENDBRANCH  14  17
BRANCH  14  20
ATOM     20  N   LIG    1       21.894 -17.977   4.602  0.00  0.00    -0.251 N 
ATOM     21  H   LIG    1       22.309 -17.065   4.734  0.00  0.00    +0.288 HD
ATOM     22  H   LIG    1       21.028 -17.927   4.075  0.00  0.00    +0.288 HD
ENDBRANCH  14  20
ENDBRANCH   5   9
BRANCH   1  25
ATOM     23  N   LIG    1       23.513 -29.653   5.375  0.00  0.00    -0.099 NA
ATOM     24  H   LIG    1       23.497 -30.636   5.108  0.00  0.00    +0.363 HD
ATOM     25  C   LIG    1       24.741 -29.239   5.445  0.00  0.00    +0.308 C 
BRANCH  25  26
ATOM     26  N   LIG    1       25.741 -30.107   5.106  0.00  0.00    -0.247 N 
ATOM     27  H   LIG    1       26.048 -30.742   5.836  0.00  0.00    +0.288 HD
ATOM     28  H   LIG    1       26.522 -29.708   4.604  0.00  0.00    +0.288 HD
ENDBRANCH  25  26
ENDBRANCH   1  25
TORSDOF 5
ENDMDL
MODEL 9
REMARK VINA RESULT:      -7.1      3.919      9.486
REMARK  Name = *****
REMARK                            x       y       z     vdW  Elec       q    Type
REMARK                         _______ _______ _______ _____ _____    ______ ____
ROOT
ATOM      1  C   LIG    1       24.139 -31.556   7.826  0.00  0.00    +0.068 C 
ATOM      2  C   LIG    1       23.740 -31.347   6.451  0.00  0.00    +0.017 C 
ATOM      3  C   LIG    1       24.045 -30.221   5.793  0.00  0.00    +0.012 C 
ATOM      4  C   LIG    1       24.807 -29.148   6.423  0.00  0.00    +0.022 C 
ATOM      5  C   LIG    1       25.084 -28.039   5.706  0.00  0.00    +0.012 C 
ATOM      6  C   LIG    1       25.245 -29.360   7.854  0.00  0.00    +0.187 C 
ATOM      7  O   LIG    1       25.906 -28.567   8.517  0.00  0.00    -0.287 OA
ATOM      8  C   LIG    1       24.842 -30.634   8.496  0.00  0.00    +0.067 C 
ENDROOT
BRANCH   5   9
ATOM      9  C   LIG    1       25.861 -26.879   6.101  0.00  0.00    +0.008 C 
ATOM     10  C   LIG    1       25.418 -25.632   6.366  0.00  0.00    -0.025 A 
ATOM     11  C   LIG    1       24.011 -25.237   6.304  0.00  0.00    +0.009 A 
ATOM     12  C   LIG    1       23.633 -23.996   6.658  0.00  0.00    +0.016 A 
ATOM     13  C   LIG    1       24.616 -23.004   7.134  0.00  0.00    +0.059 A 
ATOM     14  C   LIG    1       24.216 -21.789   7.615  0.00  0.00    +0.258 C 
ATOM     15  C   LIG    1       26.043 -23.353   7.001  0.00  0.00    +0.016 A 
ATOM     16  C   LIG    1       26.419 -24.598   6.660  0.00  0.00    +0.009 A 
BRANCH  14  17
ATOM     17  N   LIG    1       22.892 -21.442   7.749  0.00  0.00    -0.251 N 
ATOM     18  H   LIG    1       22.332 -22.156   8.193  0.00  0.00    +0.288 HD
ATOM     19  H   LIG    1       22.474 -21.120   6.883  0.00  0.00    +0.288 HD
ENDBRANCH  14  17
BRANCH  14  20
ATOM     20  N   LIG    1       25.099 -20.824   8.033  0.00  0.00    -0.251 N 
ATOM     21  H   LIG    1       24.670 -19.924   8.201  0.00  0.00    +0.288 HD
ATOM     22  H   LIG    1       25.688 -21.115   8.806  0.00  0.00    +0.288 HD
ENDBRANCH  14  20
ENDBRANCH   5   9
BRANCH   1  25
ATOM     23  N   LIG    1       22.671 -33.430   8.201  0.00  0.00    -0.099 NA
ATOM     24  H   LIG    1       22.527 -34.239   8.804  0.00  0.00    +0.363 HD
ATOM     25  C   LIG    1       23.767 -32.822   8.540  0.00  0.00    +0.308 C 
BRANCH  25  26
ATOM     26  N   LIG    1       24.533 -33.366   9.533  0.00  0.00    -0.247 N 
ATOM     27  H   LIG    1       24.669 -34.371   9.493  0.00  0.00    +0.288 HD
ATOM     28  H   LIG    1       24.328 -33.051  10.472  0.00  0.00    +0.288 HD
ENDBRANCH  25  26
ENDBRANCH   1  25
TORSDOF 5
ENDMDL
