MODEL 1
REMARK VINA RESULT:     -10.2      0.000      0.000
REMARK  Name = *****
REMARK                            x       y       z     vdW  Elec       q    Type
REMARK                         _______ _______ _______ _____ _____    ______ ____
ROOT
ATOM      1  C   LIG    1       25.773 -22.099   6.983  0.00  0.00    +0.068 C 
ATOM      2  N   LIG    1       27.086 -22.341   6.319  0.00  0.00    -0.303 NA
ATOM      3  H   LIG    1       27.510 -23.153   6.772  0.00  0.00    +0.123 HD
ATOM      4  C   LIG    1       28.019 -21.205   6.354  0.00  0.00    +0.107 C 
ATOM      5  C   LIG    1       28.245 -20.539   7.741  0.00  0.00    +0.048 C 
ATOM      6  N   LIG    1       29.197 -21.292   8.524  0.00  0.00    -0.308 N 
ATOM      7  H   LIG    1       29.034 -22.178   8.979  0.00  0.00    +0.149 HD
ATOM      8  C   LIG    1       30.498 -20.824   8.398  0.00  0.00    +0.213 C 
ATOM      9  O   LIG    1       31.483 -21.367   8.838  0.00  0.00    -0.276 OA
ATOM     10  C   LIG    1       30.456 -19.560   7.555  0.00  0.00    +0.098 C 
ATOM     11  C   LIG    1       28.976 -19.192   7.587  0.00  0.00    +0.036 C 
ATOM     12  C   LIG    1       26.917 -20.347   8.477  0.00  0.00    +0.029 C 
ATOM     13  C   LIG    1       26.058 -21.612   8.432  0.00  0.00    +0.031 C 
ENDROOT
BRANCH   1  14
ATOM     14  C   LIG    1       24.859 -21.138   6.179  0.00  0.00    -0.025 A 
ATOM     15  C   LIG    1       25.244 -20.648   4.916  0.00  0.00    +0.005 A 
ATOM     16  C   LIG    1       24.406 -19.810   4.167  0.00  0.00    +0.000 A 
ATOM     17  C   LIG    1       23.157 -19.447   4.657  0.00  0.00    +0.000 A 
ATOM     18  C   LIG    1       22.745 -19.921   5.896  0.00  0.00    +0.000 A 
ATOM     19  C   LIG    1       23.580 -20.762   6.642  0.00  0.00    +0.005 A 
ENDBRANCH   1  14
BRANCH   1  20
ATOM     20  C   LIG    1       25.038 -23.493   7.051  0.00  0.00    +0.187 C 
BRANCH  20  21
ATOM     21  O   LIG    1       25.971 -24.571   7.310  0.00  0.00    -0.370 OA
BRANCH  21  23
ATOM     22  C   LIG    1       24.719 -25.363   5.404  0.00  0.00    +0.043 C 
ATOM     23  C   LIG    1       25.921 -25.614   6.316  0.00  0.00    +0.145 C 
BRANCH  23  24
ATOM     24  C   LIG    1       25.803 -26.994   6.941  0.00  0.00    -0.018 A 
ATOM     25  C   LIG    1       26.313 -27.229   8.226  0.00  0.00    +0.018 A 
ATOM     26  C   LIG    1       26.143 -28.471   8.859  0.00  0.00    +0.056 A 
ATOM     27  C   LIG    1       25.478 -29.498   8.170  0.00  0.00    +0.024 A 
ATOM     28  C   LIG    1       24.997 -29.300   6.865  0.00  0.00    +0.056 A 
ATOM     29  C   LIG    1       25.178 -28.049   6.259  0.00  0.00    +0.018 A 
BRANCH  26  30
ATOM     30  C   LIG    1       26.644 -28.661  10.271  0.00  0.00    +0.417 C 
ATOM     31  F   LIG    1       25.696 -29.206  11.083  0.00  0.00    -0.166 F 
ATOM     32  F   LIG    1       27.009 -27.489  10.859  0.00  0.00    -0.166 F 
ATOM     33  F   LIG    1       27.728 -29.481  10.362  0.00  0.00    -0.166 F 
ENDBRANCH  26  30
BRANCH  28  34
ATOM     34  C   LIG    1       24.270 -30.410   6.143  0.00  0.00    +0.417 C 
ATOM     35  F   LIG    1       25.073 -31.058   5.254  0.00  0.00    -0.166 F 
ATOM     36  F   LIG    1       23.209 -29.953   5.424  0.00  0.00    -0.166 F 
ATOM     37  F   LIG    1       23.776 -31.372   6.970  0.00  0.00    -0.166 F 
ENDBRANCH  28  34
ENDBRANCH  23  24
ENDBRANCH  21  23
ENDBRANCH  20  21
ENDBRANCH   1  20
TORSDOF 7
ENDMDL
MODEL 2
REMARK VINA RESULT:     -10.1      0.130      2.969
REMARK  Name = *****
REMARK                            x       y       z     vdW  Elec       q    Type
REMARK                         _______ _______ _______ _____ _____    ______ ____
ROOT
ATOM      1  C   LIG    1       25.804 -22.081   6.883  0.00  0.00    +0.068 C 
ATOM      2  N   LIG    1       27.124 -22.274   6.218  0.00  0.00    -0.303 NA
ATOM      3  H   LIG    1       27.563 -23.092   6.648  0.00  0.00    +0.123 HD
ATOM      4  C   LIG    1       28.033 -21.122   6.293  0.00  0.00    +0.107 C 
ATOM      5  C   LIG    1       28.240 -20.495   7.701  0.00  0.00    +0.048 C 
ATOM      6  N   LIG    1       29.204 -21.252   8.464  0.00  0.00    -0.308 N 
ATOM      7  H   LIG    1       29.058 -22.155   8.891  0.00  0.00    +0.149 HD
ATOM      8  C   LIG    1       30.496 -20.754   8.358  0.00  0.00    +0.213 C 
ATOM      9  O   LIG    1       31.491 -21.290   8.785  0.00  0.00    -0.276 OA
ATOM     10  C   LIG    1       30.431 -19.465   7.555  0.00  0.00    +0.098 C 
ATOM     11  C   LIG    1       28.944 -19.129   7.592  0.00  0.00    +0.036 C 
ATOM     12  C   LIG    1       26.906 -20.353   8.437  0.00  0.00    +0.029 C 
ATOM     13  C   LIG    1       26.073 -21.634   8.349  0.00  0.00    +0.031 C 
ENDROOT
BRANCH   1  14
ATOM     14  C   LIG    1       24.873 -21.113   6.106  0.00  0.00    -0.025 A 
ATOM     15  C   LIG    1       25.241 -20.597   4.848  0.00  0.00    +0.005 A 
ATOM     16  C   LIG    1       24.388 -19.755   4.123  0.00  0.00    +0.000 A 
ATOM     17  C   LIG    1       23.141 -19.412   4.632  0.00  0.00    +0.000 A 
ATOM     18  C   LIG    1       22.745 -19.912   5.866  0.00  0.00    +0.000 A 
ATOM     19  C   LIG    1       23.596 -20.758   6.588  0.00  0.00    +0.005 A 
ENDBRANCH   1  14
BRANCH   1  20
ATOM     20  C   LIG    1       25.097 -23.491   6.906  0.00  0.00    +0.187 C 
BRANCH  20  21
ATOM     21  O   LIG    1       26.020 -24.539   7.293  0.00  0.00    -0.370 OA
BRANCH  21  23
ATOM     22  C   LIG    1       25.017 -25.386   5.267  0.00  0.00    +0.043 C 
ATOM     23  C   LIG    1       26.076 -25.622   6.344  0.00  0.00    +0.145 C 
BRANCH  23  24
ATOM     24  C   LIG    1       25.838 -26.972   7.002  0.00  0.00    -0.018 A 
ATOM     25  C   LIG    1       25.152 -27.979   6.307  0.00  0.00    +0.018 A 
ATOM     26  C   LIG    1       24.992 -29.261   6.859  0.00  0.00    +0.056 A 
ATOM     27  C   LIG    1       25.503 -29.516   8.142  0.00  0.00    +0.024 A 
ATOM     28  C   LIG    1       26.155 -28.510   8.873  0.00  0.00    +0.056 A 
ATOM     29  C   LIG    1       26.304 -27.241   8.297  0.00  0.00    +0.018 A 
BRANCH  26  30
ATOM     30  C   LIG    1       24.309 -30.339   6.050  0.00  0.00    +0.417 C 
ATOM     31  F   LIG    1       23.211 -29.869   5.395  0.00  0.00    -0.166 F 
ATOM     32  F   LIG    1       23.869 -31.371   6.820  0.00  0.00    -0.166 F 
ATOM     33  F   LIG    1       25.105 -30.893   5.095  0.00  0.00    -0.166 F 
ENDBRANCH  26  30
BRANCH  28  34
ATOM     34  C   LIG    1       26.713 -28.805  10.246  0.00  0.00    +0.417 C 
ATOM     35  F   LIG    1       27.139 -27.678  10.881  0.00  0.00    -0.166 F 
ATOM     36  F   LIG    1       27.789 -29.638  10.200  0.00  0.00    -0.166 F 
ATOM     37  F   LIG    1       25.819 -29.393  11.088  0.00  0.00    -0.166 F 
ENDBRANCH  28  34
ENDBRANCH  23  24
ENDBRANCH  21  23
ENDBRANCH  20  21
ENDBRANCH   1  20
TORSDOF 7
ENDMDL
MODEL 3
REMARK VINA RESULT:      -8.7      4.939      8.600
REMARK  Name = *****
REMARK                            x       y       z     vdW  Elec       q    Type
REMARK                         _______ _______ _______ _____ _____    ______ ____
ROOT
ATOM      1  C   LIG    1       24.608 -30.555   7.442  0.00  0.00    +0.068 C 
ATOM      2  N   LIG    1       24.996 -29.339   8.211  0.00  0.00    -0.303 NA
ATOM      3  H   LIG    1       24.138 -28.936   8.595  0.00  0.00    +0.123 HD
ATOM      4  C   LIG    1       25.724 -28.322   7.440  0.00  0.00    +0.107 C 
ATOM      5  C   LIG    1       25.097 -27.905   6.079  0.00  0.00    +0.048 C 
ATOM      6  N   LIG    1       24.039 -26.941   6.274  0.00  0.00    -0.308 N 
ATOM      7  H   LIG    1       23.117 -27.126   6.640  0.00  0.00    +0.149 HD
ATOM      8  C   LIG    1       24.472 -25.627   6.160  0.00  0.00    +0.213 C 
ATOM      9  O   LIG    1       23.813 -24.648   6.417  0.00  0.00    -0.276 OA
ATOM     10  C   LIG    1       25.929 -25.654   5.727  0.00  0.00    +0.098 C 
ATOM     11  C   LIG    1       26.101 -27.090   5.242  0.00  0.00    +0.036 C 
ATOM     12  C   LIG    1       24.622 -29.133   5.299  0.00  0.00    +0.029 C 
ATOM     13  C   LIG    1       23.819 -30.089   6.185  0.00  0.00    +0.031 C 
ENDROOT
BRANCH   1  14
ATOM     14  C   LIG    1       25.817 -31.468   7.106  0.00  0.00    -0.025 A 
ATOM     15  C   LIG    1       26.671 -31.951   8.116  0.00  0.00    +0.005 A 
ATOM     16  C   LIG    1       27.741 -32.808   7.824  0.00  0.00    +0.000 A 
ATOM     17  C   LIG    1       27.981 -33.210   6.516  0.00  0.00    +0.000 A 
ATOM     18  C   LIG    1       27.151 -32.757   5.498  0.00  0.00    +0.000 A 
ATOM     19  C   LIG    1       26.079 -31.906   5.791  0.00  0.00    +0.005 A 
ENDBRANCH   1  14
BRANCH   1  20
ATOM     20  C   LIG    1       23.639 -31.387   8.368  0.00  0.00    +0.187 C 
BRANCH  20  21
ATOM     21  O   LIG    1       22.757 -30.521   9.124  0.00  0.00    -0.370 OA
BRANCH  21  23
ATOM     22  C   LIG    1       21.203 -31.508  10.686  0.00  0.00    +0.043 C 
ATOM     23  C   LIG    1       22.606 -30.927  10.499  0.00  0.00    +0.145 C 
BRANCH  23  24
ATOM     24  C   LIG    1       22.807 -29.769  11.462  0.00  0.00    -0.018 A 
ATOM     25  C   LIG    1       24.104 -29.336  11.777  0.00  0.00    +0.018 A 
ATOM     26  C   LIG    1       24.315 -28.216  12.598  0.00  0.00    +0.056 A 
ATOM     27  C   LIG    1       23.203 -27.547  13.134  0.00  0.00    +0.024 A 
ATOM     28  C   LIG    1       21.897 -27.990  12.868  0.00  0.00    +0.056 A 
ATOM     29  C   LIG    1       21.714 -29.109  12.042  0.00  0.00    +0.018 A 
BRANCH  26  30
ATOM     30  C   LIG    1       25.726 -27.739  12.856  0.00  0.00    +0.417 C 
ATOM     31  F   LIG    1       26.463 -27.680  11.712  0.00  0.00    -0.166 F 
ATOM     32  F   LIG    1       26.410 -28.559  13.698  0.00  0.00    -0.166 F 
ATOM     33  F   LIG    1       25.790 -26.495  13.406  0.00  0.00    -0.166 F 
ENDBRANCH  26  30
BRANCH  28  34
ATOM     34  C   LIG    1       20.710 -27.251  13.439  0.00  0.00    +0.417 C 
ATOM     35  F   LIG    1       20.167 -26.379  12.545  0.00  0.00    -0.166 F 
ATOM     36  F   LIG    1       21.038 -26.508  14.532  0.00  0.00    -0.166 F 
ATOM     37  F   LIG    1       19.692 -28.066  13.832  0.00  0.00    -0.166 F 
ENDBRANCH  28  34
ENDBRANCH  23  24
ENDBRANCH  21  23
ENDBRANCH  20  21
ENDBRANCH   1  20
TORSDOF 7
ENDMDL
MODEL 4
REMARK VINA RESULT:      -8.5      4.674      8.710
REMARK  Name = *****
REMARK                            x       y       z     vdW  Elec       q    Type
REMARK                         _______ _______ _______ _____ _____    ______ ____
ROOT
ATOM      1  C   LIG    1       25.654 -21.593   6.266  0.00  0.00    +0.068 C 
ATOM      2  N   LIG    1       25.505 -20.904   4.953  0.00  0.00    -0.303 NA
ATOM      3  H   LIG    1       25.835 -19.944   5.075  0.00  0.00    +0.123 HD
ATOM      4  C   LIG    1       24.141 -20.897   4.406  0.00  0.00    +0.107 C 
ATOM      5  C   LIG    1       23.010 -20.440   5.371  0.00  0.00    +0.048 C 
ATOM      6  N   LIG    1       22.945 -18.999   5.441  0.00  0.00    -0.308 N 
ATOM      7  H   LIG    1       23.595 -18.390   5.917  0.00  0.00    +0.149 HD
ATOM      8  C   LIG    1       22.028 -18.451   4.554  0.00  0.00    +0.213 C 
ATOM      9  O   LIG    1       21.892 -17.273   4.325  0.00  0.00    -0.276 OA
ATOM     10  C   LIG    1       21.289 -19.598   3.884  0.00  0.00    +0.098 C 
ATOM     11  C   LIG    1       21.625 -20.779   4.789  0.00  0.00    +0.036 C 
ATOM     12  C   LIG    1       23.182 -21.077   6.752  0.00  0.00    +0.029 C 
ATOM     13  C   LIG    1       24.625 -20.966   7.250  0.00  0.00    +0.031 C 
ENDROOT
BRANCH   1  14
ATOM     14  C   LIG    1       25.536 -23.136   6.154  0.00  0.00    -0.025 A 
ATOM     15  C   LIG    1       25.913 -23.978   7.218  0.00  0.00    +0.005 A 
ATOM     16  C   LIG    1       25.773 -25.369   7.139  0.00  0.00    +0.000 A 
ATOM     17  C   LIG    1       25.244 -25.957   5.995  0.00  0.00    +0.000 A 
ATOM     18  C   LIG    1       24.855 -25.154   4.931  0.00  0.00    +0.000 A 
ATOM     19  C   LIG    1       24.990 -23.762   5.014  0.00  0.00    +0.005 A 
ENDBRANCH   1  14
BRANCH   1  20
ATOM     20  C   LIG    1       27.109 -21.273   6.783  0.00  0.00    +0.187 C 
BRANCH  20  21
ATOM     21  O   LIG    1       27.869 -20.531   5.797  0.00  0.00    -0.370 OA
BRANCH  21  23
ATOM     22  C   LIG    1       28.820 -18.431   5.081  0.00  0.00    +0.043 C 
ATOM     23  C   LIG    1       28.307 -19.242   6.272  0.00  0.00    +0.145 C 
BRANCH  23  24
ATOM     24  C   LIG    1       29.405 -19.360   7.316  0.00  0.00    -0.018 A 
ATOM     25  C   LIG    1       29.967 -18.203   7.877  0.00  0.00    +0.018 A 
ATOM     26  C   LIG    1       30.923 -18.285   8.903  0.00  0.00    +0.056 A 
ATOM     27  C   LIG    1       31.340 -19.552   9.343  0.00  0.00    +0.024 A 
ATOM     28  C   LIG    1       30.823 -20.723   8.765  0.00  0.00    +0.056 A 
ATOM     29  C   LIG    1       29.868 -20.612   7.745  0.00  0.00    +0.018 A 
BRANCH  26  30
ATOM     30  C   LIG    1       31.451 -17.016   9.530  0.00  0.00    +0.417 C 
ATOM     31  F   LIG    1       30.447 -16.180   9.918  0.00  0.00    -0.166 F 
ATOM     32  F   LIG    1       32.227 -16.295   8.677  0.00  0.00    -0.166 F 
ATOM     33  F   LIG    1       32.208 -17.229  10.642  0.00  0.00    -0.166 F 
ENDBRANCH  26  30
BRANCH  28  34
ATOM     34  C   LIG    1       31.271 -22.079   9.260  0.00  0.00    +0.417 C 
ATOM     35  F   LIG    1       32.595 -22.100   9.576  0.00  0.00    -0.166 F 
ATOM     36  F   LIG    1       31.093 -23.056   8.328  0.00  0.00    -0.166 F 
ATOM     37  F   LIG    1       30.613 -22.501  10.375  0.00  0.00    -0.166 F 
ENDBRANCH  28  34
ENDBRANCH  23  24
ENDBRANCH  21  23
ENDBRANCH  20  21
ENDBRANCH   1  20
TORSDOF 7
ENDMDL
MODEL 5
REMARK VINA RESULT:      -8.4      4.666      8.898
REMARK  Name = *****
REMARK                            x       y       z     vdW  Elec       q    Type
REMARK                         _______ _______ _______ _____ _____    ______ ____
ROOT
ATOM      1  C   LIG    1       25.677 -21.687   6.273  0.00  0.00    +0.068 C 
ATOM      2  N   LIG    1       25.526 -20.994   4.962  0.00  0.00    -0.303 NA
ATOM      3  H   LIG    1       25.864 -20.037   5.084  0.00  0.00    +0.123 HD
ATOM      4  C   LIG    1       24.159 -20.976   4.423  0.00  0.00    +0.107 C 
ATOM      5  C   LIG    1       23.038 -20.512   5.395  0.00  0.00    +0.048 C 
ATOM      6  N   LIG    1       22.984 -19.071   5.468  0.00  0.00    -0.308 N 
ATOM      7  H   LIG    1       23.641 -18.467   5.941  0.00  0.00    +0.149 HD
ATOM      8  C   LIG    1       22.066 -18.515   4.588  0.00  0.00    +0.213 C 
ATOM      9  O   LIG    1       21.937 -17.335   4.362  0.00  0.00    -0.276 OA
ATOM     10  C   LIG    1       21.314 -19.655   3.920  0.00  0.00    +0.098 C 
ATOM     11  C   LIG    1       21.647 -20.840   4.821  0.00  0.00    +0.036 C 
ATOM     12  C   LIG    1       23.213 -21.152   6.774  0.00  0.00    +0.029 C 
ATOM     13  C   LIG    1       24.659 -21.054   7.264  0.00  0.00    +0.031 C 
ENDROOT
BRANCH   1  14
ATOM     14  C   LIG    1       25.548 -23.228   6.159  0.00  0.00    -0.025 A 
ATOM     15  C   LIG    1       25.909 -24.074   7.226  0.00  0.00    +0.005 A 
ATOM     16  C   LIG    1       25.757 -25.464   7.144  0.00  0.00    +0.000 A 
ATOM     17  C   LIG    1       25.233 -26.047   5.996  0.00  0.00    +0.000 A 
ATOM     18  C   LIG    1       24.860 -25.240   4.929  0.00  0.00    +0.000 A 
ATOM     19  C   LIG    1       25.006 -23.849   5.014  0.00  0.00    +0.005 A 
ENDBRANCH   1  14
BRANCH   1  20
ATOM     20  C   LIG    1       27.138 -21.378   6.782  0.00  0.00    +0.187 C 
BRANCH  20  21
ATOM     21  O   LIG    1       27.885 -20.604   5.810  0.00  0.00    -0.370 OA
BRANCH  21  23
ATOM     22  C   LIG    1       28.818 -18.487   5.123  0.00  0.00    +0.043 C 
ATOM     23  C   LIG    1       28.256 -19.298   6.292  0.00  0.00    +0.145 C 
BRANCH  23  24
ATOM     24  C   LIG    1       29.292 -19.370   7.402  0.00  0.00    -0.018 A 
ATOM     25  C   LIG    1       29.750 -20.617   7.854  0.00  0.00    +0.018 A 
ATOM     26  C   LIG    1       30.766 -20.710   8.819  0.00  0.00    +0.056 A 
ATOM     27  C   LIG    1       31.303 -19.529   9.356  0.00  0.00    +0.024 A 
ATOM     28  C   LIG    1       30.830 -18.271   8.950  0.00  0.00    +0.056 A 
ATOM     29  C   LIG    1       29.817 -18.206   7.983  0.00  0.00    +0.018 A 
BRANCH  26  30
ATOM     30  C   LIG    1       31.281 -22.071   9.227  0.00  0.00    +0.417 C 
ATOM     31  F   LIG    1       30.774 -22.472  10.426  0.00  0.00    -0.166 F 
ATOM     32  F   LIG    1       32.634 -22.097   9.368  0.00  0.00    -0.166 F 
ATOM     33  F   LIG    1       30.974 -23.060   8.343  0.00  0.00    -0.166 F 
ENDBRANCH  26  30
BRANCH  28  34
ATOM     34  C   LIG    1       31.428 -17.009   9.526  0.00  0.00    +0.417 C 
ATOM     35  F   LIG    1       32.099 -17.241  10.688  0.00  0.00    -0.166 F 
ATOM     36  F   LIG    1       30.483 -16.074   9.821  0.00  0.00    -0.166 F 
ATOM     37  F   LIG    1       32.317 -16.394   8.697  0.00  0.00    -0.166 F 
ENDBRANCH  28  34
ENDBRANCH  23  24
ENDBRANCH  21  23
ENDBRANCH  20  21
ENDBRANCH   1  20
TORSDOF 7
ENDMDL
MODEL 6
REMARK VINA RESULT:      -8.4      5.004      8.738
REMARK  Name = *****
REMARK                            x       y       z     vdW  Elec       q    Type
REMARK                         _______ _______ _______ _____ _____    ______ ____
ROOT
ATOM      1  C   LIG    1       24.607 -30.616   7.456  0.00  0.00    +0.068 C 
ATOM      2  N   LIG    1       24.977 -29.390   8.220  0.00  0.00    -0.303 NA
ATOM      3  H   LIG    1       24.111 -28.989   8.587  0.00  0.00    +0.123 HD
ATOM      4  C   LIG    1       25.712 -28.377   7.451  0.00  0.00    +0.107 C 
ATOM      5  C   LIG    1       25.103 -27.976   6.077  0.00  0.00    +0.048 C 
ATOM      6  N   LIG    1       24.038 -27.016   6.246  0.00  0.00    -0.308 N 
ATOM      7  H   LIG    1       23.111 -27.202   6.600  0.00  0.00    +0.149 HD
ATOM      8  C   LIG    1       24.466 -25.700   6.126  0.00  0.00    +0.213 C 
ATOM      9  O   LIG    1       23.798 -24.722   6.364  0.00  0.00    -0.276 OA
ATOM     10  C   LIG    1       25.929 -25.724   5.716  0.00  0.00    +0.098 C 
ATOM     11  C   LIG    1       26.115 -27.164   5.247  0.00  0.00    +0.036 C 
ATOM     12  C   LIG    1       24.646 -29.214   5.301  0.00  0.00    +0.029 C 
ATOM     13  C   LIG    1       23.835 -30.165   6.184  0.00  0.00    +0.031 C 
ENDROOT
BRANCH   1  14
ATOM     14  C   LIG    1       25.825 -31.525   7.148  0.00  0.00    -0.025 A 
ATOM     15  C   LIG    1       26.647 -32.022   8.178  0.00  0.00    +0.005 A 
ATOM     16  C   LIG    1       27.725 -32.876   7.909  0.00  0.00    +0.000 A 
ATOM     17  C   LIG    1       28.006 -33.262   6.604  0.00  0.00    +0.000 A 
ATOM     18  C   LIG    1       27.209 -32.795   5.566  0.00  0.00    +0.000 A 
ATOM     19  C   LIG    1       26.128 -31.946   5.836  0.00  0.00    +0.005 A 
ENDBRANCH   1  14
BRANCH   1  20
ATOM     20  C   LIG    1       23.629 -31.444   8.376  0.00  0.00    +0.187 C 
BRANCH  20  21
ATOM     21  O   LIG    1       22.850 -30.576   9.236  0.00  0.00    -0.370 OA
BRANCH  21  23
ATOM     22  C   LIG    1       21.637 -31.515  11.100  0.00  0.00    +0.043 C 
ATOM     23  C   LIG    1       22.963 -30.914  10.633  0.00  0.00    +0.145 C 
BRANCH  23  24
ATOM     24  C   LIG    1       23.300 -29.703  11.488  0.00  0.00    -0.018 A 
ATOM     25  C   LIG    1       22.272 -28.958  12.085  0.00  0.00    +0.018 A 
ATOM     26  C   LIG    1       22.559 -27.887  12.947  0.00  0.00    +0.056 A 
ATOM     27  C   LIG    1       23.900 -27.545  13.182  0.00  0.00    +0.024 A 
ATOM     28  C   LIG    1       24.945 -28.249  12.561  0.00  0.00    +0.056 A 
ATOM     29  C   LIG    1       24.630 -29.316  11.708  0.00  0.00    +0.018 A 
BRANCH  26  30
ATOM     30  C   LIG    1       21.425 -27.154  13.626  0.00  0.00    +0.417 C 
ATOM     31  F   LIG    1       21.874 -26.223  14.512  0.00  0.00    -0.166 F 
ATOM     32  F   LIG    1       20.617 -27.987  14.337  0.00  0.00    -0.166 F 
ATOM     33  F   LIG    1       20.610 -26.486  12.763  0.00  0.00    -0.166 F 
ENDBRANCH  26  30
BRANCH  28  34
ATOM     34  C   LIG    1       26.383 -27.879  12.835  0.00  0.00    +0.417 C 
ATOM     35  F   LIG    1       26.757 -28.175  14.111  0.00  0.00    -0.166 F 
ATOM     36  F   LIG    1       26.615 -26.546  12.678  0.00  0.00    -0.166 F 
ATOM     37  F   LIG    1       27.278 -28.512  12.027  0.00  0.00    -0.166 F 
ENDBRANCH  28  34
ENDBRANCH  23  24
ENDBRANCH  21  23
ENDBRANCH  20  21
ENDBRANCH   1  20
TORSDOF 7
ENDMDL
MODEL 7
REMARK VINA RESULT:      -8.1      4.490      8.983
REMARK  Name = *****
REMARK                            x       y       z     vdW  Elec       q    Type
REMARK                         _______ _______ _______ _____ _____    ______ ____
ROOT
ATOM      1  C   LIG    1       24.919 -29.281   7.573  0.00  0.00    +0.068 C 
ATOM      2  N   LIG    1       23.751 -29.655   8.419  0.00  0.00    -0.303 NA
ATOM      3  H   LIG    1       23.303 -28.786   8.720  0.00  0.00    +0.123 HD
ATOM      4  C   LIG    1       24.072 -30.483   9.590  0.00  0.00    +0.107 C 
ATOM      5  C   LIG    1       25.236 -29.984  10.492  0.00  0.00    +0.048 C 
ATOM      6  N   LIG    1       24.781 -28.954  11.396  0.00  0.00    -0.308 N 
ATOM      7  H   LIG    1       24.560 -27.999  11.157  0.00  0.00    +0.149 HD
ATOM      8  C   LIG    1       24.402 -29.448  12.637  0.00  0.00    +0.213 C 
ATOM      9  O   LIG    1       23.859 -28.810  13.509  0.00  0.00    -0.276 OA
ATOM     10  C   LIG    1       24.728 -30.932  12.665  0.00  0.00    +0.098 C 
ATOM     11  C   LIG    1       25.673 -31.084  11.478  0.00  0.00    +0.036 C 
ATOM     12  C   LIG    1       26.424 -29.523   9.644  0.00  0.00    +0.029 C 
ATOM     13  C   LIG    1       25.979 -28.614   8.496  0.00  0.00    +0.031 C 
ENDROOT
BRANCH   1  14
ATOM     14  C   LIG    1       25.479 -30.474   6.755  0.00  0.00    -0.025 A 
ATOM     15  C   LIG    1       25.314 -30.546   5.358  0.00  0.00    +0.005 A 
ATOM     16  C   LIG    1       25.851 -31.601   4.609  0.00  0.00    +0.000 A 
ATOM     17  C   LIG    1       26.575 -32.609   5.235  0.00  0.00    +0.000 A 
ATOM     18  C   LIG    1       26.762 -32.563   6.610  0.00  0.00    +0.000 A 
ATOM     19  C   LIG    1       26.230 -31.505   7.358  0.00  0.00    +0.005 A 
ENDBRANCH   1  14
BRANCH   1  20
ATOM     20  C   LIG    1       24.403 -28.208   6.538  0.00  0.00    +0.187 C 
BRANCH  20  21
ATOM     21  O   LIG    1       24.716 -26.861   6.970  0.00  0.00    -0.370 OA
BRANCH  21  23
ATOM     22  C   LIG    1       26.755 -26.415   5.759  0.00  0.00    +0.043 C 
ATOM     23  C   LIG    1       25.280 -26.047   5.924  0.00  0.00    +0.145 C 
BRANCH  23  24
ATOM     24  C   LIG    1       25.159 -24.562   6.226  0.00  0.00    -0.018 A 
ATOM     25  C   LIG    1       26.230 -23.878   6.822  0.00  0.00    +0.018 A 
ATOM     26  C   LIG    1       26.175 -22.491   7.035  0.00  0.00    +0.056 A 
ATOM     27  C   LIG    1       25.012 -21.793   6.671  0.00  0.00    +0.024 A 
ATOM     28  C   LIG    1       23.912 -22.465   6.114  0.00  0.00    +0.056 A 
ATOM     29  C   LIG    1       23.994 -23.849   5.909  0.00  0.00    +0.018 A 
BRANCH  26  30
ATOM     30  C   LIG    1       27.376 -21.780   7.614  0.00  0.00    +0.417 C 
ATOM     31  F   LIG    1       27.162 -20.442   7.753  0.00  0.00    -0.166 F 
ATOM     32  F   LIG    1       28.482 -21.901   6.831  0.00  0.00    -0.166 F 
ATOM     33  F   LIG    1       27.736 -22.230   8.848  0.00  0.00    -0.166 F 
ENDBRANCH  26  30
BRANCH  28  34
ATOM     34  C   LIG    1       22.673 -21.698   5.714  0.00  0.00    +0.417 C 
ATOM     35  F   LIG    1       22.718 -21.288   4.416  0.00  0.00    -0.166 F 
ATOM     36  F   LIG    1       22.499 -20.569   6.456  0.00  0.00    -0.166 F 
ATOM     37  F   LIG    1       21.520 -22.411   5.840  0.00  0.00    -0.166 F 
ENDBRANCH  28  34
ENDBRANCH  23  24
ENDBRANCH  21  23
ENDBRANCH  20  21
ENDBRANCH   1  20
TORSDOF 7
ENDMDL
MODEL 8
REMARK VINA RESULT:      -8.0      1.832      4.423
REMARK  Name = *****
REMARK                            x       y       z     vdW  Elec       q    Type
REMARK                         _______ _______ _______ _____ _____    ______ ____
ROOT
ATOM      1  C   LIG    1       25.542 -22.348   6.690  0.00  0.00    +0.068 C 
ATOM      2  N   LIG    1       24.345 -21.688   7.284  0.00  0.00    -0.303 NA
ATOM      3  H   LIG    1       23.602 -22.390   7.325  0.00  0.00    +0.123 HD
ATOM      4  C   LIG    1       23.870 -20.498   6.565  0.00  0.00    +0.107 C 
ATOM      5  C   LIG    1       23.680 -20.648   5.028  0.00  0.00    +0.048 C 
ATOM      6  N   LIG    1       22.419 -21.284   4.725  0.00  0.00    -0.308 N 
ATOM      7  H   LIG    1       22.193 -22.261   4.846  0.00  0.00    +0.149 HD
ATOM      8  C   LIG    1       21.396 -20.377   4.483  0.00  0.00    +0.213 C 
ATOM      9  O   LIG    1       20.228 -20.658   4.348  0.00  0.00    -0.276 OA
ATOM     10  C   LIG    1       22.001 -18.983   4.491  0.00  0.00    +0.098 C 
ATOM     11  C   LIG    1       23.493 -19.271   4.364  0.00  0.00    +0.036 C 
ATOM     12  C   LIG    1       24.863 -21.389   4.402  0.00  0.00    +0.029 C 
ATOM     13  C   LIG    1       25.227 -22.646   5.196  0.00  0.00    +0.031 C 
ENDROOT
BRANCH   1  14
ATOM     14  C   LIG    1       26.844 -21.529   6.892  0.00  0.00    -0.025 A 
ATOM     15  C   LIG    1       27.781 -21.877   7.884  0.00  0.00    +0.005 A 
ATOM     16  C   LIG    1       28.977 -21.165   8.047  0.00  0.00    +0.000 A 
ATOM     17  C   LIG    1       29.273 -20.091   7.215  0.00  0.00    +0.000 A 
ATOM     18  C   LIG    1       28.373 -19.728   6.221  0.00  0.00    +0.000 A 
ATOM     19  C   LIG    1       27.180 -20.443   6.056  0.00  0.00    +0.005 A 
ENDBRANCH   1  14
BRANCH   1  20
ATOM     20  C   LIG    1       25.730 -23.716   7.451  0.00  0.00    +0.187 C 
BRANCH  20  21
ATOM     21  O   LIG    1       25.039 -24.797   6.776  0.00  0.00    -0.370 OA
BRANCH  21  23
ATOM     22  C   LIG    1       25.607 -25.986   4.753  0.00  0.00    +0.043 C 
ATOM     23  C   LIG    1       25.933 -25.790   6.235  0.00  0.00    +0.145 C 
BRANCH  23  24
ATOM     24  C   LIG    1       25.815 -27.120   6.960  0.00  0.00    -0.018 A 
ATOM     25  C   LIG    1       26.330 -27.260   8.257  0.00  0.00    +0.018 A 
ATOM     26  C   LIG    1       26.160 -28.452   8.981  0.00  0.00    +0.056 A 
ATOM     27  C   LIG    1       25.492 -29.527   8.372  0.00  0.00    +0.024 A 
ATOM     28  C   LIG    1       25.007 -29.424   7.057  0.00  0.00    +0.056 A 
ATOM     29  C   LIG    1       25.187 -28.221   6.360  0.00  0.00    +0.018 A 
BRANCH  26  30
ATOM     30  C   LIG    1       26.667 -28.538  10.401  0.00  0.00    +0.417 C 
ATOM     31  F   LIG    1       27.798 -29.291  10.498  0.00  0.00    -0.166 F 
ATOM     32  F   LIG    1       25.765 -29.112  11.244  0.00  0.00    -0.166 F 
ATOM     33  F   LIG    1       26.976 -27.330  10.946  0.00  0.00    -0.166 F 
ENDBRANCH  26  30
BRANCH  28  34
ATOM     34  C   LIG    1       24.276 -30.583   6.421  0.00  0.00    +0.417 C 
ATOM     35  F   LIG    1       25.095 -31.342   5.640  0.00  0.00    -0.166 F 
ATOM     36  F   LIG    1       23.260 -30.175   5.612  0.00  0.00    -0.166 F 
ATOM     37  F   LIG    1       23.718 -31.440   7.320  0.00  0.00    -0.166 F 
ENDBRANCH  28  34
ENDBRANCH  23  24
ENDBRANCH  21  23
ENDBRANCH  20  21
ENDBRANCH   1  20
TORSDOF 7
ENDMDL
MODEL 9
REMARK VINA RESULT:      -8.0      1.850      5.290
REMARK  Name = *****
REMARK                            x       y       z     vdW  Elec       q    Type
REMARK                         _______ _______ _______ _____ _____    ______ ____
ROOT
ATOM      1  C   LIG    1       25.514 -22.340   6.642  0.00  0.00    +0.068 C 
ATOM      2  N   LIG    1       24.323 -21.673   7.242  0.00  0.00    -0.303 NA
ATOM      3  H   LIG    1       23.571 -22.365   7.272  0.00  0.00    +0.123 HD
ATOM      4  C   LIG    1       23.865 -20.468   6.536  0.00  0.00    +0.107 C 
ATOM      5  C   LIG    1       23.678 -20.597   4.997  0.00  0.00    +0.048 C 
ATOM      6  N   LIG    1       22.409 -21.212   4.683  0.00  0.00    -0.308 N 
ATOM      7  H   LIG    1       22.171 -22.187   4.792  0.00  0.00    +0.149 HD
ATOM      8  C   LIG    1       21.399 -20.289   4.450  0.00  0.00    +0.213 C 
ATOM      9  O   LIG    1       20.228 -20.553   4.308  0.00  0.00    -0.276 OA
ATOM     10  C   LIG    1       22.022 -18.903   4.476  0.00  0.00    +0.098 C 
ATOM     11  C   LIG    1       23.511 -19.209   4.350  0.00  0.00    +0.036 C 
ATOM     12  C   LIG    1       24.853 -21.345   4.365  0.00  0.00    +0.029 C 
ATOM     13  C   LIG    1       25.199 -22.616   5.144  0.00  0.00    +0.031 C 
ENDROOT
BRANCH   1  14
ATOM     14  C   LIG    1       26.825 -21.540   6.858  0.00  0.00    -0.025 A 
ATOM     15  C   LIG    1       27.736 -21.889   7.874  0.00  0.00    +0.005 A 
ATOM     16  C   LIG    1       28.941 -21.196   8.050  0.00  0.00    +0.000 A 
ATOM     17  C   LIG    1       29.272 -20.140   7.208  0.00  0.00    +0.000 A 
ATOM     18  C   LIG    1       28.399 -19.777   6.191  0.00  0.00    +0.000 A 
ATOM     19  C   LIG    1       27.197 -20.474   6.013  0.00  0.00    +0.005 A 
ENDBRANCH   1  14
BRANCH   1  20
ATOM     20  C   LIG    1       25.682 -23.721   7.387  0.00  0.00    +0.187 C 
BRANCH  20  21
ATOM     21  O   LIG    1       24.996 -24.787   6.686  0.00  0.00    -0.370 OA
BRANCH  21  23
ATOM     22  C   LIG    1       25.584 -26.013   4.691  0.00  0.00    +0.043 C 
ATOM     23  C   LIG    1       25.890 -25.795   6.174  0.00  0.00    +0.145 C 
BRANCH  23  24
ATOM     24  C   LIG    1       25.753 -27.113   6.918  0.00  0.00    -0.018 A 
ATOM     25  C   LIG    1       25.196 -28.228   6.274  0.00  0.00    +0.018 A 
ATOM     26  C   LIG    1       25.135 -29.478   6.911  0.00  0.00    +0.056 A 
ATOM     27  C   LIG    1       25.612 -29.594   8.227  0.00  0.00    +0.024 A 
ATOM     28  C   LIG    1       26.133 -28.480   8.907  0.00  0.00    +0.056 A 
ATOM     29  C   LIG    1       26.186 -27.245   8.246  0.00  0.00    +0.018 A 
BRANCH  26  30
ATOM     30  C   LIG    1       24.593 -30.671   6.158  0.00  0.00    +0.417 C 
ATOM     31  F   LIG    1       25.286 -30.909   5.010  0.00  0.00    -0.166 F 
ATOM     32  F   LIG    1       23.296 -30.507   5.783  0.00  0.00    -0.166 F 
ATOM     33  F   LIG    1       24.637 -31.832   6.868  0.00  0.00    -0.166 F 
ENDBRANCH  26  30
BRANCH  28  34
ATOM     34  C   LIG    1       26.657 -28.624  10.316  0.00  0.00    +0.417 C 
ATOM     35  F   LIG    1       27.772 -29.404  10.375  0.00  0.00    -0.166 F 
ATOM     36  F   LIG    1       25.750 -29.206  11.149  0.00  0.00    -0.166 F 
ATOM     37  F   LIG    1       26.997 -27.442  10.900  0.00  0.00    -0.166 F 
ENDBRANCH  28  34
ENDBRANCH  23  24
ENDBRANCH  21  23
ENDBRANCH  20  21
ENDBRANCH   1  20
TORSDOF 7
ENDMDL
