MODEL 1
REMARK VINA RESULT:      -9.3      0.000      0.000
REMARK  Name = *****
REMARK                            x       y       z     vdW  Elec       q    Type
REMARK                         _______ _______ _______ _____ _____    ______ ____
ROOT
ATOM      1  C   LIG    1       24.275 -32.938   5.406  0.00  0.00    +0.089 C 
ATOM      2  C   LIG    1       24.583 -31.557   5.923  0.00  0.00    +0.103 C 
ATOM      3  N   LIG    1       23.841 -30.520   5.378  0.00  0.00    -0.208 N 
ATOM      4  H   LIG    1       23.129 -30.754   4.694  0.00  0.00    +0.298 HD
ATOM      5  C   LIG    1       24.127 -29.179   5.503  0.00  0.00    +0.269 C 
ATOM      6  C   LIG    1       25.025 -28.799   6.438  0.00  0.00    +0.133 C 
ATOM      7  C   LIG    1       25.673 -29.839   7.360  0.00  0.00    +0.104 C 
ATOM      8  C   LIG    1       25.531 -31.272   6.846  0.00  0.00    +0.088 C 
ENDROOT
BRANCH   7   9
ATOM      9  C   LIG    1       25.129 -29.734   8.796  0.00  0.00    -0.028 A 
ATOM     10  C   LIG    1       23.824 -30.150   9.116  0.00  0.00    +0.088 A 
ATOM     11  C   LIG    1       23.364 -30.028  10.432  0.00  0.00    +0.273 A 
ATOM     12  C   LIG    1       24.165 -29.506  11.449  0.00  0.00    +0.084 A 
ATOM     13  C   LIG    1       25.463 -29.107  11.138  0.00  0.00    +0.007 A 
ATOM     14  C   LIG    1       25.939 -29.220   9.825  0.00  0.00    +0.005 A 
BRANCH  11  15
ATOM     15  N   LIG    1       22.014 -30.459  10.752  0.00  0.00    +0.080 N 
ATOM     16  O   LIG    1       21.396 -31.080   9.877  0.00  0.00    -0.576 OA
ATOM     17  O   LIG    1       21.584 -30.179  11.879  0.00  0.00    +0.041 OA
ENDBRANCH  11  15
ENDBRANCH   7   9
BRANCH   5  18
ATOM     18  N   LIG    1       23.473 -28.334   4.642  0.00  0.00    -0.251 N 
ATOM     19  H   LIG    1       23.327 -28.750   3.729  0.00  0.00    +0.288 HD
ATOM     20  H   LIG    1       23.919 -27.418   4.567  0.00  0.00    +0.288 HD
ENDBRANCH   5  18
BRANCH   6  21
ATOM     21  C   LIG    1       25.515 -27.417   6.672  0.00  0.00    +0.344 C 
ATOM     22  O   LIG    1       26.702 -27.131   6.755  0.00  0.00    -0.245 OA
BRANCH  21  23
ATOM     23  O   LIG    1       24.504 -26.526   6.864  0.00  0.00    -0.455 OA
BRANCH  23  24
ATOM     24  C   LIG    1       24.820 -25.208   6.362  0.00  0.00    +0.205 C 
ATOM     25  C   LIG    1       23.769 -24.093   6.534  0.00  0.00    +0.131 C 
ATOM     26  N   LIG    1       24.807 -23.190   7.095  0.00  0.00    -0.284 NA
ATOM     27  C   LIG    1       25.678 -24.365   7.322  0.00  0.00    +0.131 C 
BRANCH  26  28
ATOM     28  C   LIG    1       25.384 -22.274   6.067  0.00  0.00    +0.117 C 
BRANCH  28  29
ATOM     29  C   LIG    1       26.605 -21.497   6.594  0.00  0.00    -0.026 A 
ATOM     30  C   LIG    1       27.184 -21.781   7.844  0.00  0.00    +0.005 A 
ATOM     31  C   LIG    1       28.340 -21.123   8.262  0.00  0.00    +0.000 A 
ATOM     32  C   LIG    1       28.908 -20.135   7.461  0.00  0.00    +0.000 A 
ATOM     33  C   LIG    1       28.324 -19.808   6.240  0.00  0.00    +0.000 A 
ATOM     34  C   LIG    1       27.185 -20.489   5.805  0.00  0.00    +0.005 A 
ENDBRANCH  28  29
BRANCH  28  35
ATOM     35  C   LIG    1       24.354 -21.285   5.501  0.00  0.00    -0.026 A 
ATOM     36  C   LIG    1       24.293 -21.061   4.112  0.00  0.00    +0.005 A 
ATOM     37  C   LIG    1       23.448 -20.088   3.574  0.00  0.00    +0.000 A 
ATOM     38  C   LIG    1       22.635 -19.332   4.413  0.00  0.00    +0.000 A 
ATOM     39  C   LIG    1       22.666 -19.550   5.789  0.00  0.00    +0.000 A 
ATOM     40  C   LIG    1       23.524 -20.513   6.331  0.00  0.00    +0.005 A 
ENDBRANCH  28  35
ENDBRANCH  26  28
ENDBRANCH  23  24
ENDBRANCH  21  23
ENDBRANCH   6  21
BRANCH   8  41
ATOM     41  C   LIG    1       26.516 -32.285   7.325  0.00  0.00    +0.340 C 
ATOM     42  O   LIG    1       26.391 -33.001   8.303  0.00  0.00    -0.245 OA
BRANCH  41  43
ATOM     43  O   LIG    1       27.504 -32.383   6.402  0.00  0.00    -0.459 OA
BRANCH  43  44
ATOM     44  C   LIG    1       27.907 -33.697   5.981  0.00  0.00    +0.171 C 
ATOM     45  C   LIG    1       29.389 -33.821   6.325  0.00  0.00    +0.051 C 
ATOM     46  C   LIG    1       27.711 -33.813   4.471  0.00  0.00    +0.051 C 
ENDBRANCH  43  44
ENDBRANCH  41  43
ENDBRANCH   8  41
TORSDOF 12
ENDMDL
MODEL 2
REMARK VINA RESULT:      -9.2      1.362      1.678
REMARK  Name = *****
REMARK                            x       y       z     vdW  Elec       q    Type
REMARK                         _______ _______ _______ _____ _____    ______ ____
ROOT
ATOM      1  C   LIG    1       24.314 -33.003   5.597  0.00  0.00    +0.089 C 
ATOM      2  C   LIG    1       24.643 -31.609   6.063  0.00  0.00    +0.103 C 
ATOM      3  N   LIG    1       23.927 -30.581   5.470  0.00  0.00    -0.208 N 
ATOM      4  H   LIG    1       23.217 -30.827   4.788  0.00  0.00    +0.298 HD
ATOM      5  C   LIG    1       24.237 -29.241   5.547  0.00  0.00    +0.269 C 
ATOM      6  C   LIG    1       25.132 -28.842   6.477  0.00  0.00    +0.133 C 
ATOM      7  C   LIG    1       25.750 -29.857   7.445  0.00  0.00    +0.104 C 
ATOM      8  C   LIG    1       25.586 -31.306   6.985  0.00  0.00    +0.088 C 
ENDROOT
BRANCH   7   9
ATOM      9  C   LIG    1       25.193 -29.687   8.870  0.00  0.00    -0.028 A 
ATOM     10  C   LIG    1       25.944 -29.056   9.878  0.00  0.00    +0.088 A 
ATOM     11  C   LIG    1       25.405 -28.931  11.164  0.00  0.00    +0.273 A 
ATOM     12  C   LIG    1       24.135 -29.413  11.483  0.00  0.00    +0.084 A 
ATOM     13  C   LIG    1       23.383 -30.025  10.482  0.00  0.00    +0.007 A 
ATOM     14  C   LIG    1       23.907 -30.161   9.190  0.00  0.00    +0.005 A 
BRANCH  11  15
ATOM     15  N   LIG    1       26.189 -28.279  12.198  0.00  0.00    +0.080 N 
ATOM     16  O   LIG    1       27.017 -27.434  11.833  0.00  0.00    -0.576 OA
ATOM     17  O   LIG    1       25.967 -28.612  13.370  0.00  0.00    +0.041 OA
ENDBRANCH  11  15
ENDBRANCH   7   9
BRANCH   5  18
ATOM     18  N   LIG    1       23.608 -28.417   4.647  0.00  0.00    -0.251 N 
ATOM     19  H   LIG    1       23.177 -28.933   3.888  0.00  0.00    +0.288 HD
ATOM     20  H   LIG    1       24.214 -27.674   4.296  0.00  0.00    +0.288 HD
ENDBRANCH   5  18
BRANCH   6  21
ATOM     21  C   LIG    1       25.646 -27.461   6.663  0.00  0.00    +0.344 C 
ATOM     22  O   LIG    1       26.837 -27.181   6.649  0.00  0.00    -0.245 OA
BRANCH  21  23
ATOM     23  O   LIG    1       24.657 -26.564   6.931  0.00  0.00    -0.455 OA
BRANCH  23  24
ATOM     24  C   LIG    1       24.944 -25.248   6.406  0.00  0.00    +0.205 C 
ATOM     25  C   LIG    1       23.816 -24.195   6.428  0.00  0.00    +0.131 C 
ATOM     26  N   LIG    1       24.739 -23.210   7.048  0.00  0.00    -0.284 NA
ATOM     27  C   LIG    1       25.651 -24.318   7.407  0.00  0.00    +0.131 C 
BRANCH  26  28
ATOM     28  C   LIG    1       25.359 -22.297   6.042  0.00  0.00    +0.117 C 
BRANCH  28  29
ATOM     29  C   LIG    1       26.581 -21.548   6.606  0.00  0.00    -0.026 A 
ATOM     30  C   LIG    1       27.233 -21.968   7.780  0.00  0.00    +0.005 A 
ATOM     31  C   LIG    1       28.389 -21.325   8.223  0.00  0.00    +0.000 A 
ATOM     32  C   LIG    1       28.883 -20.222   7.530  0.00  0.00    +0.000 A 
ATOM     33  C   LIG    1       28.225 -19.764   6.392  0.00  0.00    +0.000 A 
ATOM     34  C   LIG    1       27.088 -20.426   5.927  0.00  0.00    +0.005 A 
ENDBRANCH  28  29
BRANCH  28  35
ATOM     35  C   LIG    1       24.363 -21.284   5.458  0.00  0.00    -0.026 A 
ATOM     36  C   LIG    1       24.475 -20.895   4.109  0.00  0.00    +0.005 A 
ATOM     37  C   LIG    1       23.659 -19.894   3.577  0.00  0.00    +0.000 A 
ATOM     38  C   LIG    1       22.705 -19.275   4.378  0.00  0.00    +0.000 A 
ATOM     39  C   LIG    1       22.565 -19.658   5.710  0.00  0.00    +0.000 A 
ATOM     40  C   LIG    1       23.393 -20.648   6.250  0.00  0.00    +0.005 A 
ENDBRANCH  28  35
ENDBRANCH  26  28
ENDBRANCH  23  24
ENDBRANCH  21  23
ENDBRANCH   6  21
BRANCH   8  41
ATOM     41  C   LIG    1       26.547 -32.319   7.513  0.00  0.00    +0.340 C 
ATOM     42  O   LIG    1       26.365 -33.049   8.472  0.00  0.00    -0.245 OA
BRANCH  41  43
ATOM     43  O   LIG    1       27.594 -32.396   6.656  0.00  0.00    -0.459 OA
BRANCH  43  44
ATOM     44  C   LIG    1       27.986 -33.696   6.185  0.00  0.00    +0.171 C 
ATOM     45  C   LIG    1       29.495 -33.790   6.396  0.00  0.00    +0.051 C 
ATOM     46  C   LIG    1       27.660 -33.801   4.696  0.00  0.00    +0.051 C 
ENDBRANCH  43  44
ENDBRANCH  41  43
ENDBRANCH   8  41
TORSDOF 12
ENDMDL
MODEL 3
REMARK VINA RESULT:      -8.9      1.817      2.492
REMARK  Name = *****
REMARK                            x       y       z     vdW  Elec       q    Type
REMARK                         _______ _______ _______ _____ _____    ______ ____
ROOT
ATOM      1  C   LIG    1       23.608 -32.214   5.334  0.00  0.00    +0.089 C 
ATOM      2  C   LIG    1       24.257 -30.942   5.811  0.00  0.00    +0.103 C 
ATOM      3  N   LIG    1       23.643 -29.760   5.427  0.00  0.00    -0.208 N 
ATOM      4  H   LIG    1       22.792 -29.823   4.879  0.00  0.00    +0.298 HD
ATOM      5  C   LIG    1       24.195 -28.502   5.523  0.00  0.00    +0.269 C 
ATOM      6  C   LIG    1       25.297 -28.342   6.287  0.00  0.00    +0.133 C 
ATOM      7  C   LIG    1       25.886 -29.529   7.059  0.00  0.00    +0.104 C 
ATOM      8  C   LIG    1       25.388 -30.883   6.553  0.00  0.00    +0.088 C 
ENDROOT
BRANCH   7   9
ATOM      9  C   LIG    1       25.629 -29.400   8.571  0.00  0.00    -0.028 A 
ATOM     10  C   LIG    1       26.643 -28.984   9.452  0.00  0.00    +0.088 A 
ATOM     11  C   LIG    1       26.373 -28.890  10.822  0.00  0.00    +0.273 A 
ATOM     12  C   LIG    1       25.117 -29.196  11.348  0.00  0.00    +0.084 A 
ATOM     13  C   LIG    1       24.106 -29.593  10.476  0.00  0.00    +0.007 A 
ATOM     14  C   LIG    1       24.360 -29.695   9.102  0.00  0.00    +0.005 A 
BRANCH  11  15
ATOM     15  N   LIG    1       27.427 -28.461  11.723  0.00  0.00    +0.080 N 
ATOM     16  O   LIG    1       28.548 -28.963  11.564  0.00  0.00    -0.576 OA
ATOM     17  O   LIG    1       27.129 -27.618  12.581  0.00  0.00    +0.041 OA
ENDBRANCH  11  15
ENDBRANCH   7   9
BRANCH   5  18
ATOM     18  N   LIG    1       23.574 -27.508   4.809  0.00  0.00    -0.251 N 
ATOM     19  H   LIG    1       24.179 -27.106   4.101  0.00  0.00    +0.288 HD
ATOM     20  H   LIG    1       23.165 -26.786   5.404  0.00  0.00    +0.288 HD
ENDBRANCH   5  18
BRANCH   6  21
ATOM     21  C   LIG    1       26.074 -27.087   6.453  0.00  0.00    +0.344 C 
ATOM     22  O   LIG    1       27.238 -26.965   6.094  0.00  0.00    -0.245 OA
BRANCH  21  23
ATOM     23  O   LIG    1       25.379 -26.123   7.119  0.00  0.00    -0.455 OA
BRANCH  23  24
ATOM     24  C   LIG    1       25.533 -24.816   6.523  0.00  0.00    +0.205 C 
ATOM     25  C   LIG    1       24.263 -23.973   6.281  0.00  0.00    +0.131 C 
ATOM     26  N   LIG    1       24.905 -22.805   6.936  0.00  0.00    -0.284 NA
ATOM     27  C   LIG    1       25.912 -23.714   7.527  0.00  0.00    +0.131 C 
BRANCH  26  28
ATOM     28  C   LIG    1       25.526 -21.867   5.953  0.00  0.00    +0.117 C 
BRANCH  28  29
ATOM     29  C   LIG    1       26.699 -21.076   6.559  0.00  0.00    -0.026 A 
ATOM     30  C   LIG    1       27.718 -20.526   5.759  0.00  0.00    +0.005 A 
ATOM     31  C   LIG    1       28.723 -19.741   6.323  0.00  0.00    +0.000 A 
ATOM     32  C   LIG    1       28.757 -19.533   7.700  0.00  0.00    +0.000 A 
ATOM     33  C   LIG    1       27.783 -20.107   8.514  0.00  0.00    +0.000 A 
ATOM     34  C   LIG    1       26.757 -20.866   7.948  0.00  0.00    +0.005 A 
ENDBRANCH  28  29
BRANCH  28  35
ATOM     35  C   LIG    1       24.514 -20.890   5.336  0.00  0.00    -0.026 A 
ATOM     36  C   LIG    1       24.815 -20.254   4.116  0.00  0.00    +0.005 A 
ATOM     37  C   LIG    1       23.971 -19.278   3.584  0.00  0.00    +0.000 A 
ATOM     38  C   LIG    1       22.802 -18.930   4.253  0.00  0.00    +0.000 A 
ATOM     39  C   LIG    1       22.476 -19.560   5.452  0.00  0.00    +0.000 A 
ATOM     40  C   LIG    1       23.329 -20.527   5.995  0.00  0.00    +0.005 A 
ENDBRANCH  28  35
ENDBRANCH  26  28
ENDBRANCH  23  24
ENDBRANCH  21  23
ENDBRANCH   6  21
BRANCH   8  41
ATOM     41  C   LIG    1       26.231 -32.084   6.828  0.00  0.00    +0.340 C 
ATOM     42  O   LIG    1       27.318 -32.325   6.334  0.00  0.00    -0.245 OA
BRANCH  41  43
ATOM     43  O   LIG    1       25.653 -32.784   7.835  0.00  0.00    -0.459 OA
BRANCH  43  44
ATOM     44  C   LIG    1       26.287 -32.760   9.125  0.00  0.00    +0.171 C 
ATOM     45  C   LIG    1       27.379 -33.825   9.084  0.00  0.00    +0.051 C 
ATOM     46  C   LIG    1       25.252 -33.115  10.190  0.00  0.00    +0.051 C 
ENDBRANCH  43  44
ENDBRANCH  41  43
ENDBRANCH   8  41
TORSDOF 12
ENDMDL
MODEL 4
REMARK VINA RESULT:      -7.7      1.549      3.490
REMARK  Name = *****
REMARK                            x       y       z     vdW  Elec       q    Type
REMARK                         _______ _______ _______ _____ _____    ______ ____
ROOT
ATOM      1  C   LIG    1       23.912 -33.470   6.470  0.00  0.00    +0.089 C 
ATOM      2  C   LIG    1       24.275 -32.056   6.840  0.00  0.00    +0.103 C 
ATOM      3  N   LIG    1       23.694 -31.056   6.075  0.00  0.00    -0.208 N 
ATOM      4  H   LIG    1       23.049 -31.331   5.342  0.00  0.00    +0.298 HD
ATOM      5  C   LIG    1       24.077 -29.733   6.063  0.00  0.00    +0.269 C 
ATOM      6  C   LIG    1       24.888 -29.291   7.048  0.00  0.00    +0.133 C 
ATOM      7  C   LIG    1       25.332 -30.235   8.171  0.00  0.00    +0.104 C 
ATOM      8  C   LIG    1       25.129 -31.713   7.831  0.00  0.00    +0.088 C 
ENDROOT
BRANCH   7   9
ATOM      9  C   LIG    1       24.635 -29.896   9.501  0.00  0.00    -0.028 A 
ATOM     10  C   LIG    1       23.261 -30.130   9.687  0.00  0.00    +0.088 A 
ATOM     11  C   LIG    1       22.663 -29.797  10.907  0.00  0.00    +0.273 A 
ATOM     12  C   LIG    1       23.391 -29.239  11.958  0.00  0.00    +0.084 A 
ATOM     13  C   LIG    1       24.756 -29.020  11.782  0.00  0.00    +0.007 A 
ATOM     14  C   LIG    1       25.371 -29.344  10.566  0.00  0.00    +0.005 A 
BRANCH  11  15
ATOM     15  N   LIG    1       21.243 -30.043  11.088  0.00  0.00    +0.080 N 
ATOM     16  O   LIG    1       20.681 -29.452  12.020  0.00  0.00    -0.576 OA
ATOM     17  O   LIG    1       20.698 -30.821  10.293  0.00  0.00    +0.041 OA
ENDBRANCH  11  15
ENDBRANCH   7   9
BRANCH   5  18
ATOM     18  N   LIG    1       23.603 -28.972   5.024  0.00  0.00    -0.251 N 
ATOM     19  H   LIG    1       23.822 -27.988   5.135  0.00  0.00    +0.288 HD
ATOM     20  H   LIG    1       22.608 -29.114   4.847  0.00  0.00    +0.288 HD
ENDBRANCH   5  18
BRANCH   6  21
ATOM     21  C   LIG    1       25.465 -27.927   7.163  0.00  0.00    +0.344 C 
ATOM     22  O   LIG    1       26.075 -27.537   8.150  0.00  0.00    -0.245 OA
BRANCH  21  23
ATOM     23  O   LIG    1       25.171 -27.141   6.091  0.00  0.00    -0.455 OA
BRANCH  23  24
ATOM     24  C   LIG    1       25.001 -25.751   6.451  0.00  0.00    +0.205 C 
ATOM     25  C   LIG    1       26.251 -24.847   6.471  0.00  0.00    +0.131 C 
ATOM     26  N   LIG    1       25.539 -23.832   5.653  0.00  0.00    -0.284 NA
ATOM     27  C   LIG    1       24.537 -24.858   5.286  0.00  0.00    +0.131 C 
BRANCH  26  28
ATOM     28  C   LIG    1       24.933 -22.749   6.484  0.00  0.00    +0.117 C 
BRANCH  28  29
ATOM     29  C   LIG    1       24.098 -21.765   5.644  0.00  0.00    -0.026 A 
ATOM     30  C   LIG    1       22.701 -21.666   5.786  0.00  0.00    +0.005 A 
ATOM     31  C   LIG    1       21.978 -20.708   5.077  0.00  0.00    +0.000 A 
ATOM     32  C   LIG    1       22.630 -19.867   4.177  0.00  0.00    +0.000 A 
ATOM     33  C   LIG    1       24.005 -19.981   3.989  0.00  0.00    +0.000 A 
ATOM     34  C   LIG    1       24.736 -20.916   4.723  0.00  0.00    +0.005 A 
ENDBRANCH  28  29
BRANCH  28  35
ATOM     35  C   LIG    1       25.973 -21.969   7.301  0.00  0.00    -0.026 A 
ATOM     36  C   LIG    1       25.545 -21.018   8.247  0.00  0.00    +0.005 A 
ATOM     37  C   LIG    1       26.461 -20.212   8.926  0.00  0.00    +0.000 A 
ATOM     38  C   LIG    1       27.824 -20.353   8.684  0.00  0.00    +0.000 A 
ATOM     39  C   LIG    1       28.270 -21.301   7.766  0.00  0.00    +0.000 A 
ATOM     40  C   LIG    1       27.353 -22.098   7.073  0.00  0.00    +0.005 A 
ENDBRANCH  28  35
ENDBRANCH  26  28
ENDBRANCH  23  24
ENDBRANCH  21  23
ENDBRANCH   6  21
BRANCH   8  41
ATOM     41  C   LIG    1       25.961 -32.716   8.558  0.00  0.00    +0.340 C 
ATOM     42  O   LIG    1       27.137 -32.594   8.854  0.00  0.00    -0.245 OA
BRANCH  41  43
ATOM     43  O   LIG    1       25.149 -33.721   8.967  0.00  0.00    -0.459 OA
BRANCH  43  44
ATOM     44  C   LIG    1       24.851 -33.820  10.370  0.00  0.00    +0.171 C 
ATOM     45  C   LIG    1       23.356 -33.547  10.509  0.00  0.00    +0.051 C 
ATOM     46  C   LIG    1       25.648 -32.755  11.120  0.00  0.00    +0.051 C 
ENDBRANCH  43  44
ENDBRANCH  41  43
ENDBRANCH   8  41
TORSDOF 12
ENDMDL
MODEL 5
REMARK VINA RESULT:      -7.6      2.058      5.600
REMARK  Name = *****
REMARK                            x       y       z     vdW  Elec       q    Type
REMARK                         _______ _______ _______ _____ _____    ______ ____
ROOT
ATOM      1  C   LIG    1       25.223 -31.390  11.429  0.00  0.00    +0.089 C 
ATOM      2  C   LIG    1       25.050 -30.817  10.048  0.00  0.00    +0.103 C 
ATOM      3  N   LIG    1       25.956 -29.835   9.675  0.00  0.00    -0.208 N 
ATOM      4  H   LIG    1       26.684 -29.585  10.335  0.00  0.00    +0.298 HD
ATOM      5  C   LIG    1       25.831 -29.003   8.585  0.00  0.00    +0.269 C 
ATOM      6  C   LIG    1       24.918 -29.315   7.640  0.00  0.00    +0.133 C 
ATOM      7  C   LIG    1       24.075 -30.590   7.766  0.00  0.00    +0.104 C 
ATOM      8  C   LIG    1       24.077 -31.176   9.179  0.00  0.00    +0.088 C 
ENDROOT
BRANCH   7   9
ATOM      9  C   LIG    1       24.515 -31.658   6.748  0.00  0.00    -0.028 A 
ATOM     10  C   LIG    1       25.868 -32.010   6.596  0.00  0.00    +0.088 A 
ATOM     11  C   LIG    1       26.227 -32.978   5.651  0.00  0.00    +0.273 A 
ATOM     12  C   LIG    1       25.278 -33.615   4.850  0.00  0.00    +0.084 A 
ATOM     13  C   LIG    1       23.936 -33.280   5.010  0.00  0.00    +0.007 A 
ATOM     14  C   LIG    1       23.559 -32.311   5.949  0.00  0.00    +0.005 A 
BRANCH  11  15
ATOM     15  N   LIG    1       27.627 -33.334   5.501  0.00  0.00    +0.080 N 
ATOM     16  O   LIG    1       28.371 -33.125   6.468  0.00  0.00    -0.576 OA
ATOM     17  O   LIG    1       27.971 -33.825   4.417  0.00  0.00    +0.041 OA
ENDBRANCH  11  15
ENDBRANCH   7   9
BRANCH   5  18
ATOM     18  N   LIG    1       26.650 -27.902   8.562  0.00  0.00    -0.251 N 
ATOM     19  H   LIG    1       27.563 -28.092   8.959  0.00  0.00    +0.288 HD
ATOM     20  H   LIG    1       26.222 -27.078   8.988  0.00  0.00    +0.288 HD
ENDBRANCH   5  18
BRANCH   6  21
ATOM     21  C   LIG    1       24.586 -28.507   6.439  0.00  0.00    +0.344 C 
ATOM     22  O   LIG    1       23.571 -28.673   5.776  0.00  0.00    -0.245 OA
BRANCH  21  23
ATOM     23  O   LIG    1       25.570 -27.623   6.113  0.00  0.00    -0.455 OA
BRANCH  23  24
ATOM     24  C   LIG    1       25.263 -26.273   6.526  0.00  0.00    +0.205 C 
ATOM     25  C   LIG    1       26.406 -25.237   6.532  0.00  0.00    +0.131 C 
ATOM     26  N   LIG    1       25.556 -24.283   5.775  0.00  0.00    -0.284 NA
ATOM     27  C   LIG    1       24.659 -25.402   5.411  0.00  0.00    +0.131 C 
BRANCH  26  28
ATOM     28  C   LIG    1       24.869 -23.299   6.664  0.00  0.00    +0.117 C 
BRANCH  28  29
ATOM     29  C   LIG    1       23.783 -22.498   5.921  0.00  0.00    -0.026 A 
ATOM     30  C   LIG    1       22.412 -22.740   6.123  0.00  0.00    +0.005 A 
ATOM     31  C   LIG    1       21.447 -21.945   5.505  0.00  0.00    +0.000 A 
ATOM     32  C   LIG    1       21.835 -20.928   4.635  0.00  0.00    +0.000 A 
ATOM     33  C   LIG    1       23.187 -20.703   4.388  0.00  0.00    +0.000 A 
ATOM     34  C   LIG    1       24.155 -21.476   5.031  0.00  0.00    +0.005 A 
ENDBRANCH  28  29
BRANCH  28  35
ATOM     35  C   LIG    1       25.843 -22.328   7.347  0.00  0.00    -0.026 A 
ATOM     36  C   LIG    1       25.363 -21.433   8.323  0.00  0.00    +0.005 A 
ATOM     37  C   LIG    1       26.196 -20.462   8.883  0.00  0.00    +0.000 A 
ATOM     38  C   LIG    1       27.528 -20.378   8.490  0.00  0.00    +0.000 A 
ATOM     39  C   LIG    1       28.028 -21.266   7.540  0.00  0.00    +0.000 A 
ATOM     40  C   LIG    1       27.191 -22.228   6.966  0.00  0.00    +0.005 A 
ENDBRANCH  28  35
ENDBRANCH  26  28
ENDBRANCH  23  24
ENDBRANCH  21  23
ENDBRANCH   6  21
BRANCH   8  41
ATOM     41  C   LIG    1       22.939 -32.059   9.569  0.00  0.00    +0.340 C 
ATOM     42  O   LIG    1       23.008 -33.249   9.823  0.00  0.00    -0.245 OA
BRANCH  41  43
ATOM     43  O   LIG    1       21.841 -31.283   9.742  0.00  0.00    -0.459 OA
BRANCH  43  44
ATOM     44  C   LIG    1       21.132 -31.383  10.988  0.00  0.00    +0.171 C 
ATOM     45  C   LIG    1       19.670 -31.634  10.629  0.00  0.00    +0.051 C 
ATOM     46  C   LIG    1       21.265 -30.061  11.740  0.00  0.00    +0.051 C 
ENDBRANCH  43  44
ENDBRANCH  41  43
ENDBRANCH   8  41
TORSDOF 12
ENDMDL
