MODEL 1
REMARK VINA RESULT:      -4.9      0.000      0.000
REMARK  Name = *****
REMARK                            x       y       z     vdW  Elec       q    Type
REMARK                         _______ _______ _______ _____ _____    ______ ____
ROOT
ATOM      1  C   LIG    1       23.744 -18.980   3.641  0.00  0.00    +0.024 C 
ATOM      2  C   LIG    1       25.197 -18.685   4.049  0.00  0.00    +0.055 C 
ENDROOT
BRANCH   2   3
ATOM      3  N   LIG    1       26.001 -19.917   4.257  0.00  0.00    -0.312 NA
ATOM      4  H   LIG    1       26.969 -19.650   4.432  0.00  0.00    +0.122 HD
BRANCH   3   5
ATOM      5  C   LIG    1       25.522 -20.794   5.340  0.00  0.00    +0.096 C 
BRANCH   5   6
ATOM      6  C   LIG    1       26.369 -20.690   6.618  0.00  0.00    +0.133 C 
BRANCH   6   7
ATOM      7  C   LIG    1       27.735 -20.198   6.306  0.00  0.00    +0.064 C 
ATOM      8  N   LIG    1       28.790 -19.798   6.051  0.00  0.00    -0.197 NA
ENDBRANCH   6   7
ENDBRANCH   5   6
ENDBRANCH   3   5
ENDBRANCH   2   3
BRANCH   2   9
ATOM      9  C   LIG    1       25.825 -17.666   3.060  0.00  0.00    +0.053 C 
BRANCH   9  10
ATOM     10  C   LIG    1       25.912 -16.225   3.513  0.00  0.00    -0.046 A 
ATOM     11  C   LIG    1       27.172 -15.615   3.625  0.00  0.00    +0.003 A 
ATOM     12  C   LIG    1       27.289 -14.288   4.042  0.00  0.00    +0.000 A 
ATOM     13  C   LIG    1       26.148 -13.545   4.336  0.00  0.00    +0.000 A 
ATOM     14  C   LIG    1       24.891 -14.124   4.195  0.00  0.00    +0.000 A 
ATOM     15  C   LIG    1       24.773 -15.450   3.773  0.00  0.00    +0.003 A 
ENDBRANCH   9  10
ENDBRANCH   2   9
TORSDOF 6
ENDMDL
MODEL 2
REMARK VINA RESULT:      -4.8      2.486      5.525
REMARK  Name = *****
REMARK                            x       y       z     vdW  Elec       q    Type
REMARK                         _______ _______ _______ _____ _____    ______ ____
ROOT
ATOM      1  C   LIG    1       27.732 -17.307   4.158  0.00  0.00    +0.024 C 
ATOM      2  C   LIG    1       26.293 -16.940   3.756  0.00  0.00    +0.055 C 
ENDROOT
BRANCH   2   3
ATOM      3  N   LIG    1       26.215 -15.669   2.990  0.00  0.00    -0.312 NA
ATOM      4  H   LIG    1       25.862 -15.872   2.055  0.00  0.00    +0.122 HD
BRANCH   3   5
ATOM      5  C   LIG    1       25.391 -14.618   3.617  0.00  0.00    +0.096 C 
BRANCH   5   6
ATOM      6  C   LIG    1       26.180 -13.743   4.604  0.00  0.00    +0.133 C 
BRANCH   6   7
ATOM      7  C   LIG    1       27.561 -13.505   4.110  0.00  0.00    +0.064 C 
ATOM      8  N   LIG    1       28.641 -13.342   3.731  0.00  0.00    -0.197 NA
ENDBRANCH   6   7
ENDBRANCH   5   6
ENDBRANCH   3   5
ENDBRANCH   2   3
BRANCH   2   9
ATOM      9  C   LIG    1       25.615 -18.151   3.062  0.00  0.00    +0.053 C 
BRANCH   9  10
ATOM     10  C   LIG    1       24.600 -18.932   3.868  0.00  0.00    -0.046 A 
ATOM     11  C   LIG    1       25.019 -20.057   4.596  0.00  0.00    +0.003 A 
ATOM     12  C   LIG    1       24.109 -20.802   5.348  0.00  0.00    +0.000 A 
ATOM     13  C   LIG    1       22.770 -20.423   5.399  0.00  0.00    +0.000 A 
ATOM     14  C   LIG    1       22.346 -19.289   4.713  0.00  0.00    +0.000 A 
ATOM     15  C   LIG    1       23.257 -18.541   3.964  0.00  0.00    +0.003 A 
ENDBRANCH   9  10
ENDBRANCH   2   9
TORSDOF 6
ENDMDL
MODEL 3
REMARK VINA RESULT:      -4.8      2.384      5.786
REMARK  Name = *****
REMARK                            x       y       z     vdW  Elec       q    Type
REMARK                         _______ _______ _______ _____ _____    ______ ____
ROOT
ATOM      1  C   LIG    1       27.721 -17.506   4.221  0.00  0.00    +0.024 C 
ATOM      2  C   LIG    1       26.306 -17.103   3.773  0.00  0.00    +0.055 C 
ENDROOT
BRANCH   2   3
ATOM      3  N   LIG    1       26.287 -15.845   2.983  0.00  0.00    -0.312 NA
ATOM      4  H   LIG    1       25.333 -15.488   2.959  0.00  0.00    +0.122 HD
BRANCH   3   5
ATOM      5  C   LIG    1       27.201 -14.795   3.468  0.00  0.00    +0.096 C 
BRANCH   5   6
ATOM      6  C   LIG    1       26.520 -13.796   4.417  0.00  0.00    +0.133 C 
BRANCH   6   7
ATOM      7  C   LIG    1       25.043 -13.857   4.275  0.00  0.00    +0.064 C 
ATOM      8  N   LIG    1       23.895 -13.922   4.149  0.00  0.00    -0.197 NA
ENDBRANCH   6   7
ENDBRANCH   5   6
ENDBRANCH   3   5
ENDBRANCH   2   3
BRANCH   2   9
ATOM      9  C   LIG    1       25.609 -18.307   3.083  0.00  0.00    +0.053 C 
BRANCH   9  10
ATOM     10  C   LIG    1       24.603 -19.086   3.902  0.00  0.00    -0.046 A 
ATOM     11  C   LIG    1       23.268 -18.653   3.942  0.00  0.00    +0.003 A 
ATOM     12  C   LIG    1       22.313 -19.347   4.689  0.00  0.00    +0.000 A 
ATOM     13  C   LIG    1       22.676 -20.493   5.393  0.00  0.00    +0.000 A 
ATOM     14  C   LIG    1       23.987 -20.955   5.333  0.00  0.00    +0.000 A 
ATOM     15  C   LIG    1       24.941 -20.264   4.583  0.00  0.00    +0.003 A 
ENDBRANCH   9  10
ENDBRANCH   2   9
TORSDOF 6
ENDMDL
MODEL 4
REMARK VINA RESULT:      -4.7      1.209      1.780
REMARK  Name = *****
REMARK                            x       y       z     vdW  Elec       q    Type
REMARK                         _______ _______ _______ _____ _____    ______ ____
ROOT
ATOM      1  C   LIG    1       23.774 -19.002   3.635  0.00  0.00    +0.024 C 
ATOM      2  C   LIG    1       25.235 -18.717   4.019  0.00  0.00    +0.055 C 
ENDROOT
BRANCH   2   3
ATOM      3  N   LIG    1       26.042 -19.955   4.181  0.00  0.00    -0.312 NA
ATOM      4  H   LIG    1       26.828 -19.920   3.532  0.00  0.00    +0.122 HD
BRANCH   3   5
ATOM      5  C   LIG    1       26.534 -20.200   5.548  0.00  0.00    +0.096 C 
BRANCH   5   6
ATOM      6  C   LIG    1       25.834 -21.381   6.238  0.00  0.00    +0.133 C 
BRANCH   6   7
ATOM      7  C   LIG    1       24.483 -20.989   6.713  0.00  0.00    +0.064 C 
ATOM      8  N   LIG    1       23.422 -20.687   7.062  0.00  0.00    -0.197 NA
ENDBRANCH   6   7
ENDBRANCH   5   6
ENDBRANCH   3   5
ENDBRANCH   2   3
BRANCH   2   9
ATOM      9  C   LIG    1       25.843 -17.677   3.042  0.00  0.00    +0.053 C 
BRANCH   9  10
ATOM     10  C   LIG    1       25.925 -16.243   3.519  0.00  0.00    -0.046 A 
ATOM     11  C   LIG    1       27.185 -15.642   3.676  0.00  0.00    +0.003 A 
ATOM     12  C   LIG    1       27.297 -14.322   4.117  0.00  0.00    +0.000 A 
ATOM     13  C   LIG    1       26.153 -13.578   4.392  0.00  0.00    +0.000 A 
ATOM     14  C   LIG    1       24.897 -14.148   4.207  0.00  0.00    +0.000 A 
ATOM     15  C   LIG    1       24.784 -15.466   3.761  0.00  0.00    +0.003 A 
ENDBRANCH   9  10
ENDBRANCH   2   9
TORSDOF 6
ENDMDL
MODEL 5
REMARK VINA RESULT:      -4.7      1.993      3.526
REMARK  Name = *****
REMARK                            x       y       z     vdW  Elec       q    Type
REMARK                         _______ _______ _______ _____ _____    ______ ____
ROOT
ATOM      1  C   LIG    1       27.498 -15.352   4.022  0.00  0.00    +0.024 C 
ATOM      2  C   LIG    1       26.392 -16.099   3.259  0.00  0.00    +0.055 C 
ENDROOT
BRANCH   2   3
ATOM      3  N   LIG    1       26.552 -17.576   3.311  0.00  0.00    -0.312 NA
ATOM      4  H   LIG    1       27.116 -17.815   4.126  0.00  0.00    +0.122 HD
BRANCH   3   5
ATOM      5  C   LIG    1       25.289 -18.335   3.339  0.00  0.00    +0.096 C 
BRANCH   5   6
ATOM      6  C   LIG    1       25.412 -19.681   4.071  0.00  0.00    +0.133 C 
BRANCH   6   7
ATOM      7  C   LIG    1       24.080 -20.157   4.527  0.00  0.00    +0.064 C 
ATOM      8  N   LIG    1       23.036 -20.527   4.860  0.00  0.00    -0.197 NA
ENDBRANCH   6   7
ENDBRANCH   5   6
ENDBRANCH   3   5
ENDBRANCH   2   3
BRANCH   2   9
ATOM      9  C   LIG    1       24.999 -15.587   3.715  0.00  0.00    +0.053 C 
BRANCH   9  10
ATOM     10  C   LIG    1       24.673 -14.135   3.444  0.00  0.00    -0.046 A 
ATOM     11  C   LIG    1       24.857 -13.619   2.151  0.00  0.00    +0.003 A 
ATOM     12  C   LIG    1       24.569 -12.283   1.866  0.00  0.00    +0.000 A 
ATOM     13  C   LIG    1       24.077 -11.447   2.865  0.00  0.00    +0.000 A 
ATOM     14  C   LIG    1       23.856 -11.952   4.142  0.00  0.00    +0.000 A 
ATOM     15  C   LIG    1       24.139 -13.289   4.426  0.00  0.00    +0.003 A 
ENDBRANCH   9  10
ENDBRANCH   2   9
TORSDOF 6
ENDMDL
MODEL 6
REMARK VINA RESULT:      -4.6      2.415      5.788
REMARK  Name = *****
REMARK                            x       y       z     vdW  Elec       q    Type
REMARK                         _______ _______ _______ _____ _____    ______ ____
ROOT
ATOM      1  C   LIG    1       23.908 -17.741   4.051  0.00  0.00    +0.024 C 
ATOM      2  C   LIG    1       25.102 -18.216   3.206  0.00  0.00    +0.055 C 
ENDROOT
BRANCH   2   3
ATOM      3  N   LIG    1       26.279 -17.315   3.312  0.00  0.00    -0.312 NA
ATOM      4  H   LIG    1       26.926 -17.533   2.555  0.00  0.00    +0.122 HD
BRANCH   3   5
ATOM      5  C   LIG    1       25.961 -15.876   3.299  0.00  0.00    +0.096 C 
BRANCH   5   6
ATOM      6  C   LIG    1       27.203 -14.984   3.453  0.00  0.00    +0.133 C 
BRANCH   6   7
ATOM      7  C   LIG    1       27.049 -14.062   4.607  0.00  0.00    +0.064 C 
ATOM      8  N   LIG    1       26.908 -13.340   5.500  0.00  0.00    -0.197 NA
ENDBRANCH   6   7
ENDBRANCH   5   6
ENDBRANCH   3   5
ENDBRANCH   2   3
BRANCH   2   9
ATOM      9  C   LIG    1       25.403 -19.707   3.513  0.00  0.00    +0.053 C 
BRANCH   9  10
ATOM     10  C   LIG    1       24.769 -20.301   4.752  0.00  0.00    -0.046 A 
ATOM     11  C   LIG    1       23.426 -20.707   4.709  0.00  0.00    +0.003 A 
ATOM     12  C   LIG    1       22.808 -21.256   5.834  0.00  0.00    +0.000 A 
ATOM     13  C   LIG    1       23.528 -21.424   7.014  0.00  0.00    +0.000 A 
ATOM     14  C   LIG    1       24.871 -21.059   7.062  0.00  0.00    +0.000 A 
ATOM     15  C   LIG    1       25.490 -20.514   5.936  0.00  0.00    +0.003 A 
ENDBRANCH   9  10
ENDBRANCH   2   9
TORSDOF 6
ENDMDL
MODEL 7
REMARK VINA RESULT:      -4.4      2.199      5.560
REMARK  Name = *****
REMARK                            x       y       z     vdW  Elec       q    Type
REMARK                         _______ _______ _______ _____ _____    ______ ____
ROOT
ATOM      1  C   LIG    1       29.398 -20.011   6.949  0.00  0.00    +0.024 C 
ATOM      2  C   LIG    1       28.056 -19.670   6.280  0.00  0.00    +0.055 C 
ENDROOT
BRANCH   2   3
ATOM      3  N   LIG    1       28.217 -19.124   4.908  0.00  0.00    -0.312 NA
ATOM      4  H   LIG    1       27.419 -19.417   4.344  0.00  0.00    +0.122 HD
BRANCH   3   5
ATOM      5  C   LIG    1       28.366 -17.659   4.838  0.00  0.00    +0.096 C 
BRANCH   5   6
ATOM      6  C   LIG    1       27.319 -16.990   3.932  0.00  0.00    +0.133 C 
BRANCH   6   7
ATOM      7  C   LIG    1       27.481 -15.513   3.943  0.00  0.00    +0.064 C 
ATOM      8  N   LIG    1       27.606 -14.364   3.974  0.00  0.00    -0.197 NA
ENDBRANCH   6   7
ENDBRANCH   5   6
ENDBRANCH   3   5
ENDBRANCH   2   3
BRANCH   2   9
ATOM      9  C   LIG    1       27.095 -20.885   6.380  0.00  0.00    +0.053 C 
BRANCH   9  10
ATOM     10  C   LIG    1       25.632 -20.636   6.081  0.00  0.00    -0.046 A 
ATOM     11  C   LIG    1       25.252 -20.248   4.786  0.00  0.00    +0.003 A 
ATOM     12  C   LIG    1       23.912 -20.009   4.475  0.00  0.00    +0.000 A 
ATOM     13  C   LIG    1       22.931 -20.170   5.450  0.00  0.00    +0.000 A 
ATOM     14  C   LIG    1       23.287 -20.588   6.728  0.00  0.00    +0.000 A 
ATOM     15  C   LIG    1       24.627 -20.833   7.037  0.00  0.00    +0.003 A 
ENDBRANCH   9  10
ENDBRANCH   2   9
TORSDOF 6
ENDMDL
MODEL 8
REMARK VINA RESULT:      -4.1      2.110      5.483
REMARK  Name = *****
REMARK                            x       y       z     vdW  Elec       q    Type
REMARK                         _______ _______ _______ _____ _____    ______ ____
ROOT
ATOM      1  C   LIG    1       22.280 -18.593   4.534  0.00  0.00    +0.024 C 
ATOM      2  C   LIG    1       23.447 -18.421   3.548  0.00  0.00    +0.055 C 
ENDROOT
BRANCH   2   3
ATOM      3  N   LIG    1       24.282 -17.228   3.845  0.00  0.00    -0.312 NA
ATOM      4  H   LIG    1       24.327 -17.104   4.856  0.00  0.00    +0.122 HD
BRANCH   3   5
ATOM      5  C   LIG    1       25.646 -17.272   3.287  0.00  0.00    +0.096 C 
BRANCH   5   6
ATOM      6  C   LIG    1       26.378 -15.925   3.381  0.00  0.00    +0.133 C 
BRANCH   6   7
ATOM      7  C   LIG    1       25.425 -14.826   3.681  0.00  0.00    +0.064 C 
ATOM      8  N   LIG    1       24.688 -13.971   3.936  0.00  0.00    -0.197 NA
ENDBRANCH   6   7
ENDBRANCH   5   6
ENDBRANCH   3   5
ENDBRANCH   2   3
BRANCH   2   9
ATOM      9  C   LIG    1       24.241 -19.750   3.435  0.00  0.00    +0.053 C 
BRANCH   9  10
ATOM     10  C   LIG    1       24.834 -20.312   4.709  0.00  0.00    -0.046 A 
ATOM     11  C   LIG    1       26.198 -20.110   4.979  0.00  0.00    +0.003 A 
ATOM     12  C   LIG    1       26.779 -20.617   6.143  0.00  0.00    +0.000 A 
ATOM     13  C   LIG    1       26.003 -21.319   7.062  0.00  0.00    +0.000 A 
ATOM     14  C   LIG    1       24.643 -21.497   6.825  0.00  0.00    +0.000 A 
ATOM     15  C   LIG    1       24.060 -20.986   5.664  0.00  0.00    +0.003 A 
ENDBRANCH   9  10
ENDBRANCH   2   9
TORSDOF 6
ENDMDL
MODEL 9
REMARK VINA RESULT:      -4.1      2.499      3.550
REMARK  Name = *****
REMARK                            x       y       z     vdW  Elec       q    Type
REMARK                         _______ _______ _______ _____ _____    ______ ____
ROOT
ATOM      1  C   LIG    1       22.028 -15.466   5.719  0.00  0.00    +0.024 C 
ATOM      2  C   LIG    1       23.242 -15.789   4.831  0.00  0.00    +0.055 C 
ENDROOT
BRANCH   2   3
ATOM      3  N   LIG    1       23.051 -17.016   4.015  0.00  0.00    -0.312 NA
ATOM      4  H   LIG    1       23.949 -17.490   3.922  0.00  0.00    +0.122 HD
BRANCH   3   5
ATOM      5  C   LIG    1       22.042 -17.956   4.537  0.00  0.00    +0.096 C 
BRANCH   5   6
ATOM      6  C   LIG    1       22.632 -19.325   4.910  0.00  0.00    +0.133 C 
BRANCH   6   7
ATOM      7  C   LIG    1       23.832 -19.624   4.088  0.00  0.00    +0.064 C 
ATOM      8  N   LIG    1       24.778 -19.866   3.466  0.00  0.00    -0.197 NA
ENDBRANCH   6   7
ENDBRANCH   5   6
ENDBRANCH   3   5
ENDBRANCH   2   3
BRANCH   2   9
ATOM      9  C   LIG    1       23.648 -14.531   4.017  0.00  0.00    +0.053 C 
BRANCH   9  10
ATOM     10  C   LIG    1       25.123 -14.202   3.941  0.00  0.00    -0.046 A 
ATOM     11  C   LIG    1       25.769 -13.682   5.075  0.00  0.00    +0.003 A 
ATOM     12  C   LIG    1       27.128 -13.364   5.040  0.00  0.00    +0.000 A 
ATOM     13  C   LIG    1       27.865 -13.577   3.878  0.00  0.00    +0.000 A 
ATOM     14  C   LIG    1       27.247 -14.125   2.758  0.00  0.00    +0.000 A 
ATOM     15  C   LIG    1       25.889 -14.448   2.794  0.00  0.00    +0.003 A 
ENDBRANCH   9  10
ENDBRANCH   2   9
TORSDOF 6
ENDMDL
