MODEL 1
REMARK VINA RESULT:       4.9      0.000      0.000
REMARK  Name = *****
REMARK                            x       y       z     vdW  Elec       q    Type
REMARK                         _______ _______ _______ _____ _____    ______ ____
ROOT
ATOM      1  C   LIG    1       27.948 -18.302   4.814  0.00  0.00    +0.250 C 
ATOM      2  N   LIG    1       26.997 -17.437   4.301  0.00  0.00    -0.298 N 
ATOM      3  H   LIG    1       26.021 -17.607   4.505  0.00  0.00    +0.150 HD
ATOM      4  O   LIG    1       29.139 -18.011   4.779  0.00  0.00    -0.270 OA
ENDROOT
BRANCH   2   5
ATOM      5  CA  LIG    1       27.376 -16.167   3.602  0.00  0.00    +0.190 C 
ATOM      6  C   LIG    1       26.291 -15.464   2.734  0.00  0.00    +0.165 C 
ATOM      7  S   LIG    1       24.546 -15.971   3.018  0.00  0.00    -0.127 S 
ATOM      8  C   LIG    1       24.159 -14.570   4.161  0.00  0.00    +0.042 C 
ATOM      9  CA  LIG    1       25.289 -13.530   3.978  0.00  0.00    +0.201 C 
ATOM     10  C   LIG    1       24.151 -15.121   5.597  0.00  0.00    +0.025 C 
ATOM     11  C   LIG    1       22.746 -14.064   3.842  0.00  0.00    +0.025 C 
ATOM     12  N   LIG    1       26.487 -14.252   3.552  0.00  0.00    -0.271 N 
ATOM     13  C   LIG    1       27.276 -14.885   4.466  0.00  0.00    +0.240 C 
ATOM     14  O   LIG    1       27.538 -14.581   5.616  0.00  0.00    -0.273 OA
BRANCH   9  15
ATOM     15  C   LIG    1       24.957 -12.432   2.959  0.00  0.00    +0.327 C 
ATOM     16  O   LIG    1       25.385 -12.387   1.814  0.00  0.00    -0.249 OA
BRANCH  15  17
ATOM     17  OXT LIG    1       24.088 -11.501   3.427  0.00  0.00    -0.479 OA
ATOM     18  HXT LIG    1       23.828 -10.799   2.801  0.00  0.00    +0.295 HD
ENDBRANCH  15  17
ENDBRANCH   9  15
ENDBRANCH   2   5
BRANCH   1  21
ATOM     19  C   LIG    1       29.384 -20.291   7.062  0.00  0.00    +0.090 C 
ATOM     20  C   LIG    1       28.105 -20.340   6.328  0.00  0.00    +0.147 A 
ATOM     21  C   LIG    1       27.437 -19.524   5.426  0.00  0.00    +0.106 A 
ATOM     22  C   LIG    1       26.134 -20.144   5.336  0.00  0.00    +0.129 A 
ATOM     23  N   LIG    1       26.117 -21.285   6.047  0.00  0.00    -0.077 NA
ATOM     24  O   LIG    1       27.339 -21.409   6.636  0.00  0.00    -0.359 OA
BRANCH  22  25
ATOM     25  C   LIG    1       24.881 -19.755   4.672  0.00  0.00    +0.041 A 
ATOM     26  C   LIG    1       24.824 -19.620   3.264  0.00  0.00    +0.052 A 
ATOM     27 CL   LIG    1       26.232 -19.671   2.247  0.00  0.00    -0.083 Cl
ATOM     28  C   LIG    1       23.602 -19.452   2.595  0.00  0.00    +0.021 A 
ATOM     29  C   LIG    1       22.415 -19.362   3.313  0.00  0.00    +0.003 A 
ATOM     30  C   LIG    1       22.449 -19.469   4.701  0.00  0.00    +0.021 A 
ATOM     31  C   LIG    1       23.661 -19.702   5.372  0.00  0.00    +0.052 A 
ATOM     32 CL   LIG    1       23.523 -20.065   7.062  0.00  0.00    -0.083 Cl
ENDBRANCH  22  25
ENDBRANCH   1  21
TORSDOF 5
ENDMDL
MODEL 2
REMARK VINA RESULT:       5.7      2.558      4.870
REMARK  Name = *****
REMARK                            x       y       z     vdW  Elec       q    Type
REMARK                         _______ _______ _______ _____ _____    ______ ____
ROOT
ATOM      1  C   LIG    1       22.366 -16.734   4.911  0.00  0.00    +0.250 C 
ATOM      2  N   LIG    1       23.040 -15.879   4.056  0.00  0.00    -0.298 N 
ATOM      3  H   LIG    1       23.176 -16.158   3.093  0.00  0.00    +0.150 HD
ATOM      4  O   LIG    1       21.989 -16.344   6.011  0.00  0.00    -0.270 OA
ENDROOT
BRANCH   2   5
ATOM      5  CA  LIG    1       23.424 -14.489   4.463  0.00  0.00    +0.190 C 
ATOM      6  C   LIG    1       24.792 -14.292   5.179  0.00  0.00    +0.165 C 
ATOM      7  S   LIG    1       26.006 -15.667   5.037  0.00  0.00    -0.127 S 
ATOM      8  C   LIG    1       26.936 -14.911   3.628  0.00  0.00    +0.042 C 
ATOM      9  CA  LIG    1       26.509 -13.425   3.568  0.00  0.00    +0.201 C 
ATOM     10  C   LIG    1       26.527 -15.650   2.343  0.00  0.00    +0.025 C 
ATOM     11  C   LIG    1       28.434 -15.152   3.855  0.00  0.00    +0.025 C 
ATOM     12  N   LIG    1       25.158 -13.334   4.118  0.00  0.00    -0.271 N 
ATOM     13  C   LIG    1       24.073 -13.633   3.347  0.00  0.00    +0.240 C 
ATOM     14  O   LIG    1       23.892 -13.463   2.155  0.00  0.00    -0.273 OA
BRANCH   9  15
ATOM     15  C   LIG    1       27.445 -12.484   4.335  0.00  0.00    +0.327 C 
ATOM     16  O   LIG    1       28.437 -11.946   3.863  0.00  0.00    -0.249 OA
BRANCH  15  17
ATOM     17  OXT LIG    1       27.053 -12.250   5.613  0.00  0.00    -0.479 OA
ATOM     18  HXT LIG    1       26.515 -12.947   6.034  0.00  0.00    +0.295 HD
ENDBRANCH  15  17
ENDBRANCH   9  15
ENDBRANCH   2   5
BRANCH   1  21
ATOM     19  C   LIG    1       19.866 -17.795   2.989  0.00  0.00    +0.090 C 
ATOM     20  C   LIG    1       21.011 -18.466   3.635  0.00  0.00    +0.147 A 
ATOM     21  C   LIG    1       22.101 -18.073   4.399  0.00  0.00    +0.106 A 
ATOM     22  C   LIG    1       22.898 -19.278   4.464  0.00  0.00    +0.129 A 
ATOM     23  N   LIG    1       22.243 -20.296   3.878  0.00  0.00    -0.077 NA
ATOM     24  O   LIG    1       21.075 -19.793   3.391  0.00  0.00    -0.359 OA
BRANCH  22  25
ATOM     25  C   LIG    1       24.238 -19.567   4.996  0.00  0.00    +0.041 A 
ATOM     26  C   LIG    1       24.401 -20.426   6.109  0.00  0.00    +0.052 A 
ATOM     27 CL   LIG    1       23.070 -21.011   7.060  0.00  0.00    -0.083 Cl
ATOM     28  C   LIG    1       25.670 -20.877   6.504  0.00  0.00    +0.021 A 
ATOM     29  C   LIG    1       26.809 -20.442   5.836  0.00  0.00    +0.003 A 
ATOM     30  C   LIG    1       26.674 -19.579   4.752  0.00  0.00    +0.021 A 
ATOM     31  C   LIG    1       25.404 -19.176   4.310  0.00  0.00    +0.052 A 
ATOM     32 CL   LIG    1       25.372 -18.311   2.808  0.00  0.00    -0.083 Cl
ENDBRANCH  22  25
ENDBRANCH   1  21
TORSDOF 5
ENDMDL
MODEL 3
REMARK VINA RESULT:       5.8      2.228      2.927
REMARK  Name = *****
REMARK                            x       y       z     vdW  Elec       q    Type
REMARK                         _______ _______ _______ _____ _____    ______ ____
ROOT
ATOM      1  C   LIG    1       25.221 -19.110   4.053  0.00  0.00    +0.250 C 
ATOM      2  N   LIG    1       25.467 -17.752   4.170  0.00  0.00    -0.298 N 
ATOM      3  H   LIG    1       25.238 -17.287   5.038  0.00  0.00    +0.150 HD
ATOM      4  O   LIG    1       25.682 -19.748   3.114  0.00  0.00    -0.270 OA
ENDROOT
BRANCH   2   5
ATOM      5  CA  LIG    1       26.215 -16.989   3.119  0.00  0.00    +0.190 C 
ATOM      6  C   LIG    1       25.655 -15.600   2.692  0.00  0.00    +0.165 C 
ATOM      7  S   LIG    1       24.432 -14.818   3.821  0.00  0.00    -0.127 S 
ATOM      8  C   LIG    1       25.674 -13.754   4.685  0.00  0.00    +0.042 C 
ATOM      9  CA  LIG    1       26.943 -13.755   3.801  0.00  0.00    +0.201 C 
ATOM     10  C   LIG    1       25.963 -14.386   6.058  0.00  0.00    +0.025 C 
ATOM     11  C   LIG    1       25.045 -12.375   4.924  0.00  0.00    +0.025 C 
ATOM     12  N   LIG    1       26.959 -15.013   3.056  0.00  0.00    -0.271 N 
ATOM     13  C   LIG    1       27.415 -16.159   3.639  0.00  0.00    +0.240 C 
ATOM     14  O   LIG    1       28.302 -16.318   4.458  0.00  0.00    -0.273 OA
BRANCH   9  15
ATOM     15  C   LIG    1       27.015 -12.575   2.825  0.00  0.00    +0.327 C 
ATOM     16  O   LIG    1       26.103 -12.213   2.095  0.00  0.00    -0.249 OA
BRANCH  15  17
ATOM     17  OXT LIG    1       28.199 -11.911   2.861  0.00  0.00    -0.479 OA
ATOM     18  HXT LIG    1       28.584 -11.667   1.998  0.00  0.00    +0.295 HD
ENDBRANCH  15  17
ENDBRANCH   9  15
ENDBRANCH   2   5
BRANCH   1  21
ATOM     19  C   LIG    1       26.268 -20.630   6.821  0.00  0.00    +0.090 C 
ATOM     20  C   LIG    1       24.935 -20.375   6.240  0.00  0.00    +0.147 A 
ATOM     21  C   LIG    1       24.439 -19.712   5.128  0.00  0.00    +0.106 A 
ATOM     22  C   LIG    1       23.013 -19.709   5.365  0.00  0.00    +0.129 A 
ATOM     23  N   LIG    1       22.729 -20.421   6.470  0.00  0.00    -0.077 NA
ATOM     24  O   LIG    1       23.914 -20.844   6.990  0.00  0.00    -0.359 OA
BRANCH  22  25
ATOM     25  C   LIG    1       21.881 -19.075   4.673  0.00  0.00    +0.041 A 
ATOM     26  C   LIG    1       21.880 -17.681   4.423  0.00  0.00    +0.052 A 
ATOM     27 CL   LIG    1       23.060 -16.595   5.092  0.00  0.00    -0.083 Cl
ATOM     28  C   LIG    1       20.917 -17.090   3.590  0.00  0.00    +0.021 A 
ATOM     29  C   LIG    1       19.905 -17.859   3.030  0.00  0.00    +0.003 A 
ATOM     30  C   LIG    1       19.873 -19.228   3.281  0.00  0.00    +0.021 A 
ATOM     31  C   LIG    1       20.870 -19.838   4.059  0.00  0.00    +0.052 A 
ATOM     32 CL   LIG    1       20.850 -21.572   4.080  0.00  0.00    -0.083 Cl
ENDBRANCH  22  25
ENDBRANCH   1  21
TORSDOF 5
ENDMDL
MODEL 4
REMARK VINA RESULT:       6.0      0.695      1.900
REMARK  Name = *****
REMARK                            x       y       z     vdW  Elec       q    Type
REMARK                         _______ _______ _______ _____ _____    ______ ____
ROOT
ATOM      1  C   LIG    1       27.612 -18.196   4.360  0.00  0.00    +0.250 C 
ATOM      2  N   LIG    1       26.591 -17.344   3.973  0.00  0.00    -0.298 N 
ATOM      3  H   LIG    1       25.698 -17.406   4.443  0.00  0.00    +0.150 HD
ATOM      4  O   LIG    1       28.761 -18.006   3.976  0.00  0.00    -0.270 OA
ENDROOT
BRANCH   2   5
ATOM      5  CA  LIG    1       26.818 -16.225   3.002  0.00  0.00    +0.190 C 
ATOM      6  C   LIG    1       25.596 -15.345   2.609  0.00  0.00    +0.165 C 
ATOM      7  S   LIG    1       24.121 -15.440   3.703  0.00  0.00    -0.127 S 
ATOM      8  C   LIG    1       24.554 -13.933   4.683  0.00  0.00    +0.042 C 
ATOM      9  CA  LIG    1       25.633 -13.178   3.872  0.00  0.00    +0.201 C 
ATOM     10  C   LIG    1       25.114 -14.397   6.039  0.00  0.00    +0.025 C 
ATOM     11  C   LIG    1       23.265 -13.144   4.950  0.00  0.00    +0.025 C 
ATOM     12  N   LIG    1       26.354 -14.166   3.072  0.00  0.00    -0.271 N 
ATOM     13  C   LIG    1       27.353 -14.912   3.626  0.00  0.00    +0.240 C 
ATOM     14  O   LIG    1       28.164 -14.616   4.484  0.00  0.00    -0.273 OA
BRANCH   9  15
ATOM     15  C   LIG    1       25.064 -12.086   2.957  0.00  0.00    +0.327 C 
ATOM     16  O   LIG    1       24.046 -11.447   3.179  0.00  0.00    -0.249 OA
BRANCH  15  17
ATOM     17  OXT LIG    1       25.827 -11.845   1.861  0.00  0.00    -0.479 OA
ATOM     18  HXT LIG    1       26.784 -11.733   2.016  0.00  0.00    +0.295 HD
ENDBRANCH  15  17
ENDBRANCH   9  15
ENDBRANCH   2   5
BRANCH   1  21
ATOM     19  C   LIG    1       29.234 -19.362   7.021  0.00  0.00    +0.090 C 
ATOM     20  C   LIG    1       27.980 -19.744   6.344  0.00  0.00    +0.147 A 
ATOM     21  C   LIG    1       27.236 -19.270   5.273  0.00  0.00    +0.106 A 
ATOM     22  C   LIG    1       26.014 -20.037   5.367  0.00  0.00    +0.129 A 
ATOM     23  N   LIG    1       26.118 -20.952   6.346  0.00  0.00    -0.077 NA
ATOM     24  O   LIG    1       27.337 -20.779   6.928  0.00  0.00    -0.359 OA
BRANCH  22  25
ATOM     25  C   LIG    1       24.734 -19.978   4.644  0.00  0.00    +0.041 A 
ATOM     26  C   LIG    1       23.508 -19.971   5.352  0.00  0.00    +0.052 A 
ATOM     27 CL   LIG    1       23.396 -20.259   7.062  0.00  0.00    -0.083 Cl
ATOM     28  C   LIG    1       22.291 -19.710   4.702  0.00  0.00    +0.021 A 
ATOM     29  C   LIG    1       22.260 -19.501   3.329  0.00  0.00    +0.003 A 
ATOM     30  C   LIG    1       23.451 -19.525   2.609  0.00  0.00    +0.021 A 
ATOM     31  C   LIG    1       24.679 -19.721   3.261  0.00  0.00    +0.052 A 
ATOM     32 CL   LIG    1       26.093 -19.477   2.288  0.00  0.00    -0.083 Cl
ENDBRANCH  22  25
ENDBRANCH   1  21
TORSDOF 5
ENDMDL
MODEL 5
REMARK VINA RESULT:       7.0      2.549      4.612
REMARK  Name = *****
REMARK                            x       y       z     vdW  Elec       q    Type
REMARK                         _______ _______ _______ _____ _____    ______ ____
ROOT
ATOM      1  C   LIG    1       22.462 -16.857   4.929  0.00  0.00    +0.250 C 
ATOM      2  N   LIG    1       22.952 -15.923   4.033  0.00  0.00    -0.298 N 
ATOM      3  H   LIG    1       22.923 -16.132   3.044  0.00  0.00    +0.150 HD
ATOM      4  O   LIG    1       22.275 -16.557   6.103  0.00  0.00    -0.270 OA
ENDROOT
BRANCH   2   5
ATOM      5  CA  LIG    1       23.364 -14.549   4.467  0.00  0.00    +0.190 C 
ATOM      6  C   LIG    1       24.754 -14.388   5.149  0.00  0.00    +0.165 C 
ATOM      7  S   LIG    1       25.946 -15.772   4.937  0.00  0.00    -0.127 S 
ATOM      8  C   LIG    1       26.847 -14.989   3.523  0.00  0.00    +0.042 C 
ATOM      9  CA  LIG    1       26.437 -13.497   3.515  0.00  0.00    +0.201 C 
ATOM     10  C   LIG    1       26.393 -15.688   2.230  0.00  0.00    +0.025 C 
ATOM     11  C   LIG    1       28.347 -15.254   3.701  0.00  0.00    +0.025 C 
ATOM     12  N   LIG    1       25.102 -13.405   4.105  0.00  0.00    -0.271 N 
ATOM     13  C   LIG    1       23.993 -13.670   3.357  0.00  0.00    +0.240 C 
ATOM     14  O   LIG    1       23.781 -13.465   2.176  0.00  0.00    -0.273 OA
BRANCH   9  15
ATOM     15  C   LIG    1       27.405 -12.588   4.281  0.00  0.00    +0.327 C 
ATOM     16  O   LIG    1       27.369 -12.382   5.486  0.00  0.00    -0.249 OA
BRANCH  15  17
ATOM     17  OXT LIG    1       28.369 -12.039   3.498  0.00  0.00    -0.479 OA
ATOM     18  HXT LIG    1       29.255 -11.954   3.898  0.00  0.00    +0.295 HD
ENDBRANCH  15  17
ENDBRANCH   9  15
ENDBRANCH   2   5
BRANCH   1  21
ATOM     19  C   LIG    1       19.889 -17.777   3.031  0.00  0.00    +0.090 C 
ATOM     20  C   LIG    1       21.028 -18.503   3.625  0.00  0.00    +0.147 A 
ATOM     21  C   LIG    1       22.146 -18.169   4.375  0.00  0.00    +0.106 A 
ATOM     22  C   LIG    1       22.910 -19.397   4.377  0.00  0.00    +0.129 A 
ATOM     23  N   LIG    1       22.212 -20.374   3.772  0.00  0.00    -0.077 NA
ATOM     24  O   LIG    1       21.048 -19.821   3.331  0.00  0.00    -0.359 OA
BRANCH  22  25
ATOM     25  C   LIG    1       24.253 -19.743   4.866  0.00  0.00    +0.041 A 
ATOM     26  C   LIG    1       25.406 -19.197   4.252  0.00  0.00    +0.052 A 
ATOM     27 CL   LIG    1       25.352 -18.289   2.772  0.00  0.00    -0.083 Cl
ATOM     28  C   LIG    1       26.678 -19.347   4.824  0.00  0.00    +0.021 A 
ATOM     29  C   LIG    1       26.842 -20.086   5.989  0.00  0.00    +0.003 A 
ATOM     30  C   LIG    1       25.726 -20.651   6.599  0.00  0.00    +0.021 A 
ATOM     31  C   LIG    1       24.441 -20.451   6.069  0.00  0.00    +0.052 A 
ATOM     32 CL   LIG    1       23.127 -20.993   7.062  0.00  0.00    -0.083 Cl
ENDBRANCH  22  25
ENDBRANCH   1  21
TORSDOF 5
ENDMDL
