MODEL 1
REMARK VINA RESULT:      -5.1      0.000      0.000
REMARK  Name = *****
REMARK                            x       y       z     vdW  Elec       q    Type
REMARK                         _______ _______ _______ _____ _____    ______ ____
ROOT
ATOM      1  C   LIG    1       26.393 -18.068   3.710  0.00  0.00    +0.122 A 
ATOM      2  C   LIG    1       25.521 -19.131   3.872  0.00  0.00    +0.070 A 
ATOM      3  C   LIG    1       25.829 -20.209   4.734  0.00  0.00    +0.057 A 
ATOM      4  C   LIG    1       27.005 -20.071   5.547  0.00  0.00    +0.092 A 
ATOM      5  C   LIG    1       27.912 -19.064   5.336  0.00  0.00    +0.006 A 
ATOM      6  C   LIG    1       29.143 -19.067   6.041  0.00  0.00    +0.012 A 
ATOM      7  C   LIG    1       29.475 -20.136   6.880  0.00  0.00    +0.020 A 
ATOM      8  C   LIG    1       28.521 -21.071   7.051  0.00  0.00    +0.111 A 
ATOM      9  N   LIG    1       27.278 -20.975   6.524  0.00  0.00    -0.253 NA
ATOM     10  C   LIG    1       27.598 -18.029   4.420  0.00  0.00    +0.055 A 
ENDROOT
BRANCH   1  12
ATOM     11  C   LIG    1       26.558 -15.728   3.457  0.00  0.00    +0.277 C 
ATOM     12  O   LIG    1       26.161 -16.979   2.908  0.00  0.00    -0.495 OA
ENDBRANCH   1  12
BRANCH   3  13
ATOM     13  N   LIG    1       24.974 -21.325   4.652  0.00  0.00    -0.340 N 
ATOM     14  H   LIG    1       25.462 -22.206   4.529  0.00  0.00    +0.146 HD
BRANCH  13  15
ATOM     15  C   LIG    1       23.658 -21.491   5.313  0.00  0.00    +0.067 C 
ATOM     16  C   LIG    1       23.780 -21.240   6.819  0.00  0.00    +0.027 C 
BRANCH  15  17
ATOM     17  C   LIG    1       22.500 -20.610   4.827  0.00  0.00    +0.023 C 
BRANCH  17  18
ATOM     18  C   LIG    1       22.376 -19.189   5.421  0.00  0.00    +0.017 C 
BRANCH  18  19
ATOM     19  C   LIG    1       21.985 -18.148   4.390  0.00  0.00    +0.078 C 
BRANCH  19  20
ATOM     20  N   LIG    1       20.912 -18.595   3.519  0.00  0.00    -0.330 NA
ATOM     21  H   LIG    1       20.324 -17.790   3.311  0.00  0.00    +0.118 HD
ATOM     22  H   LIG    1       20.341 -19.285   3.993  0.00  0.00    +0.118 HD
ENDBRANCH  19  20
ENDBRANCH  18  19
ENDBRANCH  17  18
ENDBRANCH  15  17
ENDBRANCH  13  15
ENDBRANCH   3  13
TORSDOF 7
ENDMDL
MODEL 2
REMARK VINA RESULT:      -5.1      2.665      4.598
REMARK  Name = *****
REMARK                            x       y       z     vdW  Elec       q    Type
REMARK                         _______ _______ _______ _____ _____    ______ ____
ROOT
ATOM      1  C   LIG    1       24.914 -20.080   4.375  0.00  0.00    +0.122 A 
ATOM      2  C   LIG    1       25.252 -18.948   3.653  0.00  0.00    +0.070 A 
ATOM      3  C   LIG    1       26.468 -18.264   3.886  0.00  0.00    +0.057 A 
ATOM      4  C   LIG    1       27.397 -18.886   4.787  0.00  0.00    +0.092 A 
ATOM      5  C   LIG    1       27.038 -19.959   5.563  0.00  0.00    +0.006 A 
ATOM      6  C   LIG    1       27.926 -20.430   6.564  0.00  0.00    +0.012 A 
ATOM      7  C   LIG    1       29.122 -19.753   6.825  0.00  0.00    +0.020 A 
ATOM      8  C   LIG    1       29.410 -18.726   6.004  0.00  0.00    +0.111 A 
ATOM      9  N   LIG    1       28.653 -18.390   4.933  0.00  0.00    -0.253 NA
ATOM     10  C   LIG    1       25.786 -20.586   5.343  0.00  0.00    +0.055 A 
ENDROOT
BRANCH   1  12
ATOM     11  C   LIG    1       22.837 -20.747   5.275  0.00  0.00    +0.277 C 
ATOM     12  O   LIG    1       23.764 -20.808   4.197  0.00  0.00    -0.495 OA
ENDBRANCH   1  12
BRANCH   3  13
ATOM     13  N   LIG    1       26.602 -17.015   3.249  0.00  0.00    -0.340 N 
ATOM     14  H   LIG    1       26.420 -17.043   2.252  0.00  0.00    +0.146 HD
BRANCH  13  15
ATOM     15  C   LIG    1       26.339 -15.681   3.838  0.00  0.00    +0.067 C 
ATOM     16  C   LIG    1       27.505 -14.729   3.549  0.00  0.00    +0.027 C 
BRANCH  15  17
ATOM     17  C   LIG    1       25.068 -14.944   3.396  0.00  0.00    +0.023 C 
BRANCH  17  18
ATOM     18  C   LIG    1       24.488 -13.872   4.345  0.00  0.00    +0.017 C 
BRANCH  18  19
ATOM     19  C   LIG    1       24.079 -12.602   3.625  0.00  0.00    +0.078 C 
BRANCH  19  20
ATOM     20  N   LIG    1       23.984 -12.777   2.187  0.00  0.00    -0.330 NA
ATOM     21  H   LIG    1       24.610 -12.103   1.749  0.00  0.00    +0.118 HD
ATOM     22  H   LIG    1       23.042 -12.580   1.871  0.00  0.00    +0.118 HD
ENDBRANCH  19  20
ENDBRANCH  18  19
ENDBRANCH  17  18
ENDBRANCH  15  17
ENDBRANCH  13  15
ENDBRANCH   3  13
TORSDOF 7
ENDMDL
MODEL 3
REMARK VINA RESULT:      -5.1      2.735      5.365
REMARK  Name = *****
REMARK                            x       y       z     vdW  Elec       q    Type
REMARK                         _______ _______ _______ _____ _____    ______ ____
ROOT
ATOM      1  C   LIG    1       27.271 -20.464   6.367  0.00  0.00    +0.122 A 
ATOM      2  C   LIG    1       27.138 -19.684   5.231  0.00  0.00    +0.070 A 
ATOM      3  C   LIG    1       25.885 -19.520   4.596  0.00  0.00    +0.057 A 
ATOM      4  C   LIG    1       24.742 -20.066   5.270  0.00  0.00    +0.092 A 
ATOM      5  C   LIG    1       24.874 -20.905   6.348  0.00  0.00    +0.006 A 
ATOM      6  C   LIG    1       23.731 -21.561   6.873  0.00  0.00    +0.012 A 
ATOM      7  C   LIG    1       22.488 -21.429   6.244  0.00  0.00    +0.020 A 
ATOM      8  C   LIG    1       22.439 -20.571   5.208  0.00  0.00    +0.111 A 
ATOM      9  N   LIG    1       23.486 -19.805   4.821  0.00  0.00    -0.253 NA
ATOM     10  C   LIG    1       26.155 -21.093   6.926  0.00  0.00    +0.055 A 
ENDROOT
BRANCH   1  12
ATOM     11  C   LIG    1       29.459 -19.691   6.800  0.00  0.00    +0.277 C 
ATOM     12  O   LIG    1       28.446 -20.658   7.051  0.00  0.00    -0.495 OA
ENDBRANCH   1  12
BRANCH   3  13
ATOM     13  N   LIG    1       25.913 -18.888   3.337  0.00  0.00    -0.340 N 
ATOM     14  H   LIG    1       25.571 -19.469   2.580  0.00  0.00    +0.146 HD
BRANCH  13  15
ATOM     15  C   LIG    1       25.749 -17.441   3.062  0.00  0.00    +0.067 C 
ATOM     16  C   LIG    1       24.512 -16.896   3.783  0.00  0.00    +0.027 C 
BRANCH  15  17
ATOM     17  C   LIG    1       26.906 -16.507   3.440  0.00  0.00    +0.023 C 
BRANCH  17  18
ATOM     18  C   LIG    1       26.645 -14.985   3.412  0.00  0.00    +0.017 C 
BRANCH  18  19
ATOM     19  C   LIG    1       27.669 -14.194   4.203  0.00  0.00    +0.078 C 
BRANCH  19  20
ATOM     20  N   LIG    1       28.423 -13.268   3.376  0.00  0.00    -0.330 NA
ATOM     21  H   LIG    1       27.756 -12.695   2.862  0.00  0.00    +0.118 HD
ATOM     22  H   LIG    1       28.983 -13.776   2.702  0.00  0.00    +0.118 HD
ENDBRANCH  19  20
ENDBRANCH  18  19
ENDBRANCH  17  18
ENDBRANCH  15  17
ENDBRANCH  13  15
ENDBRANCH   3  13
TORSDOF 7
ENDMDL
MODEL 4
REMARK VINA RESULT:      -4.9      3.020      5.383
REMARK  Name = *****
REMARK                            x       y       z     vdW  Elec       q    Type
REMARK                         _______ _______ _______ _____ _____    ______ ____
ROOT
ATOM      1  C   LIG    1       25.176 -19.363   3.890  0.00  0.00    +0.122 A 
ATOM      2  C   LIG    1       25.755 -18.182   3.460  0.00  0.00    +0.070 A 
ATOM      3  C   LIG    1       26.988 -17.734   3.988  0.00  0.00    +0.057 A 
ATOM      4  C   LIG    1       27.680 -18.633   4.867  0.00  0.00    +0.092 A 
ATOM      5  C   LIG    1       27.079 -19.764   5.359  0.00  0.00    +0.006 A 
ATOM      6  C   LIG    1       27.733 -20.528   6.360  0.00  0.00    +0.012 A 
ATOM      7  C   LIG    1       28.941 -20.088   6.911  0.00  0.00    +0.020 A 
ATOM      8  C   LIG    1       29.475 -18.983   6.356  0.00  0.00    +0.111 A 
ATOM      9  N   LIG    1       28.945 -18.357   5.279  0.00  0.00    -0.253 NA
ATOM     10  C   LIG    1       25.815 -20.155   4.850  0.00  0.00    +0.055 A 
ENDROOT
BRANCH   1  12
ATOM     11  C   LIG    1       23.200 -20.557   4.381  0.00  0.00    +0.277 C 
ATOM     12  O   LIG    1       23.993 -19.875   3.417  0.00  0.00    -0.495 OA
ENDBRANCH   1  12
BRANCH   3  13
ATOM     13  N   LIG    1       27.367 -16.424   3.635  0.00  0.00    -0.340 N 
ATOM     14  H   LIG    1       28.325 -16.348   3.312  0.00  0.00    +0.146 HD
BRANCH  13  15
ATOM     15  C   LIG    1       26.495 -15.362   3.080  0.00  0.00    +0.067 C 
ATOM     16  C   LIG    1       25.482 -14.897   4.131  0.00  0.00    +0.027 C 
BRANCH  15  17
ATOM     17  C   LIG    1       27.170 -14.090   2.549  0.00  0.00    +0.023 C 
BRANCH  17  18
ATOM     18  C   LIG    1       27.403 -12.929   3.540  0.00  0.00    +0.017 C 
BRANCH  18  19
ATOM     19  C   LIG    1       28.816 -12.895   4.090  0.00  0.00    +0.078 C 
BRANCH  19  20
ATOM     20  N   LIG    1       28.979 -11.923   5.157  0.00  0.00    -0.330 NA
ATOM     21  H   LIG    1       28.716 -11.010   4.790  0.00  0.00    +0.118 HD
ATOM     22  H   LIG    1       29.951 -11.876   5.442  0.00  0.00    +0.118 HD
ENDBRANCH  19  20
ENDBRANCH  18  19
ENDBRANCH  17  18
ENDBRANCH  15  17
ENDBRANCH  13  15
ENDBRANCH   3  13
TORSDOF 7
ENDMDL
MODEL 5
REMARK VINA RESULT:      -4.5      2.745      4.872
REMARK  Name = *****
REMARK                            x       y       z     vdW  Elec       q    Type
REMARK                         _______ _______ _______ _____ _____    ______ ____
ROOT
ATOM      1  C   LIG    1       23.339 -19.954   4.763  0.00  0.00    +0.122 A 
ATOM      2  C   LIG    1       24.018 -19.198   3.822  0.00  0.00    +0.070 A 
ATOM      3  C   LIG    1       25.418 -19.017   3.897  0.00  0.00    +0.057 A 
ATOM      4  C   LIG    1       26.116 -19.779   4.895  0.00  0.00    +0.092 A 
ATOM      5  C   LIG    1       25.446 -20.463   5.877  0.00  0.00    +0.006 A 
ATOM      6  C   LIG    1       26.172 -21.054   6.943  0.00  0.00    +0.012 A 
ATOM      7  C   LIG    1       27.555 -20.866   7.046  0.00  0.00    +0.020 A 
ATOM      8  C   LIG    1       28.139 -20.203   6.031  0.00  0.00    +0.111 A 
ATOM      9  N   LIG    1       27.474 -19.798   4.922  0.00  0.00    -0.253 NA
ATOM     10  C   LIG    1       24.035 -20.577   5.804  0.00  0.00    +0.055 A 
ENDROOT
BRANCH   1  12
ATOM     11  C   LIG    1       21.611 -21.554   4.912  0.00  0.00    +0.277 C 
ATOM     12  O   LIG    1       21.987 -20.191   4.750  0.00  0.00    -0.495 OA
ENDBRANCH   1  12
BRANCH   3  13
ATOM     13  N   LIG    1       25.962 -18.060   3.018  0.00  0.00    -0.340 N 
ATOM     14  H   LIG    1       26.072 -18.394   2.067  0.00  0.00    +0.146 HD
BRANCH  13  15
ATOM     15  C   LIG    1       25.798 -16.589   3.090  0.00  0.00    +0.067 C 
ATOM     16  C   LIG    1       24.588 -16.227   3.956  0.00  0.00    +0.027 C 
BRANCH  15  17
ATOM     17  C   LIG    1       26.973 -15.766   3.634  0.00  0.00    +0.023 C 
BRANCH  17  18
ATOM     18  C   LIG    1       26.828 -14.228   3.656  0.00  0.00    +0.017 C 
BRANCH  18  19
ATOM     19  C   LIG    1       27.210 -13.616   4.990  0.00  0.00    +0.078 C 
BRANCH  19  20
ATOM     20  N   LIG    1       26.111 -12.903   5.616  0.00  0.00    -0.330 NA
ATOM     21  H   LIG    1       26.260 -11.906   5.465  0.00  0.00    +0.118 HD
ATOM     22  H   LIG    1       26.110 -13.069   6.616  0.00  0.00    +0.118 HD
ENDBRANCH  19  20
ENDBRANCH  18  19
ENDBRANCH  17  18
ENDBRANCH  15  17
ENDBRANCH  13  15
ENDBRANCH   3  13
TORSDOF 7
ENDMDL
MODEL 6
REMARK VINA RESULT:      -4.0      2.722      5.520
REMARK  Name = *****
REMARK                            x       y       z     vdW  Elec       q    Type
REMARK                         _______ _______ _______ _____ _____    ______ ____
ROOT
ATOM      1  C   LIG    1       26.913 -19.857   5.012  0.00  0.00    +0.122 A 
ATOM      2  C   LIG    1       26.856 -18.627   4.378  0.00  0.00    +0.070 A 
ATOM      3  C   LIG    1       25.627 -18.086   3.935  0.00  0.00    +0.057 A 
ATOM      4  C   LIG    1       24.436 -18.794   4.312  0.00  0.00    +0.092 A 
ATOM      5  C   LIG    1       24.488 -20.048   4.866  0.00  0.00    +0.006 A 
ATOM      6  C   LIG    1       23.289 -20.781   5.059  0.00  0.00    +0.012 A 
ATOM      7  C   LIG    1       22.067 -20.273   4.606  0.00  0.00    +0.020 A 
ATOM      8  C   LIG    1       22.099 -19.028   4.095  0.00  0.00    +0.111 A 
ATOM      9  N   LIG    1       23.211 -18.255   4.078  0.00  0.00    -0.253 NA
ATOM     10  C   LIG    1       25.743 -20.585   5.247  0.00  0.00    +0.055 A 
ENDROOT
BRANCH   1  12
ATOM     11  C   LIG    1       28.868 -19.607   6.311  0.00  0.00    +0.277 C 
ATOM     12  O   LIG    1       28.061 -20.441   5.487  0.00  0.00    -0.495 OA
ENDBRANCH   1  12
BRANCH   3  13
ATOM     13  N   LIG    1       25.718 -16.942   3.119  0.00  0.00    -0.340 N 
ATOM     14  H   LIG    1       25.229 -17.030   2.235  0.00  0.00    +0.146 HD
BRANCH  13  15
ATOM     15  C   LIG    1       25.836 -15.534   3.567  0.00  0.00    +0.067 C 
ATOM     16  C   LIG    1       26.679 -14.726   2.575  0.00  0.00    +0.027 C 
BRANCH  15  17
ATOM     17  C   LIG    1       24.539 -14.740   3.769  0.00  0.00    +0.023 C 
BRANCH  17  18
ATOM     18  C   LIG    1       24.643 -13.341   4.417  0.00  0.00    +0.017 C 
BRANCH  18  19
ATOM     19  C   LIG    1       23.977 -12.256   3.593  0.00  0.00    +0.078 C 
BRANCH  19  20
ATOM     20  N   LIG    1       23.850 -12.613   2.191  0.00  0.00    -0.330 NA
ATOM     21  H   LIG    1       22.888 -12.909   2.031  0.00  0.00    +0.118 HD
ATOM     22  H   LIG    1       24.457 -13.395   1.973  0.00  0.00    +0.118 HD
ENDBRANCH  19  20
ENDBRANCH  18  19
ENDBRANCH  17  18
ENDBRANCH  15  17
ENDBRANCH  13  15
ENDBRANCH   3  13
TORSDOF 7
ENDMDL
MODEL 7
REMARK VINA RESULT:      -3.6      2.667      4.931
REMARK  Name = *****
REMARK                            x       y       z     vdW  Elec       q    Type
REMARK                         _______ _______ _______ _____ _____    ______ ____
ROOT
ATOM      1  C   LIG    1       22.606 -19.279   4.470  0.00  0.00    +0.122 A 
ATOM      2  C   LIG    1       23.550 -18.654   3.674  0.00  0.00    +0.070 A 
ATOM      3  C   LIG    1       24.934 -18.833   3.898  0.00  0.00    +0.057 A 
ATOM      4  C   LIG    1       25.308 -19.810   4.882  0.00  0.00    +0.092 A 
ATOM      5  C   LIG    1       24.385 -20.371   5.727  0.00  0.00    +0.006 A 
ATOM      6  C   LIG    1       24.820 -21.195   6.797  0.00  0.00    +0.012 A 
ATOM      7  C   LIG    1       26.186 -21.364   7.049  0.00  0.00    +0.020 A 
ATOM      8  C   LIG    1       27.025 -20.800   6.161  0.00  0.00    +0.111 A 
ATOM      9  N   LIG    1       26.610 -20.169   5.037  0.00  0.00    -0.253 NA
ATOM     10  C   LIG    1       23.006 -20.124   5.510  0.00  0.00    +0.055 A 
ENDROOT
BRANCH   1  12
ATOM     11  C   LIG    1       20.832 -18.372   3.204  0.00  0.00    +0.277 C 
ATOM     12  O   LIG    1       21.247 -19.171   4.307  0.00  0.00    -0.495 OA
ENDBRANCH   1  12
BRANCH   3  13
ATOM     13  N   LIG    1       25.790 -17.984   3.169  0.00  0.00    -0.340 N 
ATOM     14  H   LIG    1       26.050 -18.349   2.260  0.00  0.00    +0.146 HD
BRANCH  13  15
ATOM     15  C   LIG    1       25.834 -16.504   3.222  0.00  0.00    +0.067 C 
ATOM     16  C   LIG    1       24.704 -15.966   4.105  0.00  0.00    +0.027 C 
BRANCH  15  17
ATOM     17  C   LIG    1       27.123 -15.847   3.733  0.00  0.00    +0.023 C 
BRANCH  17  18
ATOM     18  C   LIG    1       27.341 -14.349   3.425  0.00  0.00    +0.017 C 
BRANCH  18  19
ATOM     19  C   LIG    1       26.399 -13.820   2.361  0.00  0.00    +0.078 C 
BRANCH  19  20
ATOM     20  N   LIG    1       25.574 -12.724   2.838  0.00  0.00    -0.330 NA
ATOM     21  H   LIG    1       24.685 -13.115   3.148  0.00  0.00    +0.118 HD
ATOM     22  H   LIG    1       25.382 -12.076   2.083  0.00  0.00    +0.118 HD
ENDBRANCH  19  20
ENDBRANCH  18  19
ENDBRANCH  17  18
ENDBRANCH  15  17
ENDBRANCH  13  15
ENDBRANCH   3  13
TORSDOF 7
ENDMDL
MODEL 8
REMARK VINA RESULT:      -3.5      1.654      4.446
REMARK  Name = *****
REMARK                            x       y       z     vdW  Elec       q    Type
REMARK                         _______ _______ _______ _____ _____    ______ ____
ROOT
ATOM      1  C   LIG    1       26.304 -15.991   3.340  0.00  0.00    +0.122 A 
ATOM      2  C   LIG    1       26.543 -17.354   3.302  0.00  0.00    +0.070 A 
ATOM      3  C   LIG    1       25.536 -18.285   3.647  0.00  0.00    +0.057 A 
ATOM      4  C   LIG    1       24.221 -17.758   3.883  0.00  0.00    +0.092 A 
ATOM      5  C   LIG    1       23.996 -16.410   4.001  0.00  0.00    +0.006 A 
ATOM      6  C   LIG    1       22.720 -15.944   4.409  0.00  0.00    +0.012 A 
ATOM      7  C   LIG    1       21.720 -16.850   4.777  0.00  0.00    +0.020 A 
ATOM      8  C   LIG    1       22.013 -18.153   4.610  0.00  0.00    +0.111 A 
ATOM      9  N   LIG    1       23.163 -18.594   4.048  0.00  0.00    -0.253 NA
ATOM     10  C   LIG    1       25.045 -15.504   3.704  0.00  0.00    +0.055 A 
ENDROOT
BRANCH   1  12
ATOM     11  C   LIG    1       26.668 -13.756   2.675  0.00  0.00    +0.277 C 
ATOM     12  O   LIG    1       27.221 -15.025   3.004  0.00  0.00    -0.495 OA
ENDBRANCH   1  12
BRANCH   3  13
ATOM     13  N   LIG    1       25.956 -19.623   3.779  0.00  0.00    -0.340 N 
ATOM     14  H   LIG    1       26.444 -19.981   2.965  0.00  0.00    +0.146 HD
BRANCH  13  15
ATOM     15  C   LIG    1       26.351 -20.315   5.029  0.00  0.00    +0.067 C 
ATOM     16  C   LIG    1       27.671 -19.747   5.560  0.00  0.00    +0.027 C 
BRANCH  15  17
ATOM     17  C   LIG    1       25.368 -20.278   6.205  0.00  0.00    +0.023 C 
BRANCH  17  18
ATOM     18  C   LIG    1       24.591 -21.571   6.537  0.00  0.00    +0.017 C 
BRANCH  18  19
ATOM     19  C   LIG    1       23.094 -21.432   6.335  0.00  0.00    +0.078 C 
BRANCH  19  20
ATOM     20  N   LIG    1       22.702 -21.556   4.942  0.00  0.00    -0.330 NA
ATOM     21  H   LIG    1       23.257 -20.895   4.401  0.00  0.00    +0.118 HD
ATOM     22  H   LIG    1       21.726 -21.309   4.830  0.00  0.00    +0.118 HD
ENDBRANCH  19  20
ENDBRANCH  18  19
ENDBRANCH  17  18
ENDBRANCH  15  17
ENDBRANCH  13  15
ENDBRANCH   3  13
TORSDOF 7
ENDMDL
MODEL 9
REMARK VINA RESULT:      -3.3      1.948      5.249
REMARK  Name = *****
REMARK                            x       y       z     vdW  Elec       q    Type
REMARK                         _______ _______ _______ _____ _____    ______ ____
ROOT
ATOM      1  C   LIG    1       26.542 -15.481   3.319  0.00  0.00    +0.122 A 
ATOM      2  C   LIG    1       26.784 -16.844   3.304  0.00  0.00    +0.070 A 
ATOM      3  C   LIG    1       25.782 -17.773   3.669  0.00  0.00    +0.057 A 
ATOM      4  C   LIG    1       24.466 -17.246   3.901  0.00  0.00    +0.092 A 
ATOM      5  C   LIG    1       24.238 -15.897   3.997  0.00  0.00    +0.006 A 
ATOM      6  C   LIG    1       22.961 -15.427   4.401  0.00  0.00    +0.012 A 
ATOM      7  C   LIG    1       21.965 -16.330   4.789  0.00  0.00    +0.020 A 
ATOM      8  C   LIG    1       22.262 -17.635   4.644  0.00  0.00    +0.111 A 
ATOM      9  N   LIG    1       23.411 -18.082   4.085  0.00  0.00    -0.253 NA
ATOM     10  C   LIG    1       25.282 -14.992   3.679  0.00  0.00    +0.055 A 
ENDROOT
BRANCH   1  12
ATOM     11  C   LIG    1       27.884 -13.672   4.023  0.00  0.00    +0.277 C 
ATOM     12  O   LIG    1       27.453 -14.519   2.963  0.00  0.00    -0.495 OA
ENDBRANCH   1  12
BRANCH   3  13
ATOM     13  N   LIG    1       26.207 -19.107   3.823  0.00  0.00    -0.340 N 
ATOM     14  H   LIG    1       27.012 -19.347   3.256  0.00  0.00    +0.146 HD
BRANCH  13  15
ATOM     15  C   LIG    1       26.100 -19.942   5.042  0.00  0.00    +0.067 C 
ATOM     16  C   LIG    1       25.159 -21.126   4.799  0.00  0.00    +0.027 C 
BRANCH  15  17
ATOM     17  C   LIG    1       27.394 -20.537   5.614  0.00  0.00    +0.023 C 
BRANCH  17  18
ATOM     18  C   LIG    1       28.146 -19.727   6.693  0.00  0.00    +0.017 C 
BRANCH  18  19
ATOM     19  C   LIG    1       29.475 -19.183   6.206  0.00  0.00    +0.078 C 
BRANCH  19  20
ATOM     20  N   LIG    1       29.326 -18.208   5.139  0.00  0.00    -0.330 NA
ATOM     21  H   LIG    1       29.528 -18.678   4.257  0.00  0.00    +0.118 HD
ATOM     22  H   LIG    1       29.997 -17.458   5.253  0.00  0.00    +0.118 HD
ENDBRANCH  19  20
ENDBRANCH  18  19
ENDBRANCH  17  18
ENDBRANCH  15  17
ENDBRANCH  13  15
ENDBRANCH   3  13
TORSDOF 7
ENDMDL
