MODEL 1
REMARK VINA RESULT:      -7.6      0.000      0.000
REMARK  Name = *****
REMARK                            x       y       z     vdW  Elec       q    Type
REMARK                         _______ _______ _______ _____ _____    ______ ____
ROOT
ATOM      1  N   LIG    1       25.333 -21.221   6.946  0.00  0.00    -0.294 N 
ENDROOT
BRANCH   1   2
ATOM      2  C   LIG    1       24.620 -20.582   5.929  0.00  0.00    +0.218 A 
ATOM      3  N   LIG    1       23.317 -20.337   6.135  0.00  0.00    -0.223 NA
ATOM      4  C   LIG    1       22.640 -19.671   5.177  0.00  0.00    +0.116 A 
ATOM      5  C   LIG    1       23.211 -19.253   4.006  0.00  0.00    +0.039 A 
ATOM      6  C   LIG    1       24.533 -19.569   3.862  0.00  0.00    +0.116 A 
ATOM      7  N   LIG    1       25.255 -20.221   4.804  0.00  0.00    -0.223 NA
ENDBRANCH   1   2
BRANCH   1   8
ATOM      8  C   LIG    1       24.635 -22.287   7.654  0.00  0.00    +0.143 C 
BRANCH   8  12
ATOM      9  C   LIG    1       24.979 -26.217   5.862  0.00  0.00    +0.120 A 
ATOM     10  C   LIG    1       23.733 -25.616   6.025  0.00  0.00    +0.046 A 
ATOM     11  C   LIG    1       23.637 -24.332   6.558  0.00  0.00    +0.009 A 
ATOM     12  C   LIG    1       24.782 -23.639   6.978  0.00  0.00    -0.030 A 
ATOM     13  C   LIG    1       26.031 -24.262   6.844  0.00  0.00    +0.009 A 
ATOM     14  C   LIG    1       26.126 -25.544   6.289  0.00  0.00    +0.046 A 
BRANCH   9  16
ATOM     15  C   LIG    1       24.540 -28.518   6.085  0.00  0.00    +0.277 C 
ATOM     16  O   LIG    1       25.168 -27.472   5.347  0.00  0.00    -0.495 OA
ENDBRANCH   9  16
ENDBRANCH   8  12
ENDBRANCH   1   8
BRANCH   1  17
ATOM     17  C   LIG    1       26.396 -20.430   7.566  0.00  0.00    +0.123 C 
BRANCH  17  18
ATOM     18  C   LIG    1       27.691 -21.240   7.846  0.00  0.00    +0.103 C 
BRANCH  18  19
ATOM     19  N   LIG    1       28.889 -20.890   7.054  0.00  0.00    -0.307 NA
ATOM     20  C   LIG    1       30.028 -20.573   7.913  0.00  0.00    +0.104 C 
ATOM     21  C   LIG    1       28.635 -19.808   6.105  0.00  0.00    +0.104 C 
ENDBRANCH  18  19
ENDBRANCH  17  18
ENDBRANCH   1  17
TORSDOF 7
ENDMDL
MODEL 2
REMARK VINA RESULT:      -7.4      2.657      6.186
REMARK  Name = *****
REMARK                            x       y       z     vdW  Elec       q    Type
REMARK                         _______ _______ _______ _____ _____    ______ ____
ROOT
ATOM      1  N   LIG    1       24.713 -22.453   6.622  0.00  0.00    -0.294 N 
ENDROOT
BRANCH   1   2
ATOM      2  C   LIG    1       25.080 -23.741   6.226  0.00  0.00    +0.218 A 
ATOM      3  N   LIG    1       25.665 -24.535   7.137  0.00  0.00    -0.223 NA
ATOM      4  C   LIG    1       25.970 -25.797   6.771  0.00  0.00    +0.116 A 
ATOM      5  C   LIG    1       25.731 -26.296   5.520  0.00  0.00    +0.039 A 
ATOM      6  C   LIG    1       25.163 -25.414   4.645  0.00  0.00    +0.116 A 
ATOM      7  N   LIG    1       24.824 -24.145   4.973  0.00  0.00    -0.223 NA
ENDBRANCH   1   2
BRANCH   1   8
ATOM      8  C   LIG    1       25.465 -21.877   7.730  0.00  0.00    +0.143 C 
BRANCH   8  12
ATOM      9  C   LIG    1       29.250 -20.077   6.630  0.00  0.00    +0.120 A 
ATOM     10  C   LIG    1       29.163 -20.943   7.717  0.00  0.00    +0.046 A 
ATOM     11  C   LIG    1       27.951 -21.555   8.033  0.00  0.00    +0.009 A 
ATOM     12  C   LIG    1       26.792 -21.280   7.294  0.00  0.00    -0.030 A 
ATOM     13  C   LIG    1       26.876 -20.380   6.222  0.00  0.00    +0.009 A 
ATOM     14  C   LIG    1       28.099 -19.783   5.895  0.00  0.00    +0.046 A 
BRANCH   9  16
ATOM     15  C   LIG    1       31.316 -19.176   7.305  0.00  0.00    +0.277 C 
ATOM     16  O   LIG    1       30.396 -19.433   6.247  0.00  0.00    -0.495 OA
ENDBRANCH   9  16
ENDBRANCH   8  12
ENDBRANCH   1   8
BRANCH   1  17
ATOM     17  C   LIG    1       23.331 -22.072   6.328  0.00  0.00    +0.123 C 
BRANCH  17  18
ATOM     18  C   LIG    1       23.148 -20.551   6.071  0.00  0.00    +0.103 C 
BRANCH  18  19
ATOM     19  N   LIG    1       22.857 -20.132   4.682  0.00  0.00    -0.307 NA
ATOM     20  C   LIG    1       24.024 -20.289   3.817  0.00  0.00    +0.104 C 
ATOM     21  C   LIG    1       22.330 -18.771   4.608  0.00  0.00    +0.104 C 
ENDBRANCH  18  19
ENDBRANCH  17  18
ENDBRANCH   1  17
TORSDOF 7
ENDMDL
MODEL 3
REMARK VINA RESULT:      -7.4      1.137      4.255
REMARK  Name = *****
REMARK                            x       y       z     vdW  Elec       q    Type
REMARK                         _______ _______ _______ _____ _____    ______ ____
ROOT
ATOM      1  N   LIG    1       25.612 -20.722   6.385  0.00  0.00    -0.294 N 
ENDROOT
BRANCH   1   2
ATOM      2  C   LIG    1       26.925 -20.296   6.599  0.00  0.00    +0.218 A 
ATOM      3  N   LIG    1       27.614 -19.836   5.543  0.00  0.00    -0.223 NA
ATOM      4  C   LIG    1       28.863 -19.373   5.758  0.00  0.00    +0.116 A 
ATOM      5  C   LIG    1       29.462 -19.369   6.988  0.00  0.00    +0.039 A 
ATOM      6  C   LIG    1       28.704 -19.883   8.002  0.00  0.00    +0.116 A 
ATOM      7  N   LIG    1       27.441 -20.342   7.836  0.00  0.00    -0.223 NA
ENDBRANCH   1   2
BRANCH   1   8
ATOM      8  C   LIG    1       24.996 -21.486   7.462  0.00  0.00    +0.143 C 
BRANCH   8  12
ATOM      9  C   LIG    1       24.591 -25.651   6.334  0.00  0.00    +0.120 A 
ATOM     10  C   LIG    1       25.843 -25.107   6.612  0.00  0.00    +0.046 A 
ATOM     11  C   LIG    1       25.957 -23.780   7.021  0.00  0.00    +0.009 A 
ATOM     12  C   LIG    1       24.827 -22.956   7.120  0.00  0.00    -0.030 A 
ATOM     13  C   LIG    1       23.572 -23.497   6.805  0.00  0.00    +0.009 A 
ATOM     14  C   LIG    1       23.458 -24.837   6.414  0.00  0.00    +0.046 A 
BRANCH   9  16
ATOM     15  C   LIG    1       25.102 -27.922   6.673  0.00  0.00    +0.277 C 
ATOM     16  O   LIG    1       24.384 -26.942   5.928  0.00  0.00    -0.495 OA
ENDBRANCH   9  16
ENDBRANCH   8  12
ENDBRANCH   1   8
BRANCH   1  17
ATOM     17  C   LIG    1       25.219 -20.879   4.984  0.00  0.00    +0.123 C 
BRANCH  17  18
ATOM     18  C   LIG    1       24.317 -19.728   4.459  0.00  0.00    +0.103 C 
BRANCH  18  19
ATOM     19  N   LIG    1       22.973 -19.596   5.062  0.00  0.00    -0.307 NA
ATOM     20  C   LIG    1       22.214 -20.841   4.960  0.00  0.00    +0.104 C 
ATOM     21  C   LIG    1       22.218 -18.477   4.503  0.00  0.00    +0.104 C 
ENDBRANCH  18  19
ENDBRANCH  17  18
ENDBRANCH   1  17
TORSDOF 7
ENDMDL
MODEL 4
REMARK VINA RESULT:      -7.2      2.809      6.045
REMARK  Name = *****
REMARK                            x       y       z     vdW  Elec       q    Type
REMARK                         _______ _______ _______ _____ _____    ______ ____
ROOT
ATOM      1  N   LIG    1       26.179 -20.900   6.452  0.00  0.00    -0.294 N 
ENDROOT
BRANCH   1   2
ATOM      2  C   LIG    1       25.049 -20.442   5.770  0.00  0.00    +0.218 A 
ATOM      3  N   LIG    1       23.870 -20.487   6.409  0.00  0.00    -0.223 NA
ATOM      4  C   LIG    1       22.788 -19.994   5.773  0.00  0.00    +0.116 A 
ATOM      5  C   LIG    1       22.832 -19.472   4.510  0.00  0.00    +0.039 A 
ATOM      6  C   LIG    1       24.063 -19.492   3.918  0.00  0.00    +0.116 A 
ATOM      7  N   LIG    1       25.179 -19.961   4.525  0.00  0.00    -0.223 NA
ENDBRANCH   1   2
BRANCH   1   8
ATOM      8  C   LIG    1       27.455 -20.754   5.763  0.00  0.00    +0.143 C 
BRANCH   8  12
ATOM      9  C   LIG    1       30.794 -19.637   8.289  0.00  0.00    +0.120 A 
ATOM     10  C   LIG    1       30.259 -18.732   7.375  0.00  0.00    +0.046 A 
ATOM     11  C   LIG    1       29.154 -19.085   6.601  0.00  0.00    +0.009 A 
ATOM     12  C   LIG    1       28.588 -20.364   6.696  0.00  0.00    -0.030 A 
ATOM     13  C   LIG    1       29.151 -21.284   7.592  0.00  0.00    +0.009 A 
ATOM     14  C   LIG    1       30.248 -20.920   8.382  0.00  0.00    +0.046 A 
BRANCH   9  16
ATOM     15  C   LIG    1       31.951 -18.037   9.569  0.00  0.00    +0.277 C 
ATOM     16  O   LIG    1       31.875 -19.377   9.088  0.00  0.00    -0.495 OA
ENDBRANCH   9  16
ENDBRANCH   8  12
ENDBRANCH   1   8
BRANCH   1  17
ATOM     17  C   LIG    1       25.937 -21.949   7.443  0.00  0.00    +0.123 C 
BRANCH  17  18
ATOM     18  C   LIG    1       26.034 -23.387   6.862  0.00  0.00    +0.103 C 
BRANCH  18  19
ATOM     19  N   LIG    1       24.943 -23.828   5.967  0.00  0.00    -0.307 NA
ATOM     20  C   LIG    1       23.688 -24.005   6.697  0.00  0.00    +0.104 C 
ATOM     21  C   LIG    1       25.286 -25.035   5.219  0.00  0.00    +0.104 C 
ENDBRANCH  18  19
ENDBRANCH  17  18
ENDBRANCH   1  17
TORSDOF 7
ENDMDL
MODEL 5
REMARK VINA RESULT:      -7.2      2.527      5.465
REMARK  Name = *****
REMARK                            x       y       z     vdW  Elec       q    Type
REMARK                         _______ _______ _______ _____ _____    ______ ____
ROOT
ATOM      1  N   LIG    1       24.797 -21.983   6.438  0.00  0.00    -0.294 N 
ENDROOT
BRANCH   1   2
ATOM      2  C   LIG    1       24.166 -21.061   5.599  0.00  0.00    +0.218 A 
ATOM      3  N   LIG    1       23.123 -20.375   6.092  0.00  0.00    -0.223 NA
ATOM      4  C   LIG    1       22.549 -19.445   5.302  0.00  0.00    +0.116 A 
ATOM      5  C   LIG    1       22.963 -19.184   4.025  0.00  0.00    +0.039 A 
ATOM      6  C   LIG    1       24.009 -19.948   3.589  0.00  0.00    +0.116 A 
ATOM      7  N   LIG    1       24.627 -20.879   4.353  0.00  0.00    -0.223 NA
ENDBRANCH   1   2
BRANCH   1   8
ATOM      8  C   LIG    1       25.509 -21.433   7.584  0.00  0.00    +0.143 C 
BRANCH   8  12
ATOM      9  C   LIG    1       29.539 -20.071   6.757  0.00  0.00    +0.120 A 
ATOM     10  C   LIG    1       29.288 -20.958   7.802  0.00  0.00    +0.046 A 
ATOM     11  C   LIG    1       27.995 -21.428   8.029  0.00  0.00    +0.009 A 
ATOM     12  C   LIG    1       26.921 -20.987   7.243  0.00  0.00    -0.030 A 
ATOM     13  C   LIG    1       27.172 -20.067   6.215  0.00  0.00    +0.009 A 
ATOM     14  C   LIG    1       28.475 -19.613   5.977  0.00  0.00    +0.046 A 
BRANCH   9  16
ATOM     15  C   LIG    1       31.488 -19.042   7.582  0.00  0.00    +0.277 C 
ATOM     16  O   LIG    1       30.774 -19.559   6.461  0.00  0.00    -0.495 OA
ENDBRANCH   9  16
ENDBRANCH   8  12
ENDBRANCH   1   8
BRANCH   1  17
ATOM     17  C   LIG    1       25.173 -23.252   5.813  0.00  0.00    +0.123 C 
BRANCH  17  18
ATOM     18  C   LIG    1       25.754 -24.288   6.813  0.00  0.00    +0.103 C 
BRANCH  18  19
ATOM     19  N   LIG    1       25.383 -25.705   6.607  0.00  0.00    -0.307 NA
ATOM     20  C   LIG    1       26.467 -26.459   5.982  0.00  0.00    +0.104 C 
ATOM     21  C   LIG    1       24.140 -25.853   5.851  0.00  0.00    +0.104 C 
ENDBRANCH  18  19
ENDBRANCH  17  18
ENDBRANCH   1  17
TORSDOF 7
ENDMDL
MODEL 6
REMARK VINA RESULT:      -7.1      1.325      4.332
REMARK  Name = *****
REMARK                            x       y       z     vdW  Elec       q    Type
REMARK                         _______ _______ _______ _____ _____    ______ ____
ROOT
ATOM      1  N   LIG    1       26.687 -20.441   6.811  0.00  0.00    -0.294 N 
ENDROOT
BRANCH   1   2
ATOM      2  C   LIG    1       28.049 -20.275   7.073  0.00  0.00    +0.218 A 
ATOM      3  N   LIG    1       28.609 -21.062   8.005  0.00  0.00    -0.223 NA
ATOM      4  C   LIG    1       29.935 -20.941   8.219  0.00  0.00    +0.116 A 
ATOM      5  C   LIG    1       30.726 -20.049   7.551  0.00  0.00    +0.039 A 
ATOM      6  C   LIG    1       30.073 -19.265   6.642  0.00  0.00    +0.116 A 
ATOM      7  N   LIG    1       28.748 -19.363   6.382  0.00  0.00    -0.223 NA
ENDBRANCH   1   2
BRANCH   1   8
ATOM      8  C   LIG    1       25.917 -21.162   7.817  0.00  0.00    +0.143 C 
BRANCH   8  12
ATOM      9  C   LIG    1       24.195 -24.907   6.482  0.00  0.00    +0.120 A 
ATOM     10  C   LIG    1       23.383 -23.811   6.766  0.00  0.00    +0.046 A 
ATOM     11  C   LIG    1       23.950 -22.597   7.148  0.00  0.00    +0.009 A 
ATOM     12  C   LIG    1       25.338 -22.465   7.295  0.00  0.00    -0.030 A 
ATOM     13  C   LIG    1       26.150 -23.580   7.042  0.00  0.00    +0.009 A 
ATOM     14  C   LIG    1       25.578 -24.794   6.639  0.00  0.00    +0.046 A 
BRANCH   9  16
ATOM     15  C   LIG    1       24.723 -27.025   5.602  0.00  0.00    +0.277 C 
ATOM     16  O   LIG    1       23.726 -26.136   6.101  0.00  0.00    -0.495 OA
ENDBRANCH   9  16
ENDBRANCH   8  12
ENDBRANCH   1   8
BRANCH   1  17
ATOM     17  C   LIG    1       26.308 -20.420   5.397  0.00  0.00    +0.123 C 
BRANCH  17  18
ATOM     18  C   LIG    1       24.854 -19.933   5.152  0.00  0.00    +0.103 C 
BRANCH  18  19
ATOM     19  N   LIG    1       24.544 -19.384   3.814  0.00  0.00    -0.307 NA
ATOM     20  C   LIG    1       25.496 -18.345   3.425  0.00  0.00    +0.104 C 
ATOM     21  C   LIG    1       23.170 -18.896   3.715  0.00  0.00    +0.104 C 
ENDBRANCH  18  19
ENDBRANCH  17  18
ENDBRANCH   1  17
TORSDOF 7
ENDMDL
MODEL 7
REMARK VINA RESULT:      -6.9      2.883      5.800
REMARK  Name = *****
REMARK                            x       y       z     vdW  Elec       q    Type
REMARK                         _______ _______ _______ _____ _____    ______ ____
ROOT
ATOM      1  N   LIG    1       24.914 -24.101   6.862  0.00  0.00    -0.294 N 
ENDROOT
BRANCH   1   2
ATOM      2  C   LIG    1       25.090 -25.360   6.281  0.00  0.00    +0.218 A 
ATOM      3  N   LIG    1       26.313 -25.675   5.827  0.00  0.00    -0.223 NA
ATOM      4  C   LIG    1       26.498 -26.910   5.317  0.00  0.00    +0.116 A 
ATOM      5  C   LIG    1       25.501 -27.842   5.224  0.00  0.00    +0.039 A 
ATOM      6  C   LIG    1       24.280 -27.430   5.679  0.00  0.00    +0.116 A 
ATOM      7  N   LIG    1       24.053 -26.207   6.215  0.00  0.00    -0.223 NA
ENDBRANCH   1   2
BRANCH   1   8
ATOM      8  C   LIG    1       23.595 -23.500   6.715  0.00  0.00    +0.143 C 
BRANCH   8  12
ATOM      9  C   LIG    1       23.819 -19.838   4.408  0.00  0.00    +0.120 A 
ATOM     10  C   LIG    1       24.534 -20.969   4.021  0.00  0.00    +0.046 A 
ATOM     11  C   LIG    1       24.418 -22.156   4.742  0.00  0.00    +0.009 A 
ATOM     12  C   LIG    1       23.616 -22.225   5.890  0.00  0.00    -0.030 A 
ATOM     13  C   LIG    1       22.925 -21.075   6.297  0.00  0.00    +0.009 A 
ATOM     14  C   LIG    1       23.028 -19.890   5.559  0.00  0.00    +0.046 A 
BRANCH   9  16
ATOM     15  C   LIG    1       25.181 -18.224   3.371  0.00  0.00    +0.277 C 
ATOM     16  O   LIG    1       23.872 -18.633   3.761  0.00  0.00    -0.495 OA
ENDBRANCH   9  16
ENDBRANCH   8  12
ENDBRANCH   1   8
BRANCH   1  17
ATOM     17  C   LIG    1       26.130 -23.302   7.018  0.00  0.00    +0.123 C 
BRANCH  17  18
ATOM     18  C   LIG    1       26.262 -22.639   8.416  0.00  0.00    +0.103 C 
BRANCH  18  19
ATOM     19  N   LIG    1       26.971 -21.343   8.483  0.00  0.00    -0.307 NA
ATOM     20  C   LIG    1       26.237 -20.290   7.783  0.00  0.00    +0.104 C 
ATOM     21  C   LIG    1       28.346 -21.433   7.995  0.00  0.00    +0.104 C 
ENDBRANCH  18  19
ENDBRANCH  17  18
ENDBRANCH   1  17
TORSDOF 7
ENDMDL
MODEL 8
REMARK VINA RESULT:      -6.8      1.590      4.124
REMARK  Name = *****
REMARK                            x       y       z     vdW  Elec       q    Type
REMARK                         _______ _______ _______ _____ _____    ______ ____
ROOT
ATOM      1  N   LIG    1       24.364 -22.622   6.323  0.00  0.00    -0.294 N 
ENDROOT
BRANCH   1   2
ATOM      2  C   LIG    1       25.318 -21.839   6.979  0.00  0.00    +0.218 A 
ATOM      3  N   LIG    1       26.395 -21.449   6.282  0.00  0.00    -0.223 NA
ATOM      4  C   LIG    1       27.289 -20.648   6.897  0.00  0.00    +0.116 A 
ATOM      5  C   LIG    1       27.159 -20.234   8.194  0.00  0.00    +0.039 A 
ATOM      6  C   LIG    1       26.051 -20.701   8.842  0.00  0.00    +0.116 A 
ATOM      7  N   LIG    1       25.119 -21.492   8.259  0.00  0.00    -0.223 NA
ENDBRANCH   1   2
BRANCH   1   8
ATOM      8  C   LIG    1       24.870 -23.559   5.328  0.00  0.00    +0.143 C 
BRANCH   8  12
ATOM      9  C   LIG    1       25.258 -27.643   6.724  0.00  0.00    +0.120 A 
ATOM     10  C   LIG    1       26.159 -26.663   7.133  0.00  0.00    +0.046 A 
ATOM     11  C   LIG    1       25.997 -25.342   6.717  0.00  0.00    +0.009 A 
ATOM     12  C   LIG    1       24.955 -24.983   5.850  0.00  0.00    -0.030 A 
ATOM     13  C   LIG    1       24.072 -25.980   5.412  0.00  0.00    +0.009 A 
ATOM     14  C   LIG    1       24.225 -27.302   5.848  0.00  0.00    +0.046 A 
BRANCH   9  16
ATOM     15  C   LIG    1       25.565 -29.188   8.473  0.00  0.00    +0.277 C 
ATOM     16  O   LIG    1       25.339 -28.962   7.083  0.00  0.00    -0.495 OA
ENDBRANCH   9  16
ENDBRANCH   8  12
ENDBRANCH   1   8
BRANCH   1  17
ATOM     17  C   LIG    1       23.018 -22.052   6.254  0.00  0.00    +0.123 C 
BRANCH  17  18
ATOM     18  C   LIG    1       23.006 -20.519   5.999  0.00  0.00    +0.103 C 
BRANCH  18  19
ATOM     19  N   LIG    1       22.814 -20.069   4.604  0.00  0.00    -0.307 NA
ATOM     20  C   LIG    1       24.055 -20.149   3.837  0.00  0.00    +0.104 C 
ATOM     21  C   LIG    1       22.236 -18.729   4.523  0.00  0.00    +0.104 C 
ENDBRANCH  18  19
ENDBRANCH  17  18
ENDBRANCH   1  17
TORSDOF 7
ENDMDL
MODEL 9
REMARK VINA RESULT:      -6.2      1.446      2.267
REMARK  Name = *****
REMARK                            x       y       z     vdW  Elec       q    Type
REMARK                         _______ _______ _______ _____ _____    ______ ____
ROOT
ATOM      1  N   LIG    1       25.056 -22.769   5.778  0.00  0.00    -0.294 N 
ENDROOT
BRANCH   1   2
ATOM      2  C   LIG    1       24.373 -21.621   5.369  0.00  0.00    +0.218 A 
ATOM      3  N   LIG    1       23.316 -21.228   6.096  0.00  0.00    -0.223 NA
ATOM      4  C   LIG    1       22.690 -20.089   5.735  0.00  0.00    +0.116 A 
ATOM      5  C   LIG    1       23.067 -19.333   4.659  0.00  0.00    +0.039 A 
ATOM      6  C   LIG    1       24.132 -19.819   3.955  0.00  0.00    +0.116 A 
ATOM      7  N   LIG    1       24.801 -20.947   4.292  0.00  0.00    -0.223 NA
ENDBRANCH   1   2
BRANCH   1   8
ATOM      8  C   LIG    1       24.986 -23.917   4.884  0.00  0.00    +0.143 C 
BRANCH   8  12
ATOM      9  C   LIG    1       25.365 -27.765   6.841  0.00  0.00    +0.120 A 
ATOM     10  C   LIG    1       26.480 -26.955   6.642  0.00  0.00    +0.046 A 
ATOM     11  C   LIG    1       26.341 -25.698   6.055  0.00  0.00    +0.009 A 
ATOM     12  C   LIG    1       25.089 -25.243   5.617  0.00  0.00    -0.030 A 
ATOM     13  C   LIG    1       23.974 -26.077   5.787  0.00  0.00    +0.009 A 
ATOM     14  C   LIG    1       24.115 -27.330   6.395  0.00  0.00    +0.046 A 
BRANCH   9  16
ATOM     15  C   LIG    1       24.460 -29.937   6.883  0.00  0.00    +0.277 C 
ATOM     16  O   LIG    1       25.408 -29.010   7.408  0.00  0.00    -0.495 OA
ENDBRANCH   9  16
ENDBRANCH   8  12
ENDBRANCH   1   8
BRANCH   1  17
ATOM     17  C   LIG    1       25.250 -22.908   7.222  0.00  0.00    +0.123 C 
BRANCH  17  18
ATOM     18  C   LIG    1       26.692 -22.569   7.690  0.00  0.00    +0.103 C 
BRANCH  18  19
ATOM     19  N   LIG    1       26.947 -21.183   8.137  0.00  0.00    -0.307 NA
ATOM     20  C   LIG    1       25.754 -20.579   8.726  0.00  0.00    +0.104 C 
ATOM     21  C   LIG    1       27.485 -20.341   7.069  0.00  0.00    +0.104 C 
ENDBRANCH  18  19
ENDBRANCH  17  18
ENDBRANCH   1  17
TORSDOF 7
ENDMDL
