MODEL 1
REMARK VINA RESULT:      -4.5      0.000      0.000
REMARK  Name = *****
REMARK                            x       y       z     vdW  Elec       q    Type
REMARK                         _______ _______ _______ _____ _____    ______ ____
ROOT
ATOM      1  C   LIG    1       22.825 -29.975  12.660  0.00  0.00    +0.064 A 
ATOM      2  C   LIG    1       23.931 -30.467  13.369  0.00  0.00    +0.049 A 
ATOM      3  I   LIG    1       23.225 -32.437  14.385  0.00  0.00    -0.041 I 
ATOM      4  C   LIG    1       25.222 -30.497  12.766  0.00  0.00    +0.065 A 
ATOM      5  C   LIG    1       25.226 -30.303  11.331  0.00  0.00    +0.040 A 
ATOM      6  I   LIG    1       26.661 -29.014   9.886  0.00  0.00    -0.042 I 
ATOM      7  C   LIG    1       24.042 -30.460  10.606  0.00  0.00    +0.065 A 
ATOM      8  C   LIG    1       22.834 -30.369  11.310  0.00  0.00    +0.049 A 
ATOM      9  I   LIG    1       21.124 -31.417  10.674  0.00  0.00    -0.041 I 
ENDROOT
BRANCH   7  10
ATOM     10  C   LIG    1       24.094 -30.553   9.107  0.00  0.00    +0.246 C 
ATOM     11  N   LIG    1       24.750 -31.674   8.569  0.00  0.00    -0.309 N 
ATOM     12  H   LIG    1       25.178 -32.351   9.174  0.00  0.00    +0.149 HD
ATOM     13  O   LIG    1       23.695 -29.643   8.435  0.00  0.00    -0.270 OA
BRANCH  11  14
ATOM     14  C   LIG    1       24.964 -31.787   7.131  0.00  0.00    +0.132 C 
BRANCH  14  15
ATOM     15  C   LIG    1       23.741 -32.004   6.212  0.00  0.00    +0.174 C 
BRANCH  15  16
ATOM     16  O   LIG    1       23.318 -30.748   5.668  0.00  0.00    -0.394 OA
ATOM     17  H   LIG    1       22.657 -30.924   4.978  0.00  0.00    +0.209 HD
ENDBRANCH  15  16
ENDBRANCH  14  15
ENDBRANCH  11  14
ENDBRANCH   7  10
BRANCH   1  20
ATOM     18  C   LIG    1       20.438 -27.049  13.546  0.00  0.00    +0.110 C 
ATOM     19  C   LIG    1       20.977 -28.439  13.323  0.00  0.00    +0.217 C 
ATOM     20  N   LIG    1       22.345 -28.620  13.021  0.00  0.00    -0.267 N 
ATOM     21  O   LIG    1       20.164 -29.358  13.406  0.00  0.00    -0.276 OA
BRANCH  20  22
ATOM     22  C   LIG    1       23.296 -27.474  12.882  0.00  0.00    +0.147 C 
BRANCH  22  23
ATOM     23  C   LIG    1       24.070 -27.077  14.174  0.00  0.00    +0.158 C 
BRANCH  23  24
ATOM     24  O   LIG    1       23.416 -27.577  15.341  0.00  0.00    -0.388 OA
ATOM     25  H   LIG    1       23.169 -26.819  15.899  0.00  0.00    +0.210 HD
ENDBRANCH  23  24
BRANCH  23  26
ATOM     26  C   LIG    1       24.342 -25.579  14.323  0.00  0.00    +0.188 C 
BRANCH  26  27
ATOM     27  O   LIG    1       25.391 -25.181  13.447  0.00  0.00    -0.392 OA
ATOM     28  H   LIG    1       25.551 -25.922  12.832  0.00  0.00    +0.209 HD
ENDBRANCH  26  27
ENDBRANCH  23  26
ENDBRANCH  22  23
ENDBRANCH  20  22
ENDBRANCH   1  20
BRANCH   4  29
ATOM     29  C   LIG    1       26.362 -30.886  13.703  0.00  0.00    +0.246 C 
ATOM     30  N   LIG    1       27.202 -29.972  14.268  0.00  0.00    -0.309 N 
ATOM     31  H   LIG    1       28.067 -30.356  14.633  0.00  0.00    +0.149 HD
ATOM     32  O   LIG    1       26.567 -32.078  14.054  0.00  0.00    -0.270 OA
BRANCH  30  33
ATOM     33  C   LIG    1       27.126 -28.596  13.951  0.00  0.00    +0.138 C 
BRANCH  33  34
ATOM     34  C   LIG    1       27.783 -27.530  14.795  0.00  0.00    +0.157 C 
BRANCH  34  35
ATOM     35  O   LIG    1       27.978 -26.339  14.010  0.00  0.00    -0.388 OA
ATOM     36  H   LIG    1       28.266 -25.636  14.629  0.00  0.00    +0.210 HD
ENDBRANCH  34  35
BRANCH  34  37
ATOM     37  C   LIG    1       29.128 -27.986  15.301  0.00  0.00    +0.188 C 
BRANCH  37  38
ATOM     38  O   LIG    1       29.867 -28.595  14.240  0.00  0.00    -0.392 OA
ATOM     39  H   LIG    1       29.590 -28.138  13.425  0.00  0.00    +0.209 HD
ENDBRANCH  37  38
ENDBRANCH  34  37
ENDBRANCH  33  34
ENDBRANCH  30  33
ENDBRANCH   4  29
TORSDOF 16
ENDMDL
MODEL 2
REMARK VINA RESULT:      -4.5      1.585      1.831
REMARK  Name = *****
REMARK                            x       y       z     vdW  Elec       q    Type
REMARK                         _______ _______ _______ _____ _____    ______ ____
ROOT
ATOM      1  C   LIG    1       23.415 -31.386  12.560  0.00  0.00    +0.064 A 
ATOM      2  C   LIG    1       24.537 -31.350  13.402  0.00  0.00    +0.049 A 
ATOM      3  I   LIG    1       24.669 -33.450  14.394  0.00  0.00    -0.041 I 
ATOM      4  C   LIG    1       25.767 -30.791  12.947  0.00  0.00    +0.065 A 
ATOM      5  C   LIG    1       25.846 -30.585  11.515  0.00  0.00    +0.040 A 
ATOM      6  I   LIG    1       26.713 -28.762  10.198  0.00  0.00    -0.042 I 
ATOM      7  C   LIG    1       24.945 -31.236  10.668  0.00  0.00    +0.065 A 
ATOM      8  C   LIG    1       23.751 -31.707  11.232  0.00  0.00    +0.049 A 
ATOM      9  I   LIG    1       22.767 -33.391  10.443  0.00  0.00    -0.041 I 
ENDROOT
BRANCH   7  10
ATOM     10  C   LIG    1       25.202 -31.264   9.188  0.00  0.00    +0.246 C 
ATOM     11  N   LIG    1       24.261 -30.607   8.375  0.00  0.00    -0.309 N 
ATOM     12  H   LIG    1       23.453 -30.174   8.781  0.00  0.00    +0.149 HD
ATOM     13  O   LIG    1       26.103 -31.920   8.748  0.00  0.00    -0.270 OA
BRANCH  11  14
ATOM     14  C   LIG    1       24.355 -30.688   6.922  0.00  0.00    +0.132 C 
BRANCH  14  15
ATOM     15  C   LIG    1       24.313 -29.381   6.100  0.00  0.00    +0.174 C 
BRANCH  15  16
ATOM     16  O   LIG    1       23.129 -29.355   5.294  0.00  0.00    -0.394 OA
ATOM     17  H   LIG    1       23.331 -29.783   4.445  0.00  0.00    +0.209 HD
ENDBRANCH  15  16
ENDBRANCH  14  15
ENDBRANCH  11  14
ENDBRANCH   7  10
BRANCH   1  20
ATOM     18  C   LIG    1       19.973 -29.875  13.511  0.00  0.00    +0.110 C 
ATOM     19  C   LIG    1       21.124 -30.838  13.374  0.00  0.00    +0.217 C 
ATOM     20  N   LIG    1       22.347 -30.393  12.823  0.00  0.00    -0.267 N 
ATOM     21  O   LIG    1       20.917 -31.990  13.748  0.00  0.00    -0.276 OA
BRANCH  20  22
ATOM     22  C   LIG    1       22.548 -28.994  12.335  0.00  0.00    +0.147 C 
BRANCH  22  23
ATOM     23  C   LIG    1       23.142 -27.995  13.372  0.00  0.00    +0.158 C 
BRANCH  23  24
ATOM     24  O   LIG    1       22.981 -28.480  14.705  0.00  0.00    -0.388 OA
ATOM     25  H   LIG    1       23.281 -27.786  15.319  0.00  0.00    +0.210 HD
ENDBRANCH  23  24
BRANCH  23  26
ATOM     26  C   LIG    1       22.606 -26.566  13.263  0.00  0.00    +0.188 C 
BRANCH  26  27
ATOM     27  O   LIG    1       21.196 -26.584  13.061  0.00  0.00    -0.392 OA
ATOM     28  H   LIG    1       20.786 -26.824  13.913  0.00  0.00    +0.209 HD
ENDBRANCH  26  27
ENDBRANCH  23  26
ENDBRANCH  22  23
ENDBRANCH  20  22
ENDBRANCH   1  20
BRANCH   4  29
ATOM     29  C   LIG    1       26.847 -30.654  14.015  0.00  0.00    +0.246 C 
ATOM     30  N   LIG    1       27.129 -29.472  14.636  0.00  0.00    -0.309 N 
ATOM     31  H   LIG    1       28.026 -29.442  15.107  0.00  0.00    +0.149 HD
ATOM     32  O   LIG    1       27.514 -31.639  14.427  0.00  0.00    -0.270 OA
BRANCH  30  33
ATOM     33  C   LIG    1       26.491 -28.266  14.265  0.00  0.00    +0.138 C 
BRANCH  33  34
ATOM     34  C   LIG    1       27.129 -26.913  14.469  0.00  0.00    +0.157 C 
BRANCH  34  35
ATOM     35  O   LIG    1       27.554 -26.377  13.202  0.00  0.00    -0.388 OA
ATOM     36  H   LIG    1       27.193 -25.468  13.144  0.00  0.00    +0.210 HD
ENDBRANCH  34  35
BRANCH  34  37
ATOM     37  C   LIG    1       28.337 -27.008  15.368  0.00  0.00    +0.188 C 
BRANCH  37  38
ATOM     38  O   LIG    1       29.395 -27.689  14.691  0.00  0.00    -0.392 OA
ATOM     39  H   LIG    1       30.184 -27.586  15.254  0.00  0.00    +0.209 HD
ENDBRANCH  37  38
ENDBRANCH  34  37
ENDBRANCH  33  34
ENDBRANCH  30  33
ENDBRANCH   4  29
TORSDOF 16
ENDMDL
MODEL 3
REMARK VINA RESULT:      -4.4      2.272      6.084
REMARK  Name = *****
REMARK                            x       y       z     vdW  Elec       q    Type
REMARK                         _______ _______ _______ _____ _____    ______ ____
ROOT
ATOM      1  C   LIG    1       24.859 -29.709  12.921  0.00  0.00    +0.064 A 
ATOM      2  C   LIG    1       23.738 -28.942  13.272  0.00  0.00    +0.049 A 
ATOM      3  I   LIG    1       24.503 -26.761  13.539  0.00  0.00    -0.041 I 
ATOM      4  C   LIG    1       22.507 -29.096  12.570  0.00  0.00    +0.065 A 
ATOM      5  C   LIG    1       22.607 -29.824  11.322  0.00  0.00    +0.040 A 
ATOM      6  I   LIG    1       21.205 -31.513  10.327  0.00  0.00    -0.042 I 
ATOM      7  C   LIG    1       23.856 -30.001  10.720  0.00  0.00    +0.065 A 
ATOM      8  C   LIG    1       24.992 -29.861  11.529  0.00  0.00    +0.049 A 
ATOM      9  I   LIG    1       26.822 -29.201  10.729  0.00  0.00    -0.041 I 
ENDROOT
BRANCH   7  10
ATOM     10  C   LIG    1       23.935 -30.487   9.300  0.00  0.00    +0.246 C 
ATOM     11  N   LIG    1       24.452 -31.780   9.106  0.00  0.00    -0.309 N 
ATOM     12  H   LIG    1       24.771 -32.322   9.888  0.00  0.00    +0.149 HD
ATOM     13  O   LIG    1       23.677 -29.743   8.396  0.00  0.00    -0.270 OA
BRANCH  11  14
ATOM     14  C   LIG    1       24.686 -32.289   7.760  0.00  0.00    +0.132 C 
BRANCH  14  15
ATOM     15  C   LIG    1       23.471 -32.567   6.848  0.00  0.00    +0.174 C 
BRANCH  15  16
ATOM     16  O   LIG    1       23.312 -31.493   5.913  0.00  0.00    -0.394 OA
ATOM     17  H   LIG    1       22.611 -31.737   5.287  0.00  0.00    +0.209 HD
ENDBRANCH  15  16
ENDBRANCH  14  15
ENDBRANCH  11  14
ENDBRANCH   7  10
BRANCH   1  20
ATOM     18  C   LIG    1       26.940 -32.167  15.082  0.00  0.00    +0.110 C 
ATOM     19  C   LIG    1       26.528 -30.949  14.296  0.00  0.00    +0.217 C 
ATOM     20  N   LIG    1       25.205 -30.840  13.815  0.00  0.00    -0.267 N 
ATOM     21  O   LIG    1       27.401 -30.105  14.104  0.00  0.00    -0.276 OA
BRANCH  20  22
ATOM     22  C   LIG    1       24.181 -31.909  14.028  0.00  0.00    +0.147 C 
BRANCH  22  23
ATOM     23  C   LIG    1       23.949 -32.872  12.825  0.00  0.00    +0.158 C 
BRANCH  23  24
ATOM     24  O   LIG    1       22.783 -33.673  13.025  0.00  0.00    -0.388 OA
ATOM     25  H   LIG    1       22.003 -33.132  12.813  0.00  0.00    +0.210 HD
ENDBRANCH  23  24
BRANCH  23  26
ATOM     26  C   LIG    1       25.145 -33.760  12.475  0.00  0.00    +0.188 C 
BRANCH  26  27
ATOM     27  O   LIG    1       25.855 -33.212  11.369  0.00  0.00    -0.392 OA
ATOM     28  H   LIG    1       26.599 -32.695  11.732  0.00  0.00    +0.209 HD
ENDBRANCH  26  27
ENDBRANCH  23  26
ENDBRANCH  22  23
ENDBRANCH  20  22
ENDBRANCH   1  20
BRANCH   4  29
ATOM     29  C   LIG    1       21.326 -28.336  13.165  0.00  0.00    +0.246 C 
ATOM     30  N   LIG    1       20.496 -28.874  14.105  0.00  0.00    -0.309 N 
ATOM     31  H   LIG    1       19.608 -28.395  14.214  0.00  0.00    +0.149 HD
ATOM     32  O   LIG    1       21.074 -27.140  12.861  0.00  0.00    -0.270 OA
BRANCH  30  33
ATOM     33  C   LIG    1       20.624 -30.216  14.530  0.00  0.00    +0.138 C 
BRANCH  33  34
ATOM     34  C   LIG    1       19.553 -31.252  14.286  0.00  0.00    +0.157 C 
BRANCH  34  35
ATOM     35  O   LIG    1       20.160 -32.504  13.917  0.00  0.00    -0.388 OA
ATOM     36  H   LIG    1       19.468 -33.031  13.466  0.00  0.00    +0.210 HD
ENDBRANCH  34  35
BRANCH  34  37
ATOM     37  C   LIG    1       18.628 -30.830  13.172  0.00  0.00    +0.188 C 
BRANCH  37  38
ATOM     38  O   LIG    1       17.855 -29.701  13.583  0.00  0.00    -0.392 OA
ATOM     39  H   LIG    1       17.879 -29.073  12.838  0.00  0.00    +0.209 HD
ENDBRANCH  37  38
ENDBRANCH  34  37
ENDBRANCH  33  34
ENDBRANCH  30  33
ENDBRANCH   4  29
TORSDOF 16
ENDMDL
MODEL 4
REMARK VINA RESULT:      -4.4      1.230      2.542
REMARK  Name = *****
REMARK                            x       y       z     vdW  Elec       q    Type
REMARK                         _______ _______ _______ _____ _____    ______ ____
ROOT
ATOM      1  C   LIG    1       22.960 -30.080  12.972  0.00  0.00    +0.064 A 
ATOM      2  C   LIG    1       23.950 -30.813  13.644  0.00  0.00    +0.049 A 
ATOM      3  I   LIG    1       22.872 -32.649  14.582  0.00  0.00    -0.041 I 
ATOM      4  C   LIG    1       25.207 -31.072  13.022  0.00  0.00    +0.065 A 
ATOM      5  C   LIG    1       25.243 -30.817  11.597  0.00  0.00    +0.040 A 
ATOM      6  I   LIG    1       26.897 -29.774  10.189  0.00  0.00    -0.042 I 
ATOM      7  C   LIG    1       24.047 -30.703  10.881  0.00  0.00    +0.065 A 
ATOM      8  C   LIG    1       22.885 -30.407  11.606  0.00  0.00    +0.049 A 
ATOM      9  I   LIG    1       20.998 -31.065  10.948  0.00  0.00    -0.041 I 
ENDROOT
BRANCH   7  10
ATOM     10  C   LIG    1       24.073 -30.736   9.379  0.00  0.00    +0.246 C 
ATOM     11  N   LIG    1       24.675 -31.859   8.786  0.00  0.00    -0.309 N 
ATOM     12  H   LIG    1       25.084 -32.577   9.355  0.00  0.00    +0.149 HD
ATOM     13  O   LIG    1       23.700 -29.785   8.752  0.00  0.00    -0.270 OA
BRANCH  11  14
ATOM     14  C   LIG    1       24.861 -31.922   7.341  0.00  0.00    +0.132 C 
BRANCH  14  15
ATOM     15  C   LIG    1       23.621 -32.099   6.438  0.00  0.00    +0.174 C 
BRANCH  15  16
ATOM     16  O   LIG    1       23.305 -30.855   5.801  0.00  0.00    -0.394 OA
ATOM     17  H   LIG    1       23.590 -30.908   4.874  0.00  0.00    +0.209 HD
ENDBRANCH  15  16
ENDBRANCH  14  15
ENDBRANCH  11  14
ENDBRANCH   7  10
BRANCH   1  20
ATOM     18  C   LIG    1       23.656 -26.328  13.659  0.00  0.00    +0.110 C 
ATOM     19  C   LIG    1       23.767 -27.726  13.107  0.00  0.00    +0.217 C 
ATOM     20  N   LIG    1       22.761 -28.675  13.398  0.00  0.00    -0.267 N 
ATOM     21  O   LIG    1       24.763 -27.966  12.428  0.00  0.00    -0.276 OA
BRANCH  20  22
ATOM     22  C   LIG    1       21.586 -28.360  14.267  0.00  0.00    +0.147 C 
BRANCH  22  23
ATOM     23  C   LIG    1       20.229 -28.170  13.526  0.00  0.00    +0.158 C 
BRANCH  23  24
ATOM     24  O   LIG    1       20.297 -27.090  12.595  0.00  0.00    -0.388 OA
ATOM     25  H   LIG    1       19.526 -26.515  12.740  0.00  0.00    +0.210 HD
ENDBRANCH  23  24
BRANCH  23  26
ATOM     26  C   LIG    1       19.016 -27.999  14.444  0.00  0.00    +0.188 C 
BRANCH  26  27
ATOM     27  O   LIG    1       17.877 -28.639  13.878  0.00  0.00    -0.392 OA
ATOM     28  H   LIG    1       17.953 -29.591  14.077  0.00  0.00    +0.209 HD
ENDBRANCH  26  27
ENDBRANCH  23  26
ENDBRANCH  22  23
ENDBRANCH  20  22
ENDBRANCH   1  20
BRANCH   4  29
ATOM     29  C   LIG    1       26.251 -31.721  13.925  0.00  0.00    +0.246 C 
ATOM     30  N   LIG    1       27.043 -31.007  14.776  0.00  0.00    -0.309 N 
ATOM     31  H   LIG    1       27.866 -31.498  15.106  0.00  0.00    +0.149 HD
ATOM     32  O   LIG    1       26.412 -32.969  13.977  0.00  0.00    -0.270 OA
BRANCH  30  33
ATOM     33  C   LIG    1       27.008 -29.594  14.815  0.00  0.00    +0.138 C 
BRANCH  33  34
ATOM     34  C   LIG    1       28.138 -28.738  14.296  0.00  0.00    +0.157 C 
BRANCH  34  35
ATOM     35  O   LIG    1       27.632 -27.794  13.333  0.00  0.00    -0.388 OA
ATOM     36  H   LIG    1       27.118 -27.127  13.834  0.00  0.00    +0.210 HD
ENDBRANCH  34  35
BRANCH  34  37
ATOM     37  C   LIG    1       29.194 -29.578  13.622  0.00  0.00    +0.188 C 
BRANCH  37  38
ATOM     38  O   LIG    1       29.880 -30.369  14.594  0.00  0.00    -0.392 OA
ATOM     39  H   LIG    1       29.279 -30.435  15.359  0.00  0.00    +0.209 HD
ENDBRANCH  37  38
ENDBRANCH  34  37
ENDBRANCH  33  34
ENDBRANCH  30  33
ENDBRANCH   4  29
TORSDOF 16
ENDMDL
MODEL 5
REMARK VINA RESULT:      -4.2      1.956      3.073
REMARK  Name = *****
REMARK                            x       y       z     vdW  Elec       q    Type
REMARK                         _______ _______ _______ _____ _____    ______ ____
ROOT
ATOM      1  C   LIG    1       24.058 -30.253  12.620  0.00  0.00    +0.064 A 
ATOM      2  C   LIG    1       25.409 -29.875  12.587  0.00  0.00    +0.049 A 
ATOM      3  I   LIG    1       26.498 -31.229  14.135  0.00  0.00    -0.041 I 
ATOM      4  C   LIG    1       26.076 -29.679  11.343  0.00  0.00    +0.065 A 
ATOM      5  C   LIG    1       25.374 -30.201  10.189  0.00  0.00    +0.040 A 
ATOM      6  I   LIG    1       25.016 -29.304   7.981  0.00  0.00    -0.042 I 
ATOM      7  C   LIG    1       24.344 -31.130  10.365  0.00  0.00    +0.065 A 
ATOM      8  C   LIG    1       23.741 -31.198  11.628  0.00  0.00    +0.049 A 
ATOM      9  I   LIG    1       22.907 -32.994  12.339  0.00  0.00    -0.041 I 
ENDROOT
BRANCH   7  10
ATOM     10  C   LIG    1       23.817 -31.890   9.180  0.00  0.00    +0.246 C 
ATOM     11  N   LIG    1       24.737 -32.705   8.498  0.00  0.00    -0.309 N 
ATOM     12  H   LIG    1       25.697 -32.741   8.787  0.00  0.00    +0.149 HD
ATOM     13  O   LIG    1       22.700 -31.697   8.792  0.00  0.00    -0.270 OA
BRANCH  11  14
ATOM     14  C   LIG    1       24.353 -33.380   7.263  0.00  0.00    +0.132 C 
BRANCH  14  15
ATOM     15  C   LIG    1       24.443 -32.604   5.931  0.00  0.00    +0.174 C 
BRANCH  15  16
ATOM     16  O   LIG    1       23.243 -31.846   5.732  0.00  0.00    -0.394 OA
ATOM     17  H   LIG    1       23.474 -30.902   5.755  0.00  0.00    +0.209 HD
ENDBRANCH  15  16
ENDBRANCH  14  15
ENDBRANCH  11  14
ENDBRANCH   7  10
BRANCH   1  20
ATOM     18  C   LIG    1       22.174 -27.513  14.615  0.00  0.00    +0.110 C 
ATOM     19  C   LIG    1       23.239 -28.482  14.172  0.00  0.00    +0.217 C 
ATOM     20  N   LIG    1       23.075 -29.198  12.964  0.00  0.00    -0.267 N 
ATOM     21  O   LIG    1       24.207 -28.606  14.918  0.00  0.00    -0.276 OA
BRANCH  20  22
ATOM     22  C   LIG    1       21.861 -29.057  12.104  0.00  0.00    +0.147 C 
BRANCH  22  23
ATOM     23  C   LIG    1       20.581 -29.784  12.615  0.00  0.00    +0.158 C 
BRANCH  23  24
ATOM     24  O   LIG    1       20.838 -30.484  13.833  0.00  0.00    -0.388 OA
ATOM     25  H   LIG    1       21.654 -30.125  14.223  0.00  0.00    +0.210 HD
ENDBRANCH  23  24
BRANCH  23  26
ATOM     26  C   LIG    1       19.927 -30.721  11.597  0.00  0.00    +0.188 C 
BRANCH  26  27
ATOM     27  O   LIG    1       20.536 -30.559  10.320  0.00  0.00    -0.392 OA
ATOM     28  H   LIG    1       20.905 -29.657  10.288  0.00  0.00    +0.209 HD
ENDBRANCH  26  27
ENDBRANCH  23  26
ENDBRANCH  22  23
ENDBRANCH  20  22
ENDBRANCH   1  20
BRANCH   4  29
ATOM     29  C   LIG    1       27.483 -29.101  11.450  0.00  0.00    +0.246 C 
ATOM     30  N   LIG    1       27.737 -27.855  11.945  0.00  0.00    -0.309 N 
ATOM     31  H   LIG    1       28.651 -27.481  11.712  0.00  0.00    +0.149 HD
ATOM     32  O   LIG    1       28.508 -29.760  11.133  0.00  0.00    -0.270 OA
BRANCH  30  33
ATOM     33  C   LIG    1       26.694 -26.975  12.316  0.00  0.00    +0.138 C 
BRANCH  33  34
ATOM     34  C   LIG    1       26.797 -26.046  13.501  0.00  0.00    +0.157 C 
BRANCH  34  35
ATOM     35  O   LIG    1       27.749 -25.002  13.221  0.00  0.00    -0.388 OA
ATOM     36  H   LIG    1       28.351 -25.347  12.529  0.00  0.00    +0.210 HD
ENDBRANCH  34  35
BRANCH  34  37
ATOM     37  C   LIG    1       27.254 -26.782  14.735  0.00  0.00    +0.188 C 
BRANCH  37  38
ATOM     38  O   LIG    1       28.668 -26.979  14.688  0.00  0.00    -0.392 OA
ATOM     39  H   LIG    1       28.836 -27.829  15.136  0.00  0.00    +0.209 HD
ENDBRANCH  37  38
ENDBRANCH  34  37
ENDBRANCH  33  34
ENDBRANCH  30  33
ENDBRANCH   4  29
TORSDOF 16
ENDMDL
MODEL 6
REMARK VINA RESULT:      -4.0      2.757      6.769
REMARK  Name = *****
REMARK                            x       y       z     vdW  Elec       q    Type
REMARK                         _______ _______ _______ _____ _____    ______ ____
ROOT
ATOM      1  C   LIG    1       24.166 -31.198   8.553  0.00  0.00    +0.064 A 
ATOM      2  C   LIG    1       22.897 -31.483   9.081  0.00  0.00    +0.049 A 
ATOM      3  I   LIG    1       22.500 -33.731   8.629  0.00  0.00    -0.041 I 
ATOM      4  C   LIG    1       22.535 -31.030  10.382  0.00  0.00    +0.065 A 
ATOM      5  C   LIG    1       23.642 -30.568  11.194  0.00  0.00    +0.040 A 
ATOM      6  I   LIG    1       23.881 -28.671  12.661  0.00  0.00    -0.042 I 
ATOM      7  C   LIG    1       24.951 -30.910  10.842  0.00  0.00    +0.065 A 
ATOM      8  C   LIG    1       25.184 -31.304   9.518  0.00  0.00    +0.049 A 
ATOM      9  I   LIG    1       26.730 -32.649   9.040  0.00  0.00    -0.041 I 
ENDROOT
BRANCH   7  10
ATOM     10  C   LIG    1       26.067 -30.692  11.825  0.00  0.00    +0.246 C 
ATOM     11  N   LIG    1       26.972 -29.658  11.528  0.00  0.00    -0.309 N 
ATOM     12  H   LIG    1       26.875 -29.124  10.685  0.00  0.00    +0.149 HD
ATOM     13  O   LIG    1       26.218 -31.453  12.739  0.00  0.00    -0.270 OA
BRANCH  11  14
ATOM     14  C   LIG    1       28.157 -29.453  12.353  0.00  0.00    +0.132 C 
BRANCH  14  15
ATOM     15  C   LIG    1       28.000 -28.751  13.719  0.00  0.00    +0.174 C 
BRANCH  15  16
ATOM     16  O   LIG    1       27.738 -27.356  13.519  0.00  0.00    -0.394 OA
ATOM     17  H   LIG    1       27.586 -27.210  12.571  0.00  0.00    +0.209 HD
ENDBRANCH  15  16
ENDBRANCH  14  15
ENDBRANCH  11  14
ENDBRANCH   7  10
BRANCH   1  20
ATOM     18  C   LIG    1       24.408 -29.444   5.103  0.00  0.00    +0.110 C 
ATOM     19  C   LIG    1       24.185 -30.492   6.163  0.00  0.00    +0.217 C 
ATOM     20  N   LIG    1       24.240 -30.131   7.528  0.00  0.00    -0.267 N 
ATOM     21  O   LIG    1       23.976 -31.635   5.762  0.00  0.00    -0.276 OA
BRANCH  20  22
ATOM     22  C   LIG    1       24.543 -28.738   7.979  0.00  0.00    +0.147 C 
BRANCH  22  23
ATOM     23  C   LIG    1       25.983 -28.226   7.674  0.00  0.00    +0.158 C 
BRANCH  23  24
ATOM     24  O   LIG    1       26.798 -28.253   8.846  0.00  0.00    -0.388 OA
ATOM     25  H   LIG    1       27.358 -27.457   8.844  0.00  0.00    +0.210 HD
ENDBRANCH  23  24
BRANCH  23  26
ATOM     26  C   LIG    1       26.046 -26.844   7.020  0.00  0.00    +0.188 C 
BRANCH  26  27
ATOM     27  O   LIG    1       27.070 -26.815   6.031  0.00  0.00    -0.392 OA
ATOM     28  H   LIG    1       27.036 -27.667   5.556  0.00  0.00    +0.209 HD
ENDBRANCH  26  27
ENDBRANCH  23  26
ENDBRANCH  22  23
ENDBRANCH  20  22
ENDBRANCH   1  20
BRANCH   4  29
ATOM     29  C   LIG    1       21.074 -31.254  10.760  0.00  0.00    +0.246 C 
ATOM     30  N   LIG    1       20.689 -32.082  11.774  0.00  0.00    -0.309 N 
ATOM     31  H   LIG    1       19.715 -32.362  11.749  0.00  0.00    +0.149 HD
ATOM     32  O   LIG    1       20.131 -30.646  10.189  0.00  0.00    -0.270 OA
BRANCH  30  33
ATOM     33  C   LIG    1       21.624 -32.862  12.492  0.00  0.00    +0.138 C 
BRANCH  33  34
ATOM     34  C   LIG    1       21.979 -32.583  13.933  0.00  0.00    +0.157 C 
BRANCH  34  35
ATOM     35  O   LIG    1       22.198 -33.824  14.630  0.00  0.00    -0.388 OA
ATOM     36  H   LIG    1       22.746 -33.614  15.415  0.00  0.00    +0.210 HD
ENDBRANCH  34  35
BRANCH  34  37
ATOM     37  C   LIG    1       20.871 -31.838  14.634  0.00  0.00    +0.188 C 
BRANCH  37  38
ATOM     38  O   LIG    1       20.939 -30.448  14.311  0.00  0.00    -0.392 OA
ATOM     39  H   LIG    1       21.397 -30.394  13.452  0.00  0.00    +0.209 HD
ENDBRANCH  37  38
ENDBRANCH  34  37
ENDBRANCH  33  34
ENDBRANCH  30  33
ENDBRANCH   4  29
TORSDOF 16
ENDMDL
MODEL 7
REMARK VINA RESULT:      -3.9      2.718      7.146
REMARK  Name = *****
REMARK                            x       y       z     vdW  Elec       q    Type
REMARK                         _______ _______ _______ _____ _____    ______ ____
ROOT
ATOM      1  C   LIG    1       25.154 -30.928  12.559  0.00  0.00    +0.064 A 
ATOM      2  C   LIG    1       24.017 -31.499  13.150  0.00  0.00    +0.049 A 
ATOM      3  I   LIG    1       24.795 -33.173  14.566  0.00  0.00    -0.041 I 
ATOM      4  C   LIG    1       22.977 -30.672  13.666  0.00  0.00    +0.065 A 
ATOM      5  C   LIG    1       23.331 -29.276  13.820  0.00  0.00    +0.040 A 
ATOM      6  I   LIG    1       22.124 -27.246  13.336  0.00  0.00    -0.042 I 
ATOM      7  C   LIG    1       24.677 -28.896  13.817  0.00  0.00    +0.065 A 
ATOM      8  C   LIG    1       25.598 -29.783  13.244  0.00  0.00    +0.049 A 
ATOM      9  I   LIG    1       27.592 -29.859  13.912  0.00  0.00    -0.041 I 
ENDROOT
BRANCH   7  10
ATOM     10  C   LIG    1       25.061 -27.515  14.266  0.00  0.00    +0.246 C 
ATOM     11  N   LIG    1       25.623 -26.671  13.292  0.00  0.00    -0.309 N 
ATOM     12  H   LIG    1       25.777 -27.004  12.359  0.00  0.00    +0.149 HD
ATOM     13  O   LIG    1       24.990 -27.220  15.426  0.00  0.00    -0.270 OA
BRANCH  11  14
ATOM     14  C   LIG    1       26.144 -25.360  13.661  0.00  0.00    +0.132 C 
BRANCH  14  15
ATOM     15  C   LIG    1       27.616 -25.244  14.114  0.00  0.00    +0.174 C 
BRANCH  15  16
ATOM     16  O   LIG    1       27.928 -23.875  14.397  0.00  0.00    -0.394 OA
ATOM     17  H   LIG    1       28.852 -23.716  14.142  0.00  0.00    +0.209 HD
ENDBRANCH  15  16
ENDBRANCH  14  15
ENDBRANCH  11  14
ENDBRANCH   7  10
BRANCH   1  20
ATOM     18  C   LIG    1       25.916 -32.168   8.964  0.00  0.00    +0.110 C 
ATOM     19  C   LIG    1       25.686 -32.152  10.453  0.00  0.00    +0.217 C 
ATOM     20  N   LIG    1       25.232 -30.969  11.079  0.00  0.00    -0.267 N 
ATOM     21  O   LIG    1       25.930 -33.197  11.053  0.00  0.00    -0.276 OA
BRANCH  20  22
ATOM     22  C   LIG    1       24.991 -29.701  10.324  0.00  0.00    +0.147 C 
BRANCH  22  23
ATOM     23  C   LIG    1       26.264 -28.965   9.812  0.00  0.00    +0.158 C 
BRANCH  23  24
ATOM     24  O   LIG    1       26.731 -28.016  10.771  0.00  0.00    -0.388 OA
ATOM     25  H   LIG    1       27.687 -28.154  10.894  0.00  0.00    +0.210 HD
ENDBRANCH  23  24
BRANCH  23  26
ATOM     26  C   LIG    1       26.113 -28.300   8.443  0.00  0.00    +0.188 C 
BRANCH  26  27
ATOM     27  O   LIG    1       25.762 -29.270   7.461  0.00  0.00    -0.392 OA
ATOM     28  H   LIG    1       25.212 -29.943   7.904  0.00  0.00    +0.209 HD
ENDBRANCH  26  27
ENDBRANCH  23  26
ENDBRANCH  22  23
ENDBRANCH  20  22
ENDBRANCH   1  20
BRANCH   4  29
ATOM     29  C   LIG    1       21.725 -31.417  14.118  0.00  0.00    +0.246 C 
ATOM     30  N   LIG    1       20.760 -31.839  13.251  0.00  0.00    -0.309 N 
ATOM     31  H   LIG    1       19.870 -32.065  13.681  0.00  0.00    +0.149 HD
ATOM     32  O   LIG    1       21.529 -31.735  15.320  0.00  0.00    -0.270 OA
BRANCH  30  33
ATOM     33  C   LIG    1       20.814 -31.535  11.871  0.00  0.00    +0.138 C 
BRANCH  33  34
ATOM     34  C   LIG    1       19.597 -31.585  10.979  0.00  0.00    +0.157 C 
BRANCH  34  35
ATOM     35  O   LIG    1       19.559 -30.414  10.141  0.00  0.00    -0.388 OA
ATOM     36  H   LIG    1       18.767 -30.502   9.570  0.00  0.00    +0.210 HD
ENDBRANCH  34  35
BRANCH  34  37
ATOM     37  C   LIG    1       18.327 -31.626  11.790  0.00  0.00    +0.188 C 
BRANCH  37  38
ATOM     38  O   LIG    1       18.194 -30.422  12.548  0.00  0.00    -0.392 OA
ATOM     39  H   LIG    1       19.071 -29.996  12.531  0.00  0.00    +0.209 HD
ENDBRANCH  37  38
ENDBRANCH  34  37
ENDBRANCH  33  34
ENDBRANCH  30  33
ENDBRANCH   4  29
TORSDOF 16
ENDMDL
MODEL 8
REMARK VINA RESULT:      -3.8      3.213      5.795
REMARK  Name = *****
REMARK                            x       y       z     vdW  Elec       q    Type
REMARK                         _______ _______ _______ _____ _____    ______ ____
ROOT
ATOM      1  C   LIG    1       24.772 -29.662  13.164  0.00  0.00    +0.064 A 
ATOM      2  C   LIG    1       25.685 -28.615  12.967  0.00  0.00    +0.049 A 
ATOM      3  I   LIG    1       26.473 -28.843  10.790  0.00  0.00    -0.041 I 
ATOM      4  C   LIG    1       25.369 -27.289  13.386  0.00  0.00    +0.065 A 
ATOM      5  C   LIG    1       23.973 -27.071  13.704  0.00  0.00    +0.040 A 
ATOM      6  I   LIG    1       22.900 -25.867  15.496  0.00  0.00    -0.042 I 
ATOM      7  C   LIG    1       23.009 -27.982  13.264  0.00  0.00    +0.065 A 
ATOM      8  C   LIG    1       23.444 -29.269  12.918  0.00  0.00    +0.049 A 
ATOM      9  I   LIG    1       22.431 -30.404  11.465  0.00  0.00    -0.041 I 
ENDROOT
BRANCH   7  10
ATOM     10  C   LIG    1       21.553 -27.616  13.331  0.00  0.00    +0.246 C 
ATOM     11  N   LIG    1       20.746 -28.401  14.173  0.00  0.00    -0.309 N 
ATOM     12  H   LIG    1       21.138 -29.178  14.673  0.00  0.00    +0.149 HD
ATOM     13  O   LIG    1       21.113 -26.772  12.602  0.00  0.00    -0.270 OA
BRANCH  11  14
ATOM     14  C   LIG    1       19.302 -28.204  14.207  0.00  0.00    +0.132 C 
BRANCH  14  15
ATOM     15  C   LIG    1       18.737 -26.962  14.930  0.00  0.00    +0.174 C 
BRANCH  15  16
ATOM     16  O   LIG    1       18.484 -25.921  13.977  0.00  0.00    -0.394 OA
ATOM     17  H   LIG    1       17.675 -25.455  14.245  0.00  0.00    +0.209 HD
ENDBRANCH  15  16
ENDBRANCH  14  15
ENDBRANCH  11  14
ENDBRANCH   7  10
BRANCH   1  20
ATOM     18  C   LIG    1       26.589 -32.306  15.342  0.00  0.00    +0.110 C 
ATOM     19  C   LIG    1       26.325 -31.234  14.316  0.00  0.00    +0.217 C 
ATOM     20  N   LIG    1       25.061 -30.605  14.270  0.00  0.00    -0.267 N 
ATOM     21  O   LIG    1       27.250 -30.975  13.549  0.00  0.00    -0.276 OA
BRANCH  20  22
ATOM     22  C   LIG    1       23.943 -30.978  15.190  0.00  0.00    +0.147 C 
BRANCH  22  23
ATOM     23  C   LIG    1       23.332 -32.394  14.971  0.00  0.00    +0.158 C 
BRANCH  23  24
ATOM     24  O   LIG    1       23.535 -32.842  13.631  0.00  0.00    -0.388 OA
ATOM     25  H   LIG    1       24.440 -33.194  13.563  0.00  0.00    +0.210 HD
ENDBRANCH  23  24
BRANCH  23  26
ATOM     26  C   LIG    1       21.854 -32.519  15.350  0.00  0.00    +0.188 C 
BRANCH  26  27
ATOM     27  O   LIG    1       21.170 -31.303  15.065  0.00  0.00    -0.392 OA
ATOM     28  H   LIG    1       21.775 -30.572  15.289  0.00  0.00    +0.209 HD
ENDBRANCH  26  27
ENDBRANCH  23  26
ENDBRANCH  22  23
ENDBRANCH  20  22
ENDBRANCH   1  20
BRANCH   4  29
ATOM     29  C   LIG    1       26.514 -26.288  13.275  0.00  0.00    +0.246 C 
ATOM     30  N   LIG    1       27.703 -26.447  13.925  0.00  0.00    -0.309 N 
ATOM     31  H   LIG    1       28.264 -25.605  14.000  0.00  0.00    +0.149 HD
ATOM     32  O   LIG    1       26.450 -25.272  12.534  0.00  0.00    -0.270 OA
BRANCH  30  33
ATOM     33  C   LIG    1       27.924 -27.518  14.821  0.00  0.00    +0.138 C 
BRANCH  33  34
ATOM     34  C   LIG    1       29.290 -27.848  15.372  0.00  0.00    +0.157 C 
BRANCH  34  35
ATOM     35  O   LIG    1       30.149 -26.696  15.269  0.00  0.00    -0.388 OA
ATOM     36  H   LIG    1       29.564 -25.910  15.235  0.00  0.00    +0.210 HD
ENDBRANCH  34  35
BRANCH  34  37
ATOM     37  C   LIG    1       29.928 -28.981  14.608  0.00  0.00    +0.188 C 
BRANCH  37  38
ATOM     38  O   LIG    1       29.280 -29.143  13.346  0.00  0.00    -0.392 OA
ATOM     39  H   LIG    1       29.439 -30.067  13.079  0.00  0.00    +0.209 HD
ENDBRANCH  37  38
ENDBRANCH  34  37
ENDBRANCH  33  34
ENDBRANCH  30  33
ENDBRANCH   4  29
TORSDOF 16
ENDMDL
MODEL 9
REMARK VINA RESULT:      -3.7      2.649      6.908
REMARK  Name = *****
REMARK                            x       y       z     vdW  Elec       q    Type
REMARK                         _______ _______ _______ _____ _____    ______ ____
ROOT
ATOM      1  C   LIG    1       23.367 -31.792   9.588  0.00  0.00    +0.064 A 
ATOM      2  C   LIG    1       21.994 -31.669   9.851  0.00  0.00    +0.049 A 
ATOM      3  I   LIG    1       21.124 -33.825   9.773  0.00  0.00    -0.041 I 
ATOM      4  C   LIG    1       21.532 -30.841  10.916  0.00  0.00    +0.065 A 
ATOM      5  C   LIG    1       22.556 -30.434  11.855  0.00  0.00    +0.040 A 
ATOM      6  I   LIG    1       23.004 -28.325  12.932  0.00  0.00    -0.042 I 
ATOM      7  C   LIG    1       23.775 -31.116  11.894  0.00  0.00    +0.065 A 
ATOM      8  C   LIG    1       24.134 -31.865  10.765  0.00  0.00    +0.049 A 
ATOM      9  I   LIG    1       25.345 -33.577  10.937  0.00  0.00    -0.041 I 
ENDROOT
BRANCH   7  10
ATOM     10  C   LIG    1       24.714 -30.898  13.047  0.00  0.00    +0.246 C 
ATOM     11  N   LIG    1       25.955 -30.311  12.743  0.00  0.00    -0.309 N 
ATOM     12  H   LIG    1       26.192 -30.084  11.795  0.00  0.00    +0.149 HD
ATOM     13  O   LIG    1       24.438 -31.322  14.133  0.00  0.00    -0.270 OA
BRANCH  11  14
ATOM     14  C   LIG    1       26.980 -30.176  13.771  0.00  0.00    +0.132 C 
BRANCH  14  15
ATOM     15  C   LIG    1       28.243 -29.343  13.459  0.00  0.00    +0.174 C 
BRANCH  15  16
ATOM     16  O   LIG    1       27.860 -28.046  12.985  0.00  0.00    -0.394 OA
ATOM     17  H   LIG    1       27.363 -27.600  13.691  0.00  0.00    +0.209 HD
ENDBRANCH  15  16
ENDBRANCH  14  15
ENDBRANCH  11  14
ENDBRANCH   7  10
BRANCH   1  20
ATOM     18  C   LIG    1       24.663 -31.037   6.012  0.00  0.00    +0.110 C 
ATOM     19  C   LIG    1       23.992 -31.720   7.177  0.00  0.00    +0.217 C 
ATOM     20  N   LIG    1       23.895 -31.052   8.418  0.00  0.00    -0.267 N 
ATOM     21  O   LIG    1       23.571 -32.856   6.972  0.00  0.00    -0.276 OA
BRANCH  20  22
ATOM     22  C   LIG    1       24.461 -29.686   8.643  0.00  0.00    +0.147 C 
BRANCH  22  23
ATOM     23  C   LIG    1       26.014 -29.581   8.591  0.00  0.00    +0.158 C 
BRANCH  23  24
ATOM     24  O   LIG    1       26.623 -30.864   8.738  0.00  0.00    -0.388 OA
ATOM     25  H   LIG    1       27.019 -31.111   7.884  0.00  0.00    +0.210 HD
ENDBRANCH  23  24
BRANCH  23  26
ATOM     26  C   LIG    1       26.622 -28.592   9.588  0.00  0.00    +0.188 C 
BRANCH  26  27
ATOM     27  O   LIG    1       27.750 -29.175  10.232  0.00  0.00    -0.392 OA
ATOM     28  H   LIG    1       28.390 -29.411   9.535  0.00  0.00    +0.209 HD
ENDBRANCH  26  27
ENDBRANCH  23  26
ENDBRANCH  22  23
ENDBRANCH  20  22
ENDBRANCH   1  20
BRANCH   4  29
ATOM     29  C   LIG    1       20.019 -30.657  10.979  0.00  0.00    +0.246 C 
ATOM     30  N   LIG    1       19.340 -30.495  12.151  0.00  0.00    -0.309 N 
ATOM     31  H   LIG    1       18.341 -30.660  12.091  0.00  0.00    +0.149 HD
ATOM     32  O   LIG    1       19.306 -30.591   9.943  0.00  0.00    -0.270 OA
BRANCH  30  33
ATOM     33  C   LIG    1       19.990 -30.576  13.404  0.00  0.00    +0.138 C 
BRANCH  33  34
ATOM     34  C   LIG    1       19.266 -30.355  14.711  0.00  0.00    +0.157 C 
BRANCH  34  35
ATOM     35  O   LIG    1       18.164 -31.276  14.819  0.00  0.00    -0.388 OA
ATOM     36  H   LIG    1       17.530 -30.883  15.455  0.00  0.00    +0.210 HD
ENDBRANCH  34  35
BRANCH  34  37
ATOM     37  C   LIG    1       18.720 -28.953  14.803  0.00  0.00    +0.188 C 
BRANCH  37  38
ATOM     38  O   LIG    1       19.244 -28.156  13.738  0.00  0.00    -0.392 OA
ATOM     39  H   LIG    1       18.785 -28.452  12.931  0.00  0.00    +0.209 HD
ENDBRANCH  37  38
ENDBRANCH  34  37
ENDBRANCH  33  34
ENDBRANCH  30  33
ENDBRANCH   4  29
TORSDOF 16
ENDMDL
