MODEL 1
REMARK VINA RESULT:      -2.0      0.000      0.000
REMARK  Name = *****
REMARK                            x       y       z     vdW  Elec       q    Type
REMARK                         _______ _______ _______ _____ _____    ______ ____
ROOT
ATOM      1  C   LIG    1       26.983 -14.526   3.438  0.00  0.00    +0.162 A 
ATOM      2  C   LIG    1       25.622 -14.873   3.369  0.00  0.00    +0.162 A 
ATOM      3  C   LIG    1       25.244 -16.192   3.591  0.00  0.00    +0.054 A 
ATOM      4  C   LIG    1       26.185 -17.176   3.903  0.00  0.00    -0.023 A 
ATOM      5  C   LIG    1       25.678 -18.554   4.259  0.00  0.00    +0.094 C 
ATOM      6  N   LIG    1       26.529 -19.317   5.168  0.00  0.00    -0.294 NA
ATOM      7  C   LIG    1       27.860 -18.805   5.472  0.00  0.00    +0.089 C 
ATOM      8  C   LIG    1       28.499 -17.925   4.386  0.00  0.00    +0.051 C 
ATOM      9  C   LIG    1       26.358 -20.760   5.150  0.00  0.00    +0.096 C 
ATOM     10  C   LIG    1       24.876 -21.134   4.975  0.00  0.00    +0.070 C 
ATOM     11  C   LIG    1       24.551 -20.651   3.566  0.00  0.00    +0.139 C 
ATOM     12  O   LIG    1       23.812 -21.328   2.801  0.00  0.00    -0.297 OA
ATOM     13  C   LIG    1       25.216 -19.381   3.062  0.00  0.00    +0.098 C 
ATOM     14  C   LIG    1       27.538 -16.840   3.981  0.00  0.00    -0.038 A 
ATOM     15  C   LIG    1       27.939 -15.519   3.724  0.00  0.00    +0.053 A 
ENDROOT
BRANCH   1  17
ATOM     16  C   LIG    1       28.700 -12.975   3.956  0.00  0.00    +0.277 C 
ATOM     17  O   LIG    1       27.494 -13.260   3.243  0.00  0.00    -0.491 OA
ENDBRANCH   1  17
BRANCH   2  18
ATOM     18  O   LIG    1       24.711 -13.894   3.100  0.00  0.00    -0.491 OA
ATOM     19  C   LIG    1       24.178 -13.135   4.168  0.00  0.00    +0.277 C 
ENDBRANCH   2  18
BRANCH  10  20
ATOM     20  C   LIG    1       23.876 -20.617   6.060  0.00  0.00    +0.015 C 
BRANCH  20  21
ATOM     21  C   LIG    1       22.419 -20.314   5.605  0.00  0.00    -0.016 C 
ATOM     22  C   LIG    1       21.797 -21.524   4.879  0.00  0.00    +0.007 C 
ATOM     23  C   LIG    1       22.248 -19.131   4.647  0.00  0.00    +0.007 C 
ENDBRANCH  20  21
ENDBRANCH  10  20
TORSDOF 4
ENDMDL
MODEL 2
REMARK VINA RESULT:      -1.7      1.872      7.058
REMARK  Name = *****
REMARK                            x       y       z     vdW  Elec       q    Type
REMARK                         _______ _______ _______ _____ _____    ______ ____
ROOT
ATOM      1  C   LIG    1       23.433 -19.905   4.391  0.00  0.00    +0.162 A 
ATOM      2  C   LIG    1       24.781 -19.561   4.192  0.00  0.00    +0.162 A 
ATOM      3  C   LIG    1       25.127 -18.224   4.035  0.00  0.00    +0.054 A 
ATOM      4  C   LIG    1       24.166 -17.212   4.093  0.00  0.00    -0.023 A 
ATOM      5  C   LIG    1       24.641 -15.779   4.045  0.00  0.00    +0.094 C 
ATOM      6  N   LIG    1       23.788 -14.815   4.735  0.00  0.00    -0.294 NA
ATOM      7  C   LIG    1       22.479 -15.252   5.204  0.00  0.00    +0.089 C 
ATOM      8  C   LIG    1       21.842 -16.410   4.417  0.00  0.00    +0.051 C 
ATOM      9  C   LIG    1       23.918 -13.429   4.319  0.00  0.00    +0.096 C 
ATOM     10  C   LIG    1       25.385 -13.086   4.006  0.00  0.00    +0.070 C 
ATOM     11  C   LIG    1       25.693 -13.928   2.774  0.00  0.00    +0.139 C 
ATOM     12  O   LIG    1       26.396 -13.471   1.833  0.00  0.00    -0.297 OA
ATOM     13  C   LIG    1       25.054 -15.302   2.655  0.00  0.00    +0.098 C 
ATOM     14  C   LIG    1       22.824 -17.543   4.297  0.00  0.00    -0.038 A 
ATOM     15  C   LIG    1       22.455 -18.893   4.422  0.00  0.00    +0.053 A 
ENDROOT
BRANCH   1  17
ATOM     16  C   LIG    1       22.712 -21.568   5.920  0.00  0.00    +0.277 C 
ATOM     17  O   LIG    1       22.953 -21.186   4.564  0.00  0.00    -0.491 OA
ENDBRANCH   1  17
BRANCH   2  18
ATOM     18  O   LIG    1       25.714 -20.557   4.175  0.00  0.00    -0.491 OA
ATOM     19  C   LIG    1       26.412 -20.869   5.366  0.00  0.00    +0.277 C 
ENDBRANCH   2  18
BRANCH  10  20
ATOM     20  C   LIG    1       26.421 -13.264   5.163  0.00  0.00    +0.015 C 
BRANCH  20  21
ATOM     21  C   LIG    1       27.866 -13.687   4.770  0.00  0.00    -0.016 C 
ATOM     22  C   LIG    1       28.507 -12.664   3.810  0.00  0.00    +0.007 C 
ATOM     23  C   LIG    1       28.002 -15.044   4.071  0.00  0.00    +0.007 C 
ENDBRANCH  20  21
ENDBRANCH  10  20
TORSDOF 4
ENDMDL
