MODEL 1
REMARK VINA RESULT:      -9.0      0.000      0.000
REMARK  Name = *****
REMARK                            x       y       z     vdW  Elec       q    Type
REMARK                         _______ _______ _______ _____ _____    ______ ____
ROOT
ATOM      1  C   LIG    1       24.436 -29.889   6.123  0.00  0.00    +0.338 C 
ATOM      2  O   LIG    1       23.244 -29.929   5.842  0.00  0.00    -0.245 OA
ENDROOT
BRANCH   1   5
ATOM      3  C   LIG    1       26.383 -31.731   8.880  0.00  0.00    +0.065 C 
ATOM      4  C   LIG    1       25.242 -30.900   8.286  0.00  0.00    +0.096 C 
ATOM      5  C   LIG    1       25.146 -31.025   6.759  0.00  0.00    +0.065 C 
ATOM      6  C   LIG    1       25.686 -32.103   6.135  0.00  0.00    +0.016 C 
ATOM      7  C   LIG    1       25.554 -32.434   4.671  0.00  0.00    +0.061 C 
ATOM      8  N   LIG    1       26.427 -33.014   6.879  0.00  0.00    -0.321 N 
ATOM      9  H   LIG    1       26.926 -33.729   6.352  0.00  0.00    +0.152 HD
ATOM     10  C   LIG    1       26.892 -32.783   8.159  0.00  0.00    +0.016 C 
ATOM     11  C   LIG    1       27.972 -33.720   8.625  0.00  0.00    +0.061 C 
BRANCH   4  12
ATOM     12  C   LIG    1       23.889 -31.286   8.912  0.00  0.00    -0.029 A 
ATOM     13  C   LIG    1       23.279 -30.454   9.873  0.00  0.00    +0.088 A 
ATOM     14  C   LIG    1       22.045 -30.801  10.437  0.00  0.00    +0.273 A 
ATOM     15  C   LIG    1       21.392 -31.971  10.040  0.00  0.00    +0.084 A 
ATOM     16  C   LIG    1       21.999 -32.812   9.106  0.00  0.00    +0.007 A 
ATOM     17  C   LIG    1       23.244 -32.481   8.557  0.00  0.00    +0.005 A 
BRANCH  14  18
ATOM     18  N   LIG    1       21.445 -29.932  11.456  0.00  0.00    +0.080 N 
ATOM     19  O   LIG    1       22.152 -29.040  11.948  0.00  0.00    -0.576 OA
ATOM     20  O   LIG    1       20.266 -30.145  11.776  0.00  0.00    +0.041 OA
ENDBRANCH  14  18
ENDBRANCH   4  12
BRANCH   3  21
ATOM     21  C   LIG    1       26.952 -31.188  10.155  0.00  0.00    +0.337 C 
ATOM     22  O   LIG    1       27.925 -30.440  10.235  0.00  0.00    -0.245 OA
BRANCH  21  24
ATOM     23  C   LIG    1       25.950 -30.916  12.280  0.00  0.00    +0.280 C 
ATOM     24  O   LIG    1       26.285 -31.762  11.180  0.00  0.00    -0.465 OA
ENDBRANCH  21  24
ENDBRANCH   3  21
ENDBRANCH   1   5
BRANCH   1  25
ATOM     25  O   LIG    1       25.258 -28.853   5.861  0.00  0.00    -0.460 OA
BRANCH  25  26
ATOM     26  C   LIG    1       25.330 -27.842   6.880  0.00  0.00    +0.247 C 
BRANCH  26  27
ATOM     27  C   LIG    1       24.501 -26.604   6.490  0.00  0.00    +0.125 C 
BRANCH  27  28
ATOM     28  N   LIG    1       25.183 -25.682   5.560  0.00  0.00    -0.297 NA
ATOM     29  C   LIG    1       24.247 -24.673   5.017  0.00  0.00    +0.100 C 
ATOM     30  C   LIG    1       23.818 -23.585   6.037  0.00  0.00    +0.100 C 
ATOM     31  N   LIG    1       24.920 -22.858   6.710  0.00  0.00    -0.289 NA
ATOM     32  C   LIG    1       25.923 -23.854   7.171  0.00  0.00    +0.100 C 
ATOM     33  C   LIG    1       26.317 -24.967   6.168  0.00  0.00    +0.100 C 
BRANCH  31  34
ATOM     34  C   LIG    1       25.519 -21.775   5.875  0.00  0.00    +0.117 C 
BRANCH  34  35
ATOM     35  C   LIG    1       26.609 -20.990   6.642  0.00  0.00    -0.026 A 
ATOM     36  C   LIG    1       26.492 -20.696   8.015  0.00  0.00    +0.005 A 
ATOM     37  C   LIG    1       27.509 -20.026   8.702  0.00  0.00    +0.000 A 
ATOM     38  C   LIG    1       28.669 -19.651   8.034  0.00  0.00    +0.000 A 
ATOM     39  C   LIG    1       28.811 -19.942   6.679  0.00  0.00    +0.000 A 
ATOM     40  C   LIG    1       27.790 -20.600   5.986  0.00  0.00    +0.005 A 
ENDBRANCH  34  35
BRANCH  34  41
ATOM     41  C   LIG    1       24.490 -20.793   5.270  0.00  0.00    -0.026 A 
ATOM     42  C   LIG    1       24.742 -20.190   4.023  0.00  0.00    +0.005 A 
ATOM     43  C   LIG    1       23.883 -19.212   3.505  0.00  0.00    +0.000 A 
ATOM     44  C   LIG    1       22.764 -18.807   4.226  0.00  0.00    +0.000 A 
ATOM     45  C   LIG    1       22.473 -19.418   5.442  0.00  0.00    +0.000 A 
ATOM     46  C   LIG    1       23.313 -20.419   5.946  0.00  0.00    +0.005 A 
ENDBRANCH  34  41
ENDBRANCH  31  34
ENDBRANCH  27  28
ENDBRANCH  26  27
ENDBRANCH  25  26
ENDBRANCH   1  25
TORSDOF 12
ENDMDL
MODEL 2
REMARK VINA RESULT:      -8.9      0.547      2.902
REMARK  Name = *****
REMARK                            x       y       z     vdW  Elec       q    Type
REMARK                         _______ _______ _______ _____ _____    ______ ____
ROOT
ATOM      1  C   LIG    1       24.416 -29.756   6.092  0.00  0.00    +0.338 C 
ATOM      2  O   LIG    1       23.232 -29.814   5.783  0.00  0.00    -0.245 OA
ENDROOT
BRANCH   1   5
ATOM      3  C   LIG    1       26.392 -31.656   8.788  0.00  0.00    +0.065 C 
ATOM      4  C   LIG    1       25.240 -30.822   8.222  0.00  0.00    +0.096 C 
ATOM      5  C   LIG    1       25.142 -30.902   6.692  0.00  0.00    +0.065 C 
ATOM      6  C   LIG    1       25.696 -31.952   6.034  0.00  0.00    +0.016 C 
ATOM      7  C   LIG    1       25.565 -32.240   4.561  0.00  0.00    +0.061 C 
ATOM      8  N   LIG    1       26.449 -32.876   6.748  0.00  0.00    -0.321 N 
ATOM      9  H   LIG    1       26.957 -33.568   6.199  0.00  0.00    +0.152 HD
ATOM     10  C   LIG    1       26.914 -32.679   8.034  0.00  0.00    +0.016 C 
ATOM     11  C   LIG    1       28.007 -33.615   8.469  0.00  0.00    +0.061 C 
BRANCH   4  12
ATOM     12  C   LIG    1       23.892 -31.246   8.838  0.00  0.00    -0.029 A 
ATOM     13  C   LIG    1       23.254 -30.431   9.796  0.00  0.00    +0.088 A 
ATOM     14  C   LIG    1       22.026 -30.812  10.350  0.00  0.00    +0.273 A 
ATOM     15  C   LIG    1       21.407 -31.999   9.947  0.00  0.00    +0.084 A 
ATOM     16  C   LIG    1       22.043 -32.822   9.016  0.00  0.00    +0.007 A 
ATOM     17  C   LIG    1       23.282 -32.457   8.476  0.00  0.00    +0.005 A 
BRANCH  14  18
ATOM     18  N   LIG    1       21.396 -29.961  11.367  0.00  0.00    +0.080 N 
ATOM     19  O   LIG    1       22.093 -29.091  11.909  0.00  0.00    -0.576 OA
ATOM     20  O   LIG    1       20.202 -30.167  11.633  0.00  0.00    +0.041 OA
ENDBRANCH  14  18
ENDBRANCH   4  12
BRANCH   3  21
ATOM     21  C   LIG    1       26.956 -31.145  10.079  0.00  0.00    +0.337 C 
ATOM     22  O   LIG    1       27.896 -30.358  10.179  0.00  0.00    -0.245 OA
BRANCH  21  24
ATOM     23  C   LIG    1       25.865 -30.994  12.171  0.00  0.00    +0.280 C 
ATOM     24  O   LIG    1       26.333 -31.794  11.086  0.00  0.00    -0.465 OA
ENDBRANCH  21  24
ENDBRANCH   3  21
ENDBRANCH   1   5
BRANCH   1  25
ATOM     25  O   LIG    1       25.215 -28.689   5.896  0.00  0.00    -0.460 OA
BRANCH  25  26
ATOM     26  C   LIG    1       25.007 -27.582   6.789  0.00  0.00    +0.247 C 
BRANCH  26  27
ATOM     27  C   LIG    1       24.609 -26.312   6.014  0.00  0.00    +0.125 C 
BRANCH  27  28
ATOM     28  N   LIG    1       24.279 -25.154   6.870  0.00  0.00    -0.297 NA
ATOM     29  C   LIG    1       25.500 -24.470   7.347  0.00  0.00    +0.100 C 
ATOM     30  C   LIG    1       26.247 -23.657   6.257  0.00  0.00    +0.100 C 
ATOM     31  N   LIG    1       25.433 -22.660   5.522  0.00  0.00    -0.289 NA
ATOM     32  C   LIG    1       24.153 -23.304   5.124  0.00  0.00    +0.100 C 
ATOM     33  C   LIG    1       23.431 -24.153   6.201  0.00  0.00    +0.100 C 
BRANCH  31  34
ATOM     34  C   LIG    1       25.231 -21.385   6.271  0.00  0.00    +0.117 C 
BRANCH  34  35
ATOM     35  C   LIG    1       24.342 -20.389   5.489  0.00  0.00    -0.026 A 
ATOM     36  C   LIG    1       24.774 -19.779   4.295  0.00  0.00    +0.005 A 
ATOM     37  C   LIG    1       23.939 -18.918   3.577  0.00  0.00    +0.000 A 
ATOM     38  C   LIG    1       22.649 -18.663   4.031  0.00  0.00    +0.000 A 
ATOM     39  C   LIG    1       22.197 -19.264   5.203  0.00  0.00    +0.000 A 
ATOM     40  C   LIG    1       23.036 -20.116   5.930  0.00  0.00    +0.005 A 
ENDBRANCH  34  35
BRANCH  34  41
ATOM     41  C   LIG    1       26.541 -20.689   6.709  0.00  0.00    -0.026 A 
ATOM     42  C   LIG    1       27.465 -20.254   5.741  0.00  0.00    +0.005 A 
ATOM     43  C   LIG    1       28.707 -19.724   6.112  0.00  0.00    +0.000 A 
ATOM     44  C   LIG    1       29.058 -19.631   7.455  0.00  0.00    +0.000 A 
ATOM     45  C   LIG    1       28.144 -20.017   8.431  0.00  0.00    +0.000 A 
ATOM     46  C   LIG    1       26.889 -20.516   8.062  0.00  0.00    +0.005 A 
ENDBRANCH  34  41
ENDBRANCH  31  34
ENDBRANCH  27  28
ENDBRANCH  26  27
ENDBRANCH  25  26
ENDBRANCH   1  25
TORSDOF 12
ENDMDL
MODEL 3
REMARK VINA RESULT:      -8.7      1.916      3.073
REMARK  Name = *****
REMARK                            x       y       z     vdW  Elec       q    Type
REMARK                         _______ _______ _______ _____ _____    ______ ____
ROOT
ATOM      1  C   LIG    1       24.487 -29.598   8.414  0.00  0.00    +0.338 C 
ATOM      2  O   LIG    1       23.635 -30.136   7.717  0.00  0.00    -0.245 OA
ENDROOT
BRANCH   1   5
ATOM      3  C   LIG    1       24.005 -29.711  12.226  0.00  0.00    +0.065 C 
ATOM      4  C   LIG    1       23.581 -29.790  10.758  0.00  0.00    +0.096 C 
ATOM      5  C   LIG    1       24.765 -30.021   9.807  0.00  0.00    +0.065 C 
ATOM      6  C   LIG    1       25.915 -30.563  10.282  0.00  0.00    +0.016 C 
ATOM      7  C   LIG    1       27.105 -30.975   9.455  0.00  0.00    +0.061 C 
ATOM      8  N   LIG    1       26.044 -30.786  11.648  0.00  0.00    -0.321 N 
ATOM      9  H   LIG    1       26.968 -31.065  11.976  0.00  0.00    +0.152 HD
ATOM     10  C   LIG    1       25.206 -30.257  12.609  0.00  0.00    +0.016 C 
ATOM     11  C   LIG    1       25.735 -30.304  14.015  0.00  0.00    +0.061 C 
BRANCH   4  12
ATOM     12  C   LIG    1       22.534 -30.899  10.540  0.00  0.00    -0.029 A 
ATOM     13  C   LIG    1       21.157 -30.612  10.628  0.00  0.00    +0.088 A 
ATOM     14  C   LIG    1       20.204 -31.619  10.423  0.00  0.00    +0.273 A 
ATOM     15  C   LIG    1       20.609 -32.920  10.112  0.00  0.00    +0.084 A 
ATOM     16  C   LIG    1       21.970 -33.218  10.045  0.00  0.00    +0.007 A 
ATOM     17  C   LIG    1       22.926 -32.220  10.272  0.00  0.00    +0.005 A 
BRANCH  14  18
ATOM     18  N   LIG    1       18.777 -31.301  10.549  0.00  0.00    +0.080 N 
ATOM     19  O   LIG    1       18.144 -31.053   9.512  0.00  0.00    -0.576 OA
ATOM     20  O   LIG    1       18.285 -31.288  11.688  0.00  0.00    +0.041 OA
ENDBRANCH  14  18
ENDBRANCH   4  12
BRANCH   3  21
ATOM     21  C   LIG    1       23.111 -28.872  13.089  0.00  0.00    +0.337 C 
ATOM     22  O   LIG    1       22.165 -29.296  13.751  0.00  0.00    -0.245 OA
BRANCH  21  24
ATOM     23  C   LIG    1       22.502 -26.597  13.300  0.00  0.00    +0.280 C 
ATOM     24  O   LIG    1       23.459 -27.580  12.908  0.00  0.00    -0.465 OA
ENDBRANCH  21  24
ENDBRANCH   3  21
ENDBRANCH   1   5
BRANCH   1  25
ATOM     25  O   LIG    1       25.300 -28.601   8.009  0.00  0.00    -0.460 OA
BRANCH  25  26
ATOM     26  C   LIG    1       25.147 -28.188   6.641  0.00  0.00    +0.247 C 
BRANCH  26  27
ATOM     27  C   LIG    1       24.536 -26.778   6.553  0.00  0.00    +0.125 C 
BRANCH  27  28
ATOM     28  N   LIG    1       25.246 -25.862   5.636  0.00  0.00    -0.297 NA
ATOM     29  C   LIG    1       24.316 -24.898   5.009  0.00  0.00    +0.100 C 
ATOM     30  C   LIG    1       23.795 -23.795   5.968  0.00  0.00    +0.100 C 
ATOM     31  N   LIG    1       24.834 -23.016   6.683  0.00  0.00    -0.289 NA
ATOM     32  C   LIG    1       25.836 -23.968   7.233  0.00  0.00    +0.100 C 
ATOM     33  C   LIG    1       26.321 -25.096   6.288  0.00  0.00    +0.100 C 
BRANCH  31  34
ATOM     34  C   LIG    1       25.450 -21.940   5.853  0.00  0.00    +0.117 C 
BRANCH  34  35
ATOM     35  C   LIG    1       26.567 -21.189   6.616  0.00  0.00    -0.026 A 
ATOM     36  C   LIG    1       27.716 -20.697   5.966  0.00  0.00    +0.005 A 
ATOM     37  C   LIG    1       28.693 -19.980   6.664  0.00  0.00    +0.000 A 
ATOM     38  C   LIG    1       28.532 -19.727   8.021  0.00  0.00    +0.000 A 
ATOM     39  C   LIG    1       27.397 -20.194   8.682  0.00  0.00    +0.000 A 
ATOM     40  C   LIG    1       26.425 -20.923   7.989  0.00  0.00    +0.005 A 
ENDBRANCH  34  35
BRANCH  34  41
ATOM     41  C   LIG    1       24.439 -20.927   5.267  0.00  0.00    -0.026 A 
ATOM     42  C   LIG    1       24.687 -20.327   4.019  0.00  0.00    +0.005 A 
ATOM     43  C   LIG    1       23.847 -19.323   3.518  0.00  0.00    +0.000 A 
ATOM     44  C   LIG    1       22.753 -18.889   4.259  0.00  0.00    +0.000 A 
ATOM     45  C   LIG    1       22.465 -19.497   5.478  0.00  0.00    +0.000 A 
ATOM     46  C   LIG    1       23.285 -20.522   5.964  0.00  0.00    +0.005 A 
ENDBRANCH  34  41
ENDBRANCH  31  34
ENDBRANCH  27  28
ENDBRANCH  26  27
ENDBRANCH  25  26
ENDBRANCH   1  25
TORSDOF 12
ENDMDL
MODEL 4
REMARK VINA RESULT:      -8.7      2.759      4.023
REMARK  Name = *****
REMARK                            x       y       z     vdW  Elec       q    Type
REMARK                         _______ _______ _______ _____ _____    ______ ____
ROOT
ATOM      1  C   LIG    1       25.892 -28.887   9.457  0.00  0.00    +0.338 C 
ATOM      2  O   LIG    1       27.035 -28.452   9.526  0.00  0.00    -0.245 OA
ENDROOT
BRANCH   1   5
ATOM      3  C   LIG    1       25.720 -30.751  12.815  0.00  0.00    +0.065 C 
ATOM      4  C   LIG    1       25.876 -29.541  11.891  0.00  0.00    +0.096 C 
ATOM      5  C   LIG    1       25.317 -29.791  10.482  0.00  0.00    +0.065 C 
ATOM      6  C   LIG    1       24.392 -30.765  10.287  0.00  0.00    +0.016 C 
ATOM      7  C   LIG    1       23.654 -31.037   9.002  0.00  0.00    +0.061 C 
ATOM      8  N   LIG    1       24.058 -31.602  11.344  0.00  0.00    -0.321 N 
ATOM      9  H   LIG    1       23.465 -32.400  11.120  0.00  0.00    +0.152 HD
ATOM     10  C   LIG    1       24.780 -31.708  12.517  0.00  0.00    +0.016 C 
ATOM     11  C   LIG    1       24.474 -32.921  13.350  0.00  0.00    +0.061 C 
BRANCH   4  12
ATOM     12  C   LIG    1       25.198 -28.294  12.489  0.00  0.00    -0.029 A 
ATOM     13  C   LIG    1       25.954 -27.142  12.788  0.00  0.00    +0.088 A 
ATOM     14  C   LIG    1       25.338 -26.004  13.325  0.00  0.00    +0.273 A 
ATOM     15  C   LIG    1       23.959 -25.991  13.557  0.00  0.00    +0.084 A 
ATOM     16  C   LIG    1       23.208 -27.136  13.285  0.00  0.00    +0.007 A 
ATOM     17  C   LIG    1       23.823 -28.283  12.769  0.00  0.00    +0.005 A 
BRANCH  14  18
ATOM     18  N   LIG    1       26.151 -24.828  13.655  0.00  0.00    +0.080 N 
ATOM     19  O   LIG    1       27.369 -24.882  13.429  0.00  0.00    -0.576 OA
ATOM     20  O   LIG    1       25.575 -23.847  14.150  0.00  0.00    +0.041 OA
ENDBRANCH  14  18
ENDBRANCH   4  12
BRANCH   3  21
ATOM     21  C   LIG    1       26.757 -30.851  13.892  0.00  0.00    +0.337 C 
ATOM     22  O   LIG    1       26.535 -31.156  15.063  0.00  0.00    -0.245 OA
BRANCH  21  24
ATOM     23  C   LIG    1       28.883 -29.895  14.289  0.00  0.00    +0.280 C 
ATOM     24  O   LIG    1       27.932 -30.434  13.372  0.00  0.00    -0.465 OA
ENDBRANCH  21  24
ENDBRANCH   3  21
ENDBRANCH   1   5
BRANCH   1  25
ATOM     25  O   LIG    1       25.004 -28.581   8.490  0.00  0.00    -0.460 OA
BRANCH  25  26
ATOM     26  C   LIG    1       25.568 -28.145   7.241  0.00  0.00    +0.247 C 
BRANCH  26  27
ATOM     27  C   LIG    1       24.684 -27.073   6.579  0.00  0.00    +0.125 C 
BRANCH  27  28
ATOM     28  N   LIG    1       25.420 -26.122   5.720  0.00  0.00    -0.297 NA
ATOM     29  C   LIG    1       24.498 -25.194   5.029  0.00  0.00    +0.100 C 
ATOM     30  C   LIG    1       23.862 -24.120   5.950  0.00  0.00    +0.100 C 
ATOM     31  N   LIG    1       24.811 -23.302   6.742  0.00  0.00    -0.289 NA
ATOM     32  C   LIG    1       25.810 -24.214   7.361  0.00  0.00    +0.100 C 
ATOM     33  C   LIG    1       26.410 -25.315   6.451  0.00  0.00    +0.100 C 
BRANCH  31  34
ATOM     34  C   LIG    1       25.441 -22.196   5.962  0.00  0.00    +0.117 C 
BRANCH  34  35
ATOM     35  C   LIG    1       26.522 -21.454   6.782  0.00  0.00    -0.026 A 
ATOM     36  C   LIG    1       27.850 -21.328   6.328  0.00  0.00    +0.005 A 
ATOM     37  C   LIG    1       28.802 -20.613   7.060  0.00  0.00    +0.000 A 
ATOM     38  C   LIG    1       28.443 -19.998   8.254  0.00  0.00    +0.000 A 
ATOM     39  C   LIG    1       27.132 -20.100   8.717  0.00  0.00    +0.000 A 
ATOM     40  C   LIG    1       26.181 -20.825   7.992  0.00  0.00    +0.005 A 
ENDBRANCH  34  35
BRANCH  34  41
ATOM     41  C   LIG    1       24.436 -21.178   5.373  0.00  0.00    -0.026 A 
ATOM     42  C   LIG    1       24.707 -20.556   4.140  0.00  0.00    +0.005 A 
ATOM     43  C   LIG    1       23.872 -19.549   3.638  0.00  0.00    +0.000 A 
ATOM     44  C   LIG    1       22.760 -19.133   4.364  0.00  0.00    +0.000 A 
ATOM     45  C   LIG    1       22.450 -19.763   5.566  0.00  0.00    +0.000 A 
ATOM     46  C   LIG    1       23.265 -20.792   6.052  0.00  0.00    +0.005 A 
ENDBRANCH  34  41
ENDBRANCH  31  34
ENDBRANCH  27  28
ENDBRANCH  26  27
ENDBRANCH  25  26
ENDBRANCH   1  25
TORSDOF 12
ENDMDL
MODEL 5
REMARK VINA RESULT:      -8.5      1.378      1.973
REMARK  Name = *****
REMARK                            x       y       z     vdW  Elec       q    Type
REMARK                         _______ _______ _______ _____ _____    ______ ____
ROOT
ATOM      1  C   LIG    1       23.955 -30.364   6.819  0.00  0.00    +0.338 C 
ATOM      2  O   LIG    1       23.475 -31.262   6.139  0.00  0.00    -0.245 OA
ENDROOT
BRANCH   1   5
ATOM      3  C   LIG    1       25.624 -29.879  10.249  0.00  0.00    +0.065 C 
ATOM      4  C   LIG    1       24.467 -30.111   9.274  0.00  0.00    +0.096 C 
ATOM      5  C   LIG    1       24.935 -30.619   7.903  0.00  0.00    +0.065 C 
ATOM      6  C   LIG    1       26.142 -31.229   7.786  0.00  0.00    +0.016 C 
ATOM      7  C   LIG    1       26.677 -31.898   6.547  0.00  0.00    +0.061 C 
ATOM      8  N   LIG    1       26.988 -31.272   8.888  0.00  0.00    -0.321 N 
ATOM      9  H   LIG    1       27.932 -31.616   8.721  0.00  0.00    +0.152 HD
ATOM     10  C   LIG    1       26.824 -30.512  10.030  0.00  0.00    +0.016 C 
ATOM     11  C   LIG    1       28.032 -30.427  10.920  0.00  0.00    +0.061 C 
BRANCH   4  12
ATOM     12  C   LIG    1       23.439 -31.100   9.856  0.00  0.00    -0.029 A 
ATOM     13  C   LIG    1       22.105 -30.700  10.077  0.00  0.00    +0.088 A 
ATOM     14  C   LIG    1       21.168 -31.601  10.599  0.00  0.00    +0.273 A 
ATOM     15  C   LIG    1       21.541 -32.916  10.893  0.00  0.00    +0.084 A 
ATOM     16  C   LIG    1       22.865 -33.313  10.699  0.00  0.00    +0.007 A 
ATOM     17  C   LIG    1       23.810 -32.409  10.198  0.00  0.00    +0.005 A 
BRANCH  14  18
ATOM     18  N   LIG    1       19.793 -31.152  10.846  0.00  0.00    +0.080 N 
ATOM     19  O   LIG    1       19.068 -30.931   9.864  0.00  0.00    -0.576 OA
ATOM     20  O   LIG    1       19.434 -31.010  12.025  0.00  0.00    +0.041 OA
ENDBRANCH  14  18
ENDBRANCH   4  12
BRANCH   3  21
ATOM     21  C   LIG    1       25.369 -28.823  11.281  0.00  0.00    +0.337 C 
ATOM     22  O   LIG    1       24.424 -28.814  12.068  0.00  0.00    -0.245 OA
BRANCH  21  24
ATOM     23  C   LIG    1       26.609 -27.055  12.246  0.00  0.00    +0.280 C 
ATOM     24  O   LIG    1       26.284 -27.845  11.103  0.00  0.00    -0.465 OA
ENDBRANCH  21  24
ENDBRANCH   3  21
ENDBRANCH   1   5
BRANCH   1  25
ATOM     25  O   LIG    1       23.704 -29.050   6.655  0.00  0.00    -0.460 OA
BRANCH  25  26
ATOM     26  C   LIG    1       24.810 -28.256   6.194  0.00  0.00    +0.247 C 
BRANCH  26  27
ATOM     27  C   LIG    1       24.598 -26.767   6.522  0.00  0.00    +0.125 C 
BRANCH  27  28
ATOM     28  N   LIG    1       25.308 -25.837   5.620  0.00  0.00    -0.297 NA
ATOM     29  C   LIG    1       24.372 -24.888   4.979  0.00  0.00    +0.100 C 
ATOM     30  C   LIG    1       23.816 -23.796   5.931  0.00  0.00    +0.100 C 
ATOM     31  N   LIG    1       24.829 -23.000   6.666  0.00  0.00    -0.289 NA
ATOM     32  C   LIG    1       25.837 -23.936   7.230  0.00  0.00    +0.100 C 
ATOM     33  C   LIG    1       26.358 -25.054   6.292  0.00  0.00    +0.100 C 
BRANCH  31  34
ATOM     34  C   LIG    1       25.441 -21.912   5.848  0.00  0.00    +0.117 C 
BRANCH  34  35
ATOM     35  C   LIG    1       26.543 -21.155   6.627  0.00  0.00    -0.026 A 
ATOM     36  C   LIG    1       27.722 -20.702   6.003  0.00  0.00    +0.005 A 
ATOM     37  C   LIG    1       28.685 -19.978   6.712  0.00  0.00    +0.000 A 
ATOM     38  C   LIG    1       28.481 -19.679   8.054  0.00  0.00    +0.000 A 
ATOM     39  C   LIG    1       27.316 -20.107   8.689  0.00  0.00    +0.000 A 
ATOM     40  C   LIG    1       26.357 -20.843   7.984  0.00  0.00    +0.005 A 
ENDBRANCH  34  35
BRANCH  34  41
ATOM     41  C   LIG    1       24.424 -20.906   5.261  0.00  0.00    -0.026 A 
ATOM     42  C   LIG    1       24.669 -20.307   4.011  0.00  0.00    +0.005 A 
ATOM     43  C   LIG    1       23.824 -19.310   3.508  0.00  0.00    +0.000 A 
ATOM     44  C   LIG    1       22.727 -18.880   4.248  0.00  0.00    +0.000 A 
ATOM     45  C   LIG    1       22.443 -19.486   5.469  0.00  0.00    +0.000 A 
ATOM     46  C   LIG    1       23.268 -20.506   5.957  0.00  0.00    +0.005 A 
ENDBRANCH  34  41
ENDBRANCH  31  34
ENDBRANCH  27  28
ENDBRANCH  26  27
ENDBRANCH  25  26
ENDBRANCH   1  25
TORSDOF 12
ENDMDL
MODEL 6
REMARK VINA RESULT:      -8.4      2.140      3.399
REMARK  Name = *****
REMARK                            x       y       z     vdW  Elec       q    Type
REMARK                         _______ _______ _______ _____ _____    ______ ____
ROOT
ATOM      1  C   LIG    1       25.870 -28.839   9.432  0.00  0.00    +0.338 C 
ATOM      2  O   LIG    1       26.935 -28.262   9.613  0.00  0.00    -0.245 OA
ENDROOT
BRANCH   1   5
ATOM      3  C   LIG    1       25.681 -30.882  12.684  0.00  0.00    +0.065 C 
ATOM      4  C   LIG    1       25.723 -29.615  11.826  0.00  0.00    +0.096 C 
ATOM      5  C   LIG    1       25.355 -29.877  10.358  0.00  0.00    +0.065 C 
ATOM      6  C   LIG    1       24.629 -30.976  10.030  0.00  0.00    +0.016 C 
ATOM      7  C   LIG    1       24.076 -31.294   8.665  0.00  0.00    +0.061 C 
ATOM      8  N   LIG    1       24.336 -31.911  11.015  0.00  0.00    -0.321 N 
ATOM      9  H   LIG    1       23.909 -32.782  10.701  0.00  0.00    +0.152 HD
ATOM     10  C   LIG    1       24.947 -31.961  12.253  0.00  0.00    +0.016 C 
ATOM     11  C   LIG    1       24.766 -33.250  13.004  0.00  0.00    +0.061 C 
BRANCH   4  12
ATOM     12  C   LIG    1       24.792 -28.528  12.394  0.00  0.00    -0.029 A 
ATOM     13  C   LIG    1       23.392 -28.684  12.343  0.00  0.00    +0.088 A 
ATOM     14  C   LIG    1       22.545 -27.699  12.867  0.00  0.00    +0.273 A 
ATOM     15  C   LIG    1       23.079 -26.553  13.463  0.00  0.00    +0.084 A 
ATOM     16  C   LIG    1       24.464 -26.380  13.498  0.00  0.00    +0.007 A 
ATOM     17  C   LIG    1       25.314 -27.352  12.955  0.00  0.00    +0.005 A 
BRANCH  14  18
ATOM     18  N   LIG    1       21.091 -27.872  12.775  0.00  0.00    +0.080 N 
ATOM     19  O   LIG    1       20.653 -29.015  12.578  0.00  0.00    -0.576 OA
ATOM     20  O   LIG    1       20.380 -26.861  12.891  0.00  0.00    +0.041 OA
ENDBRANCH  14  18
ENDBRANCH   4  12
BRANCH   3  21
ATOM     21  C   LIG    1       26.609 -30.871  13.860  0.00  0.00    +0.337 C 
ATOM     22  O   LIG    1       26.267 -31.004  15.034  0.00  0.00    -0.245 OA
BRANCH  21  24
ATOM     23  C   LIG    1       28.483 -29.433  13.986  0.00  0.00    +0.280 C 
ATOM     24  O   LIG    1       27.845 -30.570  13.406  0.00  0.00    -0.465 OA
ENDBRANCH  21  24
ENDBRANCH   3  21
ENDBRANCH   1   5
BRANCH   1  25
ATOM     25  O   LIG    1       25.016 -28.588   8.420  0.00  0.00    -0.460 OA
BRANCH  25  26
ATOM     26  C   LIG    1       25.607 -28.045   7.226  0.00  0.00    +0.247 C 
BRANCH  26  27
ATOM     27  C   LIG    1       24.685 -26.995   6.581  0.00  0.00    +0.125 C 
BRANCH  27  28
ATOM     28  N   LIG    1       25.377 -26.047   5.683  0.00  0.00    -0.297 NA
ATOM     29  C   LIG    1       24.425 -25.100   5.061  0.00  0.00    +0.100 C 
ATOM     30  C   LIG    1       23.866 -24.026   6.031  0.00  0.00    +0.100 C 
ATOM     31  N   LIG    1       24.877 -23.228   6.765  0.00  0.00    -0.289 NA
ATOM     32  C   LIG    1       25.900 -24.159   7.311  0.00  0.00    +0.100 C 
ATOM     33  C   LIG    1       26.425 -25.260   6.355  0.00  0.00    +0.100 C 
BRANCH  31  34
ATOM     34  C   LIG    1       25.470 -22.124   5.955  0.00  0.00    +0.117 C 
BRANCH  34  35
ATOM     35  C   LIG    1       26.556 -21.350   6.740  0.00  0.00    -0.026 A 
ATOM     36  C   LIG    1       27.802 -21.025   6.170  0.00  0.00    +0.005 A 
ATOM     37  C   LIG    1       28.753 -20.284   6.878  0.00  0.00    +0.000 A 
ATOM     38  C   LIG    1       28.470 -19.840   8.165  0.00  0.00    +0.000 A 
ATOM     39  C   LIG    1       27.238 -20.140   8.745  0.00  0.00    +0.000 A 
ATOM     40  C   LIG    1       26.291 -20.892   8.043  0.00  0.00    +0.005 A 
ENDBRANCH  34  35
BRANCH  34  41
ATOM     41  C   LIG    1       24.436 -21.133   5.371  0.00  0.00    -0.026 A 
ATOM     42  C   LIG    1       24.598 -20.636   4.065  0.00  0.00    +0.005 A 
ATOM     43  C   LIG    1       23.741 -19.653   3.552  0.00  0.00    +0.000 A 
ATOM     44  C   LIG    1       22.715 -19.138   4.339  0.00  0.00    +0.000 A 
ATOM     45  C   LIG    1       22.510 -19.645   5.619  0.00  0.00    +0.000 A 
ATOM     46  C   LIG    1       23.346 -20.650   6.120  0.00  0.00    +0.005 A 
ENDBRANCH  34  41
ENDBRANCH  31  34
ENDBRANCH  27  28
ENDBRANCH  26  27
ENDBRANCH  25  26
ENDBRANCH   1  25
TORSDOF 12
ENDMDL
MODEL 7
REMARK VINA RESULT:      -8.4      1.818      4.290
REMARK  Name = *****
REMARK                            x       y       z     vdW  Elec       q    Type
REMARK                         _______ _______ _______ _____ _____    ______ ____
ROOT
ATOM      1  C   LIG    1       26.003 -28.809   8.904  0.00  0.00    +0.338 C 
ATOM      2  O   LIG    1       27.040 -28.178   9.063  0.00  0.00    -0.245 OA
ENDROOT
BRANCH   1   5
ATOM      3  C   LIG    1       24.044 -31.959   9.915  0.00  0.00    +0.065 C 
ATOM      4  C   LIG    1       24.875 -31.062   8.995  0.00  0.00    +0.096 C 
ATOM      5  C   LIG    1       25.629 -29.963   9.758  0.00  0.00    +0.065 C 
ATOM      6  C   LIG    1       25.885 -30.115  11.082  0.00  0.00    +0.016 C 
ATOM      7  C   LIG    1       26.728 -29.198  11.930  0.00  0.00    +0.061 C 
ATOM      8  N   LIG    1       25.351 -31.209  11.753  0.00  0.00    -0.321 N 
ATOM      9  H   LIG    1       25.453 -31.212  12.767  0.00  0.00    +0.152 HD
ATOM     10  C   LIG    1       24.354 -32.023  11.252  0.00  0.00    +0.016 C 
ATOM     11  C   LIG    1       23.668 -32.892  12.268  0.00  0.00    +0.061 C 
BRANCH   4  12
ATOM     12  C   LIG    1       25.882 -31.889   8.173  0.00  0.00    -0.029 A 
ATOM     13  C   LIG    1       25.794 -31.932   6.766  0.00  0.00    +0.088 A 
ATOM     14  C   LIG    1       26.714 -32.678   6.018  0.00  0.00    +0.273 A 
ATOM     15  C   LIG    1       27.742 -33.377   6.656  0.00  0.00    +0.084 A 
ATOM     16  C   LIG    1       27.822 -33.357   8.049  0.00  0.00    +0.007 A 
ATOM     17  C   LIG    1       26.892 -32.632   8.803  0.00  0.00    +0.005 A 
BRANCH  14  18
ATOM     18  N   LIG    1       26.584 -32.730   4.557  0.00  0.00    +0.080 N 
ATOM     19  O   LIG    1       27.249 -33.578   3.944  0.00  0.00    -0.576 OA
ATOM     20  O   LIG    1       25.821 -31.915   4.015  0.00  0.00    +0.041 OA
ENDBRANCH  14  18
ENDBRANCH   4  12
BRANCH   3  21
ATOM     21  C   LIG    1       22.836 -32.567   9.269  0.00  0.00    +0.337 C 
ATOM     22  O   LIG    1       22.837 -33.587   8.581  0.00  0.00    -0.245 OA
BRANCH  21  24
ATOM     23  C   LIG    1       20.693 -32.256  10.220  0.00  0.00    +0.280 C 
ATOM     24  O   LIG    1       21.794 -31.733   9.479  0.00  0.00    -0.465 OA
ENDBRANCH  21  24
ENDBRANCH   3  21
ENDBRANCH   1   5
BRANCH   1  25
ATOM     25  O   LIG    1       25.058 -28.527   7.984  0.00  0.00    -0.460 OA
BRANCH  25  26
ATOM     26  C   LIG    1       25.528 -27.886   6.786  0.00  0.00    +0.247 C 
BRANCH  26  27
ATOM     27  C   LIG    1       24.845 -26.520   6.585  0.00  0.00    +0.125 C 
BRANCH  27  28
ATOM     28  N   LIG    1       25.597 -25.584   5.725  0.00  0.00    -0.297 NA
ATOM     29  C   LIG    1       24.686 -24.719   4.943  0.00  0.00    +0.100 C 
ATOM     30  C   LIG    1       23.966 -23.628   5.778  0.00  0.00    +0.100 C 
ATOM     31  N   LIG    1       24.842 -22.744   6.583  0.00  0.00    -0.289 NA
ATOM     32  C   LIG    1       25.833 -23.594   7.296  0.00  0.00    +0.100 C 
ATOM     33  C   LIG    1       26.519 -24.712   6.472  0.00  0.00    +0.100 C 
BRANCH  31  34
ATOM     34  C   LIG    1       25.479 -21.652   5.789  0.00  0.00    +0.117 C 
BRANCH  34  35
ATOM     35  C   LIG    1       26.632 -20.971   6.565  0.00  0.00    -0.026 A 
ATOM     36  C   LIG    1       26.535 -20.674   7.938  0.00  0.00    +0.005 A 
ATOM     37  C   LIG    1       27.604 -20.101   8.633  0.00  0.00    +0.000 A 
ATOM     38  C   LIG    1       28.796 -19.827   7.972  0.00  0.00    +0.000 A 
ATOM     39  C   LIG    1       28.918 -20.123   6.615  0.00  0.00    +0.000 A 
ATOM     40  C   LIG    1       27.845 -20.685   5.915  0.00  0.00    +0.005 A 
ENDBRANCH  34  35
BRANCH  34  41
ATOM     41  C   LIG    1       24.491 -20.583   5.267  0.00  0.00    -0.026 A 
ATOM     42  C   LIG    1       23.275 -20.361   5.940  0.00  0.00    +0.005 A 
ATOM     43  C   LIG    1       22.313 -19.481   5.426  0.00  0.00    +0.000 A 
ATOM     44  C   LIG    1       22.541 -18.818   4.224  0.00  0.00    +0.000 A 
ATOM     45  C   LIG    1       23.753 -18.991   3.563  0.00  0.00    +0.000 A 
ATOM     46  C   LIG    1       24.728 -19.845   4.092  0.00  0.00    +0.005 A 
ENDBRANCH  34  41
ENDBRANCH  31  34
ENDBRANCH  27  28
ENDBRANCH  26  27
ENDBRANCH  25  26
ENDBRANCH   1  25
TORSDOF 12
ENDMDL
MODEL 8
REMARK VINA RESULT:      -7.4      1.410      3.297
REMARK  Name = *****
REMARK                            x       y       z     vdW  Elec       q    Type
REMARK                         _______ _______ _______ _____ _____    ______ ____
ROOT
ATOM      1  C   LIG    1       24.581 -29.014   6.736  0.00  0.00    +0.338 C 
ATOM      2  O   LIG    1       23.557 -29.028   6.062  0.00  0.00    -0.245 OA
ENDROOT
BRANCH   1   5
ATOM      3  C   LIG    1       26.469 -31.211   9.264  0.00  0.00    +0.065 C 
ATOM      4  C   LIG    1       25.385 -30.242   8.784  0.00  0.00    +0.096 C 
ATOM      5  C   LIG    1       25.211 -30.250   7.259  0.00  0.00    +0.065 C 
ATOM      6  C   LIG    1       25.623 -31.324   6.538  0.00  0.00    +0.016 C 
ATOM      7  C   LIG    1       25.398 -31.538   5.064  0.00  0.00    +0.061 C 
ATOM      8  N   LIG    1       26.309 -32.347   7.182  0.00  0.00    -0.321 N 
ATOM      9  H   LIG    1       26.717 -33.065   6.585  0.00  0.00    +0.152 HD
ATOM     10  C   LIG    1       26.849 -32.250   8.450  0.00  0.00    +0.016 C 
ATOM     11  C   LIG    1       27.857 -33.309   8.798  0.00  0.00    +0.061 C 
BRANCH   4  12
ATOM     12  C   LIG    1       24.030 -30.551   9.449  0.00  0.00    -0.029 A 
ATOM     13  C   LIG    1       23.286 -31.687   9.067  0.00  0.00    +0.088 A 
ATOM     14  C   LIG    1       22.058 -31.972   9.676  0.00  0.00    +0.273 A 
ATOM     15  C   LIG    1       21.560 -31.142  10.685  0.00  0.00    +0.084 A 
ATOM     16  C   LIG    1       22.279 -30.004  11.053  0.00  0.00    +0.007 A 
ATOM     17  C   LIG    1       23.497 -29.702  10.431  0.00  0.00    +0.005 A 
BRANCH  14  18
ATOM     18  N   LIG    1       21.289 -33.144   9.241  0.00  0.00    +0.080 N 
ATOM     19  O   LIG    1       20.233 -33.401   9.837  0.00  0.00    -0.576 OA
ATOM     20  O   LIG    1       21.745 -33.819   8.305  0.00  0.00    +0.041 OA
ENDBRANCH  14  18
ENDBRANCH   4  12
BRANCH   3  21
ATOM     21  C   LIG    1       27.140 -30.812  10.543  0.00  0.00    +0.337 C 
ATOM     22  O   LIG    1       28.195 -30.185  10.624  0.00  0.00    -0.245 OA
BRANCH  21  24
ATOM     23  C   LIG    1       26.331 -30.591  12.754  0.00  0.00    +0.280 C 
ATOM     24  O   LIG    1       26.447 -31.366  11.561  0.00  0.00    -0.465 OA
ENDBRANCH  21  24
ENDBRANCH   3  21
ENDBRANCH   1   5
BRANCH   1  25
ATOM     25  O   LIG    1       25.284 -27.908   7.050  0.00  0.00    -0.460 OA
BRANCH  25  26
ATOM     26  C   LIG    1       25.340 -26.894   6.032  0.00  0.00    +0.247 C 
BRANCH  26  27
ATOM     27  C   LIG    1       24.665 -25.595   6.507  0.00  0.00    +0.125 C 
BRANCH  27  28
ATOM     28  N   LIG    1       25.246 -24.362   5.937  0.00  0.00    -0.297 NA
ATOM     29  C   LIG    1       24.194 -23.397   5.552  0.00  0.00    +0.100 C 
ATOM     30  C   LIG    1       23.492 -22.705   6.750  0.00  0.00    +0.100 C 
ATOM     31  N   LIG    1       24.385 -22.030   7.723  0.00  0.00    -0.289 NA
ATOM     32  C   LIG    1       25.508 -22.952   8.041  0.00  0.00    +0.100 C 
ATOM     33  C   LIG    1       26.179 -23.677   6.848  0.00  0.00    +0.100 C 
BRANCH  31  34
ATOM     34  C   LIG    1       24.848 -20.684   7.274  0.00  0.00    +0.117 C 
BRANCH  34  35
ATOM     35  C   LIG    1       24.151 -20.239   5.967  0.00  0.00    -0.026 A 
ATOM     36  C   LIG    1       24.833 -20.187   4.736  0.00  0.00    +0.005 A 
ATOM     37  C   LIG    1       24.175 -19.827   3.556  0.00  0.00    +0.000 A 
ATOM     38  C   LIG    1       22.818 -19.527   3.582  0.00  0.00    +0.000 A 
ATOM     39  C   LIG    1       22.120 -19.583   4.787  0.00  0.00    +0.000 A 
ATOM     40  C   LIG    1       22.780 -19.930   5.971  0.00  0.00    +0.005 A 
ENDBRANCH  34  35
BRANCH  34  41
ATOM     41  C   LIG    1       26.382 -20.555   7.124  0.00  0.00    -0.026 A 
ATOM     42  C   LIG    1       27.199 -20.507   8.268  0.00  0.00    +0.005 A 
ATOM     43  C   LIG    1       28.577 -20.277   8.165  0.00  0.00    +0.000 A 
ATOM     44  C   LIG    1       29.163 -20.076   6.919  0.00  0.00    +0.000 A 
ATOM     45  C   LIG    1       28.381 -20.159   5.770  0.00  0.00    +0.000 A 
ATOM     46  C   LIG    1       27.010 -20.422   5.871  0.00  0.00    +0.005 A 
ENDBRANCH  34  41
ENDBRANCH  31  34
ENDBRANCH  27  28
ENDBRANCH  26  27
ENDBRANCH  25  26
ENDBRANCH   1  25
TORSDOF 12
ENDMDL
MODEL 9
REMARK VINA RESULT:      -7.4      1.889      4.822
REMARK  Name = *****
REMARK                            x       y       z     vdW  Elec       q    Type
REMARK                         _______ _______ _______ _____ _____    ______ ____
ROOT
ATOM      1  C   LIG    1       24.690 -28.804   7.027  0.00  0.00    +0.338 C 
ATOM      2  O   LIG    1       23.754 -29.078   6.285  0.00  0.00    -0.245 OA
ENDROOT
BRANCH   1   5
ATOM      3  C   LIG    1       24.288 -31.641   9.590  0.00  0.00    +0.065 C 
ATOM      4  C   LIG    1       24.392 -31.016   8.197  0.00  0.00    +0.096 C 
ATOM      5  C   LIG    1       25.034 -29.621   8.215  0.00  0.00    +0.065 C 
ATOM      6  C   LIG    1       25.824 -29.256   9.257  0.00  0.00    +0.016 C 
ATOM      7  C   LIG    1       26.628 -27.986   9.353  0.00  0.00    +0.061 C 
ATOM      8  N   LIG    1       25.938 -30.106  10.350  0.00  0.00    -0.321 N 
ATOM      9  H   LIG    1       26.427 -29.736  11.163  0.00  0.00    +0.152 HD
ATOM     10  C   LIG    1       25.105 -31.181  10.595  0.00  0.00    +0.016 C 
ATOM     11  C   LIG    1       25.157 -31.724  11.995  0.00  0.00    +0.061 C 
BRANCH   4  12
ATOM     12  C   LIG    1       25.185 -31.925   7.238  0.00  0.00    -0.029 A 
ATOM     13  C   LIG    1       24.620 -32.342   6.015  0.00  0.00    +0.088 A 
ATOM     14  C   LIG    1       25.343 -33.162   5.140  0.00  0.00    +0.273 A 
ATOM     15  C   LIG    1       26.643 -33.564   5.460  0.00  0.00    +0.084 A 
ATOM     16  C   LIG    1       27.201 -33.174   6.678  0.00  0.00    +0.007 A 
ATOM     17  C   LIG    1       26.473 -32.373   7.567  0.00  0.00    +0.005 A 
BRANCH  14  18
ATOM     18  N   LIG    1       24.722 -33.607   3.886  0.00  0.00    +0.080 N 
ATOM     19  O   LIG    1       23.493 -33.761   3.869  0.00  0.00    -0.576 OA
ATOM     20  O   LIG    1       25.466 -33.812   2.914  0.00  0.00    +0.041 OA
ENDBRANCH  14  18
ENDBRANCH   4  12
BRANCH   3  21
ATOM     21  C   LIG    1       23.155 -32.606   9.758  0.00  0.00    +0.337 C 
ATOM     22  O   LIG    1       23.274 -33.825   9.879  0.00  0.00    -0.245 OA
BRANCH  21  24
ATOM     23  C   LIG    1       20.792 -32.638   9.849  0.00  0.00    +0.280 C 
ATOM     24  O   LIG    1       22.002 -31.913   9.632  0.00  0.00    -0.465 OA
ENDBRANCH  21  24
ENDBRANCH   3  21
ENDBRANCH   1   5
BRANCH   1  25
ATOM     25  O   LIG    1       25.544 -27.776   6.848  0.00  0.00    -0.460 OA
BRANCH  25  26
ATOM     26  C   LIG    1       25.215 -26.871   5.781  0.00  0.00    +0.247 C 
BRANCH  26  27
ATOM     27  C   LIG    1       24.472 -25.632   6.314  0.00  0.00    +0.125 C 
BRANCH  27  28
ATOM     28  N   LIG    1       24.864 -24.362   5.670  0.00  0.00    -0.297 NA
ATOM     29  C   LIG    1       23.764 -23.374   5.710  0.00  0.00    +0.100 C 
ATOM     30  C   LIG    1       23.500 -22.768   7.114  0.00  0.00    +0.100 C 
ATOM     31  N   LIG    1       24.673 -22.161   7.788  0.00  0.00    -0.289 NA
ATOM     32  C   LIG    1       25.819 -23.101   7.665  0.00  0.00    +0.100 C 
ATOM     33  C   LIG    1       26.054 -23.740   6.274  0.00  0.00    +0.100 C 
BRANCH  31  34
ATOM     34  C   LIG    1       24.995 -20.787   7.305  0.00  0.00    +0.117 C 
BRANCH  34  35
ATOM     35  C   LIG    1       24.252 -20.447   5.991  0.00  0.00    -0.026 A 
ATOM     36  C   LIG    1       22.933 -19.953   5.984  0.00  0.00    +0.005 A 
ATOM     37  C   LIG    1       22.293 -19.608   4.790  0.00  0.00    +0.000 A 
ATOM     38  C   LIG    1       22.966 -19.735   3.580  0.00  0.00    +0.000 A 
ATOM     39  C   LIG    1       24.276 -20.210   3.564  0.00  0.00    +0.000 A 
ATOM     40  C   LIG    1       24.913 -20.569   4.757  0.00  0.00    +0.005 A 
ENDBRANCH  34  35
BRANCH  34  41
ATOM     41  C   LIG    1       26.507 -20.505   7.142  0.00  0.00    -0.026 A 
ATOM     42  C   LIG    1       27.323 -20.368   8.281  0.00  0.00    +0.005 A 
ATOM     43  C   LIG    1       28.670 -20.001   8.166  0.00  0.00    +0.000 A 
ATOM     44  C   LIG    1       29.225 -19.751   6.915  0.00  0.00    +0.000 A 
ATOM     45  C   LIG    1       28.448 -19.921   5.773  0.00  0.00    +0.000 A 
ATOM     46  C   LIG    1       27.110 -20.319   5.885  0.00  0.00    +0.005 A 
ENDBRANCH  34  41
ENDBRANCH  31  34
ENDBRANCH  27  28
ENDBRANCH  26  27
ENDBRANCH  25  26
ENDBRANCH   1  25
TORSDOF 12
ENDMDL
