MODEL 1
REMARK VINA RESULT:      -9.9      0.000      0.000
REMARK  Name = *****
REMARK                            x       y       z     vdW  Elec       q    Type
REMARK                         _______ _______ _______ _____ _____    ______ ____
ROOT
ATOM      1  C   LIG    1       26.599 -20.940   6.924  0.00  0.00    -0.016 C 
ATOM      2  C   LIG    1       25.600 -21.486   6.200  0.00  0.00    -0.011 C 
ATOM      3  C   LIG    1       25.181 -22.907   6.340  0.00  0.00    +0.024 A 
ATOM      4  C   LIG    1       23.851 -23.302   6.573  0.00  0.00    +0.129 A 
ATOM      5  C   LIG    1       23.541 -24.670   6.660  0.00  0.00    +0.046 A 
ATOM      6  C   LIG    1       24.524 -25.645   6.495  0.00  0.00    +0.004 A 
ATOM      7  C   LIG    1       25.828 -25.265   6.212  0.00  0.00    +0.001 A 
ATOM      8  O   LIG    1       22.739 -22.506   6.683  0.00  0.00    -0.487 OA
ATOM      9  C   LIG    1       22.899 -21.110   6.923  0.00  0.00    +0.265 C 
ATOM     10  C   LIG    1       23.450 -20.363   5.734  0.00  0.00    -0.003 A 
ATOM     11  C   LIG    1       22.654 -19.490   4.981  0.00  0.00    +0.007 A 
ATOM     12  C   LIG    1       23.196 -18.810   3.889  0.00  0.00    +0.000 A 
ATOM     13  C   LIG    1       24.532 -19.001   3.538  0.00  0.00    +0.001 A 
ATOM     14  C   LIG    1       25.334 -19.869   4.280  0.00  0.00    +0.009 A 
ATOM     15  C   LIG    1       26.148 -23.909   6.123  0.00  0.00    +0.012 A 
ATOM     16  C   LIG    1       24.798 -20.547   5.381  0.00  0.00    -0.011 A 
ENDROOT
BRANCH   1  17
ATOM     17  C   LIG    1       27.450 -21.586   7.997  0.00  0.00    +0.043 C 
BRANCH  17  18
ATOM     18  C   LIG    1       28.952 -21.457   7.672  0.00  0.00    +0.088 C 
BRANCH  18  20
ATOM     19  C   LIG    1       31.042 -20.983   8.772  0.00  0.00    +0.104 C 
ATOM     20  N   LIG    1       29.677 -20.498   8.532  0.00  0.00    -0.308 NA
ATOM     21  C   LIG    1       29.741 -19.163   7.928  0.00  0.00    +0.104 C 
ENDBRANCH  18  20
ENDBRANCH  17  18
ENDBRANCH   1  17
TORSDOF 3
ENDMDL
MODEL 2
REMARK VINA RESULT:      -8.6      2.470      5.042
REMARK  Name = *****
REMARK                            x       y       z     vdW  Elec       q    Type
REMARK                         _______ _______ _______ _____ _____    ______ ____
ROOT
ATOM      1  C   LIG    1       24.465 -22.791   5.585  0.00  0.00    -0.016 C 
ATOM      2  C   LIG    1       24.879 -21.528   5.817  0.00  0.00    -0.011 C 
ATOM      3  C   LIG    1       26.198 -21.207   6.426  0.00  0.00    +0.024 A 
ATOM      4  C   LIG    1       27.121 -20.315   5.850  0.00  0.00    +0.129 A 
ATOM      5  C   LIG    1       28.330 -20.046   6.514  0.00  0.00    +0.046 A 
ATOM      6  C   LIG    1       28.624 -20.630   7.745  0.00  0.00    +0.004 A 
ATOM      7  C   LIG    1       27.696 -21.470   8.345  0.00  0.00    +0.001 A 
ATOM      8  O   LIG    1       26.984 -19.585   4.696  0.00  0.00    -0.487 OA
ATOM      9  C   LIG    1       25.979 -19.950   3.753  0.00  0.00    +0.265 C 
ATOM     10  C   LIG    1       24.579 -19.656   4.233  0.00  0.00    -0.003 A 
ATOM     11  C   LIG    1       23.815 -18.621   3.681  0.00  0.00    +0.007 A 
ATOM     12  C   LIG    1       22.521 -18.378   4.145  0.00  0.00    +0.000 A 
ATOM     13  C   LIG    1       21.984 -19.162   5.165  0.00  0.00    +0.001 A 
ATOM     14  C   LIG    1       22.737 -20.197   5.723  0.00  0.00    +0.009 A 
ATOM     15  C   LIG    1       26.490 -21.744   7.696  0.00  0.00    +0.012 A 
ATOM     16  C   LIG    1       24.032 -20.449   5.256  0.00  0.00    -0.011 A 
ENDROOT
BRANCH   1  17
ATOM     17  C   LIG    1       25.202 -24.089   5.840  0.00  0.00    +0.043 C 
BRANCH  17  18
ATOM     18  C   LIG    1       24.228 -25.213   6.249  0.00  0.00    +0.088 C 
BRANCH  18  20
ATOM     19  C   LIG    1       25.664 -26.412   4.732  0.00  0.00    +0.104 C 
ATOM     20  N   LIG    1       24.425 -26.481   5.517  0.00  0.00    -0.308 NA
ATOM     21  C   LIG    1       24.496 -27.631   6.425  0.00  0.00    +0.104 C 
ENDBRANCH  18  20
ENDBRANCH  17  18
ENDBRANCH   1  17
TORSDOF 3
ENDMDL
MODEL 3
REMARK VINA RESULT:      -7.3      2.540      5.969
REMARK  Name = *****
REMARK                            x       y       z     vdW  Elec       q    Type
REMARK                         _______ _______ _______ _____ _____    ______ ____
ROOT
ATOM      1  C   LIG    1       23.765 -21.584   5.762  0.00  0.00    -0.016 C 
ATOM      2  C   LIG    1       25.027 -22.058   5.820  0.00  0.00    -0.011 C 
ATOM      3  C   LIG    1       26.214 -21.181   6.012  0.00  0.00    +0.024 A 
ATOM      4  C   LIG    1       27.179 -21.392   7.013  0.00  0.00    +0.129 A 
ATOM      5  C   LIG    1       28.286 -20.530   7.101  0.00  0.00    +0.046 A 
ATOM      6  C   LIG    1       28.458 -19.482   6.198  0.00  0.00    +0.004 A 
ATOM      7  C   LIG    1       27.538 -19.299   5.175  0.00  0.00    +0.001 A 
ATOM      8  O   LIG    1       27.230 -22.405   7.938  0.00  0.00    -0.487 OA
ATOM      9  C   LIG    1       26.060 -23.179   8.194  0.00  0.00    +0.265 C 
ATOM     10  C   LIG    1       25.692 -24.093   7.051  0.00  0.00    -0.003 A 
ATOM     11  C   LIG    1       25.851 -25.482   7.140  0.00  0.00    +0.007 A 
ATOM     12  C   LIG    1       25.496 -26.300   6.068  0.00  0.00    +0.000 A 
ATOM     13  C   LIG    1       24.986 -25.739   4.898  0.00  0.00    +0.001 A 
ATOM     14  C   LIG    1       24.824 -24.356   4.798  0.00  0.00    +0.009 A 
ATOM     15  C   LIG    1       26.435 -20.149   5.077  0.00  0.00    +0.012 A 
ATOM     16  C   LIG    1       25.171 -23.532   5.873  0.00  0.00    -0.011 A 
ENDROOT
BRANCH   1  17
ATOM     17  C   LIG    1       23.285 -20.155   5.903  0.00  0.00    +0.043 C 
BRANCH  17  18
ATOM     18  C   LIG    1       22.166 -19.840   4.889  0.00  0.00    +0.088 C 
BRANCH  18  20
ATOM     19  C   LIG    1       22.202 -17.443   4.649  0.00  0.00    +0.104 C 
ATOM     20  N   LIG    1       22.475 -18.719   3.977  0.00  0.00    -0.308 NA
ATOM     21  C   LIG    1       23.875 -18.742   3.539  0.00  0.00    +0.104 C 
ENDBRANCH  18  20
ENDBRANCH  17  18
ENDBRANCH   1  17
TORSDOF 3
ENDMDL
MODEL 4
REMARK VINA RESULT:      -6.9      2.447      5.355
REMARK  Name = *****
REMARK                            x       y       z     vdW  Elec       q    Type
REMARK                         _______ _______ _______ _____ _____    ______ ____
ROOT
ATOM      1  C   LIG    1       26.386 -23.662   6.700  0.00  0.00    -0.016 C 
ATOM      2  C   LIG    1       26.181 -22.332   6.592  0.00  0.00    -0.011 C 
ATOM      3  C   LIG    1       24.880 -21.743   6.176  0.00  0.00    +0.024 A 
ATOM      4  C   LIG    1       24.207 -20.752   6.913  0.00  0.00    +0.129 A 
ATOM      5  C   LIG    1       22.996 -20.230   6.427  0.00  0.00    +0.046 A 
ATOM      6  C   LIG    1       22.460 -20.659   5.214  0.00  0.00    +0.004 A 
ATOM      7  C   LIG    1       23.144 -21.598   4.455  0.00  0.00    +0.001 A 
ATOM      8  O   LIG    1       24.607 -20.147   8.078  0.00  0.00    -0.487 OA
ATOM      9  C   LIG    1       25.634 -20.750   8.863  0.00  0.00    +0.265 C 
ATOM     10  C   LIG    1       26.997 -20.666   8.222  0.00  0.00    -0.003 A 
ATOM     11  C   LIG    1       27.996 -19.822   8.726  0.00  0.00    +0.007 A 
ATOM     12  C   LIG    1       29.249 -19.771   8.113  0.00  0.00    +0.000 A 
ATOM     13  C   LIG    1       29.511 -20.556   6.991  0.00  0.00    +0.001 A 
ATOM     14  C   LIG    1       28.524 -21.400   6.480  0.00  0.00    +0.009 A 
ATOM     15  C   LIG    1       24.348 -22.124   4.927  0.00  0.00    +0.012 A 
ATOM     16  C   LIG    1       27.269 -21.461   7.096  0.00  0.00    -0.011 A 
ENDROOT
BRANCH   1  17
ATOM     17  C   LIG    1       25.402 -24.790   6.472  0.00  0.00    +0.043 C 
BRANCH  17  18
ATOM     18  C   LIG    1       25.975 -26.137   6.959  0.00  0.00    +0.088 C 
BRANCH  18  20
ATOM     19  C   LIG    1       24.471 -27.890   6.277  0.00  0.00    +0.104 C 
ATOM     20  N   LIG    1       25.770 -27.257   6.018  0.00  0.00    -0.308 NA
ATOM     21  C   LIG    1       25.818 -26.812   4.622  0.00  0.00    +0.104 C 
ENDBRANCH  18  20
ENDBRANCH  17  18
ENDBRANCH   1  17
TORSDOF 3
ENDMDL
