MODEL 1
REMARK VINA RESULT:      -3.2      0.000      0.000
REMARK  Name = *****
REMARK                            x       y       z     vdW  Elec       q    Type
REMARK                         _______ _______ _______ _____ _____    ______ ____
ROOT
ATOM      1  S   LIG    1       24.993 -19.339   3.630  0.00  0.00    +0.084 S 
ATOM      2  O   LIG    1       23.874 -19.829   2.852  0.00  0.00    -0.149 OA
ATOM      3  O   LIG    1       26.339 -19.725   3.246  0.00  0.00    -0.149 OA
ENDROOT
BRANCH   1   4
ATOM      4  C   LIG    1       24.936 -17.554   3.584  0.00  0.00    +0.109 A 
ATOM      5  C   LIG    1       26.084 -16.834   3.243  0.00  0.00    +0.030 A 
ATOM      6  C   LIG    1       26.076 -15.437   3.328  0.00  0.00    +0.024 A 
ATOM      7  C   LIG    1       24.930 -14.748   3.734  0.00  0.00    +0.025 A 
ATOM      8  C   LIG    1       23.809 -15.485   4.125  0.00  0.00    +0.024 A 
ATOM      9  C   LIG    1       23.798 -16.880   4.035  0.00  0.00    +0.030 A 
BRANCH   7  10
ATOM     10  N   LIG    1       24.987 -13.373   3.989  0.00  0.00    -0.358 N 
ATOM     11  H   LIG    1       24.368 -13.066   4.734  0.00  0.00    +0.142 HD
ATOM     12  H   LIG    1       25.927 -13.006   4.095  0.00  0.00    +0.142 HD
ENDBRANCH   7  10
ENDBRANCH   1   4
BRANCH   1  15
ATOM     13  C   LIG    1       22.250 -19.828   5.269  0.00  0.00    +0.111 C 
ATOM     14  C   LIG    1       23.574 -20.383   5.728  0.00  0.00    +0.238 C 
ATOM     15  N   LIG    1       24.759 -19.729   5.268  0.00  0.00    -0.104 N 
ATOM     16  O   LIG    1       23.586 -21.282   6.568  0.00  0.00    -0.274 OA
BRANCH  15  17
ATOM     17  C   LIG    1       25.958 -20.247   5.856  0.00  0.00    +0.249 A 
ATOM     18  C   LIG    1       27.224 -19.701   5.749  0.00  0.00    +0.036 A 
ATOM     19  C   LIG    1       27.649 -18.478   5.028  0.00  0.00    +0.051 C 
ATOM     20  C   LIG    1       28.030 -20.566   6.544  0.00  0.00    +0.085 A 
ATOM     21  C   LIG    1       29.475 -20.457   6.855  0.00  0.00    +0.069 C 
ATOM     22  N   LIG    1       27.313 -21.572   7.057  0.00  0.00    -0.081 NA
ATOM     23  O   LIG    1       26.013 -21.351   6.651  0.00  0.00    -0.337 OA
ENDBRANCH  15  17
ENDBRANCH   1  15
TORSDOF 4
ENDMDL
MODEL 2
REMARK VINA RESULT:      -0.9      2.566      6.151
REMARK  Name = *****
REMARK                            x       y       z     vdW  Elec       q    Type
REMARK                         _______ _______ _______ _____ _____    ______ ____
ROOT
ATOM      1  S   LIG    1       25.403 -17.954   3.045  0.00  0.00    +0.084 S 
ATOM      2  O   LIG    1       26.375 -18.797   2.381  0.00  0.00    -0.149 OA
ATOM      3  O   LIG    1       24.313 -17.390   2.268  0.00  0.00    -0.149 OA
ENDROOT
BRANCH   1   4
ATOM      4  C   LIG    1       24.659 -18.920   4.351  0.00  0.00    +0.109 A 
ATOM      5  C   LIG    1       25.427 -19.868   5.033  0.00  0.00    +0.030 A 
ATOM      6  C   LIG    1       24.817 -20.711   5.968  0.00  0.00    +0.024 A 
ATOM      7  C   LIG    1       23.450 -20.610   6.242  0.00  0.00    +0.025 A 
ATOM      8  C   LIG    1       22.686 -19.696   5.512  0.00  0.00    +0.024 A 
ATOM      9  C   LIG    1       23.284 -18.840   4.582  0.00  0.00    +0.030 A 
BRANCH   7  10
ATOM     10  N   LIG    1       22.818 -21.572   7.038  0.00  0.00    -0.358 N 
ATOM     11  H   LIG    1       22.315 -21.184   7.832  0.00  0.00    +0.142 HD
ATOM     12  H   LIG    1       22.260 -22.242   6.521  0.00  0.00    +0.142 HD
ENDBRANCH   7  10
ENDBRANCH   1   4
BRANCH   1  15
ATOM     13  C   LIG    1       28.068 -18.035   4.873  0.00  0.00    +0.111 C 
ATOM     14  C   LIG    1       27.591 -16.775   4.196  0.00  0.00    +0.238 C 
ATOM     15  N   LIG    1       26.206 -16.692   3.855  0.00  0.00    -0.104 N 
ATOM     16  O   LIG    1       28.369 -15.828   4.081  0.00  0.00    -0.274 OA
BRANCH  15  17
ATOM     17  C   LIG    1       25.824 -15.414   3.335  0.00  0.00    +0.249 A 
ATOM     18  C   LIG    1       24.739 -14.657   3.738  0.00  0.00    +0.036 A 
ATOM     19  C   LIG    1       23.732 -14.962   4.782  0.00  0.00    +0.051 C 
ATOM     20  C   LIG    1       24.841 -13.477   2.947  0.00  0.00    +0.085 A 
ATOM     21  C   LIG    1       23.985 -12.268   2.975  0.00  0.00    +0.069 C 
ATOM     22  N   LIG    1       25.882 -13.536   2.109  0.00  0.00    -0.081 NA
ATOM     23  O   LIG    1       26.511 -14.734   2.376  0.00  0.00    -0.337 OA
ENDBRANCH  15  17
ENDBRANCH   1  15
TORSDOF 4
ENDMDL
MODEL 3
REMARK VINA RESULT:      -0.6      3.434      5.148
REMARK  Name = *****
REMARK                            x       y       z     vdW  Elec       q    Type
REMARK                         _______ _______ _______ _____ _____    ______ ____
ROOT
ATOM      1  S   LIG    1       24.382 -14.713   3.840  0.00  0.00    +0.084 S 
ATOM      2  O   LIG    1       23.599 -14.668   5.058  0.00  0.00    -0.149 OA
ATOM      3  O   LIG    1       23.860 -14.077   2.644  0.00  0.00    -0.149 OA
ENDROOT
BRANCH   1   4
ATOM      4  C   LIG    1       25.956 -13.941   4.188  0.00  0.00    +0.109 A 
ATOM      5  C   LIG    1       26.389 -13.819   5.511  0.00  0.00    +0.030 A 
ATOM      6  C   LIG    1       27.559 -13.106   5.795  0.00  0.00    +0.024 A 
ATOM      7  C   LIG    1       28.312 -12.525   4.771  0.00  0.00    +0.025 A 
ATOM      8  C   LIG    1       27.836 -12.608   3.459  0.00  0.00    +0.024 A 
ATOM      9  C   LIG    1       26.675 -13.326   3.160  0.00  0.00    +0.030 A 
BRANCH   7  10
ATOM     10  N   LIG    1       29.373 -11.666   5.077  0.00  0.00    -0.358 N 
ATOM     11  H   LIG    1       29.999 -11.490   4.296  0.00  0.00    +0.142 HD
ATOM     12  H   LIG    1       29.097 -10.811   5.547  0.00  0.00    +0.142 HD
ENDBRANCH   7  10
ENDBRANCH   1   4
BRANCH   1  15
ATOM     13  C   LIG    1       27.233 -16.029   3.069  0.00  0.00    +0.111 C 
ATOM     14  C   LIG    1       26.096 -16.840   3.638  0.00  0.00    +0.238 C 
ATOM     15  N   LIG    1       24.772 -16.327   3.475  0.00  0.00    -0.104 N 
ATOM     16  O   LIG    1       26.332 -17.956   4.100  0.00  0.00    -0.274 OA
BRANCH  15  17
ATOM     17  C   LIG    1       23.754 -17.224   3.932  0.00  0.00    +0.249 A 
ATOM     18  C   LIG    1       23.744 -18.598   3.777  0.00  0.00    +0.036 A 
ATOM     19  C   LIG    1       24.755 -19.465   3.126  0.00  0.00    +0.051 C 
ATOM     20  C   LIG    1       22.550 -19.001   4.441  0.00  0.00    +0.085 A 
ATOM     21  C   LIG    1       22.029 -20.373   4.654  0.00  0.00    +0.069 C 
ATOM     22  N   LIG    1       21.878 -17.951   4.923  0.00  0.00    -0.081 NA
ATOM     23  O   LIG    1       22.649 -16.845   4.631  0.00  0.00    -0.337 OA
ENDBRANCH  15  17
ENDBRANCH   1  15
TORSDOF 4
ENDMDL
MODEL 4
REMARK VINA RESULT:      -0.5      3.344      4.944
REMARK  Name = *****
REMARK                            x       y       z     vdW  Elec       q    Type
REMARK                         _______ _______ _______ _____ _____    ______ ____
ROOT
ATOM      1  S   LIG    1       25.206 -14.750   2.991  0.00  0.00    +0.084 S 
ATOM      2  O   LIG    1       24.372 -13.726   2.397  0.00  0.00    -0.149 OA
ATOM      3  O   LIG    1       25.783 -15.771   2.136  0.00  0.00    -0.149 OA
ENDROOT
BRANCH   1   4
ATOM      4  C   LIG    1       26.568 -13.926   3.803  0.00  0.00    +0.109 A 
ATOM      5  C   LIG    1       26.540 -13.744   5.188  0.00  0.00    +0.030 A 
ATOM      6  C   LIG    1       27.543 -12.991   5.809  0.00  0.00    +0.024 A 
ATOM      7  C   LIG    1       28.584 -12.429   5.064  0.00  0.00    +0.025 A 
ATOM      8  C   LIG    1       28.567 -12.574   3.674  0.00  0.00    +0.024 A 
ATOM      9  C   LIG    1       27.577 -13.332   3.042  0.00  0.00    +0.030 A 
BRANCH   7  10
ATOM     10  N   LIG    1       29.475 -11.533   5.664  0.00  0.00    -0.358 N 
ATOM     11  H   LIG    1       30.453 -11.774   5.533  0.00  0.00    +0.142 HD
ATOM     12  H   LIG    1       29.290 -10.557   5.456  0.00  0.00    +0.142 HD
ENDBRANCH   7  10
ENDBRANCH   1   4
BRANCH   1  15
ATOM     13  C   LIG    1       23.398 -13.460   5.341  0.00  0.00    +0.111 C 
ATOM     14  C   LIG    1       23.239 -14.891   4.894  0.00  0.00    +0.238 C 
ATOM     15  N   LIG    1       24.357 -15.510   4.254  0.00  0.00    -0.104 N 
ATOM     16  O   LIG    1       22.219 -15.503   5.205  0.00  0.00    -0.274 OA
BRANCH  15  17
ATOM     17  C   LIG    1       24.157 -16.902   3.982  0.00  0.00    +0.249 A 
ATOM     18  C   LIG    1       25.143 -17.838   3.733  0.00  0.00    +0.036 A 
ATOM     19  C   LIG    1       26.612 -17.648   3.692  0.00  0.00    +0.051 C 
ATOM     20  C   LIG    1       24.419 -19.054   3.573  0.00  0.00    +0.085 A 
ATOM     21  C   LIG    1       24.944 -20.420   3.340  0.00  0.00    +0.069 C 
ATOM     22  N   LIG    1       23.100 -18.858   3.680  0.00  0.00    -0.081 NA
ATOM     23  O   LIG    1       22.942 -17.518   3.967  0.00  0.00    -0.337 OA
ENDBRANCH  15  17
ENDBRANCH   1  15
TORSDOF 4
ENDMDL
MODEL 5
REMARK VINA RESULT:      -0.4      1.975      5.188
REMARK  Name = *****
REMARK                            x       y       z     vdW  Elec       q    Type
REMARK                         _______ _______ _______ _____ _____    ______ ____
ROOT
ATOM      1  S   LIG    1       23.126 -20.223   5.843  0.00  0.00    +0.084 S 
ATOM      2  O   LIG    1       22.607 -21.572   5.939  0.00  0.00    -0.149 OA
ATOM      3  O   LIG    1       22.769 -19.257   6.866  0.00  0.00    -0.149 OA
ENDROOT
BRANCH   1   4
ATOM      4  C   LIG    1       24.910 -20.335   5.840  0.00  0.00    +0.109 A 
ATOM      5  C   LIG    1       25.595 -20.480   7.050  0.00  0.00    +0.030 A 
ATOM      6  C   LIG    1       26.993 -20.443   7.062  0.00  0.00    +0.024 A 
ATOM      7  C   LIG    1       27.719 -20.278   5.878  0.00  0.00    +0.025 A 
ATOM      8  C   LIG    1       27.017 -20.079   4.686  0.00  0.00    +0.024 A 
ATOM      9  C   LIG    1       25.620 -20.124   4.657  0.00  0.00    +0.030 A 
BRANCH   7  10
ATOM     10  N   LIG    1       29.100 -20.061   5.922  0.00  0.00    -0.358 N 
ATOM     11  H   LIG    1       29.559 -20.485   6.723  0.00  0.00    +0.142 HD
ATOM     12  H   LIG    1       29.583 -20.261   5.053  0.00  0.00    +0.142 HD
ENDBRANCH   7  10
ENDBRANCH   1   4
BRANCH   1  15
ATOM     13  C   LIG    1       20.548 -20.747   3.964  0.00  0.00    +0.111 C 
ATOM     14  C   LIG    1       21.392 -19.504   3.848  0.00  0.00    +0.238 C 
ATOM     15  N   LIG    1       22.739 -19.574   4.320  0.00  0.00    -0.104 N 
ATOM     16  O   LIG    1       20.941 -18.530   3.245  0.00  0.00    -0.274 OA
BRANCH  15  17
ATOM     17  C   LIG    1       23.497 -18.389   4.051  0.00  0.00    +0.249 A 
ATOM     18  C   LIG    1       23.165 -17.101   4.428  0.00  0.00    +0.036 A 
ATOM     19  C   LIG    1       21.981 -16.634   5.187  0.00  0.00    +0.051 C 
ATOM     20  C   LIG    1       24.260 -16.321   3.959  0.00  0.00    +0.085 A 
ATOM     21  C   LIG    1       24.496 -14.866   4.119  0.00  0.00    +0.069 C 
ATOM     22  N   LIG    1       25.161 -17.074   3.319  0.00  0.00    -0.081 NA
ATOM     23  O   LIG    1       24.696 -18.370   3.406  0.00  0.00    -0.337 OA
ENDBRANCH  15  17
ENDBRANCH   1  15
TORSDOF 4
ENDMDL
