MODEL 1
REMARK VINA RESULT:      -1.3      0.000      0.000
REMARK  Name = *****
REMARK                            x       y       z     vdW  Elec       q    Type
REMARK                         _______ _______ _______ _____ _____    ______ ____
ROOT
ATOM      1  C   LIG    1       25.990 -13.713   6.034  0.00  0.00    +0.025 C 
ATOM      2  C   LIG    1       24.901 -13.459   4.975  0.00  0.00    +0.042 C 
ATOM      3  CA  LIG    1       25.499 -12.786   3.712  0.00  0.00    +0.201 C 
ATOM      4  N   LIG    1       25.907 -13.861   2.792  0.00  0.00    -0.271 N 
ATOM      5  C   LIG    1       25.123 -15.108   2.826  0.00  0.00    +0.165 C 
ATOM      6  CA  LIG    1       26.455 -15.897   2.759  0.00  0.00    +0.190 C 
ATOM      7  C   LIG    1       27.105 -14.508   3.003  0.00  0.00    +0.240 C 
ATOM      8  O   LIG    1       28.156 -14.058   3.398  0.00  0.00    -0.273 OA
ATOM      9  S   LIG    1       24.244 -15.109   4.433  0.00  0.00    -0.127 S 
ATOM     10  C   LIG    1       23.753 -12.700   5.652  0.00  0.00    +0.025 C 
ENDROOT
BRANCH   6  11
ATOM     11  N   LIG    1       26.641 -16.940   3.798  0.00  0.00    -0.301 N 
ATOM     12  H   LIG    1       27.179 -16.728   4.636  0.00  0.00    +0.149 HD
ATOM     13  C   LIG    1       26.265 -18.248   3.585  0.00  0.00    +0.218 C 
ATOM     14  O   LIG    1       25.733 -18.616   2.542  0.00  0.00    -0.275 OA
BRANCH  13  15
ATOM     15  C   LIG    1       26.439 -19.167   4.780  0.00  0.00    +0.131 C 
BRANCH  15  16
ATOM     16  C   LIG    1       25.183 -19.897   5.192  0.00  0.00    -0.039 A 
ATOM     17  C   LIG    1       23.997 -19.732   4.464  0.00  0.00    +0.004 A 
ATOM     18  C   LIG    1       22.828 -20.382   4.860  0.00  0.00    +0.000 A 
ATOM     19  C   LIG    1       22.832 -21.202   5.987  0.00  0.00    +0.000 A 
ATOM     20  C   LIG    1       24.005 -21.374   6.719  0.00  0.00    +0.000 A 
ATOM     21  C   LIG    1       25.176 -20.724   6.325  0.00  0.00    +0.004 A 
ENDBRANCH  15  16
ENDBRANCH  13  15
ENDBRANCH   6  11
BRANCH   3  22
ATOM     22  C   LIG    1       24.563 -11.821   2.965  0.00  0.00    +0.327 C 
ATOM     23  O   LIG    1       24.724 -11.448   1.812  0.00  0.00    -0.249 OA
BRANCH  22  24
ATOM     24  OXT LIG    1       23.475 -11.447   3.683  0.00  0.00    -0.479 OA
ATOM     25  HXT LIG    1       23.651 -11.552   4.641  0.00  0.00    +0.295 HD
ENDBRANCH  22  24
ENDBRANCH   3  22
TORSDOF 5
ENDMDL
MODEL 2
REMARK VINA RESULT:      -0.9      2.262      3.813
REMARK  Name = *****
REMARK                            x       y       z     vdW  Elec       q    Type
REMARK                         _______ _______ _______ _____ _____    ______ ____
ROOT
ATOM      1  C   LIG    1       26.154 -13.961   1.812  0.00  0.00    +0.025 C 
ATOM      2  C   LIG    1       27.032 -13.984   3.078  0.00  0.00    +0.042 C 
ATOM      3  CA  LIG    1       26.856 -12.681   3.900  0.00  0.00    +0.201 C 
ATOM      4  N   LIG    1       25.760 -12.910   4.858  0.00  0.00    -0.271 N 
ATOM      5  C   LIG    1       25.579 -14.285   5.355  0.00  0.00    +0.165 C 
ATOM      6  CA  LIG    1       24.051 -14.105   5.169  0.00  0.00    +0.190 C 
ATOM      7  C   LIG    1       24.457 -12.803   4.427  0.00  0.00    +0.240 C 
ATOM      8  O   LIG    1       23.978 -12.031   3.628  0.00  0.00    -0.273 OA
ATOM      9  S   LIG    1       26.433 -15.373   4.155  0.00  0.00    -0.127 S 
ATOM     10  C   LIG    1       28.468 -14.311   2.650  0.00  0.00    +0.025 C 
ENDROOT
BRANCH   6  11
ATOM     11  N   LIG    1       23.367 -15.164   4.385  0.00  0.00    -0.301 N 
ATOM     12  H   LIG    1       23.507 -15.216   3.378  0.00  0.00    +0.149 HD
ATOM     13  C   LIG    1       22.401 -15.968   4.948  0.00  0.00    +0.218 C 
ATOM     14  O   LIG    1       22.073 -15.875   6.127  0.00  0.00    -0.275 OA
BRANCH  13  15
ATOM     15  C   LIG    1       21.867 -17.059   4.037  0.00  0.00    +0.131 C 
BRANCH  15  16
ATOM     16  C   LIG    1       22.577 -18.384   4.170  0.00  0.00    -0.039 A 
ATOM     17  C   LIG    1       21.982 -19.438   4.877  0.00  0.00    +0.004 A 
ATOM     18  C   LIG    1       22.649 -20.655   5.027  0.00  0.00    +0.000 A 
ATOM     19  C   LIG    1       23.915 -20.830   4.474  0.00  0.00    +0.000 A 
ATOM     20  C   LIG    1       24.517 -19.790   3.768  0.00  0.00    +0.000 A 
ATOM     21  C   LIG    1       23.852 -18.571   3.617  0.00  0.00    +0.004 A 
ENDBRANCH  15  16
ENDBRANCH  13  15
ENDBRANCH   6  11
BRANCH   3  22
ATOM     22  C   LIG    1       28.099 -12.206   4.671  0.00  0.00    +0.327 C 
ATOM     23  O   LIG    1       29.010 -11.551   4.187  0.00  0.00    -0.249 OA
BRANCH  22  24
ATOM     24  OXT LIG    1       28.082 -12.527   5.989  0.00  0.00    -0.479 OA
ATOM     25  HXT LIG    1       27.164 -12.704   6.281  0.00  0.00    +0.295 HD
ENDBRANCH  22  24
ENDBRANCH   3  22
TORSDOF 5
ENDMDL
MODEL 3
REMARK VINA RESULT:       0.6      3.611      5.878
REMARK  Name = *****
REMARK                            x       y       z     vdW  Elec       q    Type
REMARK                         _______ _______ _______ _____ _____    ______ ____
ROOT
ATOM      1  C   LIG    1       23.577 -19.603   6.621  0.00  0.00    +0.025 C 
ATOM      2  C   LIG    1       22.933 -20.305   5.411  0.00  0.00    +0.042 C 
ATOM      3  CA  LIG    1       22.044 -19.321   4.606  0.00  0.00    +0.201 C 
ATOM      4  N   LIG    1       22.897 -18.697   3.579  0.00  0.00    -0.271 N 
ATOM      5  C   LIG    1       24.005 -19.507   3.044  0.00  0.00    +0.165 C 
ATOM      6  CA  LIG    1       24.911 -18.254   3.141  0.00  0.00    +0.190 C 
ATOM      7  C   LIG    1       23.719 -17.651   3.933  0.00  0.00    +0.240 C 
ATOM      8  O   LIG    1       23.516 -16.753   4.717  0.00  0.00    -0.273 OA
ATOM      9  S   LIG    1       24.300 -20.834   4.271  0.00  0.00    -0.127 S 
ATOM     10  C   LIG    1       22.232 -21.571   5.918  0.00  0.00    +0.025 C 
ENDROOT
BRANCH   6  11
ATOM     11  N   LIG    1       26.196 -18.439   3.861  0.00  0.00    -0.301 N 
ATOM     12  H   LIG    1       26.330 -19.259   4.450  0.00  0.00    +0.149 HD
ATOM     13  C   LIG    1       27.148 -17.446   3.905  0.00  0.00    +0.218 C 
ATOM     14  O   LIG    1       27.003 -16.370   3.334  0.00  0.00    -0.275 OA
BRANCH  13  15
ATOM     15  C   LIG    1       28.441 -17.829   4.603  0.00  0.00    +0.131 C 
BRANCH  15  16
ATOM     16  C   LIG    1       28.338 -19.058   5.474  0.00  0.00    -0.039 A 
ATOM     17  C   LIG    1       29.456 -19.520   6.181  0.00  0.00    +0.004 A 
ATOM     18  C   LIG    1       29.372 -20.672   6.964  0.00  0.00    +0.000 A 
ATOM     19  C   LIG    1       28.171 -21.374   7.045  0.00  0.00    +0.000 A 
ATOM     20  C   LIG    1       27.052 -20.925   6.347  0.00  0.00    +0.000 A 
ATOM     21  C   LIG    1       27.134 -19.772   5.563  0.00  0.00    +0.004 A 
ENDBRANCH  15  16
ENDBRANCH  13  15
ENDBRANCH   6  11
BRANCH   3  22
ATOM     22  C   LIG    1       20.814 -19.941   3.922  0.00  0.00    +0.327 C 
ATOM     23  O   LIG    1       20.558 -21.136   3.900  0.00  0.00    -0.249 OA
BRANCH  22  24
ATOM     24  OXT LIG    1       19.973 -19.028   3.375  0.00  0.00    -0.479 OA
ATOM     25  HXT LIG    1       20.153 -18.934   2.417  0.00  0.00    +0.295 HD
ENDBRANCH  22  24
ENDBRANCH   3  22
TORSDOF 5
ENDMDL
