MODEL 1
REMARK VINA RESULT:      41.4      0.000      0.000
REMARK  Name = *****
REMARK                            x       y       z     vdW  Elec       q    Type
REMARK                         _______ _______ _______ _____ _____    ______ ____
ROOT
ATOM      1  C   UNK    1       20.951 -14.766   5.060  0.00  0.00    +0.129 C 
ATOM      2  C   UNK    1       22.436 -14.302   5.291  0.00  0.00    +0.061 C 
ATOM      3  C   UNK    1       23.280 -15.487   5.781  0.00  0.00    +0.190 C 
ATOM      4  C   UNK    1       24.705 -15.068   6.025  0.00  0.00    +0.141 C 
ATOM      5  C   UNK    1       25.281 -14.055   5.353  0.00  0.00    +0.047 C 
ATOM      6  C   UNK    1       24.608 -13.258   4.257  0.00  0.00    +0.062 C 
ATOM      7  C   UNK    1       25.558 -13.250   3.000  0.00  0.00    +0.096 C 
ATOM      8  C   UNK    1       24.917 -12.505   1.818  0.00  0.00    +0.047 C 
ATOM      9  C   UNK    1       26.928 -12.670   3.401  0.00  0.00    -0.002 A 
ATOM     10  C   UNK    1       27.440 -12.890   4.700  0.00  0.00    +0.069 A 
ATOM     11  C   UNK    1       28.698 -12.384   5.079  0.00  0.00    +0.128 A 
ATOM     12  C   UNK    1       29.469 -11.661   4.183  0.00  0.00    +0.046 A 
ATOM     13  C   UNK    1       29.000 -11.457   2.891  0.00  0.00    +0.004 A 
ATOM     14  C   UNK    1       27.751 -11.960   2.502  0.00  0.00    +0.007 A 
ATOM     15  C   UNK    1       26.680 -13.689   5.681  0.00  0.00    +0.197 C 
ATOM     16  O   UNK    1       27.194 -14.034   6.745  0.00  0.00    -0.287 OA
ATOM     17  C   UNK    1       23.184 -16.515   4.635  0.00  0.00    +0.210 C 
ATOM     18  O   UNK    1       24.058 -16.631   3.770  0.00  0.00    -0.288 OA
ATOM     19  C   UNK    1       21.834 -17.116   4.449  0.00  0.00    +0.121 C 
ATOM     20  C   UNK    1       23.118 -13.687   4.012  0.00  0.00    +0.020 C 
ATOM     21  C   UNK    1       20.811 -16.246   4.621  0.00  0.00    +0.127 C 
ENDROOT
BRANCH  19  22
ATOM     22  C   UNK    1       21.722 -18.567   4.103  0.00  0.00    +0.252 C 
ATOM     23  N   UNK    1       21.480 -19.418   5.148  0.00  0.00    -0.299 N 
ATOM     24  H   UNK    1       21.309 -19.014   6.062  0.00  0.00    +0.150 HD
ATOM     25  O   UNK    1       21.856 -18.963   2.948  0.00  0.00    -0.270 OA
BRANCH  23  26
ATOM     26  C   UNK    1       21.198 -20.797   4.954  0.00  0.00    +0.189 C 
BRANCH  26  27
ATOM     27  N   UNK    1       22.158 -21.219   3.960  0.00  0.00    -0.301 NA
ATOM     28  H   UNK    1       21.798 -22.022   3.464  0.00  0.00    +0.123 HD
BRANCH  27  29
ATOM     29  C   UNK    1       23.473 -21.525   4.510  0.00  0.00    +0.082 C 
BRANCH  29  30
ATOM     30  C   UNK    1       23.781 -20.994   5.919  0.00  0.00    +0.015 C 
BRANCH  30  31
ATOM     31  C   UNK    1       25.059 -21.528   6.603  0.00  0.00    +0.003 C 
BRANCH  31  32
ATOM     32  C   UNK    1       26.394 -21.304   5.864  0.00  0.00    +0.030 C 
BRANCH  32  33
ATOM     33  C   UNK    1       26.827 -19.852   5.660  0.00  0.00    +0.161 C 
BRANCH  33  34
ATOM     34  N   UNK    1       26.559 -19.440   4.248  0.00  0.00    -0.318 NA
ATOM     35  H   UNK    1       25.941 -18.625   4.268  0.00  0.00    +0.119 HD
ATOM     36  H   UNK    1       25.990 -20.172   3.815  0.00  0.00    +0.119 HD
ENDBRANCH  33  34
BRANCH  33  37
ATOM     37  C   UNK    1       28.346 -19.719   5.898  0.00  0.00    +0.322 C 
ATOM     38  O   UNK    1       29.058 -20.556   6.476  0.00  0.00    -0.249 OA
BRANCH  37  39
ATOM     39  O   UNK    1       28.849 -18.575   5.374  0.00  0.00    -0.479 OA
ATOM     40  H   UNK    1       29.354 -18.144   6.108  0.00  0.00    +0.295 HD
ENDBRANCH  37  39
ENDBRANCH  33  37
ENDBRANCH  32  33
ENDBRANCH  31  32
ENDBRANCH  30  31
ENDBRANCH  29  30
ENDBRANCH  27  29
ENDBRANCH  26  27
ENDBRANCH  23  26
ENDBRANCH  19  22
BRANCH   1  42
ATOM     41  C   UNK    1       20.260 -13.339   6.978  0.00  0.00    +0.105 C 
ATOM     42  N   UNK    1       19.925 -14.481   6.119  0.00  0.00    -0.298 NA
ATOM     43  C   UNK    1       19.503 -15.607   6.965  0.00  0.00    +0.105 C 
ENDBRANCH   1  42
BRANCH  21  44
ATOM     44  O   UNK    1       19.483 -16.661   4.500  0.00  0.00    -0.509 OA
ATOM     45  H   UNK    1       19.203 -16.885   5.417  0.00  0.00    +0.292 HD
ENDBRANCH  21  44
BRANCH  11  46
ATOM     46  O   UNK    1       29.242 -12.563   6.325  0.00  0.00    -0.506 OA
ATOM     47  H   UNK    1       29.402 -11.676   6.719  0.00  0.00    +0.292 HD
ENDBRANCH  11  46
BRANCH   7  48
ATOM     48  O   UNK    1       25.840 -14.574   2.538  0.00  0.00    -0.384 OA
ATOM     49  H   UNK    1       25.419 -15.252   3.104  0.00  0.00    +0.211 HD
ENDBRANCH   7  48
BRANCH   4  50
ATOM     50  O   UNK    1       25.325 -15.763   7.057  0.00  0.00    -0.507 OA
ATOM     51  H   UNK    1       24.913 -15.487   7.908  0.00  0.00    +0.292 HD
ENDBRANCH   4  50
BRANCH   3  52
ATOM     52  O   UNK    1       22.773 -15.976   7.012  0.00  0.00    -0.373 OA
ATOM     53  H   UNK    1       21.800 -16.014   6.901  0.00  0.00    +0.211 HD
ENDBRANCH   3  52
TORSDOF 17
ENDMDL
MODEL 2
REMARK VINA RESULT:      41.6      2.435      6.956
REMARK  Name = *****
REMARK                            x       y       z     vdW  Elec       q    Type
REMARK                         _______ _______ _______ _____ _____    ______ ____
ROOT
ATOM      1  C   UNK    1       23.935 -13.009   3.860  0.00  0.00    +0.129 C 
ATOM      2  C   UNK    1       23.574 -14.489   3.470  0.00  0.00    +0.061 C 
ATOM      3  C   UNK    1       24.860 -15.311   3.306  0.00  0.00    +0.190 C 
ATOM      4  C   UNK    1       24.545 -16.731   2.917  0.00  0.00    +0.141 C 
ATOM      5  C   UNK    1       23.394 -17.332   3.266  0.00  0.00    +0.047 C 
ATOM      6  C   UNK    1       22.315 -16.697   4.115  0.00  0.00    +0.062 C 
ATOM      7  C   UNK    1       21.972 -17.684   5.294  0.00  0.00    +0.096 C 
ATOM      8  C   UNK    1       20.920 -17.083   6.240  0.00  0.00    +0.047 C 
ATOM      9  C   UNK    1       21.546 -19.046   4.712  0.00  0.00    -0.002 A 
ATOM     10  C   UNK    1       22.124 -19.517   3.512  0.00  0.00    +0.069 A 
ATOM     11  C   UNK    1       21.762 -20.766   2.974  0.00  0.00    +0.128 A 
ATOM     12  C   UNK    1       20.829 -21.568   3.613  0.00  0.00    +0.046 A 
ATOM     13  C   UNK    1       20.269 -21.139   4.810  0.00  0.00    +0.004 A 
ATOM     14  C   UNK    1       20.627 -19.899   5.356  0.00  0.00    +0.007 A 
ATOM     15  C   UNK    1       23.153 -18.723   2.812  0.00  0.00    +0.197 C 
ATOM     16  O   UNK    1       23.787 -19.204   1.872  0.00  0.00    -0.287 OA
ATOM     17  C   UNK    1       25.528 -15.243   4.694  0.00  0.00    +0.210 C 
ATOM     18  O   UNK    1       25.413 -16.141   5.533  0.00  0.00    -0.288 OA
ATOM     19  C   UNK    1       26.036 -13.895   5.076  0.00  0.00    +0.121 C 
ATOM     20  C   UNK    1       22.639 -15.213   4.510  0.00  0.00    +0.020 C 
ATOM     21  C   UNK    1       25.233 -12.873   4.697  0.00  0.00    +0.127 C 
ENDROOT
BRANCH  19  22
ATOM     22  C   UNK    1       27.332 -13.784   5.814  0.00  0.00    +0.252 C 
ATOM     23  N   UNK    1       28.023 -14.952   5.995  0.00  0.00    -0.299 N 
ATOM     24  H   UNK    1       27.666 -15.792   5.553  0.00  0.00    +0.150 HD
ATOM     25  O   UNK    1       27.736 -12.705   6.242  0.00  0.00    -0.270 OA
BRANCH  23  26
ATOM     26  C   UNK    1       29.335 -14.980   6.540  0.00  0.00    +0.189 C 
BRANCH  26  27
ATOM     27  N   UNK    1       29.475 -16.321   7.060  0.00  0.00    -0.301 NA
ATOM     28  H   UNK    1       30.399 -16.436   7.450  0.00  0.00    +0.123 HD
BRANCH  27  29
ATOM     29  C   UNK    1       29.220 -17.361   6.071  0.00  0.00    +0.082 C 
BRANCH  29  30
ATOM     30  C   UNK    1       28.980 -18.784   6.599  0.00  0.00    +0.015 C 
BRANCH  30  31
ATOM     31  C   UNK    1       28.810 -19.902   5.547  0.00  0.00    +0.003 C 
BRANCH  31  32
ATOM     32  C   UNK    1       27.680 -20.923   5.786  0.00  0.00    +0.030 C 
BRANCH  32  33
ATOM     33  C   UNK    1       26.385 -20.705   5.002  0.00  0.00    +0.161 C 
BRANCH  33  34
ATOM     34  N   UNK    1       26.488 -19.447   4.199  0.00  0.00    -0.318 NA
ATOM     35  H   UNK    1       27.321 -18.941   4.510  0.00  0.00    +0.119 HD
ATOM     36  H   UNK    1       25.713 -18.839   4.475  0.00  0.00    +0.119 HD
ENDBRANCH  33  34
BRANCH  33  37
ATOM     37  C   UNK    1       25.203 -20.530   5.979  0.00  0.00    +0.322 C 
ATOM     38  O   UNK    1       25.236 -19.878   7.035  0.00  0.00    -0.249 OA
BRANCH  37  39
ATOM     39  O   UNK    1       24.083 -21.157   5.546  0.00  0.00    -0.479 OA
ATOM     40  H   UNK    1       24.313 -21.533   4.660  0.00  0.00    +0.295 HD
ENDBRANCH  37  39
ENDBRANCH  33  37
ENDBRANCH  32  33
ENDBRANCH  31  32
ENDBRANCH  30  31
ENDBRANCH  29  30
ENDBRANCH  27  29
ENDBRANCH  26  27
ENDBRANCH  23  26
ENDBRANCH  19  22
BRANCH   1  42
ATOM     41  C   UNK    1       22.695 -11.887   2.017  0.00  0.00    +0.105 C 
ATOM     42  N   UNK    1       23.939 -11.954   2.791  0.00  0.00    -0.298 NA
ATOM     43  C   UNK    1       25.080 -11.945   1.863  0.00  0.00    +0.105 C 
ENDBRANCH   1  42
BRANCH  21  44
ATOM     44  O   UNK    1       25.579 -11.546   4.963  0.00  0.00    -0.509 OA
ATOM     45  H   UNK    1       26.511 -11.461   4.658  0.00  0.00    +0.292 HD
ENDBRANCH  21  44
BRANCH  11  46
ATOM     46  O   UNK    1       22.287 -21.272   1.813  0.00  0.00    -0.506 OA
ATOM     47  H   UNK    1       21.554 -21.678   1.297  0.00  0.00    +0.292 HD
ENDBRANCH  11  46
BRANCH   7  48
ATOM     48  O   UNK    1       23.121 -17.971   6.098  0.00  0.00    -0.384 OA
ATOM     49  H   UNK    1       23.636 -18.720   5.738  0.00  0.00    +0.211 HD
ENDBRANCH   7  48
BRANCH   4  50
ATOM     50  O   UNK    1       25.508 -17.316   2.102  0.00  0.00    -0.507 OA
ATOM     51  H   UNK    1       25.927 -16.607   1.561  0.00  0.00    +0.292 HD
ENDBRANCH   4  50
BRANCH   3  52
ATOM     52  O   UNK    1       25.664 -14.765   2.273  0.00  0.00    -0.373 OA
ATOM     53  H   UNK    1       25.907 -15.521   1.699  0.00  0.00    +0.211 HD
ENDBRANCH   3  52
TORSDOF 17
ENDMDL
