MODEL 1
REMARK VINA RESULT:      -7.6      0.000      0.000
REMARK  Name = *****
REMARK                            x       y       z     vdW  Elec       q    Type
REMARK                         _______ _______ _______ _____ _____    ______ ____
ROOT
ATOM      1  C   LIG    1       25.147 -19.567   3.548  0.00  0.00    +0.014 C 
ATOM      2  C   LIG    1       24.551 -20.196   4.817  0.00  0.00    +0.030 C 
ATOM      3  C   LIG    1       25.543 -20.369   5.969  0.00  0.00    -0.039 A 
ATOM      4  C   LIG    1       25.067 -20.741   7.247  0.00  0.00    -0.043 A 
ATOM      5  C   LIG    1       25.967 -20.920   8.310  0.00  0.00    +0.005 A 
ATOM      6  C   LIG    1       27.336 -20.748   8.122  0.00  0.00    +0.020 A 
ATOM      7  C   LIG    1       27.811 -20.391   6.865  0.00  0.00    +0.041 A 
ATOM      8 CL   LIG    1       29.503 -20.199   6.619  0.00  0.00    -0.084 Cl
ATOM      9  C   LIG    1       23.597 -21.004   7.483  0.00  0.00    +0.050 C 
ATOM     10  C   LIG    1       23.105 -22.221   6.692  0.00  0.00    +0.085 C 
ATOM     11  N   LIG    1       22.748 -21.933   5.299  0.00  0.00    -0.315 NA
ATOM     12  H   LIG    1       22.327 -22.773   4.900  0.00  0.00    +0.122 HD
ATOM     13  C   LIG    1       26.929 -20.198   5.802  0.00  0.00    +0.024 A 
ATOM     14  C   LIG    1       23.887 -21.549   4.454  0.00  0.00    +0.088 C 
ENDROOT
TORSDOF 0
ENDMDL
MODEL 2
REMARK VINA RESULT:      -7.3      2.555      3.702
REMARK  Name = *****
REMARK                            x       y       z     vdW  Elec       q    Type
REMARK                         _______ _______ _______ _____ _____    ______ ____
ROOT
ATOM      1  C   LIG    1       27.237 -20.677   6.423  0.00  0.00    +0.014 C 
ATOM      2  C   LIG    1       25.732 -20.619   6.116  0.00  0.00    +0.030 C 
ATOM      3  C   LIG    1       24.984 -21.934   6.339  0.00  0.00    -0.039 A 
ATOM      4  C   LIG    1       23.572 -21.948   6.291  0.00  0.00    -0.043 A 
ATOM      5  C   LIG    1       22.871 -23.152   6.478  0.00  0.00    +0.005 A 
ATOM      6  C   LIG    1       23.552 -24.346   6.701  0.00  0.00    +0.020 A 
ATOM      7  C   LIG    1       24.942 -24.340   6.741  0.00  0.00    +0.041 A 
ATOM      8 CL   LIG    1       25.791 -25.815   6.992  0.00  0.00    -0.084 Cl
ATOM      9  C   LIG    1       22.791 -20.690   5.987  0.00  0.00    +0.050 C 
ATOM     10  C   LIG    1       23.065 -20.184   4.566  0.00  0.00    +0.085 C 
ATOM     11  N   LIG    1       24.276 -19.369   4.437  0.00  0.00    -0.315 NA
ATOM     12  H   LIG    1       24.303 -18.989   3.490  0.00  0.00    +0.122 HD
ATOM     13  C   LIG    1       25.652 -23.151   6.568  0.00  0.00    +0.024 A 
ATOM     14  C   LIG    1       25.525 -20.108   4.667  0.00  0.00    +0.088 C 
ENDROOT
TORSDOF 0
ENDMDL
MODEL 3
REMARK VINA RESULT:      -6.9      2.819      4.104
REMARK  Name = *****
REMARK                            x       y       z     vdW  Elec       q    Type
REMARK                         _______ _______ _______ _____ _____    ______ ____
ROOT
ATOM      1  C   LIG    1       27.620 -19.648   5.370  0.00  0.00    +0.014 C 
ATOM      2  C   LIG    1       26.872 -20.671   6.238  0.00  0.00    +0.030 C 
ATOM      3  C   LIG    1       25.371 -20.771   5.957  0.00  0.00    -0.039 A 
ATOM      4  C   LIG    1       24.622 -21.816   6.543  0.00  0.00    -0.043 A 
ATOM      5  C   LIG    1       23.240 -21.911   6.307  0.00  0.00    +0.005 A 
ATOM      6  C   LIG    1       22.587 -20.976   5.508  0.00  0.00    +0.020 A 
ATOM      7  C   LIG    1       23.318 -19.941   4.936  0.00  0.00    +0.041 A 
ATOM      8 CL   LIG    1       22.514 -18.769   3.966  0.00  0.00    -0.084 Cl
ATOM      9  C   LIG    1       25.274 -22.815   7.471  0.00  0.00    +0.050 C 
ATOM     10  C   LIG    1       25.781 -22.149   8.755  0.00  0.00    +0.085 C 
ATOM     11  N   LIG    1       27.100 -21.523   8.631  0.00  0.00    -0.315 NA
ATOM     12  H   LIG    1       27.394 -21.215   9.559  0.00  0.00    +0.122 HD
ATOM     13  C   LIG    1       24.692 -19.839   5.151  0.00  0.00    +0.024 A 
ATOM     14  C   LIG    1       27.131 -20.359   7.735  0.00  0.00    +0.088 C 
ENDROOT
TORSDOF 0
ENDMDL
MODEL 4
REMARK VINA RESULT:      -6.7      1.504      2.764
REMARK  Name = *****
REMARK                            x       y       z     vdW  Elec       q    Type
REMARK                         _______ _______ _______ _____ _____    ______ ____
ROOT
ATOM      1  C   LIG    1       24.825 -24.566   6.883  0.00  0.00    +0.014 C 
ATOM      2  C   LIG    1       24.488 -23.254   6.158  0.00  0.00    +0.030 C 
ATOM      3  C   LIG    1       25.590 -22.194   6.211  0.00  0.00    -0.039 A 
ATOM      4  C   LIG    1       25.480 -21.035   5.410  0.00  0.00    -0.043 A 
ATOM      5  C   LIG    1       26.476 -20.046   5.459  0.00  0.00    +0.005 A 
ATOM      6  C   LIG    1       27.576 -20.184   6.301  0.00  0.00    +0.020 A 
ATOM      7  C   LIG    1       27.686 -21.318   7.098  0.00  0.00    +0.041 A 
ATOM      8 CL   LIG    1       29.031 -21.484   8.158  0.00  0.00    -0.084 Cl
ATOM      9  C   LIG    1       24.272 -20.810   4.530  0.00  0.00    +0.050 C 
ATOM     10  C   LIG    1       22.992 -20.641   5.357  0.00  0.00    +0.085 C 
ATOM     11  N   LIG    1       22.363 -21.901   5.762  0.00  0.00    -0.315 NA
ATOM     12  H   LIG    1       21.468 -21.682   6.201  0.00  0.00    +0.122 HD
ATOM     13  C   LIG    1       26.711 -22.314   7.052  0.00  0.00    +0.024 A 
ATOM     14  C   LIG    1       23.156 -22.689   6.716  0.00  0.00    +0.088 C 
ENDROOT
TORSDOF 0
ENDMDL
MODEL 5
REMARK VINA RESULT:      -6.6      1.434      2.935
REMARK  Name = *****
REMARK                            x       y       z     vdW  Elec       q    Type
REMARK                         _______ _______ _______ _____ _____    ______ ____
ROOT
ATOM      1  C   LIG    1       23.253 -22.504   6.738  0.00  0.00    +0.014 C 
ATOM      2  C   LIG    1       23.608 -21.428   5.700  0.00  0.00    +0.030 C 
ATOM      3  C   LIG    1       25.063 -20.958   5.742  0.00  0.00    -0.039 A 
ATOM      4  C   LIG    1       25.557 -20.130   4.708  0.00  0.00    -0.043 A 
ATOM      5  C   LIG    1       26.886 -19.676   4.741  0.00  0.00    +0.005 A 
ATOM      6  C   LIG    1       27.732 -20.023   5.792  0.00  0.00    +0.020 A 
ATOM      7  C   LIG    1       27.250 -20.830   6.816  0.00  0.00    +0.041 A 
ATOM      8 CL   LIG    1       28.281 -21.243   8.130  0.00  0.00    -0.084 Cl
ATOM      9  C   LIG    1       24.658 -19.674   3.581  0.00  0.00    +0.050 C 
ATOM     10  C   LIG    1       23.533 -18.763   4.087  0.00  0.00    +0.085 C 
ATOM     11  N   LIG    1       22.370 -19.479   4.619  0.00  0.00    -0.315 NA
ATOM     12  H   LIG    1       21.640 -18.794   4.818  0.00  0.00    +0.122 HD
ATOM     13  C   LIG    1       25.935 -21.297   6.792  0.00  0.00    +0.024 A 
ATOM     14  C   LIG    1       22.638 -20.229   5.854  0.00  0.00    +0.088 C 
ENDROOT
TORSDOF 0
ENDMDL
MODEL 6
REMARK VINA RESULT:      -6.2      2.952      4.863
REMARK  Name = *****
REMARK                            x       y       z     vdW  Elec       q    Type
REMARK                         _______ _______ _______ _____ _____    ______ ____
ROOT
ATOM      1  C   LIG    1       25.609 -20.827   9.205  0.00  0.00    +0.014 C 
ATOM      2  C   LIG    1       26.558 -20.523   8.035  0.00  0.00    +0.030 C 
ATOM      3  C   LIG    1       25.871 -20.393   6.674  0.00  0.00    -0.039 A 
ATOM      4  C   LIG    1       26.605 -19.914   5.567  0.00  0.00    -0.043 A 
ATOM      5  C   LIG    1       25.992 -19.804   4.307  0.00  0.00    +0.005 A 
ATOM      6  C   LIG    1       24.662 -20.175   4.127  0.00  0.00    +0.020 A 
ATOM      7  C   LIG    1       23.937 -20.656   5.211  0.00  0.00    +0.041 A 
ATOM      8 CL   LIG    1       22.300 -21.138   4.991  0.00  0.00    -0.084 Cl
ATOM      9  C   LIG    1       28.069 -19.561   5.698  0.00  0.00    +0.050 C 
ATOM     10  C   LIG    1       28.922 -20.793   6.023  0.00  0.00    +0.085 C 
ATOM     11  N   LIG    1       28.960 -21.144   7.446  0.00  0.00    -0.315 NA
ATOM     12  H   LIG    1       29.638 -21.896   7.569  0.00  0.00    +0.122 HD
ATOM     13  C   LIG    1       24.528 -20.760   6.470  0.00  0.00    +0.024 A 
ATOM     14  C   LIG    1       27.672 -21.600   7.987  0.00  0.00    +0.088 C 
ENDROOT
TORSDOF 0
ENDMDL
MODEL 7
REMARK VINA RESULT:      -6.1      2.284      3.782
REMARK  Name = *****
REMARK                            x       y       z     vdW  Elec       q    Type
REMARK                         _______ _______ _______ _____ _____    ______ ____
ROOT
ATOM      1  C   LIG    1       28.656 -20.411   6.815  0.00  0.00    +0.014 C 
ATOM      2  C   LIG    1       27.320 -21.169   6.861  0.00  0.00    +0.030 C 
ATOM      3  C   LIG    1       26.312 -20.750   5.789  0.00  0.00    -0.039 A 
ATOM      4  C   LIG    1       25.137 -21.513   5.603  0.00  0.00    -0.043 A 
ATOM      5  C   LIG    1       24.195 -21.131   4.633  0.00  0.00    +0.005 A 
ATOM      6  C   LIG    1       24.395 -19.996   3.852  0.00  0.00    +0.020 A 
ATOM      7  C   LIG    1       25.544 -19.236   4.037  0.00  0.00    +0.041 A 
ATOM      8 CL   LIG    1       25.787 -17.818   3.093  0.00  0.00    -0.084 Cl
ATOM      9  C   LIG    1       24.845 -22.716   6.470  0.00  0.00    +0.050 C 
ATOM     10  C   LIG    1       24.631 -22.318   7.935  0.00  0.00    +0.085 C 
ATOM     11  N   LIG    1       25.867 -22.162   8.706  0.00  0.00    -0.315 NA
ATOM     12  H   LIG    1       25.614 -22.014   9.684  0.00  0.00    +0.122 HD
ATOM     13  C   LIG    1       26.495 -19.608   4.989  0.00  0.00    +0.024 A 
ATOM     14  C   LIG    1       26.704 -21.032   8.278  0.00  0.00    +0.088 C 
ENDROOT
TORSDOF 0
ENDMDL
MODEL 8
REMARK VINA RESULT:      -6.1      1.271      2.993
REMARK  Name = *****
REMARK                            x       y       z     vdW  Elec       q    Type
REMARK                         _______ _______ _______ _____ _____    ______ ____
ROOT
ATOM      1  C   LIG    1       25.522 -22.264   8.687  0.00  0.00    +0.014 C 
ATOM      2  C   LIG    1       25.331 -21.606   7.311  0.00  0.00    +0.030 C 
ATOM      3  C   LIG    1       26.525 -20.782   6.826  0.00  0.00    -0.039 A 
ATOM      4  C   LIG    1       26.547 -20.306   5.496  0.00  0.00    -0.043 A 
ATOM      5  C   LIG    1       27.629 -19.534   5.041  0.00  0.00    +0.005 A 
ATOM      6  C   LIG    1       28.686 -19.217   5.890  0.00  0.00    +0.020 A 
ATOM      7  C   LIG    1       28.666 -19.676   7.202  0.00  0.00    +0.041 A 
ATOM      8 CL   LIG    1       29.956 -19.269   8.265  0.00  0.00    -0.084 Cl
ATOM      9  C   LIG    1       25.392 -20.568   4.556  0.00  0.00    +0.050 C 
ATOM     10  C   LIG    1       24.109 -19.873   5.028  0.00  0.00    +0.085 C 
ATOM     11  N   LIG    1       23.354 -20.620   6.038  0.00  0.00    -0.315 NA
ATOM     12  H   LIG    1       22.470 -20.135   6.196  0.00  0.00    +0.122 HD
ATOM     13  C   LIG    1       27.604 -20.452   7.666  0.00  0.00    +0.024 A 
ATOM     14  C   LIG    1       24.041 -20.746   7.331  0.00  0.00    +0.088 C 
ENDROOT
TORSDOF 0
ENDMDL
MODEL 9
REMARK VINA RESULT:      -5.9      3.034      3.574
REMARK  Name = *****
REMARK                            x       y       z     vdW  Elec       q    Type
REMARK                         _______ _______ _______ _____ _____    ______ ____
ROOT
ATOM      1  C   LIG    1       24.070 -21.546   3.206  0.00  0.00    +0.014 C 
ATOM      2  C   LIG    1       24.254 -21.394   4.724  0.00  0.00    +0.030 C 
ATOM      3  C   LIG    1       24.810 -22.633   5.427  0.00  0.00    -0.039 A 
ATOM      4  C   LIG    1       25.215 -22.544   6.778  0.00  0.00    -0.043 A 
ATOM      5  C   LIG    1       25.713 -23.678   7.441  0.00  0.00    +0.005 A 
ATOM      6  C   LIG    1       25.805 -24.904   6.787  0.00  0.00    +0.020 A 
ATOM      7  C   LIG    1       25.401 -25.000   5.460  0.00  0.00    +0.041 A 
ATOM      8 CL   LIG    1       25.489 -26.516   4.652  0.00  0.00    -0.084 Cl
ATOM      9  C   LIG    1       25.072 -21.252   7.549  0.00  0.00    +0.050 C 
ATOM     10  C   LIG    1       23.602 -20.856   7.723  0.00  0.00    +0.085 C 
ATOM     11  N   LIG    1       23.028 -20.143   6.577  0.00  0.00    -0.315 NA
ATOM     12  H   LIG    1       22.094 -19.825   6.838  0.00  0.00    +0.122 HD
ATOM     13  C   LIG    1       24.914 -23.880   4.784  0.00  0.00    +0.024 A 
ATOM     14  C   LIG    1       22.909 -20.958   5.361  0.00  0.00    +0.088 C 
ENDROOT
TORSDOF 0
ENDMDL
