MODEL 1
REMARK VINA RESULT:      -9.1      0.000      0.000
REMARK  Name = *****
REMARK                            x       y       z     vdW  Elec       q    Type
REMARK                         _______ _______ _______ _____ _____    ______ ____
ROOT
ATOM      1  C   LIG    1       24.774 -23.156   4.633  0.00  0.00    +0.105 C 
ATOM      2  N   LIG    1       24.865 -22.107   5.717  0.00  0.00    -0.302 NA
ATOM      3  C   LIG    1       24.749 -20.807   4.919  0.00  0.00    +0.065 C 
ATOM      4  C   LIG    1       24.073 -20.629   6.153  0.00  0.00    +0.021 C 
ATOM      5  C   LIG    1       25.730 -20.912   7.098  0.00  0.00    +0.049 C 
ATOM      6  C   LIG    1       26.522 -22.596   7.059  0.00  0.00    +0.250 C 
ATOM      7  O   LIG    1       27.713 -22.266   7.834  0.00  0.00    -0.476 OA
ATOM      8  C   LIG    1       28.051 -21.001   7.301  0.00  0.00    +0.167 A 
ATOM      9  C   LIG    1       29.321 -20.530   7.087  0.00  0.00    +0.159 A 
ATOM     10  C   LIG    1       29.488 -19.561   6.091  0.00  0.00    +0.049 A 
ATOM     11  C   LIG    1       28.397 -19.189   5.258  0.00  0.00    +0.008 A 
ATOM     12  C   LIG    1       27.117 -19.668   5.534  0.00  0.00    -0.038 A 
ATOM     13  C   LIG    1       25.317 -24.036   7.091  0.00  0.00    +0.174 C 
ATOM     14  O   LIG    1       25.693 -25.162   7.427  0.00  0.00    -0.293 OA
ATOM     15  C   LIG    1       23.493 -23.734   6.729  0.00  0.00    +0.078 C 
ATOM     16  C   LIG    1       26.984 -20.333   6.714  0.00  0.00    +0.012 A 
ATOM     17  C   LIG    1       25.191 -20.858   8.404  0.00  0.00    +0.031 C 
ATOM     18  C   LIG    1       22.777 -22.072   6.181  0.00  0.00    +0.014 C 
ATOM     19  C   LIG    1       25.891 -19.704   4.637  0.00  0.00    +0.054 C 
ATOM     20  C   LIG    1       24.447 -21.953   7.658  0.00  0.00    +0.085 C 
ENDROOT
BRANCH   9  21
ATOM     21  O   LIG    1       30.391 -20.991   7.784  0.00  0.00    -0.503 OA
ATOM     22  H   LIG    1       31.181 -20.670   7.310  0.00  0.00    +0.292 HD
ENDBRANCH   9  21
TORSDOF 1
ENDMDL
MODEL 2
REMARK VINA RESULT:      -6.5      7.399      9.909
REMARK  Name = *****
REMARK                            x       y       z     vdW  Elec       q    Type
REMARK                         _______ _______ _______ _____ _____    ______ ____
ROOT
ATOM      1  C   LIG    1       23.998 -29.093  12.197  0.00  0.00    +0.105 C 
ATOM      2  N   LIG    1       24.834 -29.887  11.220  0.00  0.00    -0.302 NA
ATOM      3  C   LIG    1       26.092 -29.024  11.096  0.00  0.00    +0.065 C 
ATOM      4  C   LIG    1       26.484 -30.385  11.041  0.00  0.00    +0.021 C 
ATOM      5  C   LIG    1       25.440 -30.618   9.436  0.00  0.00    +0.049 C 
ATOM      6  C   LIG    1       23.584 -30.509   9.537  0.00  0.00    +0.250 C 
ATOM      7  O   LIG    1       23.305 -30.686   8.115  0.00  0.00    -0.476 OA
ATOM      8  C   LIG    1       24.314 -29.886   7.531  0.00  0.00    +0.167 A 
ATOM      9  C   LIG    1       24.179 -29.116   6.404  0.00  0.00    +0.159 A 
ATOM     10  C   LIG    1       25.025 -28.009   6.278  0.00  0.00    +0.049 A 
ATOM     11  C   LIG    1       25.891 -27.637   7.344  0.00  0.00    +0.008 A 
ATOM     12  C   LIG    1       26.019 -28.468   8.456  0.00  0.00    -0.038 A 
ATOM     13  C   LIG    1       22.834 -31.227  11.100  0.00  0.00    +0.174 C 
ATOM     14  O   LIG    1       21.642 -31.543  11.137  0.00  0.00    -0.293 OA
ATOM     15  C   LIG    1       23.937 -31.586  12.585  0.00  0.00    +0.078 C 
ATOM     16  C   LIG    1       25.419 -29.685   8.348  0.00  0.00    +0.012 A 
ATOM     17  C   LIG    1       25.657 -32.008   9.294  0.00  0.00    +0.031 C 
ATOM     18  C   LIG    1       25.772 -31.137  12.682  0.00  0.00    +0.014 C 
ATOM     19  C   LIG    1       26.583 -28.152   9.831  0.00  0.00    +0.054 C 
ATOM     20  C   LIG    1       25.052 -31.789  10.671  0.00  0.00    +0.085 C 
ENDROOT
BRANCH   9  21
ATOM     21  O   LIG    1       23.253 -29.386   5.450  0.00  0.00    -0.503 OA
ATOM     22  H   LIG    1       23.238 -28.608   4.860  0.00  0.00    +0.292 HD
ENDBRANCH   9  21
TORSDOF 1
ENDMDL
