MODEL 1
REMARK VINA RESULT:      -4.6      0.000      0.000
REMARK  Name = *****
REMARK                            x       y       z     vdW  Elec       q    Type
REMARK                         _______ _______ _______ _____ _____    ______ ____
ROOT
ATOM      1  O   LIG    1       22.712 -14.800   4.622  0.00  0.00    -0.270 OA
ATOM      2  C   LIG    1       23.613 -15.540   4.278  0.00  0.00    +0.255 C 
ATOM      3  N   LIG    1       24.879 -15.222   3.864  0.00  0.00    -0.222 N 
ATOM      4  C   LIG    1       25.574 -16.335   3.481  0.00  0.00    +0.255 C 
ATOM      5  O   LIG    1       26.707 -16.415   3.048  0.00  0.00    -0.270 OA
ATOM      6  C   LIG    1       24.694 -17.479   3.701  0.00  0.00    +0.049 A 
ATOM      7  C   LIG    1       24.908 -18.827   3.494  0.00  0.00    +0.014 A 
ATOM      8  C   LIG    1       23.854 -19.695   3.803  0.00  0.00    +0.001 A 
ATOM      9  C   LIG    1       22.631 -19.199   4.302  0.00  0.00    +0.001 A 
ATOM     10  C   LIG    1       22.441 -17.828   4.502  0.00  0.00    +0.014 A 
ATOM     11  C   LIG    1       23.497 -16.993   4.193  0.00  0.00    +0.049 A 
ENDROOT
BRANCH   3  12
ATOM     12  C   LIG    1       25.376 -13.854   3.800  0.00  0.00    +0.171 C 
ATOM     13  C   LIG    1       26.290 -13.588   4.993  0.00  0.00    +0.240 C 
ATOM     14  O   LIG    1       25.920 -13.735   6.159  0.00  0.00    -0.273 OA
ATOM     15  N   LIG    1       27.588 -13.237   4.715  0.00  0.00    -0.255 N 
ATOM     16  H   LIG    1       28.178 -13.073   5.519  0.00  0.00    +0.158 HD
ATOM     17  C   LIG    1       28.258 -13.374   3.527  0.00  0.00    +0.219 C 
ATOM     18  O   LIG    1       29.473 -13.196   3.468  0.00  0.00    -0.275 OA
ATOM     19  C   LIG    1       27.453 -13.811   2.328  0.00  0.00    +0.098 C 
ATOM     20  C   LIG    1       25.985 -13.449   2.460  0.00  0.00    +0.042 C 
ENDBRANCH   3  12
TORSDOF 1
ENDMDL
MODEL 2
REMARK VINA RESULT:      -4.4      0.129      2.008
REMARK  Name = *****
REMARK                            x       y       z     vdW  Elec       q    Type
REMARK                         _______ _______ _______ _____ _____    ______ ____
ROOT
ATOM      1  O   LIG    1       26.763 -16.248   3.168  0.00  0.00    -0.270 OA
ATOM      2  C   LIG    1       25.606 -16.203   3.535  0.00  0.00    +0.255 C 
ATOM      3  N   LIG    1       24.858 -15.114   3.898  0.00  0.00    -0.222 N 
ATOM      4  C   LIG    1       23.616 -15.484   4.331  0.00  0.00    +0.255 C 
ATOM      5  O   LIG    1       22.711 -14.782   4.741  0.00  0.00    -0.270 OA
ATOM      6  C   LIG    1       23.538 -16.936   4.204  0.00  0.00    +0.049 A 
ATOM      7  C   LIG    1       22.505 -17.807   4.489  0.00  0.00    +0.014 A 
ATOM      8  C   LIG    1       22.737 -19.168   4.260  0.00  0.00    +0.001 A 
ATOM      9  C   LIG    1       23.978 -19.617   3.761  0.00  0.00    +0.001 A 
ATOM     10  C   LIG    1       25.008 -18.712   3.481  0.00  0.00    +0.014 A 
ATOM     11  C   LIG    1       24.753 -17.375   3.712  0.00  0.00    +0.049 A 
ENDROOT
BRANCH   3  12
ATOM     12  C   LIG    1       25.369 -13.750   3.865  0.00  0.00    +0.171 C 
ATOM     13  C   LIG    1       26.271 -13.515   5.074  0.00  0.00    +0.240 C 
ATOM     14  O   LIG    1       25.886 -13.681   6.232  0.00  0.00    -0.273 OA
ATOM     15  N   LIG    1       27.576 -13.171   4.816  0.00  0.00    -0.255 N 
ATOM     16  H   LIG    1       28.158 -13.028   5.630  0.00  0.00    +0.158 HD
ATOM     17  C   LIG    1       28.258 -13.293   3.634  0.00  0.00    +0.219 C 
ATOM     18  O   LIG    1       29.475 -13.125   3.592  0.00  0.00    -0.275 OA
ATOM     19  C   LIG    1       27.463 -13.700   2.418  0.00  0.00    +0.098 C 
ATOM     20  C   LIG    1       25.997 -13.326   2.540  0.00  0.00    +0.042 C 
ENDBRANCH   3  12
TORSDOF 1
ENDMDL
MODEL 3
REMARK VINA RESULT:      -4.3      2.617      6.117
REMARK  Name = *****
REMARK                            x       y       z     vdW  Elec       q    Type
REMARK                         _______ _______ _______ _____ _____    ______ ____
ROOT
ATOM      1  O   LIG    1       26.754 -17.619   2.945  0.00  0.00    -0.270 OA
ATOM      2  C   LIG    1       25.705 -17.192   3.385  0.00  0.00    +0.255 C 
ATOM      3  N   LIG    1       24.585 -17.883   3.765  0.00  0.00    -0.222 N 
ATOM      4  C   LIG    1       23.576 -17.036   4.131  0.00  0.00    +0.255 C 
ATOM      5  O   LIG    1       22.450 -17.307   4.502  0.00  0.00    -0.270 OA
ATOM      6  C   LIG    1       24.100 -15.678   4.013  0.00  0.00    +0.049 A 
ATOM      7  C   LIG    1       23.503 -14.461   4.273  0.00  0.00    +0.014 A 
ATOM      8  C   LIG    1       24.274 -13.314   4.058  0.00  0.00    +0.001 A 
ATOM      9  C   LIG    1       25.603 -13.410   3.594  0.00  0.00    +0.001 A 
ATOM     10  C   LIG    1       26.184 -14.657   3.339  0.00  0.00    +0.014 A 
ATOM     11  C   LIG    1       25.403 -15.774   3.561  0.00  0.00    +0.049 A 
ENDROOT
BRANCH   3  12
ATOM     12  C   LIG    1       24.493 -19.336   3.723  0.00  0.00    +0.171 C 
ATOM     13  C   LIG    1       25.398 -19.935   4.797  0.00  0.00    +0.240 C 
ATOM     14  O   LIG    1       26.605 -19.697   4.857  0.00  0.00    -0.273 OA
ATOM     15  N   LIG    1       24.794 -20.711   5.756  0.00  0.00    -0.255 N 
ATOM     16  H   LIG    1       25.410 -21.091   6.461  0.00  0.00    +0.158 HD
ATOM     17  C   LIG    1       23.458 -20.787   6.054  0.00  0.00    +0.219 C 
ATOM     18  O   LIG    1       23.074 -21.378   7.061  0.00  0.00    -0.275 OA
ATOM     19  C   LIG    1       22.504 -20.066   5.135  0.00  0.00    +0.098 C 
ATOM     20  C   LIG    1       23.072 -19.895   3.738  0.00  0.00    +0.042 C 
ENDBRANCH   3  12
TORSDOF 1
ENDMDL
MODEL 4
REMARK VINA RESULT:      -4.1      2.600      5.780
REMARK  Name = *****
REMARK                            x       y       z     vdW  Elec       q    Type
REMARK                         _______ _______ _______ _____ _____    ______ ____
ROOT
ATOM      1  O   LIG    1       22.513 -17.353   4.556  0.00  0.00    -0.270 OA
ATOM      2  C   LIG    1       23.613 -17.059   4.130  0.00  0.00    +0.255 C 
ATOM      3  N   LIG    1       24.627 -17.882   3.719  0.00  0.00    -0.222 N 
ATOM      4  C   LIG    1       25.744 -17.170   3.384  0.00  0.00    +0.255 C 
ATOM      5  O   LIG    1       26.822 -17.579   2.999  0.00  0.00    -0.270 OA
ATOM      6  C   LIG    1       25.413 -15.758   3.558  0.00  0.00    +0.049 A 
ATOM      7  C   LIG    1       26.174 -14.626   3.344  0.00  0.00    +0.014 A 
ATOM      8  C   LIG    1       25.570 -13.392   3.607  0.00  0.00    +0.001 A 
ATOM      9  C   LIG    1       24.239 -13.322   4.071  0.00  0.00    +0.001 A 
ATOM     10  C   LIG    1       23.490 -14.486   4.279  0.00  0.00    +0.014 A 
ATOM     11  C   LIG    1       24.108 -15.690   4.009  0.00  0.00    +0.049 A 
ENDROOT
BRANCH   3  12
ATOM     12  C   LIG    1       24.516 -19.335   3.703  0.00  0.00    +0.171 C 
ATOM     13  C   LIG    1       25.402 -19.925   4.797  0.00  0.00    +0.240 C 
ATOM     14  O   LIG    1       26.611 -19.701   4.866  0.00  0.00    -0.273 OA
ATOM     15  N   LIG    1       24.778 -20.676   5.763  0.00  0.00    -0.255 N 
ATOM     16  H   LIG    1       25.381 -21.051   6.482  0.00  0.00    +0.158 HD
ATOM     17  C   LIG    1       23.438 -20.730   6.048  0.00  0.00    +0.219 C 
ATOM     18  O   LIG    1       23.035 -21.297   7.062  0.00  0.00    -0.275 OA
ATOM     19  C   LIG    1       22.503 -20.014   5.106  0.00  0.00    +0.098 C 
ATOM     20  C   LIG    1       23.089 -19.875   3.712  0.00  0.00    +0.042 C 
ENDBRANCH   3  12
TORSDOF 1
ENDMDL
MODEL 5
REMARK VINA RESULT:      -3.6      1.804      3.211
REMARK  Name = *****
REMARK                            x       y       z     vdW  Elec       q    Type
REMARK                         _______ _______ _______ _____ _____    ______ ____
ROOT
ATOM      1  O   LIG    1       26.866 -17.167   2.945  0.00  0.00    -0.270 OA
ATOM      2  C   LIG    1       25.721 -17.034   3.330  0.00  0.00    +0.255 C 
ATOM      3  N   LIG    1       25.035 -15.884   3.615  0.00  0.00    -0.222 N 
ATOM      4  C   LIG    1       23.787 -16.154   4.103  0.00  0.00    +0.255 C 
ATOM      5  O   LIG    1       22.927 -15.377   4.471  0.00  0.00    -0.270 OA
ATOM      6  C   LIG    1       23.638 -17.607   4.101  0.00  0.00    +0.049 A 
ATOM      7  C   LIG    1       22.573 -18.399   4.480  0.00  0.00    +0.014 A 
ATOM      8  C   LIG    1       22.734 -19.784   4.363  0.00  0.00    +0.001 A 
ATOM      9  C   LIG    1       23.940 -20.334   3.879  0.00  0.00    +0.001 A 
ATOM     10  C   LIG    1       25.005 -19.507   3.502  0.00  0.00    +0.014 A 
ATOM     11  C   LIG    1       24.819 -18.145   3.624  0.00  0.00    +0.049 A 
ENDROOT
BRANCH   3  12
ATOM     12  C   LIG    1       25.608 -14.554   3.456  0.00  0.00    +0.171 C 
ATOM     13  C   LIG    1       24.517 -13.576   3.029  0.00  0.00    +0.240 C 
ATOM     14  O   LIG    1       23.830 -13.747   2.021  0.00  0.00    -0.273 OA
ATOM     15  N   LIG    1       24.275 -12.513   3.863  0.00  0.00    -0.255 N 
ATOM     16  H   LIG    1       23.543 -11.882   3.566  0.00  0.00    +0.158 HD
ATOM     17  C   LIG    1       24.673 -12.362   5.167  0.00  0.00    +0.219 C 
ATOM     18  O   LIG    1       24.227 -11.447   5.856  0.00  0.00    -0.275 OA
ATOM     19  C   LIG    1       25.619 -13.397   5.723  0.00  0.00    +0.098 C 
ATOM     20  C   LIG    1       26.442 -14.064   4.637  0.00  0.00    +0.042 C 
ENDBRANCH   3  12
TORSDOF 1
ENDMDL
MODEL 6
REMARK VINA RESULT:      -3.5      4.069      6.970
REMARK  Name = *****
REMARK                            x       y       z     vdW  Elec       q    Type
REMARK                         _______ _______ _______ _____ _____    ______ ____
ROOT
ATOM      1  O   LIG    1       26.468 -17.709   3.381  0.00  0.00    -0.270 OA
ATOM      2  C   LIG    1       26.388 -18.651   4.146  0.00  0.00    +0.255 C 
ATOM      3  N   LIG    1       25.344 -19.516   4.342  0.00  0.00    -0.222 N 
ATOM      4  C   LIG    1       25.609 -20.396   5.354  0.00  0.00    +0.255 C 
ATOM      5  O   LIG    1       24.902 -21.279   5.800  0.00  0.00    -0.270 OA
ATOM      6  C   LIG    1       26.956 -20.099   5.831  0.00  0.00    +0.049 A 
ATOM      7  C   LIG    1       27.708 -20.697   6.823  0.00  0.00    +0.014 A 
ATOM      8  C   LIG    1       28.987 -20.178   7.054  0.00  0.00    +0.001 A 
ATOM      9  C   LIG    1       29.475 -19.090   6.299  0.00  0.00    +0.001 A 
ATOM     10  C   LIG    1       28.691 -18.503   5.300  0.00  0.00    +0.014 A 
ATOM     11  C   LIG    1       27.435 -19.035   5.089  0.00  0.00    +0.049 A 
ENDROOT
BRANCH   3  12
ATOM     12  C   LIG    1       24.101 -19.448   3.587  0.00  0.00    +0.171 C 
ATOM     13  C   LIG    1       23.698 -20.851   3.141  0.00  0.00    +0.240 C 
ATOM     14  O   LIG    1       24.437 -21.572   2.469  0.00  0.00    -0.273 OA
ATOM     15  N   LIG    1       22.485 -21.319   3.583  0.00  0.00    -0.255 N 
ATOM     16  H   LIG    1       22.241 -22.253   3.283  0.00  0.00    +0.158 HD
ATOM     17  C   LIG    1       21.715 -20.822   4.603  0.00  0.00    +0.219 C 
ATOM     18  O   LIG    1       20.744 -21.450   5.019  0.00  0.00    -0.275 OA
ATOM     19  C   LIG    1       22.151 -19.517   5.223  0.00  0.00    +0.098 C 
ATOM     20  C   LIG    1       22.973 -18.674   4.266  0.00  0.00    +0.042 C 
ENDBRANCH   3  12
TORSDOF 1
ENDMDL
MODEL 7
REMARK VINA RESULT:      -3.5      4.048      6.908
REMARK  Name = *****
REMARK                            x       y       z     vdW  Elec       q    Type
REMARK                         _______ _______ _______ _____ _____    ______ ____
ROOT
ATOM      1  O   LIG    1       24.974 -21.302   5.676  0.00  0.00    -0.270 OA
ATOM      2  C   LIG    1       25.632 -20.360   5.279  0.00  0.00    +0.255 C 
ATOM      3  N   LIG    1       25.326 -19.443   4.309  0.00  0.00    -0.222 N 
ATOM      4  C   LIG    1       26.364 -18.581   4.091  0.00  0.00    +0.255 C 
ATOM      5  O   LIG    1       26.439 -17.664   3.296  0.00  0.00    -0.270 OA
ATOM      6  C   LIG    1       27.422 -18.949   5.027  0.00  0.00    +0.049 A 
ATOM      7  C   LIG    1       28.670 -18.394   5.233  0.00  0.00    +0.014 A 
ATOM      8  C   LIG    1       29.473 -18.978   6.218  0.00  0.00    +0.001 A 
ATOM      9  C   LIG    1       29.016 -20.088   6.961  0.00  0.00    +0.001 A 
ATOM     10  C   LIG    1       27.747 -20.630   6.732  0.00  0.00    +0.014 A 
ATOM     11  C   LIG    1       26.973 -20.033   5.757  0.00  0.00    +0.049 A 
ENDROOT
BRANCH   3  12
ATOM     12  C   LIG    1       24.064 -19.444   3.582  0.00  0.00    +0.171 C 
ATOM     13  C   LIG    1       23.714 -20.872   3.170  0.00  0.00    +0.240 C 
ATOM     14  O   LIG    1       24.469 -21.571   2.493  0.00  0.00    -0.273 OA
ATOM     15  N   LIG    1       22.533 -21.385   3.648  0.00  0.00    -0.255 N 
ATOM     16  H   LIG    1       22.325 -22.334   3.370  0.00  0.00    +0.158 HD
ATOM     17  C   LIG    1       21.765 -20.903   4.676  0.00  0.00    +0.219 C 
ATOM     18  O   LIG    1       20.832 -21.566   5.125  0.00  0.00    -0.275 OA
ATOM     19  C   LIG    1       22.156 -19.570   5.263  0.00  0.00    +0.098 C 
ATOM     20  C   LIG    1       22.918 -18.709   4.272  0.00  0.00    +0.042 C 
ENDBRANCH   3  12
TORSDOF 1
ENDMDL
MODEL 8
REMARK VINA RESULT:      -3.2      1.861      2.572
REMARK  Name = *****
REMARK                            x       y       z     vdW  Elec       q    Type
REMARK                         _______ _______ _______ _____ _____    ______ ____
ROOT
ATOM      1  O   LIG    1       22.949 -15.384   4.352  0.00  0.00    -0.270 OA
ATOM      2  C   LIG    1       23.815 -16.188   4.070  0.00  0.00    +0.255 C 
ATOM      3  N   LIG    1       25.099 -15.961   3.648  0.00  0.00    -0.222 N 
ATOM      4  C   LIG    1       25.741 -17.131   3.351  0.00  0.00    +0.255 C 
ATOM      5  O   LIG    1       26.872 -17.295   2.936  0.00  0.00    -0.270 OA
ATOM      6  C   LIG    1       24.804 -18.213   3.640  0.00  0.00    +0.049 A 
ATOM      7  C   LIG    1       24.953 -19.581   3.529  0.00  0.00    +0.014 A 
ATOM      8  C   LIG    1       23.856 -20.373   3.886  0.00  0.00    +0.001 A 
ATOM      9  C   LIG    1       22.655 -19.785   4.336  0.00  0.00    +0.001 A 
ATOM     10  C   LIG    1       22.531 -18.396   4.439  0.00  0.00    +0.014 A 
ATOM     11  C   LIG    1       23.629 -17.637   4.084  0.00  0.00    +0.049 A 
ENDROOT
BRANCH   3  12
ATOM     12  C   LIG    1       25.663 -14.627   3.495  0.00  0.00    +0.171 C 
ATOM     13  C   LIG    1       24.613 -13.696   2.893  0.00  0.00    +0.240 C 
ATOM     14  O   LIG    1       24.056 -13.929   1.820  0.00  0.00    -0.273 OA
ATOM     15  N   LIG    1       24.253 -12.601   3.640  0.00  0.00    -0.255 N 
ATOM     16  H   LIG    1       23.551 -12.003   3.227  0.00  0.00    +0.158 HD
ATOM     17  C   LIG    1       24.487 -12.381   4.973  0.00  0.00    +0.219 C 
ATOM     18  O   LIG    1       23.944 -11.447   5.559  0.00  0.00    -0.275 OA
ATOM     19  C   LIG    1       25.377 -13.367   5.688  0.00  0.00    +0.098 C 
ATOM     20  C   LIG    1       26.338 -14.063   4.742  0.00  0.00    +0.042 C 
ENDBRANCH   3  12
TORSDOF 1
ENDMDL
MODEL 9
REMARK VINA RESULT:      -3.1      4.210      6.531
REMARK  Name = *****
REMARK                            x       y       z     vdW  Elec       q    Type
REMARK                         _______ _______ _______ _____ _____    ______ ____
ROOT
ATOM      1  O   LIG    1       25.753 -18.397   3.413  0.00  0.00    -0.270 OA
ATOM      2  C   LIG    1       26.089 -19.118   4.333  0.00  0.00    +0.255 C 
ATOM      3  N   LIG    1       25.404 -20.153   4.912  0.00  0.00    -0.222 N 
ATOM      4  C   LIG    1       26.085 -20.667   5.979  0.00  0.00    +0.255 C 
ATOM      5  O   LIG    1       25.763 -21.572   6.725  0.00  0.00    -0.270 OA
ATOM      6  C   LIG    1       27.338 -19.925   6.079  0.00  0.00    +0.049 A 
ATOM      7  C   LIG    1       28.388 -20.052   6.968  0.00  0.00    +0.014 A 
ATOM      8  C   LIG    1       29.469 -19.179   6.807  0.00  0.00    +0.001 A 
ATOM      9  C   LIG    1       29.473 -18.213   5.778  0.00  0.00    +0.001 A 
ATOM     10  C   LIG    1       28.396 -18.105   4.892  0.00  0.00    +0.014 A 
ATOM     11  C   LIG    1       27.343 -18.981   5.070  0.00  0.00    +0.049 A 
ENDROOT
BRANCH   3  12
ATOM     12  C   LIG    1       24.092 -20.593   4.457  0.00  0.00    +0.171 C 
ATOM     13  C   LIG    1       23.056 -20.315   5.544  0.00  0.00    +0.240 C 
ATOM     14  O   LIG    1       23.159 -20.759   6.688  0.00  0.00    -0.273 OA
ATOM     15  N   LIG    1       22.019 -19.478   5.213  0.00  0.00    -0.255 N 
ATOM     16  H   LIG    1       21.349 -19.301   5.949  0.00  0.00    +0.158 HD
ATOM     17  C   LIG    1       21.936 -18.627   4.141  0.00  0.00    +0.219 C 
ATOM     18  O   LIG    1       21.034 -17.796   4.069  0.00  0.00    -0.275 OA
ATOM     19  C   LIG    1       23.028 -18.716   3.105  0.00  0.00    +0.098 C 
ATOM     20  C   LIG    1       23.682 -20.086   3.077  0.00  0.00    +0.042 C 
ENDBRANCH   3  12
TORSDOF 1
ENDMDL
