MODEL 1
REMARK VINA RESULT:      -6.0      0.000      0.000
REMARK  Name = *****
REMARK                            x       y       z     vdW  Elec       q    Type
REMARK                         _______ _______ _______ _____ _____    ______ ____
ROOT
ATOM      1  C   LIG    1       25.833 -30.226   8.828  0.00  0.00    +0.064 C 
ATOM      2  C   LIG    1       25.475 -31.706   8.524  0.00  0.00    +0.117 C 
ATOM      3  C   LIG    1       25.357 -32.044   7.015  0.00  0.00    +0.062 C 
ATOM      4  C   LIG    1       24.322 -31.092   6.393  0.00  0.00    +0.151 C 
ATOM      5  C   LIG    1       24.755 -29.653   6.548  0.00  0.00    -0.011 A 
ATOM      6  C   LIG    1       24.367 -28.708   5.582  0.00  0.00    +0.056 A 
ATOM      7  C   LIG    1       24.772 -27.403   5.751  0.00  0.00    +0.167 A 
ATOM      8  O   LIG    1       24.464 -26.363   4.930  0.00  0.00    -0.453 OA
ATOM      9  C   LIG    1       25.141 -25.279   5.599  0.00  0.00    +0.466 C 
ATOM     10  O   LIG    1       25.819 -25.685   6.805  0.00  0.00    -0.453 OA
ATOM     11  C   LIG    1       25.547 -27.017   6.816  0.00  0.00    +0.167 A 
ATOM     12  C   LIG    1       25.953 -27.912   7.782  0.00  0.00    +0.054 A 
ATOM     13  C   LIG    1       25.533 -29.254   7.671  0.00  0.00    -0.030 A 
ENDROOT
BRANCH   1  18
ATOM     14  C   LIG    1       25.053 -28.599  12.252  0.00  0.00    +0.165 A 
ATOM     15  C   LIG    1       23.682 -28.902  12.415  0.00  0.00    +0.203 A 
ATOM     16  C   LIG    1       23.027 -29.665  11.430  0.00  0.00    +0.165 A 
ATOM     17  C   LIG    1       23.755 -30.122  10.327  0.00  0.00    +0.053 A 
ATOM     18  C   LIG    1       25.101 -29.772  10.111  0.00  0.00    -0.032 A 
ATOM     19  C   LIG    1       25.742 -29.012  11.094  0.00  0.00    +0.053 A 
BRANCH  14  21
ATOM     20  C   LIG    1       26.697 -26.888  12.539  0.00  0.00    +0.277 C 
ATOM     21  O   LIG    1       25.842 -27.871  13.114  0.00  0.00    -0.491 OA
ENDBRANCH  14  21
BRANCH  15  22
ATOM     22  O   LIG    1       23.047 -28.326  13.487  0.00  0.00    -0.488 OA
ATOM     23  C   LIG    1       22.484 -27.033  13.315  0.00  0.00    +0.277 C 
ENDBRANCH  15  22
BRANCH  16  24
ATOM     24  O   LIG    1       21.714 -30.002  11.619  0.00  0.00    -0.491 OA
ATOM     25  C   LIG    1       21.037 -30.782  10.640  0.00  0.00    +0.277 C 
ENDBRANCH  16  24
ENDBRANCH   1  18
BRANCH   2  26
ATOM     26  C   LIG    1       26.456 -32.642   9.209  0.00  0.00    +0.309 C 
ATOM     27  O   LIG    1       26.255 -33.824   9.406  0.00  0.00    -0.251 OA
BRANCH  26  28
ATOM     28  O   LIG    1       27.611 -32.048   9.584  0.00  0.00    -0.480 OA
ATOM     29  H   LIG    1       28.362 -32.160   8.972  0.00  0.00    +0.295 HD
ENDBRANCH  26  28
ENDBRANCH   2  26
BRANCH   4  30
ATOM     30  O   LIG    1       23.069 -31.259   7.061  0.00  0.00    -0.387 OA
ATOM     31  H   LIG    1       22.430 -30.665   6.632  0.00  0.00    +0.210 HD
ENDBRANCH   4  30
BRANCH   3  32
ATOM     32  C   LIG    1       26.673 -32.012   6.216  0.00  0.00    +0.163 C 
BRANCH  32  33
ATOM     33  O   LIG    1       26.394 -32.317   4.851  0.00  0.00    -0.395 OA
ATOM     34  H   LIG    1       26.731 -31.570   4.324  0.00  0.00    +0.209 HD
ENDBRANCH  32  33
ENDBRANCH   3  32
TORSDOF 9
ENDMDL
MODEL 2
REMARK VINA RESULT:      -6.0      1.032      2.578
REMARK  Name = *****
REMARK                            x       y       z     vdW  Elec       q    Type
REMARK                         _______ _______ _______ _____ _____    ______ ____
ROOT
ATOM      1  C   LIG    1       25.536 -30.624   8.746  0.00  0.00    +0.064 C 
ATOM      2  C   LIG    1       25.310 -32.094   8.300  0.00  0.00    +0.117 C 
ATOM      3  C   LIG    1       25.581 -32.359   6.796  0.00  0.00    +0.062 C 
ATOM      4  C   LIG    1       24.706 -31.398   5.975  0.00  0.00    +0.151 C 
ATOM      5  C   LIG    1       25.043 -29.961   6.295  0.00  0.00    -0.011 A 
ATOM      6  C   LIG    1       24.880 -28.977   5.303  0.00  0.00    +0.056 A 
ATOM      7  C   LIG    1       25.191 -27.674   5.623  0.00  0.00    +0.167 A 
ATOM      8  O   LIG    1       25.066 -26.602   4.795  0.00  0.00    -0.453 OA
ATOM      9  C   LIG    1       25.523 -25.540   5.658  0.00  0.00    +0.466 C 
ATOM     10  O   LIG    1       25.891 -25.991   6.977  0.00  0.00    -0.453 OA
ATOM     11  C   LIG    1       25.665 -27.326   6.864  0.00  0.00    +0.167 A 
ATOM     12  C   LIG    1       25.844 -28.260   7.862  0.00  0.00    +0.054 A 
ATOM     13  C   LIG    1       25.505 -29.602   7.592  0.00  0.00    -0.030 A 
ENDROOT
BRANCH   1  18
ATOM     14  C   LIG    1       22.200 -30.160  10.651  0.00  0.00    +0.165 A 
ATOM     15  C   LIG    1       22.635 -29.597  11.872  0.00  0.00    +0.203 A 
ATOM     16  C   LIG    1       24.007 -29.337  12.057  0.00  0.00    +0.165 A 
ATOM     17  C   LIG    1       24.898 -29.622  11.019  0.00  0.00    +0.053 A 
ATOM     18  C   LIG    1       24.495 -30.246   9.823  0.00  0.00    -0.032 A 
ATOM     19  C   LIG    1       23.131 -30.502   9.651  0.00  0.00    +0.053 A 
BRANCH  14  21
ATOM     20  C   LIG    1       20.470 -31.807  10.557  0.00  0.00    +0.277 C 
ATOM     21  O   LIG    1       20.904 -30.473  10.307  0.00  0.00    -0.491 OA
ENDBRANCH  14  21
BRANCH  15  22
ATOM     22  O   LIG    1       21.688 -29.445  12.853  0.00  0.00    -0.488 OA
ATOM     23  C   LIG    1       20.972 -28.219  12.909  0.00  0.00    +0.277 C 
ENDBRANCH  15  22
BRANCH  16  24
ATOM     24  O   LIG    1       24.417 -28.742  13.219  0.00  0.00    -0.491 OA
ATOM     25  C   LIG    1       24.716 -27.352  13.234  0.00  0.00    +0.277 C 
ENDBRANCH  16  24
ENDBRANCH   1  18
BRANCH   2  26
ATOM     26  C   LIG    1       26.117 -33.043   9.167  0.00  0.00    +0.309 C 
ATOM     27  O   LIG    1       27.330 -33.111   9.168  0.00  0.00    -0.251 OA
BRANCH  26  28
ATOM     28  O   LIG    1       25.364 -33.825   9.973  0.00  0.00    -0.480 OA
ATOM     29  H   LIG    1       24.451 -33.515  10.129  0.00  0.00    +0.295 HD
ENDBRANCH  26  28
ENDBRANCH   2  26
BRANCH   4  30
ATOM     30  O   LIG    1       23.331 -31.620   6.301  0.00  0.00    -0.387 OA
ATOM     31  H   LIG    1       22.811 -31.442   5.499  0.00  0.00    +0.210 HD
ENDBRANCH   4  30
BRANCH   3  32
ATOM     32  C   LIG    1       27.053 -32.265   6.354  0.00  0.00    +0.163 C 
BRANCH  32  33
ATOM     33  O   LIG    1       27.542 -33.578   6.087  0.00  0.00    -0.395 OA
ATOM     34  H   LIG    1       27.312 -33.779   5.162  0.00  0.00    +0.209 HD
ENDBRANCH  32  33
ENDBRANCH   3  32
TORSDOF 9
ENDMDL
MODEL 3
REMARK VINA RESULT:      -5.8      0.239      2.354
REMARK  Name = *****
REMARK                            x       y       z     vdW  Elec       q    Type
REMARK                         _______ _______ _______ _____ _____    ______ ____
ROOT
ATOM      1  C   LIG    1       25.842 -30.218   8.801  0.00  0.00    +0.064 C 
ATOM      2  C   LIG    1       25.494 -31.696   8.476  0.00  0.00    +0.117 C 
ATOM      3  C   LIG    1       25.405 -32.018   6.962  0.00  0.00    +0.062 C 
ATOM      4  C   LIG    1       24.379 -31.064   6.329  0.00  0.00    +0.151 C 
ATOM      5  C   LIG    1       24.805 -29.625   6.507  0.00  0.00    -0.011 A 
ATOM      6  C   LIG    1       24.433 -28.671   5.543  0.00  0.00    +0.056 A 
ATOM      7  C   LIG    1       24.831 -27.367   5.732  0.00  0.00    +0.167 A 
ATOM      8  O   LIG    1       24.536 -26.320   4.915  0.00  0.00    -0.453 OA
ATOM      9  C   LIG    1       25.197 -25.241   5.608  0.00  0.00    +0.466 C 
ATOM     10  O   LIG    1       25.853 -25.657   6.823  0.00  0.00    -0.453 OA
ATOM     11  C   LIG    1       25.585 -26.989   6.815  0.00  0.00    +0.167 A 
ATOM     12  C   LIG    1       25.975 -27.893   7.780  0.00  0.00    +0.054 A 
ATOM     13  C   LIG    1       25.561 -29.235   7.648  0.00  0.00    -0.030 A 
ENDROOT
BRANCH   1  18
ATOM     14  C   LIG    1       23.069 -29.689  11.448  0.00  0.00    +0.165 A 
ATOM     15  C   LIG    1       23.766 -29.009  12.472  0.00  0.00    +0.203 A 
ATOM     16  C   LIG    1       25.126 -28.694  12.282  0.00  0.00    +0.165 A 
ATOM     17  C   LIG    1       25.743 -29.041  11.077  0.00  0.00    +0.053 A 
ATOM     18  C   LIG    1       25.085 -29.779  10.075  0.00  0.00    -0.032 A 
ATOM     19  C   LIG    1       23.737 -30.089  10.274  0.00  0.00    +0.053 A 
BRANCH  14  21
ATOM     20  C   LIG    1       21.310 -30.960  10.446  0.00  0.00    +0.277 C 
ATOM     21  O   LIG    1       21.746 -30.069  11.468  0.00  0.00    -0.491 OA
ENDBRANCH  14  21
BRANCH  15  22
ATOM     22  O   LIG    1       23.088 -28.800  13.646  0.00  0.00    -0.488 OA
ATOM     23  C   LIG    1       22.392 -27.572  13.808  0.00  0.00    +0.277 C 
ENDBRANCH  15  22
BRANCH  16  24
ATOM     24  O   LIG    1       25.783 -27.988  13.254  0.00  0.00    -0.491 OA
ATOM     25  C   LIG    1       26.287 -26.690  12.965  0.00  0.00    +0.277 C 
ENDBRANCH  16  24
ENDBRANCH   1  18
BRANCH   2  26
ATOM     26  C   LIG    1       26.465 -32.635   9.169  0.00  0.00    +0.309 C 
ATOM     27  O   LIG    1       26.274 -33.825   9.331  0.00  0.00    -0.251 OA
BRANCH  26  28
ATOM     28  O   LIG    1       27.598 -32.036   9.598  0.00  0.00    -0.480 OA
ATOM     29  H   LIG    1       28.275 -32.631   9.971  0.00  0.00    +0.295 HD
ENDBRANCH  26  28
ENDBRANCH   2  26
BRANCH   4  30
ATOM     30  O   LIG    1       23.114 -31.241   6.972  0.00  0.00    -0.387 OA
ATOM     31  H   LIG    1       23.199 -31.999   7.575  0.00  0.00    +0.210 HD
ENDBRANCH   4  30
BRANCH   3  32
ATOM     32  C   LIG    1       26.735 -31.975   6.188  0.00  0.00    +0.163 C 
BRANCH  32  33
ATOM     33  O   LIG    1       26.607 -32.756   5.001  0.00  0.00    -0.395 OA
ATOM     34  H   LIG    1       25.845 -33.348   5.137  0.00  0.00    +0.209 HD
ENDBRANCH  32  33
ENDBRANCH   3  32
TORSDOF 9
ENDMDL
MODEL 4
REMARK VINA RESULT:      -5.4      2.074      7.002
REMARK  Name = *****
REMARK                            x       y       z     vdW  Elec       q    Type
REMARK                         _______ _______ _______ _____ _____    ______ ____
ROOT
ATOM      1  C   LIG    1       25.759 -28.991  12.066  0.00  0.00    +0.064 C 
ATOM      2  C   LIG    1       27.143 -28.334  12.317  0.00  0.00    +0.117 C 
ATOM      3  C   LIG    1       27.192 -27.383  13.541  0.00  0.00    +0.062 C 
ATOM      4  C   LIG    1       26.104 -26.312  13.359  0.00  0.00    +0.151 C 
ATOM      5  C   LIG    1       24.736 -26.948  13.277  0.00  0.00    -0.011 A 
ATOM      6  C   LIG    1       23.614 -26.232  13.735  0.00  0.00    +0.056 A 
ATOM      7  C   LIG    1       22.379 -26.833  13.645  0.00  0.00    +0.167 A 
ATOM      8  O   LIG    1       21.195 -26.275  14.015  0.00  0.00    -0.453 OA
ATOM      9  C   LIG    1       20.280 -27.342  13.691  0.00  0.00    +0.466 C 
ATOM     10  O   LIG    1       20.926 -28.499  13.123  0.00  0.00    -0.453 OA
ATOM     11  C   LIG    1       22.225 -28.101  13.141  0.00  0.00    +0.167 A 
ATOM     12  C   LIG    1       23.298 -28.838  12.687  0.00  0.00    +0.054 A 
ATOM     13  C   LIG    1       24.580 -28.250  12.726  0.00  0.00    -0.030 A 
ENDROOT
BRANCH   1  18
ATOM     14  C   LIG    1       24.432 -30.179   8.630  0.00  0.00    +0.165 A 
ATOM     15  C   LIG    1       25.066 -29.280   7.744  0.00  0.00    +0.203 A 
ATOM     16  C   LIG    1       25.950 -28.314   8.263  0.00  0.00    +0.165 A 
ATOM     17  C   LIG    1       26.194 -28.286   9.639  0.00  0.00    +0.053 A 
ATOM     18  C   LIG    1       25.521 -29.127  10.545  0.00  0.00    -0.032 A 
ATOM     19  C   LIG    1       24.643 -30.080  10.020  0.00  0.00    +0.053 A 
BRANCH  14  21
ATOM     20  C   LIG    1       24.076 -32.495   8.158  0.00  0.00    +0.277 C 
ATOM     21  O   LIG    1       23.548 -31.179   8.293  0.00  0.00    -0.491 OA
ENDBRANCH  14  21
BRANCH  15  22
ATOM     22  O   LIG    1       24.683 -29.338   6.428  0.00  0.00    -0.488 OA
ATOM     23  C   LIG    1       25.426 -30.173   5.550  0.00  0.00    +0.277 C 
ENDBRANCH  15  22
BRANCH  16  24
ATOM     24  O   LIG    1       26.603 -27.480   7.396  0.00  0.00    -0.491 OA
ATOM     25  C   LIG    1       25.945 -26.320   6.902  0.00  0.00    +0.277 C 
ENDBRANCH  16  24
ENDBRANCH   1  18
BRANCH   2  26
ATOM     26  C   LIG    1       28.225 -29.394  12.416  0.00  0.00    +0.309 C 
ATOM     27  O   LIG    1       28.193 -30.340  13.178  0.00  0.00    -0.251 OA
BRANCH  26  28
ATOM     28  O   LIG    1       29.255 -29.210  11.560  0.00  0.00    -0.480 OA
ATOM     29  H   LIG    1       29.094 -28.572  10.839  0.00  0.00    +0.295 HD
ENDBRANCH  26  28
ENDBRANCH   2  26
BRANCH   4  30
ATOM     30  O   LIG    1       26.343 -25.602  12.141  0.00  0.00    -0.387 OA
ATOM     31  H   LIG    1       25.649 -25.862  11.512  0.00  0.00    +0.210 HD
ENDBRANCH   4  30
BRANCH   3  32
ATOM     32  C   LIG    1       27.064 -28.058  14.919  0.00  0.00    +0.163 C 
BRANCH  32  33
ATOM     33  O   LIG    1       28.361 -28.176  15.500  0.00  0.00    -0.395 OA
ATOM     34  H   LIG    1       28.842 -27.359  15.277  0.00  0.00    +0.209 HD
ENDBRANCH  32  33
ENDBRANCH   3  32
TORSDOF 9
ENDMDL
MODEL 5
REMARK VINA RESULT:      -5.3      1.915      2.541
REMARK  Name = *****
REMARK                            x       y       z     vdW  Elec       q    Type
REMARK                         _______ _______ _______ _____ _____    ______ ____
ROOT
ATOM      1  C   LIG    1       25.088 -30.390  10.946  0.00  0.00    +0.064 C 
ATOM      2  C   LIG    1       24.395 -31.750  11.231  0.00  0.00    +0.117 C 
ATOM      3  C   LIG    1       24.234 -32.663   9.989  0.00  0.00    +0.062 C 
ATOM      4  C   LIG    1       23.470 -31.876   8.912  0.00  0.00    +0.151 C 
ATOM      5  C   LIG    1       24.230 -30.631   8.519  0.00  0.00    -0.011 A 
ATOM      6  C   LIG    1       24.101 -30.128   7.211  0.00  0.00    +0.056 A 
ATOM      7  C   LIG    1       24.801 -28.989   6.881  0.00  0.00    +0.167 A 
ATOM      8  O   LIG    1       24.769 -28.358   5.677  0.00  0.00    -0.453 OA
ATOM      9  C   LIG    1       25.670 -27.259   5.923  0.00  0.00    +0.466 C 
ATOM     10  O   LIG    1       26.204 -27.244   7.262  0.00  0.00    -0.453 OA
ATOM     11  C   LIG    1       25.622 -28.357   7.782  0.00  0.00    +0.167 A 
ATOM     12  C   LIG    1       25.781 -28.820   9.070  0.00  0.00    +0.054 A 
ATOM     13  C   LIG    1       25.056 -29.963   9.466  0.00  0.00    -0.030 A 
ENDROOT
BRANCH   1  18
ATOM     14  C   LIG    1       24.642 -27.341  13.286  0.00  0.00    +0.165 A 
ATOM     15  C   LIG    1       23.236 -27.255  13.392  0.00  0.00    +0.203 A 
ATOM     16  C   LIG    1       22.440 -28.211  12.732  0.00  0.00    +0.165 A 
ATOM     17  C   LIG    1       23.062 -29.231  12.008  0.00  0.00    +0.053 A 
ATOM     18  C   LIG    1       24.458 -29.294  11.834  0.00  0.00    -0.032 A 
ATOM     19  C   LIG    1       25.239 -28.339  12.491  0.00  0.00    +0.053 A 
BRANCH  14  21
ATOM     20  C   LIG    1       26.913 -26.945  13.919  0.00  0.00    +0.277 C 
ATOM     21  O   LIG    1       25.562 -26.496  13.866  0.00  0.00    -0.491 OA
ENDBRANCH  14  21
BRANCH  15  22
ATOM     22  O   LIG    1       22.732 -26.161  14.050  0.00  0.00    -0.488 OA
ATOM     23  C   LIG    1       22.448 -26.286  15.437  0.00  0.00    +0.277 C 
ENDBRANCH  15  22
BRANCH  16  24
ATOM     24  O   LIG    1       21.080 -28.156  12.881  0.00  0.00    -0.491 OA
ATOM     25  C   LIG    1       20.373 -29.304  13.335  0.00  0.00    +0.277 C 
ENDBRANCH  16  24
ENDBRANCH   1  18
BRANCH   2  26
ATOM     26  C   LIG    1       25.109 -32.486  12.351  0.00  0.00    +0.309 C 
ATOM     27  O   LIG    1       26.149 -32.120  12.861  0.00  0.00    -0.251 OA
BRANCH  26  28
ATOM     28  O   LIG    1       24.477 -33.610  12.759  0.00  0.00    -0.480 OA
ATOM     29  H   LIG    1       25.053 -34.378  12.932  0.00  0.00    +0.295 HD
ENDBRANCH  26  28
ENDBRANCH   2  26
BRANCH   4  30
ATOM     30  O   LIG    1       22.198 -31.480   9.433  0.00  0.00    -0.387 OA
ATOM     31  H   LIG    1       21.947 -32.132  10.109  0.00  0.00    +0.210 HD
ENDBRANCH   4  30
BRANCH   3  32
ATOM     32  C   LIG    1       25.537 -33.247   9.412  0.00  0.00    +0.163 C 
BRANCH  32  33
ATOM     33  O   LIG    1       25.262 -33.825   8.138  0.00  0.00    -0.395 OA
ATOM     34  H   LIG    1       25.177 -33.086   7.509  0.00  0.00    +0.209 HD
ENDBRANCH  32  33
ENDBRANCH   3  32
TORSDOF 9
ENDMDL
MODEL 6
REMARK VINA RESULT:      -5.2      6.341      9.922
REMARK  Name = *****
REMARK                            x       y       z     vdW  Elec       q    Type
REMARK                         _______ _______ _______ _____ _____    ______ ____
ROOT
ATOM      1  C   LIG    1       25.769 -22.143   5.952  0.00  0.00    +0.064 C 
ATOM      2  C   LIG    1       25.347 -23.151   7.056  0.00  0.00    +0.117 C 
ATOM      3  C   LIG    1       23.814 -23.295   7.244  0.00  0.00    +0.062 C 
ATOM      4  C   LIG    1       23.234 -21.900   7.526  0.00  0.00    +0.151 C 
ATOM      5  C   LIG    1       23.507 -20.963   6.374  0.00  0.00    -0.011 A 
ATOM      6  C   LIG    1       22.602 -19.921   6.102  0.00  0.00    +0.056 A 
ATOM      7  C   LIG    1       22.878 -19.078   5.048  0.00  0.00    +0.167 A 
ATOM      8  O   LIG    1       22.127 -18.010   4.667  0.00  0.00    -0.453 OA
ATOM      9  C   LIG    1       22.893 -17.527   3.545  0.00  0.00    +0.466 C 
ATOM     10  O   LIG    1       24.086 -18.296   3.291  0.00  0.00    -0.453 OA
ATOM     11  C   LIG    1       23.991 -19.243   4.261  0.00  0.00    +0.167 A 
ATOM     12  C   LIG    1       24.900 -20.254   4.490  0.00  0.00    +0.054 A 
ATOM     13  C   LIG    1       24.678 -21.121   5.580  0.00  0.00    -0.030 A 
ENDROOT
BRANCH   1  18
ATOM     14  C   LIG    1       28.707 -19.631   6.128  0.00  0.00    +0.165 A 
ATOM     15  C   LIG    1       29.400 -20.070   7.278  0.00  0.00    +0.203 A 
ATOM     16  C   LIG    1       28.931 -21.203   7.970  0.00  0.00    +0.165 A 
ATOM     17  C   LIG    1       27.805 -21.876   7.488  0.00  0.00    +0.053 A 
ATOM     18  C   LIG    1       27.060 -21.414   6.387  0.00  0.00    -0.032 A 
ATOM     19  C   LIG    1       27.533 -20.287   5.708  0.00  0.00    +0.053 A 
BRANCH  14  21
ATOM     20  C   LIG    1       27.970 -17.949   4.597  0.00  0.00    +0.277 C 
ATOM     21  O   LIG    1       29.028 -18.550   5.337  0.00  0.00    -0.491 OA
ENDBRANCH  14  21
BRANCH  15  22
ATOM     22  O   LIG    1       30.436 -19.281   7.712  0.00  0.00    -0.488 OA
ATOM     23  C   LIG    1       30.145 -18.246   8.641  0.00  0.00    +0.277 C 
ENDBRANCH  15  22
BRANCH  16  24
ATOM     24  O   LIG    1       29.637 -21.657   9.052  0.00  0.00    -0.491 OA
ATOM     25  C   LIG    1       31.008 -22.005   8.904  0.00  0.00    +0.277 C 
ENDBRANCH  16  24
ENDBRANCH   1  18
BRANCH   2  26
ATOM     26  C   LIG    1       25.989 -24.505   6.814  0.00  0.00    +0.309 C 
ATOM     27  O   LIG    1       26.130 -25.361   7.664  0.00  0.00    -0.251 OA
BRANCH  26  28
ATOM     28  O   LIG    1       26.395 -24.700   5.539  0.00  0.00    -0.480 OA
ATOM     29  H   LIG    1       25.950 -24.152   4.866  0.00  0.00    +0.295 HD
ENDBRANCH  26  28
ENDBRANCH   2  26
BRANCH   4  30
ATOM     30  O   LIG    1       23.851 -21.363   8.699  0.00  0.00    -0.387 OA
ATOM     31  H   LIG    1       24.116 -20.450   8.495  0.00  0.00    +0.210 HD
ENDBRANCH   4  30
BRANCH   3  32
ATOM     32  C   LIG    1       23.058 -23.974   6.087  0.00  0.00    +0.163 C 
BRANCH  32  33
ATOM     33  O   LIG    1       23.405 -25.357   6.054  0.00  0.00    -0.395 OA
ATOM     34  H   LIG    1       22.600 -25.851   6.293  0.00  0.00    +0.209 HD
ENDBRANCH  32  33
ENDBRANCH   3  32
TORSDOF 9
ENDMDL
MODEL 7
REMARK VINA RESULT:      -5.1      2.060      6.662
REMARK  Name = *****
REMARK                            x       y       z     vdW  Elec       q    Type
REMARK                         _______ _______ _______ _____ _____    ______ ____
ROOT
ATOM      1  C   LIG    1       25.598 -29.141  12.042  0.00  0.00    +0.064 C 
ATOM      2  C   LIG    1       27.008 -28.542  12.295  0.00  0.00    +0.117 C 
ATOM      3  C   LIG    1       27.098 -27.608  13.530  0.00  0.00    +0.062 C 
ATOM      4  C   LIG    1       26.052 -26.494  13.365  0.00  0.00    +0.151 C 
ATOM      5  C   LIG    1       24.660 -27.074  13.281  0.00  0.00    -0.011 A 
ATOM      6  C   LIG    1       23.569 -26.321  13.752  0.00  0.00    +0.056 A 
ATOM      7  C   LIG    1       22.310 -26.873  13.659  0.00  0.00    +0.167 A 
ATOM      8  O   LIG    1       21.151 -26.273  14.040  0.00  0.00    -0.453 OA
ATOM      9  C   LIG    1       20.193 -27.299  13.707  0.00  0.00    +0.466 C 
ATOM     10  O   LIG    1       20.791 -28.474  13.123  0.00  0.00    -0.453 OA
ATOM     11  C   LIG    1       22.106 -28.127  13.142  0.00  0.00    +0.167 A 
ATOM     12  C   LIG    1       23.147 -28.900  12.674  0.00  0.00    +0.054 A 
ATOM     13  C   LIG    1       24.451 -28.363  12.716  0.00  0.00    -0.030 A 
ENDROOT
BRANCH   1  18
ATOM     14  C   LIG    1       25.809 -28.577   8.219  0.00  0.00    +0.165 A 
ATOM     15  C   LIG    1       24.906 -29.548   7.729  0.00  0.00    +0.203 A 
ATOM     16  C   LIG    1       24.205 -30.356   8.645  0.00  0.00    +0.165 A 
ATOM     17  C   LIG    1       24.404 -30.162  10.014  0.00  0.00    +0.053 A 
ATOM     18  C   LIG    1       25.350 -29.250  10.521  0.00  0.00    -0.032 A 
ATOM     19  C   LIG    1       26.042 -28.454   9.603  0.00  0.00    +0.053 A 
BRANCH  14  21
ATOM     20  C   LIG    1       25.899 -26.586   6.899  0.00  0.00    +0.277 C 
ATOM     21  O   LIG    1       26.568 -27.708   7.468  0.00  0.00    -0.491 OA
ENDBRANCH  14  21
BRANCH  15  22
ATOM     22  O   LIG    1       24.858 -29.713   6.368  0.00  0.00    -0.488 OA
ATOM     23  C   LIG    1       25.633 -30.756   5.793  0.00  0.00    +0.277 C 
ENDBRANCH  15  22
BRANCH  16  24
ATOM     24  O   LIG    1       23.292 -31.257   8.168  0.00  0.00    -0.491 OA
ATOM     25  C   LIG    1       23.115 -32.502   8.833  0.00  0.00    +0.277 C 
ENDBRANCH  16  24
ENDBRANCH   1  18
BRANCH   2  26
ATOM     26  C   LIG    1       28.048 -29.645  12.378  0.00  0.00    +0.309 C 
ATOM     27  O   LIG    1       28.094 -30.481  13.258  0.00  0.00    -0.251 OA
BRANCH  26  28
ATOM     28  O   LIG    1       28.940 -29.635  11.363  0.00  0.00    -0.480 OA
ATOM     29  H   LIG    1       28.808 -28.939  10.691  0.00  0.00    +0.295 HD
ENDBRANCH  26  28
ENDBRANCH   2  26
BRANCH   4  30
ATOM     30  O   LIG    1       26.315 -25.779  12.155  0.00  0.00    -0.387 OA
ATOM     31  H   LIG    1       27.267 -25.582  12.136  0.00  0.00    +0.210 HD
ENDBRANCH   4  30
BRANCH   3  32
ATOM     32  C   LIG    1       26.949 -28.294  14.901  0.00  0.00    +0.163 C 
BRANCH  32  33
ATOM     33  O   LIG    1       28.237 -28.419  15.500  0.00  0.00    -0.395 OA
ATOM     34  H   LIG    1       28.405 -27.585  15.975  0.00  0.00    +0.209 HD
ENDBRANCH  32  33
ENDBRANCH   3  32
TORSDOF 9
ENDMDL
MODEL 8
REMARK VINA RESULT:      -5.1      6.336      9.917
REMARK  Name = *****
REMARK                            x       y       z     vdW  Elec       q    Type
REMARK                         _______ _______ _______ _____ _____    ______ ____
ROOT
ATOM      1  C   LIG    1       25.767 -22.139   5.980  0.00  0.00    +0.064 C 
ATOM      2  C   LIG    1       25.342 -23.147   7.083  0.00  0.00    +0.117 C 
ATOM      3  C   LIG    1       23.809 -23.305   7.255  0.00  0.00    +0.062 C 
ATOM      4  C   LIG    1       23.213 -21.914   7.526  0.00  0.00    +0.151 C 
ATOM      5  C   LIG    1       23.490 -20.978   6.373  0.00  0.00    -0.011 A 
ATOM      6  C   LIG    1       22.578 -19.945   6.088  0.00  0.00    +0.056 A 
ATOM      7  C   LIG    1       22.857 -19.104   5.034  0.00  0.00    +0.167 A 
ATOM      8  O   LIG    1       22.101 -18.045   4.642  0.00  0.00    -0.453 OA
ATOM      9  C   LIG    1       22.875 -17.558   3.526  0.00  0.00    +0.466 C 
ATOM     10  O   LIG    1       24.077 -18.317   3.287  0.00  0.00    -0.453 OA
ATOM     11  C   LIG    1       23.980 -19.262   4.260  0.00  0.00    +0.167 A 
ATOM     12  C   LIG    1       24.896 -20.263   4.502  0.00  0.00    +0.054 A 
ATOM     13  C   LIG    1       24.670 -21.128   5.593  0.00  0.00    -0.030 A 
ENDROOT
BRANCH   1  18
ATOM     14  C   LIG    1       28.963 -21.129   7.914  0.00  0.00    +0.165 A 
ATOM     15  C   LIG    1       29.434 -20.037   7.152  0.00  0.00    +0.203 A 
ATOM     16  C   LIG    1       28.692 -19.610   6.034  0.00  0.00    +0.165 A 
ATOM     17  C   LIG    1       27.497 -20.264   5.722  0.00  0.00    +0.053 A 
ATOM     18  C   LIG    1       27.046 -21.397   6.426  0.00  0.00    -0.032 A 
ATOM     19  C   LIG    1       27.792 -21.814   7.532  0.00  0.00    +0.053 A 
BRANCH  14  21
ATOM     20  C   LIG    1       30.915 -22.089   8.904  0.00  0.00    +0.277 C 
ATOM     21  O   LIG    1       29.560 -21.670   9.031  0.00  0.00    -0.491 OA
ENDBRANCH  14  21
BRANCH  15  22
ATOM     22  O   LIG    1       30.663 -19.531   7.495  0.00  0.00    -0.488 OA
ATOM     23  C   LIG    1       30.706 -18.409   8.366  0.00  0.00    +0.277 C 
ENDBRANCH  15  22
BRANCH  16  24
ATOM     24  O   LIG    1       29.123 -18.518   5.331  0.00  0.00    -0.491 OA
ATOM     25  C   LIG    1       28.183 -17.710   4.634  0.00  0.00    +0.277 C 
ENDBRANCH  16  24
ENDBRANCH   1  18
BRANCH   2  26
ATOM     26  C   LIG    1       25.999 -24.496   6.852  0.00  0.00    +0.309 C 
ATOM     27  O   LIG    1       26.093 -25.368   7.694  0.00  0.00    -0.251 OA
BRANCH  26  28
ATOM     28  O   LIG    1       26.477 -24.667   5.599  0.00  0.00    -0.480 OA
ATOM     29  H   LIG    1       25.988 -24.202   4.894  0.00  0.00    +0.295 HD
ENDBRANCH  26  28
ENDBRANCH   2  26
BRANCH   4  30
ATOM     30  O   LIG    1       23.812 -21.367   8.704  0.00  0.00    -0.387 OA
ATOM     31  H   LIG    1       24.576 -20.837   8.420  0.00  0.00    +0.210 HD
ENDBRANCH   4  30
BRANCH   3  32
ATOM     32  C   LIG    1       23.072 -23.994   6.092  0.00  0.00    +0.163 C 
BRANCH  32  33
ATOM     33  O   LIG    1       23.481 -25.359   6.028  0.00  0.00    -0.395 OA
ATOM     34  H   LIG    1       23.801 -25.596   6.917  0.00  0.00    +0.209 HD
ENDBRANCH  32  33
ENDBRANCH   3  32
TORSDOF 9
ENDMDL
MODEL 9
REMARK VINA RESULT:      -5.0      2.764      5.350
REMARK  Name = *****
REMARK                            x       y       z     vdW  Elec       q    Type
REMARK                         _______ _______ _______ _____ _____    ______ ____
ROOT
ATOM      1  C   LIG    1       24.751 -30.209  11.434  0.00  0.00    +0.064 C 
ATOM      2  C   LIG    1       24.767 -29.870   9.919  0.00  0.00    +0.117 C 
ATOM      3  C   LIG    1       26.156 -30.007   9.243  0.00  0.00    +0.062 C 
ATOM      4  C   LIG    1       27.151 -29.122  10.011  0.00  0.00    +0.151 C 
ATOM      5  C   LIG    1       27.254 -29.560  11.453  0.00  0.00    -0.011 A 
ATOM      6  C   LIG    1       28.464 -29.371  12.146  0.00  0.00    +0.056 A 
ATOM      7  C   LIG    1       28.529 -29.775  13.461  0.00  0.00    +0.167 A 
ATOM      8  O   LIG    1       29.607 -29.643  14.280  0.00  0.00    -0.453 OA
ATOM      9  C   LIG    1       29.095 -30.222  15.498  0.00  0.00    +0.466 C 
ATOM     10  O   LIG    1       27.728 -30.669  15.389  0.00  0.00    -0.453 OA
ATOM     11  C   LIG    1       27.461 -30.364  14.092  0.00  0.00    +0.167 A 
ATOM     12  C   LIG    1       26.260 -30.571  13.448  0.00  0.00    +0.054 A 
ATOM     13  C   LIG    1       26.134 -30.142  12.110  0.00  0.00    -0.030 A 
ENDROOT
BRANCH   1  18
ATOM     14  C   LIG    1       23.205 -27.180  13.280  0.00  0.00    +0.165 A 
ATOM     15  C   LIG    1       21.857 -27.578  13.420  0.00  0.00    +0.203 A 
ATOM     16  C   LIG    1       21.464 -28.845  12.947  0.00  0.00    +0.165 A 
ATOM     17  C   LIG    1       22.423 -29.683  12.372  0.00  0.00    +0.053 A 
ATOM     18  C   LIG    1       23.754 -29.278  12.160  0.00  0.00    -0.032 A 
ATOM     19  C   LIG    1       24.133 -28.017  12.631  0.00  0.00    +0.053 A 
BRANCH  14  21
ATOM     20  C   LIG    1       25.173 -25.866  13.620  0.00  0.00    +0.277 C 
ATOM     21  O   LIG    1       23.755 -25.984  13.686  0.00  0.00    -0.491 OA
ENDBRANCH  14  21
BRANCH  15  22
ATOM     22  O   LIG    1       20.985 -26.641  13.915  0.00  0.00    -0.488 OA
ATOM     23  C   LIG    1       20.757 -26.613  15.318  0.00  0.00    +0.277 C 
ENDBRANCH  15  22
BRANCH  16  24
ATOM     24  O   LIG    1       20.169 -29.249  13.134  0.00  0.00    -0.491 OA
ATOM     25  C   LIG    1       19.825 -30.618  12.961  0.00  0.00    +0.277 C 
ENDBRANCH  16  24
ENDBRANCH   1  18
BRANCH   2  26
ATOM     26  C   LIG    1       23.726 -30.692   9.179  0.00  0.00    +0.309 C 
ATOM     27  O   LIG    1       23.147 -31.651   9.649  0.00  0.00    -0.251 OA
BRANCH  26  28
ATOM     28  O   LIG    1       23.475 -30.258   7.924  0.00  0.00    -0.480 OA
ATOM     29  H   LIG    1       22.664 -29.725   7.816  0.00  0.00    +0.295 HD
ENDBRANCH  26  28
ENDBRANCH   2  26
BRANCH   4  30
ATOM     30  O   LIG    1       26.693 -27.768   9.984  0.00  0.00    -0.387 OA
ATOM     31  H   LIG    1       26.228 -27.602  10.822  0.00  0.00    +0.210 HD
ENDBRANCH   4  30
BRANCH   3  32
ATOM     32  C   LIG    1       26.697 -31.442   9.109  0.00  0.00    +0.163 C 
BRANCH  32  33
ATOM     33  O   LIG    1       27.023 -31.690   7.742  0.00  0.00    -0.395 OA
ATOM     34  H   LIG    1       26.335 -31.253   7.208  0.00  0.00    +0.209 HD
ENDBRANCH  32  33
ENDBRANCH   3  32
TORSDOF 9
ENDMDL
