MODEL 1
REMARK VINA RESULT:      27.5      0.000      0.000
REMARK  Name = *****
REMARK                            x       y       z     vdW  Elec       q    Type
REMARK                         _______ _______ _______ _____ _____    ______ ____
ROOT
ATOM      1  C   LIG    1       21.907 -16.069   4.986  0.00  0.00    -0.008 A 
ATOM      2  C   LIG    1       23.045 -16.546   4.305  0.00  0.00    -0.004 A 
ATOM      3  C   LIG    1       23.392 -17.850   3.705  0.00  0.00    -0.009 A 
ATOM      4  C   LIG    1       24.756 -17.845   3.294  0.00  0.00    -0.008 A 
ATOM      5  C   LIG    1       25.285 -16.508   3.622  0.00  0.00    -0.009 C 
ATOM      6  C   LIG    1       26.612 -16.230   3.582  0.00  0.00    +0.017 C 
ATOM      7  C   LIG    1       25.363 -18.953   2.714  0.00  0.00    +0.029 A 
ATOM      8  C   LIG    1       24.595 -20.091   2.516  0.00  0.00    +0.042 A 
ATOM      9 CL   LIG    1       25.314 -21.496   1.826  0.00  0.00    -0.084 Cl
ATOM     10  C   LIG    1       23.235 -20.108   2.863  0.00  0.00    +0.020 A 
ATOM     11  C   LIG    1       22.628 -18.983   3.443  0.00  0.00    +0.010 A 
ATOM     12  C   LIG    1       24.178 -15.681   4.140  0.00  0.00    -0.008 A 
ATOM     13  C   LIG    1       24.131 -14.333   4.455  0.00  0.00    +0.029 A 
ATOM     14  C   LIG    1       22.992 -13.851   5.066  0.00  0.00    +0.042 A 
ATOM     15 CL   LIG    1       22.918 -12.195   5.536  0.00  0.00    -0.084 Cl
ATOM     16  C   LIG    1       21.911 -14.699   5.350  0.00  0.00    +0.027 A 
ENDROOT
BRANCH   6  17
ATOM     17  C   LIG    1       27.285 -15.032   4.089  0.00  0.00    -0.024 A 
ATOM     18  C   LIG    1       28.026 -14.205   3.237  0.00  0.00    +0.009 A 
ATOM     19  C   LIG    1       28.695 -13.092   3.749  0.00  0.00    +0.020 A 
ATOM     20  C   LIG    1       28.630 -12.806   5.115  0.00  0.00    +0.041 A 
ATOM     21 CL   LIG    1       29.474 -11.447   5.747  0.00  0.00    -0.084 Cl
ATOM     22  C   LIG    1       27.891 -13.621   5.968  0.00  0.00    +0.020 A 
ATOM     23  C   LIG    1       27.218 -14.731   5.459  0.00  0.00    +0.009 A 
ENDBRANCH   6  17
BRANCH   1  24
ATOM     24  C   LIG    1       20.701 -16.920   5.346  0.00  0.00    +0.159 C 
BRANCH  24  25
ATOM     25  O   LIG    1       19.872 -16.114   6.196  0.00  0.00    -0.386 OA
ATOM     26  H   LIG    1       19.016 -16.005   5.751  0.00  0.00    +0.210 HD
ENDBRANCH  24  25
BRANCH  24  27
ATOM     27  C   LIG    1       20.967 -18.294   6.074  0.00  0.00    +0.120 C 
BRANCH  27  28
ATOM     28  N   LIG    1       21.113 -19.517   5.260  0.00  0.00    -0.300 NA
BRANCH  28  29
ATOM     29  C   LIG    1       20.869 -19.298   3.816  0.00  0.00    +0.084 C 
BRANCH  29  30
ATOM     30  C   LIG    1       19.688 -18.392   3.428  0.00  0.00    +0.015 C 
BRANCH  30  32
ATOM     31  C   LIG    1       20.626 -16.542   1.963  0.00  0.00    +0.004 C 
ATOM     32  C   LIG    1       19.869 -17.861   1.998  0.00  0.00    -0.002 C 
ENDBRANCH  30  32
ENDBRANCH  29  30
ENDBRANCH  28  29
BRANCH  28  33
ATOM     33  C   LIG    1       22.409 -20.204   5.458  0.00  0.00    +0.084 C 
BRANCH  33  34
ATOM     34  C   LIG    1       23.205 -19.786   6.710  0.00  0.00    +0.015 C 
BRANCH  34  35
ATOM     35  C   LIG    1       24.684 -20.149   6.585  0.00  0.00    -0.002 C 
ATOM     36  C   LIG    1       24.878 -21.363   5.688  0.00  0.00    +0.004 C 
ENDBRANCH  34  35
ENDBRANCH  33  34
ENDBRANCH  28  33
ENDBRANCH  27  28
ENDBRANCH  24  27
ENDBRANCH   1  24
TORSDOF 11
ENDMDL
