MODEL 1
REMARK VINA RESULT:      -7.5      0.000      0.000
REMARK  Name = *****
REMARK                            x       y       z     vdW  Elec       q    Type
REMARK                         _______ _______ _______ _____ _____    ______ ____
ROOT
ATOM      1  C   LIG    1       26.222 -23.393   7.877  0.00  0.00    +0.045 C 
ATOM      2  C   LIG    1       26.255 -22.204   6.972  0.00  0.00    -0.038 C 
ATOM      3  C   LIG    1       27.306 -21.175   7.046  0.00  0.00    -0.014 C 
ATOM      4  C   LIG    1       28.255 -21.162   7.997  0.00  0.00    +0.016 C 
ATOM      5  C   LIG    1       27.051 -20.225   5.952  0.00  0.00    -0.010 A 
ATOM      6  C   LIG    1       25.861 -20.665   5.334  0.00  0.00    -0.011 A 
ATOM      7  C   LIG    1       25.312 -19.966   4.268  0.00  0.00    +0.047 A 
ATOM      8  C   LIG    1       25.996 -18.845   3.803  0.00  0.00    +0.124 A 
ATOM      9  C   LIG    1       27.192 -18.420   4.389  0.00  0.00    +0.039 A 
ATOM     10  F   LIG    1       25.499 -18.163   2.762  0.00  0.00    -0.205 F 
ATOM     11  C   LIG    1       27.726 -19.108   5.483  0.00  0.00    +0.012 A 
ATOM     12  C   LIG    1       25.380 -21.893   5.990  0.00  0.00    -0.025 C 
ENDROOT
BRANCH   4  13
ATOM     13  C   LIG    1       29.329 -20.195   8.224  0.00  0.00    -0.024 A 
ATOM     14  C   LIG    1       29.020 -18.849   8.442  0.00  0.00    +0.009 A 
ATOM     15  C   LIG    1       30.026 -17.945   8.793  0.00  0.00    +0.017 A 
ATOM     16  C   LIG    1       31.348 -18.378   8.935  0.00  0.00    +0.039 A 
ATOM     17  C   LIG    1       31.660 -19.720   8.688  0.00  0.00    +0.017 A 
ATOM     18  C   LIG    1       30.653 -20.626   8.339  0.00  0.00    +0.009 A 
BRANCH  16  19
ATOM     19  S   LIG    1       32.655 -17.224   9.421  0.00  0.00    +0.051 S 
ATOM     20  C   LIG    1       32.227 -17.110  11.178  0.00  0.00    +0.127 C 
ATOM     21  O   LIG    1       32.299 -15.908   8.792  0.00  0.00    -0.252 OA
ENDBRANCH  16  19
ENDBRANCH   4  13
BRANCH  12  22
ATOM     22  C   LIG    1       24.149 -22.630   5.569  0.00  0.00    +0.156 C 
BRANCH  22  23
ATOM     23  C   LIG    1       23.047 -22.693   6.624  0.00  0.00    +0.309 C 
ATOM     24  O   LIG    1       22.962 -21.879   7.534  0.00  0.00    -0.251 OA
BRANCH  23  25
ATOM     25  O   LIG    1       22.207 -23.753   6.538  0.00  0.00    -0.480 OA
ATOM     26  H   LIG    1       22.591 -24.615   6.820  0.00  0.00    +0.295 HD
ENDBRANCH  23  25
ENDBRANCH  22  23
ENDBRANCH  12  22
TORSDOF 5
ENDMDL
MODEL 2
REMARK VINA RESULT:      -7.5      4.074      5.889
REMARK  Name = *****
REMARK                            x       y       z     vdW  Elec       q    Type
REMARK                         _______ _______ _______ _____ _____    ______ ____
ROOT
ATOM      1  C   LIG    1       21.725 -21.822   5.004  0.00  0.00    +0.045 C 
ATOM      2  C   LIG    1       23.140 -21.673   5.462  0.00  0.00    -0.038 C 
ATOM      3  C   LIG    1       23.954 -20.483   5.161  0.00  0.00    -0.014 C 
ATOM      4  C   LIG    1       23.534 -19.488   4.362  0.00  0.00    +0.016 C 
ATOM      5  C   LIG    1       25.244 -20.664   5.846  0.00  0.00    -0.010 A 
ATOM      6  C   LIG    1       25.181 -21.939   6.448  0.00  0.00    -0.011 A 
ATOM      7  C   LIG    1       26.259 -22.444   7.161  0.00  0.00    +0.047 A 
ATOM      8  C   LIG    1       27.386 -21.636   7.297  0.00  0.00    +0.124 A 
ATOM      9  C   LIG    1       27.445 -20.359   6.729  0.00  0.00    +0.039 A 
ATOM     10  F   LIG    1       28.435 -22.090   7.996  0.00  0.00    -0.205 F 
ATOM     11  C   LIG    1       26.369 -19.865   5.986  0.00  0.00    +0.012 A 
ATOM     12  C   LIG    1       23.866 -22.550   6.190  0.00  0.00    -0.025 C 
ENDROOT
BRANCH   4  13
ATOM     13  C   LIG    1       24.236 -18.276   3.939  0.00  0.00    -0.024 A 
ATOM     14  C   LIG    1       23.660 -17.023   4.168  0.00  0.00    +0.009 A 
ATOM     15  C   LIG    1       24.381 -15.858   3.891  0.00  0.00    +0.017 A 
ATOM     16  C   LIG    1       25.684 -15.936   3.387  0.00  0.00    +0.039 A 
ATOM     17  C   LIG    1       26.246 -17.192   3.131  0.00  0.00    +0.017 A 
ATOM     18  C   LIG    1       25.527 -18.358   3.411  0.00  0.00    +0.009 A 
BRANCH  16  19
ATOM     19  S   LIG    1       26.640 -14.436   3.055  0.00  0.00    +0.051 S 
ATOM     20  C   LIG    1       26.275 -13.575   4.607  0.00  0.00    +0.127 C 
ATOM     21  O   LIG    1       25.908 -13.712   1.963  0.00  0.00    -0.252 OA
ENDBRANCH  16  19
ENDBRANCH   4  13
BRANCH  12  22
ATOM     22  C   LIG    1       23.463 -23.896   6.703  0.00  0.00    +0.156 C 
BRANCH  22  23
ATOM     23  C   LIG    1       24.068 -25.077   5.947  0.00  0.00    +0.309 C 
ATOM     24  O   LIG    1       24.023 -26.224   6.375  0.00  0.00    -0.251 OA
BRANCH  23  25
ATOM     25  O   LIG    1       24.728 -24.772   4.804  0.00  0.00    -0.480 OA
ATOM     26  H   LIG    1       25.524 -25.324   4.621  0.00  0.00    +0.295 HD
ENDBRANCH  23  25
ENDBRANCH  22  23
ENDBRANCH  12  22
TORSDOF 5
ENDMDL
MODEL 3
REMARK VINA RESULT:      -7.3      5.262      8.151
REMARK  Name = *****
REMARK                            x       y       z     vdW  Elec       q    Type
REMARK                         _______ _______ _______ _____ _____    ______ ____
ROOT
ATOM      1  C   LIG    1       23.968 -21.848   2.747  0.00  0.00    +0.045 C 
ATOM      2  C   LIG    1       24.375 -21.792   4.184  0.00  0.00    -0.038 C 
ATOM      3  C   LIG    1       24.727 -22.994   4.960  0.00  0.00    -0.014 C 
ATOM      4  C   LIG    1       24.607 -24.242   4.477  0.00  0.00    +0.016 C 
ATOM      5  C   LIG    1       25.153 -22.532   6.291  0.00  0.00    -0.010 A 
ATOM      6  C   LIG    1       24.977 -21.132   6.284  0.00  0.00    -0.011 A 
ATOM      7  C   LIG    1       25.261 -20.373   7.411  0.00  0.00    +0.047 A 
ATOM      8  C   LIG    1       25.762 -21.033   8.531  0.00  0.00    +0.124 A 
ATOM      9  C   LIG    1       25.969 -22.416   8.537  0.00  0.00    +0.039 A 
ATOM     10  F   LIG    1       26.064 -20.322   9.626  0.00  0.00    -0.205 F 
ATOM     11  C   LIG    1       25.653 -23.182   7.410  0.00  0.00    +0.012 A 
ATOM     12  C   LIG    1       24.486 -20.696   4.966  0.00  0.00    -0.025 C 
ENDROOT
BRANCH   4  13
ATOM     13  C   LIG    1       24.873 -25.522   5.134  0.00  0.00    -0.024 A 
ATOM     14  C   LIG    1       24.060 -25.946   6.189  0.00  0.00    +0.009 A 
ATOM     15  C   LIG    1       24.222 -27.224   6.731  0.00  0.00    +0.017 A 
ATOM     16  C   LIG    1       25.195 -28.090   6.221  0.00  0.00    +0.039 A 
ATOM     17  C   LIG    1       26.027 -27.652   5.184  0.00  0.00    +0.017 A 
ATOM     18  C   LIG    1       25.864 -26.374   4.639  0.00  0.00    +0.009 A 
BRANCH  16  19
ATOM     19  S   LIG    1       25.393 -29.759   6.892  0.00  0.00    +0.051 S 
ATOM     20  C   LIG    1       25.570 -30.629   5.312  0.00  0.00    +0.127 C 
ATOM     21  O   LIG    1       24.056 -30.138   7.460  0.00  0.00    -0.252 OA
ENDBRANCH  16  19
ENDBRANCH   4  13
BRANCH  12  22
ATOM     22  C   LIG    1       24.211 -19.268   4.615  0.00  0.00    +0.156 C 
BRANCH  22  23
ATOM     23  C   LIG    1       22.734 -18.879   4.626  0.00  0.00    +0.309 C 
ATOM     24  O   LIG    1       22.360 -17.719   4.504  0.00  0.00    -0.251 OA
BRANCH  23  25
ATOM     25  O   LIG    1       21.858 -19.887   4.855  0.00  0.00    -0.480 OA
ATOM     26  H   LIG    1       22.253 -20.705   5.238  0.00  0.00    +0.295 HD
ENDBRANCH  23  25
ENDBRANCH  22  23
ENDBRANCH  12  22
TORSDOF 5
ENDMDL
MODEL 4
REMARK VINA RESULT:      -7.1      2.945      4.271
REMARK  Name = *****
REMARK                            x       y       z     vdW  Elec       q    Type
REMARK                         _______ _______ _______ _____ _____    ______ ____
ROOT
ATOM      1  C   LIG    1       25.368 -17.972   3.082  0.00  0.00    +0.045 C 
ATOM      2  C   LIG    1       25.079 -19.093   4.026  0.00  0.00    -0.038 C 
ATOM      3  C   LIG    1       26.085 -19.629   4.960  0.00  0.00    -0.014 C 
ATOM      4  C   LIG    1       27.368 -19.232   4.964  0.00  0.00    +0.016 C 
ATOM      5  C   LIG    1       25.409 -20.651   5.775  0.00  0.00    -0.010 A 
ATOM      6  C   LIG    1       24.094 -20.735   5.268  0.00  0.00    -0.011 A 
ATOM      7  C   LIG    1       23.183 -21.638   5.800  0.00  0.00    +0.047 A 
ATOM      8  C   LIG    1       23.596 -22.425   6.872  0.00  0.00    +0.124 A 
ATOM      9  C   LIG    1       24.887 -22.326   7.400  0.00  0.00    +0.039 A 
ATOM     10  F   LIG    1       22.731 -23.291   7.417  0.00  0.00    -0.205 F 
ATOM     11  C   LIG    1       25.812 -21.438   6.843  0.00  0.00    +0.012 A 
ATOM     12  C   LIG    1       23.915 -19.762   4.177  0.00  0.00    -0.025 C 
ENDROOT
BRANCH   4  13
ATOM     13  C   LIG    1       28.482 -19.695   5.792  0.00  0.00    -0.024 A 
ATOM     14  C   LIG    1       29.680 -18.975   5.814  0.00  0.00    +0.009 A 
ATOM     15  C   LIG    1       30.698 -19.334   6.702  0.00  0.00    +0.017 A 
ATOM     16  C   LIG    1       30.526 -20.410   7.578  0.00  0.00    +0.039 A 
ATOM     17  C   LIG    1       29.337 -21.147   7.534  0.00  0.00    +0.017 A 
ATOM     18  C   LIG    1       28.316 -20.788   6.647  0.00  0.00    +0.009 A 
BRANCH  16  19
ATOM     19  S   LIG    1       31.824 -20.863   8.755  0.00  0.00    +0.051 S 
ATOM     20  C   LIG    1       30.877 -22.096   9.687  0.00  0.00    +0.127 C 
ATOM     21  O   LIG    1       32.003 -19.672   9.651  0.00  0.00    -0.252 OA
ENDBRANCH  16  19
ENDBRANCH   4  13
BRANCH  12  22
ATOM     22  C   LIG    1       22.630 -19.580   3.433  0.00  0.00    +0.156 C 
BRANCH  22  23
ATOM     23  C   LIG    1       21.724 -18.479   3.978  0.00  0.00    +0.309 C 
ATOM     24  O   LIG    1       22.100 -17.679   4.825  0.00  0.00    -0.251 OA
BRANCH  23  25
ATOM     25  O   LIG    1       20.448 -18.484   3.523  0.00  0.00    -0.480 OA
ATOM     26  H   LIG    1       20.352 -18.568   2.546  0.00  0.00    +0.295 HD
ENDBRANCH  23  25
ENDBRANCH  22  23
ENDBRANCH  12  22
TORSDOF 5
ENDMDL
MODEL 5
REMARK VINA RESULT:      -7.0      7.213     10.179
REMARK  Name = *****
REMARK                            x       y       z     vdW  Elec       q    Type
REMARK                         _______ _______ _______ _____ _____    ______ ____
ROOT
ATOM      1  C   LIG    1       24.523 -31.069   5.460  0.00  0.00    +0.045 C 
ATOM      2  C   LIG    1       25.196 -30.565   6.695  0.00  0.00    -0.038 C 
ATOM      3  C   LIG    1       25.285 -29.132   7.027  0.00  0.00    -0.014 C 
ATOM      4  C   LIG    1       24.869 -28.159   6.198  0.00  0.00    +0.016 C 
ATOM      5  C   LIG    1       25.932 -29.039   8.345  0.00  0.00    -0.010 A 
ATOM      6  C   LIG    1       26.258 -30.363   8.705  0.00  0.00    -0.011 A 
ATOM      7  C   LIG    1       26.915 -30.636   9.897  0.00  0.00    +0.047 A 
ATOM      8  C   LIG    1       27.204 -29.566  10.741  0.00  0.00    +0.124 A 
ATOM      9  C   LIG    1       26.857 -28.253  10.406  0.00  0.00    +0.039 A 
ATOM     10  F   LIG    1       27.820 -29.802  11.907  0.00  0.00    -0.205 F 
ATOM     11  C   LIG    1       26.222 -27.978   9.191  0.00  0.00    +0.012 A 
ATOM     12  C   LIG    1       25.797 -31.294   7.661  0.00  0.00    -0.025 C 
ENDROOT
BRANCH   4  13
ATOM     13  C   LIG    1       24.929 -26.707   6.366  0.00  0.00    -0.024 A 
ATOM     14  C   LIG    1       26.168 -26.059   6.387  0.00  0.00    +0.009 A 
ATOM     15  C   LIG    1       26.230 -24.664   6.411  0.00  0.00    +0.017 A 
ATOM     16  C   LIG    1       25.055 -23.903   6.409  0.00  0.00    +0.039 A 
ATOM     17  C   LIG    1       23.817 -24.555   6.417  0.00  0.00    +0.017 A 
ATOM     18  C   LIG    1       23.754 -25.952   6.391  0.00  0.00    +0.009 A 
BRANCH  16  19
ATOM     19  S   LIG    1       25.122 -22.095   6.406  0.00  0.00    +0.051 S 
ATOM     20  C   LIG    1       23.555 -21.800   7.266  0.00  0.00    +0.127 C 
ATOM     21  O   LIG    1       24.931 -21.676   4.978  0.00  0.00    -0.252 OA
ENDBRANCH  16  19
ENDBRANCH   4  13
BRANCH  12  22
ATOM     22  C   LIG    1       25.970 -32.778   7.739  0.00  0.00    +0.156 C 
BRANCH  22  23
ATOM     23  C   LIG    1       27.365 -33.281   7.374  0.00  0.00    +0.309 C 
ATOM     24  O   LIG    1       28.102 -33.822   8.188  0.00  0.00    -0.251 OA
BRANCH  23  25
ATOM     25  O   LIG    1       27.773 -33.025   6.108  0.00  0.00    -0.480 OA
ATOM     26  H   LIG    1       28.744 -32.893   6.000  0.00  0.00    +0.295 HD
ENDBRANCH  23  25
ENDBRANCH  22  23
ENDBRANCH  12  22
TORSDOF 5
ENDMDL
MODEL 6
REMARK VINA RESULT:      -6.9     11.010     13.436
REMARK  Name = *****
REMARK                            x       y       z     vdW  Elec       q    Type
REMARK                         _______ _______ _______ _____ _____    ______ ____
ROOT
ATOM      1  C   LIG    1       25.476 -27.651  12.775  0.00  0.00    +0.045 C 
ATOM      2  C   LIG    1       24.413 -28.575  12.275  0.00  0.00    -0.038 C 
ATOM      3  C   LIG    1       22.988 -28.406  12.609  0.00  0.00    -0.014 C 
ATOM      4  C   LIG    1       22.541 -27.480  13.474  0.00  0.00    +0.016 C 
ATOM      5  C   LIG    1       22.251 -29.443  11.869  0.00  0.00    -0.010 A 
ATOM      6  C   LIG    1       23.232 -30.208  11.204  0.00  0.00    -0.011 A 
ATOM      7  C   LIG    1       22.876 -31.302  10.427  0.00  0.00    +0.047 A 
ATOM      8  C   LIG    1       21.520 -31.593  10.294  0.00  0.00    +0.124 A 
ATOM      9  C   LIG    1       20.539 -30.822  10.926  0.00  0.00    +0.039 A 
ATOM     10  F   LIG    1       21.147 -32.632   9.535  0.00  0.00    -0.205 F 
ATOM     11  C   LIG    1       20.902 -29.739  11.732  0.00  0.00    +0.012 A 
ATOM     12  C   LIG    1       24.569 -29.654  11.477  0.00  0.00    -0.025 C 
ENDROOT
BRANCH   4  13
ATOM     13  C   LIG    1       21.177 -27.221  13.934  0.00  0.00    -0.024 A 
ATOM     14  C   LIG    1       20.325 -26.417  13.171  0.00  0.00    +0.009 A 
ATOM     15  C   LIG    1       18.983 -26.274  13.533  0.00  0.00    +0.017 A 
ATOM     16  C   LIG    1       18.479 -26.936  14.657  0.00  0.00    +0.039 A 
ATOM     17  C   LIG    1       19.341 -27.716  15.436  0.00  0.00    +0.017 A 
ATOM     18  C   LIG    1       20.684 -27.862  15.073  0.00  0.00    +0.009 A 
BRANCH  16  19
ATOM     19  S   LIG    1       16.735 -26.786  15.117  0.00  0.00    +0.051 S 
ATOM     20  C   LIG    1       16.441 -28.532  15.500  0.00  0.00    +0.127 C 
ATOM     21  O   LIG    1       15.997 -26.479  13.847  0.00  0.00    -0.252 OA
ENDBRANCH  16  19
ENDBRANCH   4  13
BRANCH  12  22
ATOM     22  C   LIG    1       25.832 -30.220  10.909  0.00  0.00    +0.156 C 
BRANCH  22  23
ATOM     23  C   LIG    1       26.224 -29.665   9.541  0.00  0.00    +0.309 C 
ATOM     24  O   LIG    1       25.505 -29.776   8.556  0.00  0.00    -0.251 OA
BRANCH  23  25
ATOM     25  O   LIG    1       27.455 -29.106   9.461  0.00  0.00    -0.480 OA
ATOM     26  H   LIG    1       27.580 -28.290   9.999  0.00  0.00    +0.295 HD
ENDBRANCH  23  25
ENDBRANCH  22  23
ENDBRANCH  12  22
TORSDOF 5
ENDMDL
MODEL 7
REMARK VINA RESULT:      -6.9     10.612     13.087
REMARK  Name = *****
REMARK                            x       y       z     vdW  Elec       q    Type
REMARK                         _______ _______ _______ _____ _____    ______ ____
ROOT
ATOM      1  C   LIG    1       26.524 -26.545  13.202  0.00  0.00    +0.045 C 
ATOM      2  C   LIG    1       25.793 -27.689  12.577  0.00  0.00    -0.038 C 
ATOM      3  C   LIG    1       24.344 -27.897  12.745  0.00  0.00    -0.014 C 
ATOM      4  C   LIG    1       23.583 -27.143  13.557  0.00  0.00    +0.016 C 
ATOM      5  C   LIG    1       23.981 -29.059  11.919  0.00  0.00    -0.010 A 
ATOM      6  C   LIG    1       25.192 -29.529  11.368  0.00  0.00    -0.011 A 
ATOM      7  C   LIG    1       25.214 -30.650  10.550  0.00  0.00    +0.047 A 
ATOM      8  C   LIG    1       24.000 -31.268  10.259  0.00  0.00    +0.124 A 
ATOM      9  C   LIG    1       22.792 -30.792  10.777  0.00  0.00    +0.039 A 
ATOM     10  F   LIG    1       23.990 -32.341   9.456  0.00  0.00    -0.205 F 
ATOM     11  C   LIG    1       22.776 -29.680  11.625  0.00  0.00    +0.012 A 
ATOM     12  C   LIG    1       26.306 -28.666  11.797  0.00  0.00    -0.025 C 
ENDROOT
BRANCH   4  13
ATOM     13  C   LIG    1       22.156 -27.252  13.858  0.00  0.00    -0.024 A 
ATOM     14  C   LIG    1       21.738 -27.888  15.030  0.00  0.00    +0.009 A 
ATOM     15  C   LIG    1       20.388 -27.878  15.391  0.00  0.00    +0.017 A 
ATOM     16  C   LIG    1       19.445 -27.228  14.588  0.00  0.00    +0.039 A 
ATOM     17  C   LIG    1       19.862 -26.616  13.400  0.00  0.00    +0.017 A 
ATOM     18  C   LIG    1       21.214 -26.624  13.039  0.00  0.00    +0.009 A 
BRANCH  16  19
ATOM     19  S   LIG    1       17.700 -27.179  15.062  0.00  0.00    +0.051 S 
ATOM     20  C   LIG    1       17.236 -28.811  14.426  0.00  0.00    +0.127 C 
ATOM     21  O   LIG    1       17.057 -26.156  14.171  0.00  0.00    -0.252 OA
ENDBRANCH  16  19
ENDBRANCH   4  13
BRANCH  12  22
ATOM     22  C   LIG    1       27.726 -28.875  11.376  0.00  0.00    +0.156 C 
BRANCH  22  23
ATOM     23  C   LIG    1       28.608 -29.559  12.417  0.00  0.00    +0.309 C 
ATOM     24  O   LIG    1       28.146 -30.223  13.336  0.00  0.00    -0.251 OA
BRANCH  23  25
ATOM     25  O   LIG    1       29.939 -29.327  12.309  0.00  0.00    -0.480 OA
ATOM     26  H   LIG    1       30.272 -28.557  12.826  0.00  0.00    +0.295 HD
ENDBRANCH  23  25
ENDBRANCH  22  23
ENDBRANCH  12  22
TORSDOF 5
ENDMDL
MODEL 8
REMARK VINA RESULT:      -6.8      8.216      9.988
REMARK  Name = *****
REMARK                            x       y       z     vdW  Elec       q    Type
REMARK                         _______ _______ _______ _____ _____    ______ ____
ROOT
ATOM      1  C   LIG    1       24.713 -32.795   8.663  0.00  0.00    +0.045 C 
ATOM      2  C   LIG    1       24.878 -31.456   8.022  0.00  0.00    -0.038 C 
ATOM      3  C   LIG    1       25.242 -30.247   8.781  0.00  0.00    -0.014 C 
ATOM      4  C   LIG    1       25.348 -30.226  10.121  0.00  0.00    +0.016 C 
ATOM      5  C   LIG    1       25.394 -29.158   7.804  0.00  0.00    -0.010 A 
ATOM      6  C   LIG    1       25.057 -29.718   6.553  0.00  0.00    -0.011 A 
ATOM      7  C   LIG    1       25.066 -28.944   5.401  0.00  0.00    +0.047 A 
ATOM      8  C   LIG    1       25.458 -27.612   5.514  0.00  0.00    +0.124 A 
ATOM      9  C   LIG    1       25.823 -27.057   6.744  0.00  0.00    +0.039 A 
ATOM     10  F   LIG    1       25.495 -26.847   4.415  0.00  0.00    -0.205 F 
ATOM     11  C   LIG    1       25.783 -27.831   7.908  0.00  0.00    +0.012 A 
ATOM     12  C   LIG    1       24.733 -31.146   6.715  0.00  0.00    -0.025 C 
ENDROOT
BRANCH   4  13
ATOM     13  C   LIG    1       25.656 -29.106  11.011  0.00  0.00    -0.024 A 
ATOM     14  C   LIG    1       24.719 -28.696  11.964  0.00  0.00    +0.009 A 
ATOM     15  C   LIG    1       25.056 -27.719  12.905  0.00  0.00    +0.017 A 
ATOM     16  C   LIG    1       26.333 -27.148  12.905  0.00  0.00    +0.039 A 
ATOM     17  C   LIG    1       27.259 -27.539  11.931  0.00  0.00    +0.017 A 
ATOM     18  C   LIG    1       26.924 -28.519  10.991  0.00  0.00    +0.009 A 
BRANCH  16  19
ATOM     19  S   LIG    1       26.793 -25.906  14.139  0.00  0.00    +0.051 S 
ATOM     20  C   LIG    1       25.126 -25.278  14.472  0.00  0.00    +0.127 C 
ATOM     21  O   LIG    1       27.530 -24.834  13.391  0.00  0.00    -0.252 OA
ENDBRANCH  16  19
ENDBRANCH   4  13
BRANCH  12  22
ATOM     22  C   LIG    1       24.350 -32.042   5.580  0.00  0.00    +0.156 C 
BRANCH  22  23
ATOM     23  C   LIG    1       25.498 -32.425   4.650  0.00  0.00    +0.309 C 
ATOM     24  O   LIG    1       26.616 -32.702   5.066  0.00  0.00    -0.251 OA
BRANCH  23  25
ATOM     25  O   LIG    1       25.230 -32.369   3.323  0.00  0.00    -0.480 OA
ATOM     26  H   LIG    1       25.118 -31.461   2.958  0.00  0.00    +0.295 HD
ENDBRANCH  23  25
ENDBRANCH  22  23
ENDBRANCH  12  22
TORSDOF 5
ENDMDL
MODEL 9
REMARK VINA RESULT:      -6.8     10.350     12.911
REMARK  Name = *****
REMARK                            x       y       z     vdW  Elec       q    Type
REMARK                         _______ _______ _______ _____ _____    ______ ____
ROOT
ATOM      1  C   LIG    1       24.923 -30.323  10.886  0.00  0.00    +0.045 C 
ATOM      2  C   LIG    1       24.996 -29.065  11.689  0.00  0.00    -0.038 C 
ATOM      3  C   LIG    1       23.841 -28.516  12.419  0.00  0.00    -0.014 C 
ATOM      4  C   LIG    1       22.605 -29.036  12.336  0.00  0.00    +0.016 C 
ATOM      5  C   LIG    1       24.322 -27.334  13.151  0.00  0.00    -0.010 A 
ATOM      6  C   LIG    1       25.677 -27.184  12.788  0.00  0.00    -0.011 A 
ATOM      7  C   LIG    1       26.436 -26.134  13.284  0.00  0.00    +0.047 A 
ATOM      8  C   LIG    1       25.828 -25.259  14.182  0.00  0.00    +0.124 A 
ATOM      9  C   LIG    1       24.494 -25.417  14.571  0.00  0.00    +0.039 A 
ATOM     10  F   LIG    1       26.543 -24.246  14.692  0.00  0.00    -0.205 F 
ATOM     11  C   LIG    1       23.724 -26.458  14.046  0.00  0.00    +0.012 A 
ATOM     12  C   LIG    1       26.072 -28.269  11.872  0.00  0.00    -0.025 C 
ENDROOT
BRANCH   4  13
ATOM     13  C   LIG    1       21.362 -28.582  12.960  0.00  0.00    -0.024 A 
ATOM     14  C   LIG    1       20.703 -29.406  13.878  0.00  0.00    +0.009 A 
ATOM     15  C   LIG    1       19.592 -28.928  14.578  0.00  0.00    +0.017 A 
ATOM     16  C   LIG    1       19.133 -27.622  14.372  0.00  0.00    +0.039 A 
ATOM     17  C   LIG    1       19.777 -26.811  13.431  0.00  0.00    +0.017 A 
ATOM     18  C   LIG    1       20.891 -27.287  12.732  0.00  0.00    +0.009 A 
BRANCH  16  19
ATOM     19  S   LIG    1       17.717 -26.981  15.297  0.00  0.00    +0.051 S 
ATOM     20  C   LIG    1       16.829 -28.549  15.486  0.00  0.00    +0.127 C 
ATOM     21  O   LIG    1       16.935 -26.143  14.328  0.00  0.00    -0.252 OA
ENDBRANCH  16  19
ENDBRANCH   4  13
BRANCH  12  22
ATOM     22  C   LIG    1       27.450 -28.416  11.310  0.00  0.00    +0.156 C 
BRANCH  22  23
ATOM     23  C   LIG    1       28.363 -29.360  12.089  0.00  0.00    +0.309 C 
ATOM     24  O   LIG    1       27.954 -30.064  13.003  0.00  0.00    -0.251 OA
BRANCH  23  25
ATOM     25  O   LIG    1       29.677 -29.319  11.759  0.00  0.00    -0.480 OA
ATOM     26  H   LIG    1       30.280 -29.783  12.385  0.00  0.00    +0.295 HD
ENDBRANCH  23  25
ENDBRANCH  22  23
ENDBRANCH  12  22
TORSDOF 5
ENDMDL
