MODEL 1
REMARK VINA RESULT:      -2.9      0.000      0.000
REMARK  Name = *****
REMARK                            x       y       z     vdW  Elec       q    Type
REMARK                         _______ _______ _______ _____ _____    ______ ____
ROOT
ATOM      1  C   LIG    1       25.839 -13.583   2.626  0.00  0.00    +0.155 C 
ENDROOT
BRANCH   1   3
ATOM      2  C   LIG    1       23.956 -14.342   4.115  0.00  0.00    +0.006 C 
ATOM      3  C   LIG    1       25.415 -14.528   3.741  0.00  0.00    +0.024 C 
ENDBRANCH   1   3
BRANCH   1   4
ATOM      4  O   LIG    1       26.897 -14.164   1.876  0.00  0.00    -0.395 OA
ATOM      5  H   LIG    1       27.243 -14.913   2.391  0.00  0.00    +0.209 HD
ENDBRANCH   1   4
TORSDOF 2
ENDMDL
MODEL 2
REMARK VINA RESULT:      -2.8      6.363      6.792
REMARK  Name = *****
REMARK                            x       y       z     vdW  Elec       q    Type
REMARK                         _______ _______ _______ _____ _____    ______ ____
ROOT
ATOM      1  C   LIG    1       23.973 -20.457   4.833  0.00  0.00    +0.155 C 
ENDROOT
BRANCH   1   3
ATOM      2  C   LIG    1       22.275 -18.630   4.488  0.00  0.00    +0.006 C 
ATOM      3  C   LIG    1       22.685 -19.821   5.336  0.00  0.00    +0.024 C 
ENDBRANCH   1   3
BRANCH   1   4
ATOM      4  O   LIG    1       23.670 -21.559   3.990  0.00  0.00    -0.395 OA
ATOM      5  H   LIG    1       23.198 -21.212   3.213  0.00  0.00    +0.209 HD
ENDBRANCH   1   4
TORSDOF 2
ENDMDL
MODEL 3
REMARK VINA RESULT:      -2.8      5.661      5.976
REMARK  Name = *****
REMARK                            x       y       z     vdW  Elec       q    Type
REMARK                         _______ _______ _______ _____ _____    ______ ____
ROOT
ATOM      1  C   LIG    1       24.630 -20.474   4.156  0.00  0.00    +0.155 C 
ENDROOT
BRANCH   1   3
ATOM      2  C   LIG    1       22.560 -19.116   4.615  0.00  0.00    +0.006 C 
ATOM      3  C   LIG    1       23.817 -19.245   3.774  0.00  0.00    +0.024 C 
ENDBRANCH   1   3
BRANCH   1   4
ATOM      4  O   LIG    1       26.017 -20.189   4.043  0.00  0.00    -0.395 OA
ATOM      5  H   LIG    1       26.420 -20.901   3.516  0.00  0.00    +0.209 HD
ENDBRANCH   1   4
TORSDOF 2
ENDMDL
MODEL 4
REMARK VINA RESULT:      -2.8      0.912      1.293
REMARK  Name = *****
REMARK                            x       y       z     vdW  Elec       q    Type
REMARK                         _______ _______ _______ _____ _____    ______ ____
ROOT
ATOM      1  C   LIG    1       25.831 -13.493   2.467  0.00  0.00    +0.155 C 
ENDROOT
BRANCH   1   3
ATOM      2  C   LIG    1       26.214 -13.526   4.956  0.00  0.00    +0.006 C 
ATOM      3  C   LIG    1       25.433 -14.119   3.797  0.00  0.00    +0.024 C 
ENDBRANCH   1   3
BRANCH   1   4
ATOM      4  O   LIG    1       26.957 -14.175   1.931  0.00  0.00    -0.395 OA
ATOM      5  H   LIG    1       27.234 -14.840   2.584  0.00  0.00    +0.209 HD
ENDBRANCH   1   4
TORSDOF 2
ENDMDL
MODEL 5
REMARK VINA RESULT:      -2.7      6.590      6.970
REMARK  Name = *****
REMARK                            x       y       z     vdW  Elec       q    Type
REMARK                         _______ _______ _______ _____ _____    ______ ____
ROOT
ATOM      1  C   LIG    1       23.953 -21.069   4.362  0.00  0.00    +0.155 C 
ENDROOT
BRANCH   1   3
ATOM      2  C   LIG    1       22.427 -19.123   4.834  0.00  0.00    +0.006 C 
ATOM      3  C   LIG    1       23.190 -20.294   5.426  0.00  0.00    +0.024 C 
ENDBRANCH   1   3
BRANCH   1   4
ATOM      4  O   LIG    1       25.222 -21.461   4.867  0.00  0.00    -0.395 OA
ATOM      5  H   LIG    1       25.604 -22.097   4.238  0.00  0.00    +0.209 HD
ENDBRANCH   1   4
TORSDOF 2
ENDMDL
MODEL 6
REMARK VINA RESULT:      -2.7      7.155      7.655
REMARK  Name = *****
REMARK                            x       y       z     vdW  Elec       q    Type
REMARK                         _______ _______ _______ _____ _____    ______ ____
ROOT
ATOM      1  C   LIG    1       22.694 -21.366   5.679  0.00  0.00    +0.155 C 
ENDROOT
BRANCH   1   3
ATOM      2  C   LIG    1       22.311 -19.086   4.681  0.00  0.00    +0.006 C 
ATOM      3  C   LIG    1       23.267 -19.973   5.458  0.00  0.00    +0.024 C 
ENDBRANCH   1   3
BRANCH   1   4
ATOM      4  O   LIG    1       21.568 -21.563   4.836  0.00  0.00    -0.395 OA
ATOM      5  H   LIG    1       21.836 -22.175   4.129  0.00  0.00    +0.209 HD
ENDBRANCH   1   4
TORSDOF 2
ENDMDL
MODEL 7
REMARK VINA RESULT:      -2.6      2.164      2.519
REMARK  Name = *****
REMARK                            x       y       z     vdW  Elec       q    Type
REMARK                         _______ _______ _______ _____ _____    ______ ____
ROOT
ATOM      1  C   LIG    1       27.941 -13.639   3.847  0.00  0.00    +0.155 C 
ENDROOT
BRANCH   1   3
ATOM      2  C   LIG    1       25.817 -13.272   2.546  0.00  0.00    +0.006 C 
ATOM      3  C   LIG    1       27.069 -14.117   2.694  0.00  0.00    +0.024 C 
ENDBRANCH   1   3
BRANCH   1   4
ATOM      4  O   LIG    1       29.193 -13.187   3.349  0.00  0.00    -0.395 OA
ATOM      5  H   LIG    1       29.025 -12.396   2.808  0.00  0.00    +0.209 HD
ENDBRANCH   1   4
TORSDOF 2
ENDMDL
MODEL 8
REMARK VINA RESULT:      -2.6      6.735      7.223
REMARK  Name = *****
REMARK                            x       y       z     vdW  Elec       q    Type
REMARK                         _______ _______ _______ _____ _____    ______ ____
ROOT
ATOM      1  C   LIG    1       23.596 -20.431   5.731  0.00  0.00    +0.155 C 
ENDROOT
BRANCH   1   3
ATOM      2  C   LIG    1       22.315 -18.632   4.522  0.00  0.00    +0.006 C 
ATOM      3  C   LIG    1       22.345 -20.093   4.934  0.00  0.00    +0.024 C 
ENDBRANCH   1   3
BRANCH   1   4
ATOM      4  O   LIG    1       23.241 -20.780   7.062  0.00  0.00    -0.395 OA
ATOM      5  H   LIG    1       23.439 -21.725   7.179  0.00  0.00    +0.209 HD
ENDBRANCH   1   4
TORSDOF 2
ENDMDL
MODEL 9
REMARK VINA RESULT:      -2.6      6.168      6.679
REMARK  Name = *****
REMARK                            x       y       z     vdW  Elec       q    Type
REMARK                         _______ _______ _______ _____ _____    ______ ____
ROOT
ATOM      1  C   LIG    1       22.447 -19.127   4.794  0.00  0.00    +0.155 C 
ENDROOT
BRANCH   1   3
ATOM      2  C   LIG    1       23.284 -20.644   6.621  0.00  0.00    +0.006 C 
ATOM      3  C   LIG    1       22.561 -20.562   5.288  0.00  0.00    +0.024 C 
ENDBRANCH   1   3
BRANCH   1   4
ATOM      4  O   LIG    1       23.409 -18.890   3.776  0.00  0.00    -0.395 OA
ATOM      5  H   LIG    1       23.061 -19.268   2.950  0.00  0.00    +0.209 HD
ENDBRANCH   1   4
TORSDOF 2
ENDMDL
