MODEL 1
REMARK VINA RESULT:      -8.6      0.000      0.000
REMARK  Name = *****
REMARK                            x       y       z     vdW  Elec       q    Type
REMARK                         _______ _______ _______ _____ _____    ______ ____
ROOT
ATOM      1  C   LIG    1       26.386 -20.797   6.576  0.00  0.00    +0.065 C 
ATOM      2  C   LIG    1       24.994 -21.466   6.344  0.00  0.00    +0.097 C 
ATOM      3  C   LIG    1       24.242 -20.749   5.202  0.00  0.00    +0.065 C 
ATOM      4  C   LIG    1       24.960 -20.165   4.209  0.00  0.00    +0.016 C 
ATOM      5  C   LIG    1       24.393 -19.590   2.938  0.00  0.00    +0.061 C 
ATOM      6  N   LIG    1       26.344 -20.060   4.327  0.00  0.00    -0.321 N 
ATOM      7  H   LIG    1       26.796 -19.463   3.638  0.00  0.00    +0.152 HD
ATOM      8  C   LIG    1       27.001 -20.159   5.549  0.00  0.00    +0.016 C 
ATOM      9  C   LIG    1       28.365 -19.506   5.589  0.00  0.00    +0.061 C 
ENDROOT
BRANCH   2  10
ATOM     10  C   LIG    1       25.082 -22.995   6.038  0.00  0.00    -0.015 A 
ATOM     11  C   LIG    1       25.514 -23.991   6.955  0.00  0.00    +0.063 A 
ATOM     12 CL   LIG    1       25.810 -23.645   8.624  0.00  0.00    -0.082 Cl
ATOM     13  C   LIG    1       25.700 -25.326   6.527  0.00  0.00    +0.059 A 
ATOM     14 CL   LIG    1       26.225 -26.600   7.584  0.00  0.00    -0.082 Cl
ATOM     15  C   LIG    1       25.456 -25.688   5.205  0.00  0.00    +0.021 A 
ATOM     16  C   LIG    1       24.896 -24.762   4.338  0.00  0.00    +0.002 A 
ATOM     17  C   LIG    1       24.684 -23.447   4.760  0.00  0.00    +0.006 A 
ENDBRANCH   2  10
BRANCH   1  18
ATOM     18  C   LIG    1       26.892 -20.800   7.980  0.00  0.00    +0.340 C 
ATOM     19  O   LIG    1       26.497 -20.040   8.837  0.00  0.00    -0.245 OA
BRANCH  18  20
ATOM     20  O   LIG    1       27.881 -21.718   8.150  0.00  0.00    -0.424 OA
BRANCH  20  21
ATOM     21  C   LIG    1       29.221 -21.289   7.936  0.00  0.00    +0.473 C 
BRANCH  21  22
ATOM     22  O   LIG    1       30.054 -21.558   9.055  0.00  0.00    -0.427 OA
BRANCH  22  23
ATOM     23  C   LIG    1       31.296 -21.009   8.966  0.00  0.00    +0.310 C 
ATOM     24  O   LIG    1       32.311 -21.423   9.478  0.00  0.00    -0.251 OA
BRANCH  23  25
ATOM     25  C   LIG    1       31.244 -19.839   8.025  0.00  0.00    +0.120 C 
BRANCH  25  27
ATOM     26  C   LIG    1       30.279 -17.748   9.137  0.00  0.00    +0.004 C 
ATOM     27  C   LIG    1       31.522 -18.515   8.707  0.00  0.00    +0.008 C 
ENDBRANCH  25  27
ENDBRANCH  23  25
ENDBRANCH  22  23
ENDBRANCH  21  22
ENDBRANCH  20  21
ENDBRANCH  18  20
ENDBRANCH   1  18
BRANCH   3  28
ATOM     28  C   LIG    1       22.758 -20.545   5.314  0.00  0.00    +0.337 C 
ATOM     29  O   LIG    1       21.899 -21.322   4.995  0.00  0.00    -0.245 OA
BRANCH  28  30
ATOM     30  O   LIG    1       22.574 -19.247   5.671  0.00  0.00    -0.465 OA
ATOM     31  C   LIG    1       22.042 -18.313   4.737  0.00  0.00    +0.280 C 
ENDBRANCH  28  30
ENDBRANCH   3  28
TORSDOF 10
ENDMDL
MODEL 2
REMARK VINA RESULT:      -8.2      3.328      6.492
REMARK  Name = *****
REMARK                            x       y       z     vdW  Elec       q    Type
REMARK                         _______ _______ _______ _____ _____    ______ ____
ROOT
ATOM      1  C   LIG    1       24.641 -22.751   5.977  0.00  0.00    +0.065 C 
ATOM      2  C   LIG    1       25.474 -21.514   5.514  0.00  0.00    +0.097 C 
ATOM      3  C   LIG    1       24.556 -20.481   4.825  0.00  0.00    +0.065 C 
ATOM      4  C   LIG    1       23.257 -20.399   5.209  0.00  0.00    +0.016 C 
ATOM      5  C   LIG    1       22.281 -19.336   4.779  0.00  0.00    +0.061 C 
ATOM      6  N   LIG    1       22.731 -21.357   6.073  0.00  0.00    -0.321 N 
ATOM      7  H   LIG    1       21.718 -21.337   6.180  0.00  0.00    +0.152 HD
ATOM      8  C   LIG    1       23.323 -22.600   6.263  0.00  0.00    +0.016 C 
ATOM      9  C   LIG    1       22.388 -23.676   6.771  0.00  0.00    +0.061 C 
ENDROOT
BRANCH   2  10
ATOM     10  C   LIG    1       26.265 -20.828   6.671  0.00  0.00    -0.015 A 
ATOM     11  C   LIG    1       27.557 -20.249   6.551  0.00  0.00    +0.063 A 
ATOM     12 CL   LIG    1       28.343 -20.051   5.022  0.00  0.00    -0.082 Cl
ATOM     13  C   LIG    1       28.247 -19.789   7.697  0.00  0.00    +0.059 A 
ATOM     14 CL   LIG    1       29.826 -19.070   7.634  0.00  0.00    -0.082 Cl
ATOM     15  C   LIG    1       27.668 -19.888   8.960  0.00  0.00    +0.021 A 
ATOM     16  C   LIG    1       26.354 -20.315   9.075  0.00  0.00    +0.002 A 
ATOM     17  C   LIG    1       25.656 -20.746   7.944  0.00  0.00    +0.006 A 
ENDBRANCH   2  10
BRANCH   1  18
ATOM     18  C   LIG    1       25.344 -24.067   5.950  0.00  0.00    +0.340 C 
ATOM     19  O   LIG    1       26.081 -24.452   6.831  0.00  0.00    -0.245 OA
BRANCH  18  20
ATOM     20  O   LIG    1       25.095 -24.739   4.793  0.00  0.00    -0.424 OA
BRANCH  20  21
ATOM     21  C   LIG    1       25.217 -26.157   4.818  0.00  0.00    +0.473 C 
BRANCH  21  22
ATOM     22  O   LIG    1       24.127 -26.775   5.488  0.00  0.00    -0.427 OA
BRANCH  22  23
ATOM     23  C   LIG    1       24.425 -27.989   6.027  0.00  0.00    +0.310 C 
ATOM     24  O   LIG    1       23.960 -29.059   5.709  0.00  0.00    -0.251 OA
BRANCH  23  25
ATOM     25  C   LIG    1       25.527 -27.816   7.034  0.00  0.00    +0.120 C 
BRANCH  25  27
ATOM     26  C   LIG    1       26.431 -28.597   9.294  0.00  0.00    +0.004 C 
ATOM     27  C   LIG    1       25.529 -28.889   8.104  0.00  0.00    +0.008 C 
ENDBRANCH  25  27
ENDBRANCH  23  25
ENDBRANCH  22  23
ENDBRANCH  21  22
ENDBRANCH  20  21
ENDBRANCH  18  20
ENDBRANCH   1  18
BRANCH   3  28
ATOM     28  C   LIG    1       25.063 -19.734   3.624  0.00  0.00    +0.337 C 
ATOM     29  O   LIG    1       25.089 -20.128   2.489  0.00  0.00    -0.245 OA
BRANCH  28  30
ATOM     30  O   LIG    1       25.653 -18.605   4.096  0.00  0.00    -0.465 OA
ATOM     31  C   LIG    1       25.893 -17.502   3.226  0.00  0.00    +0.280 C 
ENDBRANCH  28  30
ENDBRANCH   3  28
TORSDOF 10
ENDMDL
MODEL 3
REMARK VINA RESULT:      -7.3      6.655      9.757
REMARK  Name = *****
REMARK                            x       y       z     vdW  Elec       q    Type
REMARK                         _______ _______ _______ _____ _____    ______ ____
ROOT
ATOM      1  C   LIG    1       24.820 -29.818   7.554  0.00  0.00    +0.065 C 
ATOM      2  C   LIG    1       24.285 -29.945   9.015  0.00  0.00    +0.097 C 
ATOM      3  C   LIG    1       23.632 -31.329   9.225  0.00  0.00    +0.065 C 
ATOM      4  C   LIG    1       24.090 -32.386   8.509  0.00  0.00    +0.016 C 
ATOM      5  C   LIG    1       23.699 -33.825   8.719  0.00  0.00    +0.061 C 
ATOM      6  N   LIG    1       25.002 -32.177   7.475  0.00  0.00    -0.321 N 
ATOM      7  H   LIG    1       25.168 -32.980   6.872  0.00  0.00    +0.152 HD
ATOM      8  C   LIG    1       25.180 -30.935   6.874  0.00  0.00    +0.016 C 
ATOM      9  C   LIG    1       25.761 -30.986   5.478  0.00  0.00    +0.061 C 
ENDROOT
BRANCH   2  10
ATOM     10  C   LIG    1       25.381 -29.709  10.102  0.00  0.00    -0.015 A 
ATOM     11  C   LIG    1       25.156 -29.140  11.384  0.00  0.00    +0.063 A 
ATOM     12 CL   LIG    1       23.566 -28.820  11.987  0.00  0.00    -0.082 Cl
ATOM     13  C   LIG    1       26.245 -28.831  12.233  0.00  0.00    +0.059 A 
ATOM     14 CL   LIG    1       26.053 -28.136  13.812  0.00  0.00    -0.082 Cl
ATOM     15  C   LIG    1       27.553 -29.085  11.829  0.00  0.00    +0.021 A 
ATOM     16  C   LIG    1       27.779 -29.772  10.646  0.00  0.00    +0.002 A 
ATOM     17  C   LIG    1       26.707 -30.105   9.814  0.00  0.00    +0.006 A 
ENDBRANCH   2  10
BRANCH   1  18
ATOM     18  C   LIG    1       24.775 -28.453   6.953  0.00  0.00    +0.340 C 
ATOM     19  O   LIG    1       23.913 -28.087   6.184  0.00  0.00    -0.245 OA
BRANCH  18  20
ATOM     20  O   LIG    1       25.847 -27.707   7.333  0.00  0.00    -0.424 OA
BRANCH  20  21
ATOM     21  C   LIG    1       26.216 -26.614   6.500  0.00  0.00    +0.473 C 
BRANCH  21  22
ATOM     22  O   LIG    1       25.874 -25.362   7.078  0.00  0.00    -0.427 OA
BRANCH  22  23
ATOM     23  C   LIG    1       25.364 -24.463   6.192  0.00  0.00    +0.310 C 
ATOM     24  O   LIG    1       25.105 -24.658   5.027  0.00  0.00    -0.251 OA
BRANCH  23  25
ATOM     25  C   LIG    1       25.061 -23.184   6.920  0.00  0.00    +0.120 C 
BRANCH  25  27
ATOM     26  C   LIG    1       23.286 -21.359   7.164  0.00  0.00    +0.004 C 
ATOM     27  C   LIG    1       23.588 -22.829   6.909  0.00  0.00    +0.008 C 
ENDBRANCH  25  27
ENDBRANCH  23  25
ENDBRANCH  22  23
ENDBRANCH  21  22
ENDBRANCH  20  21
ENDBRANCH  18  20
ENDBRANCH   1  18
BRANCH   3  28
ATOM     28  C   LIG    1       22.390 -31.435  10.064  0.00  0.00    +0.337 C 
ATOM     29  O   LIG    1       21.339 -30.888   9.866  0.00  0.00    -0.245 OA
BRANCH  28  30
ATOM     30  O   LIG    1       22.741 -32.119  11.185  0.00  0.00    -0.465 OA
ATOM     31  C   LIG    1       21.967 -31.994  12.374  0.00  0.00    +0.280 C 
ENDBRANCH  28  30
ENDBRANCH   3  28
TORSDOF 10
ENDMDL
MODEL 4
REMARK VINA RESULT:      -7.2      6.988     10.167
REMARK  Name = *****
REMARK                            x       y       z     vdW  Elec       q    Type
REMARK                         _______ _______ _______ _____ _____    ______ ____
ROOT
ATOM      1  C   LIG    1       25.082 -30.005   8.446  0.00  0.00    +0.065 C 
ATOM      2  C   LIG    1       24.474 -29.827   9.873  0.00  0.00    +0.097 C 
ATOM      3  C   LIG    1       23.713 -31.104  10.291  0.00  0.00    +0.065 C 
ATOM      4  C   LIG    1       24.124 -32.302   9.804  0.00  0.00    +0.016 C 
ATOM      5  C   LIG    1       23.619 -33.649  10.248  0.00  0.00    +0.061 C 
ATOM      6  N   LIG    1       25.094 -32.344   8.804  0.00  0.00    -0.321 N 
ATOM      7  H   LIG    1       25.228 -33.254   8.366  0.00  0.00    +0.152 HD
ATOM      8  C   LIG    1       25.390 -31.249   8.000  0.00  0.00    +0.016 C 
ATOM      9  C   LIG    1       26.029 -31.593   6.673  0.00  0.00    +0.061 C 
ENDROOT
BRANCH   2  10
ATOM     10  C   LIG    1       25.534 -29.465  10.960  0.00  0.00    -0.015 A 
ATOM     11  C   LIG    1       25.281 -28.695  12.127  0.00  0.00    +0.063 A 
ATOM     12 CL   LIG    1       23.684 -28.225  12.597  0.00  0.00    -0.082 Cl
ATOM     13  C   LIG    1       26.347 -28.298  12.968  0.00  0.00    +0.059 A 
ATOM     14 CL   LIG    1       26.122 -27.358  14.411  0.00  0.00    -0.082 Cl
ATOM     15  C   LIG    1       27.658 -28.661  12.671  0.00  0.00    +0.021 A 
ATOM     16  C   LIG    1       27.902 -29.532  11.620  0.00  0.00    +0.002 A 
ATOM     17  C   LIG    1       26.852 -29.950  10.800  0.00  0.00    +0.006 A 
ENDBRANCH   2  10
BRANCH   1  18
ATOM     18  C   LIG    1       25.165 -28.774   7.606  0.00  0.00    +0.340 C 
ATOM     19  O   LIG    1       26.018 -27.924   7.744  0.00  0.00    -0.245 OA
BRANCH  18  20
ATOM     20  O   LIG    1       24.136 -28.708   6.719  0.00  0.00    -0.424 OA
BRANCH  20  21
ATOM     21  C   LIG    1       24.436 -28.278   5.395  0.00  0.00    +0.473 C 
BRANCH  21  22
ATOM     22  O   LIG    1       24.165 -26.896   5.208  0.00  0.00    -0.427 OA
BRANCH  22  23
ATOM     23  C   LIG    1       25.280 -26.122   5.097  0.00  0.00    +0.310 C 
ATOM     24  O   LIG    1       26.317 -26.417   4.550  0.00  0.00    -0.251 OA
BRANCH  23  25
ATOM     25  C   LIG    1       24.990 -24.767   5.678  0.00  0.00    +0.120 C 
BRANCH  25  27
ATOM     26  C   LIG    1       23.164 -23.345   6.765  0.00  0.00    +0.004 C 
ATOM     27  C   LIG    1       23.726 -24.737   6.513  0.00  0.00    +0.008 C 
ENDBRANCH  25  27
ENDBRANCH  23  25
ENDBRANCH  22  23
ENDBRANCH  21  22
ENDBRANCH  20  21
ENDBRANCH  18  20
ENDBRANCH   1  18
BRANCH   3  28
ATOM     28  C   LIG    1       22.429 -30.975  11.061  0.00  0.00    +0.337 C 
ATOM     29  O   LIG    1       22.261 -31.221  12.225  0.00  0.00    -0.245 OA
BRANCH  28  30
ATOM     30  O   LIG    1       21.459 -30.704  10.149  0.00  0.00    -0.465 OA
ATOM     31  C   LIG    1       20.089 -30.924  10.470  0.00  0.00    +0.280 C 
ENDBRANCH  28  30
ENDBRANCH   3  28
TORSDOF 10
ENDMDL
MODEL 5
REMARK VINA RESULT:      -7.1      1.336      1.624
REMARK  Name = *****
REMARK                            x       y       z     vdW  Elec       q    Type
REMARK                         _______ _______ _______ _____ _____    ______ ____
ROOT
ATOM      1  C   LIG    1       26.536 -20.493   6.762  0.00  0.00    +0.065 C 
ATOM      2  C   LIG    1       25.187 -21.266   6.615  0.00  0.00    +0.097 C 
ATOM      3  C   LIG    1       24.405 -20.746   5.389  0.00  0.00    +0.065 C 
ATOM      4  C   LIG    1       25.096 -20.253   4.330  0.00  0.00    +0.016 C 
ATOM      5  C   LIG    1       24.508 -19.880   2.996  0.00  0.00    +0.061 C 
ATOM      6  N   LIG    1       26.471 -20.053   4.437  0.00  0.00    -0.321 N 
ATOM      7  H   LIG    1       26.894 -19.523   3.677  0.00  0.00    +0.152 HD
ATOM      8  C   LIG    1       27.122 -19.956   5.662  0.00  0.00    +0.016 C 
ATOM      9  C   LIG    1       28.445 -19.225   5.619  0.00  0.00    +0.061 C 
ENDROOT
BRANCH   2  10
ATOM     10  C   LIG    1       25.366 -22.813   6.508  0.00  0.00    -0.015 A 
ATOM     11  C   LIG    1       25.025 -23.602   5.377  0.00  0.00    +0.063 A 
ATOM     12 CL   LIG    1       24.548 -22.899   3.869  0.00  0.00    -0.082 Cl
ATOM     13  C   LIG    1       25.085 -25.014   5.443  0.00  0.00    +0.059 A 
ATOM     14 CL   LIG    1       24.686 -26.047   4.106  0.00  0.00    -0.082 Cl
ATOM     15  C   LIG    1       25.487 -25.653   6.613  0.00  0.00    +0.021 A 
ATOM     16  C   LIG    1       25.961 -24.896   7.673  0.00  0.00    +0.002 A 
ATOM     17  C   LIG    1       25.930 -23.501   7.607  0.00  0.00    +0.006 A 
ENDBRANCH   2  10
BRANCH   1  18
ATOM     18  C   LIG    1       27.029 -20.286   8.154  0.00  0.00    +0.340 C 
ATOM     19  O   LIG    1       26.312 -20.318   9.131  0.00  0.00    -0.245 OA
BRANCH  18  20
ATOM     20  O   LIG    1       28.359 -20.005   8.174  0.00  0.00    -0.424 OA
BRANCH  20  21
ATOM     21  C   LIG    1       29.257 -21.086   8.402  0.00  0.00    +0.473 C 
BRANCH  21  22
ATOM     22  O   LIG    1       30.498 -20.900   7.737  0.00  0.00    -0.427 OA
BRANCH  22  23
ATOM     23  C   LIG    1       31.429 -20.237   8.476  0.00  0.00    +0.310 C 
ATOM     24  O   LIG    1       32.100 -20.689   9.374  0.00  0.00    -0.251 OA
BRANCH  23  25
ATOM     25  C   LIG    1       31.584 -18.846   7.927  0.00  0.00    +0.120 C 
BRANCH  25  27
ATOM     26  C   LIG    1       30.281 -17.687   9.797  0.00  0.00    +0.004 C 
ATOM     27  C   LIG    1       31.576 -17.779   9.002  0.00  0.00    +0.008 C 
ENDBRANCH  25  27
ENDBRANCH  23  25
ENDBRANCH  22  23
ENDBRANCH  21  22
ENDBRANCH  20  21
ENDBRANCH  18  20
ENDBRANCH   1  18
BRANCH   3  28
ATOM     28  C   LIG    1       22.910 -20.617   5.473  0.00  0.00    +0.337 C 
ATOM     29  O   LIG    1       22.099 -21.457   5.193  0.00  0.00    -0.245 OA
BRANCH  28  30
ATOM     30  O   LIG    1       22.652 -19.311   5.748  0.00  0.00    -0.465 OA
ATOM     31  C   LIG    1       22.068 -18.471   4.758  0.00  0.00    +0.280 C 
ENDBRANCH  28  30
ENDBRANCH   3  28
TORSDOF 10
ENDMDL
MODEL 6
REMARK VINA RESULT:      -7.0      2.652      4.556
REMARK  Name = *****
REMARK                            x       y       z     vdW  Elec       q    Type
REMARK                         _______ _______ _______ _____ _____    ______ ____
ROOT
ATOM      1  C   LIG    1       26.210 -21.300   7.439  0.00  0.00    +0.065 C 
ATOM      2  C   LIG    1       26.025 -21.840   5.986  0.00  0.00    +0.097 C 
ATOM      3  C   LIG    1       25.036 -23.026   5.980  0.00  0.00    +0.065 C 
ATOM      4  C   LIG    1       24.055 -23.067   6.917  0.00  0.00    +0.016 C 
ATOM      5  C   LIG    1       22.906 -24.040   6.943  0.00  0.00    +0.061 C 
ATOM      6  N   LIG    1       24.066 -22.152   7.968  0.00  0.00    -0.321 N 
ATOM      7  H   LIG    1       23.410 -22.348   8.722  0.00  0.00    +0.152 HD
ATOM      8  C   LIG    1       25.210 -21.456   8.343  0.00  0.00    +0.016 C 
ATOM      9  C   LIG    1       25.204 -20.950   9.769  0.00  0.00    +0.061 C 
ENDROOT
BRANCH   2  10
ATOM     10  C   LIG    1       25.549 -20.751   4.973  0.00  0.00    -0.015 A 
ATOM     11  C   LIG    1       26.294 -19.601   4.596  0.00  0.00    +0.063 A 
ATOM     12 CL   LIG    1       27.941 -19.370   5.070  0.00  0.00    -0.082 Cl
ATOM     13  C   LIG    1       25.706 -18.600   3.787  0.00  0.00    +0.059 A 
ATOM     14 CL   LIG    1       26.547 -17.169   3.282  0.00  0.00    -0.082 Cl
ATOM     15  C   LIG    1       24.392 -18.729   3.342  0.00  0.00    +0.021 A 
ATOM     16  C   LIG    1       23.705 -19.909   3.581  0.00  0.00    +0.002 A 
ATOM     17  C   LIG    1       24.289 -20.914   4.356  0.00  0.00    +0.006 A 
ENDBRANCH   2  10
BRANCH   1  18
ATOM     18  C   LIG    1       27.557 -20.751   7.772  0.00  0.00    +0.340 C 
ATOM     19  O   LIG    1       27.731 -19.673   8.298  0.00  0.00    -0.245 OA
BRANCH  18  20
ATOM     20  O   LIG    1       28.549 -21.584   7.358  0.00  0.00    -0.424 OA
BRANCH  20  21
ATOM     21  C   LIG    1       29.796 -21.513   8.042  0.00  0.00    +0.473 C 
BRANCH  21  22
ATOM     22  O   LIG    1       30.550 -20.372   7.661  0.00  0.00    -0.427 OA
BRANCH  22  23
ATOM     23  C   LIG    1       31.427 -19.945   8.610  0.00  0.00    +0.310 C 
ATOM     24  O   LIG    1       32.096 -20.635   9.344  0.00  0.00    -0.251 OA
BRANCH  23  25
ATOM     25  C   LIG    1       31.528 -18.447   8.539  0.00  0.00    +0.120 C 
BRANCH  25  27
ATOM     26  C   LIG    1       30.437 -17.455  10.628  0.00  0.00    +0.004 C 
ATOM     27  C   LIG    1       30.328 -17.742   9.138  0.00  0.00    +0.008 C 
ENDBRANCH  25  27
ENDBRANCH  23  25
ENDBRANCH  22  23
ENDBRANCH  21  22
ENDBRANCH  20  21
ENDBRANCH  18  20
ENDBRANCH   1  18
BRANCH   3  28
ATOM     28  C   LIG    1       25.295 -24.194   5.071  0.00  0.00    +0.337 C 
ATOM     29  O   LIG    1       24.740 -24.435   4.033  0.00  0.00    -0.245 OA
BRANCH  28  30
ATOM     30  O   LIG    1       26.144 -25.019   5.739  0.00  0.00    -0.465 OA
ATOM     31  C   LIG    1       25.777 -26.370   5.998  0.00  0.00    +0.280 C 
ENDBRANCH  28  30
ENDBRANCH   3  28
TORSDOF 10
ENDMDL
MODEL 7
REMARK VINA RESULT:      -6.8      8.150     11.461
REMARK  Name = *****
REMARK                            x       y       z     vdW  Elec       q    Type
REMARK                         _______ _______ _______ _____ _____    ______ ____
ROOT
ATOM      1  C   LIG    1       24.887 -29.708  10.802  0.00  0.00    +0.065 C 
ATOM      2  C   LIG    1       24.401 -30.067  12.241  0.00  0.00    +0.097 C 
ATOM      3  C   LIG    1       25.594 -30.067  13.222  0.00  0.00    +0.065 C 
ATOM      4  C   LIG    1       26.644 -29.242  12.978  0.00  0.00    +0.016 C 
ATOM      5  C   LIG    1       27.792 -28.981  13.916  0.00  0.00    +0.061 C 
ATOM      6  N   LIG    1       26.715 -28.555  11.767  0.00  0.00    -0.321 N 
ATOM      7  H   LIG    1       27.604 -28.096  11.579  0.00  0.00    +0.152 HD
ATOM      8  C   LIG    1       25.997 -28.945  10.642  0.00  0.00    +0.016 C 
ATOM      9  C   LIG    1       26.572 -28.465   9.327  0.00  0.00    +0.061 C 
ENDROOT
BRANCH   2  10
ATOM     10  C   LIG    1       23.280 -29.121  12.775  0.00  0.00    -0.015 A 
ATOM     11  C   LIG    1       21.962 -29.524  13.120  0.00  0.00    +0.063 A 
ATOM     12 CL   LIG    1       21.492 -31.188  13.186  0.00  0.00    -0.082 Cl
ATOM     13  C   LIG    1       20.980 -28.560  13.448  0.00  0.00    +0.059 A 
ATOM     14 CL   LIG    1       19.350 -28.971  13.882  0.00  0.00    -0.082 Cl
ATOM     15  C   LIG    1       21.290 -27.202  13.444  0.00  0.00    +0.021 A 
ATOM     16  C   LIG    1       22.605 -26.805  13.252  0.00  0.00    +0.002 A 
ATOM     17  C   LIG    1       23.586 -27.753  12.955  0.00  0.00    +0.006 A 
ENDBRANCH   2  10
BRANCH   1  18
ATOM     18  C   LIG    1       24.148 -30.351   9.677  0.00  0.00    +0.340 C 
ATOM     19  O   LIG    1       22.988 -30.117   9.415  0.00  0.00    -0.245 OA
BRANCH  18  20
ATOM     20  O   LIG    1       24.921 -31.266   9.032  0.00  0.00    -0.424 OA
BRANCH  20  21
ATOM     21  C   LIG    1       24.692 -31.457   7.641  0.00  0.00    +0.473 C 
BRANCH  21  22
ATOM     22  O   LIG    1       25.327 -30.461   6.852  0.00  0.00    -0.427 OA
BRANCH  22  23
ATOM     23  C   LIG    1       24.472 -29.740   6.075  0.00  0.00    +0.310 C 
ATOM     24  O   LIG    1       23.302 -29.970   5.877  0.00  0.00    -0.251 OA
BRANCH  23  25
ATOM     25  C   LIG    1       25.188 -28.520   5.569  0.00  0.00    +0.120 C 
BRANCH  25  27
ATOM     26  C   LIG    1       25.731 -26.067   6.044  0.00  0.00    +0.004 C 
ATOM     27  C   LIG    1       24.835 -27.262   6.336  0.00  0.00    +0.008 C 
ENDBRANCH  25  27
ENDBRANCH  23  25
ENDBRANCH  22  23
ENDBRANCH  21  22
ENDBRANCH  20  21
ENDBRANCH  18  20
ENDBRANCH   1  18
BRANCH   3  28
ATOM     28  C   LIG    1       25.656 -31.106  14.305  0.00  0.00    +0.337 C 
ATOM     29  O   LIG    1       25.359 -30.960  15.460  0.00  0.00    -0.245 OA
BRANCH  28  30
ATOM     30  O   LIG    1       26.283 -32.185  13.767  0.00  0.00    -0.465 OA
ATOM     31  C   LIG    1       25.553 -33.375  13.486  0.00  0.00    +0.280 C 
ENDBRANCH  28  30
ENDBRANCH   3  28
TORSDOF 10
ENDMDL
MODEL 8
REMARK VINA RESULT:      -6.7      8.090     11.311
REMARK  Name = *****
REMARK                            x       y       z     vdW  Elec       q    Type
REMARK                         _______ _______ _______ _____ _____    ______ ____
ROOT
ATOM      1  C   LIG    1       26.190 -29.548  11.516  0.00  0.00    +0.065 C 
ATOM      2  C   LIG    1       24.758 -29.848  12.061  0.00  0.00    +0.097 C 
ATOM      3  C   LIG    1       24.814 -30.979  13.112  0.00  0.00    +0.065 C 
ATOM      4  C   LIG    1       25.938 -31.125  13.859  0.00  0.00    +0.016 C 
ATOM      5  C   LIG    1       26.092 -32.045  15.041  0.00  0.00    +0.061 C 
ATOM      6  N   LIG    1       27.077 -30.386  13.545  0.00  0.00    -0.321 N 
ATOM      7  H   LIG    1       27.927 -30.669  14.029  0.00  0.00    +0.152 HD
ATOM      8  C   LIG    1       27.270 -29.802  12.298  0.00  0.00    +0.016 C 
ATOM      9  C   LIG    1       28.715 -29.523  11.947  0.00  0.00    +0.061 C 
ENDROOT
BRANCH   2  10
ATOM     10  C   LIG    1       24.049 -28.598  12.670  0.00  0.00    -0.015 A 
ATOM     11  C   LIG    1       22.655 -28.331  12.600  0.00  0.00    +0.063 A 
ATOM     12 CL   LIG    1       21.521 -29.490  11.996  0.00  0.00    -0.082 Cl
ATOM     13  C   LIG    1       22.138 -27.094  13.052  0.00  0.00    +0.059 A 
ATOM     14 CL   LIG    1       20.450 -26.693  13.003  0.00  0.00    -0.082 Cl
ATOM     15  C   LIG    1       22.985 -26.122  13.578  0.00  0.00    +0.021 A 
ATOM     16  C   LIG    1       24.322 -26.423  13.785  0.00  0.00    +0.002 A 
ATOM     17  C   LIG    1       24.835 -27.653  13.367  0.00  0.00    +0.006 A 
ENDBRANCH   2  10
BRANCH   1  18
ATOM     18  C   LIG    1       26.275 -29.111  10.093  0.00  0.00    +0.340 C 
ATOM     19  O   LIG    1       26.571 -27.986   9.752  0.00  0.00    -0.245 OA
BRANCH  18  20
ATOM     20  O   LIG    1       25.925 -30.114   9.243  0.00  0.00    -0.424 OA
BRANCH  20  21
ATOM     21  C   LIG    1       24.832 -29.878   8.362  0.00  0.00    +0.473 C 
BRANCH  21  22
ATOM     22  O   LIG    1       25.264 -29.480   7.069  0.00  0.00    -0.427 OA
BRANCH  22  23
ATOM     23  C   LIG    1       24.249 -29.162   6.219  0.00  0.00    +0.310 C 
ATOM     24  O   LIG    1       23.325 -29.870   5.893  0.00  0.00    -0.251 OA
BRANCH  23  25
ATOM     25  C   LIG    1       24.389 -27.721   5.814  0.00  0.00    +0.120 C 
BRANCH  25  27
ATOM     26  C   LIG    1       25.873 -25.648   6.016  0.00  0.00    +0.004 C 
ATOM     27  C   LIG    1       25.439 -26.978   6.616  0.00  0.00    +0.008 C 
ENDBRANCH  25  27
ENDBRANCH  23  25
ENDBRANCH  22  23
ENDBRANCH  21  22
ENDBRANCH  20  21
ENDBRANCH  18  20
ENDBRANCH   1  18
BRANCH   3  28
ATOM     28  C   LIG    1       23.714 -32.001  13.150  0.00  0.00    +0.337 C 
ATOM     29  O   LIG    1       22.866 -32.115  13.993  0.00  0.00    -0.245 OA
BRANCH  28  30
ATOM     30  O   LIG    1       23.975 -32.883  12.149  0.00  0.00    -0.465 OA
ATOM     31  C   LIG    1       22.921 -33.359  11.318  0.00  0.00    +0.280 C 
ENDBRANCH  28  30
ENDBRANCH   3  28
TORSDOF 10
ENDMDL
MODEL 9
REMARK VINA RESULT:      -6.6      8.299     11.358
REMARK  Name = *****
REMARK                            x       y       z     vdW  Elec       q    Type
REMARK                         _______ _______ _______ _____ _____    ______ ____
ROOT
ATOM      1  C   LIG    1       23.970 -30.566  11.378  0.00  0.00    +0.065 C 
ATOM      2  C   LIG    1       23.453 -29.543  12.438  0.00  0.00    +0.097 C 
ATOM      3  C   LIG    1       22.927 -30.287  13.684  0.00  0.00    +0.065 C 
ATOM      4  C   LIG    1       23.476 -31.484  14.015  0.00  0.00    +0.016 C 
ATOM      5  C   LIG    1       23.215 -32.249  15.285  0.00  0.00    +0.061 C 
ATOM      6  N   LIG    1       24.362 -32.103  13.135  0.00  0.00    -0.321 N 
ATOM      7  H   LIG    1       24.597 -33.068  13.361  0.00  0.00    +0.152 HD
ATOM      8  C   LIG    1       24.427 -31.777  11.784  0.00  0.00    +0.016 C 
ATOM      9  C   LIG    1       25.007 -32.859  10.900  0.00  0.00    +0.061 C 
ENDROOT
BRANCH   2  10
ATOM     10  C   LIG    1       24.527 -28.493  12.865  0.00  0.00    -0.015 A 
ATOM     11  C   LIG    1       24.265 -27.130  13.172  0.00  0.00    +0.063 A 
ATOM     12 CL   LIG    1       22.657 -26.506  13.309  0.00  0.00    -0.082 Cl
ATOM     13  C   LIG    1       25.331 -26.229  13.400  0.00  0.00    +0.059 A 
ATOM     14 CL   LIG    1       25.095 -24.552  13.780  0.00  0.00    -0.082 Cl
ATOM     15  C   LIG    1       26.653 -26.663  13.335  0.00  0.00    +0.021 A 
ATOM     16  C   LIG    1       26.918 -28.015  13.181  0.00  0.00    +0.002 A 
ATOM     17  C   LIG    1       25.870 -28.916  12.983  0.00  0.00    +0.006 A 
ENDBRANCH   2  10
BRANCH   1  18
ATOM     18  C   LIG    1       23.803 -30.174   9.948  0.00  0.00    +0.340 C 
ATOM     19  O   LIG    1       22.791 -30.374   9.312  0.00  0.00    -0.245 OA
BRANCH  18  20
ATOM     20  O   LIG    1       24.941 -29.624   9.447  0.00  0.00    -0.424 OA
BRANCH  20  21
ATOM     21  C   LIG    1       25.254 -29.888   8.084  0.00  0.00    +0.473 C 
BRANCH  21  22
ATOM     22  O   LIG    1       25.286 -28.702   7.303  0.00  0.00    -0.427 OA
BRANCH  22  23
ATOM     23  C   LIG    1       24.424 -28.708   6.249  0.00  0.00    +0.310 C 
ATOM     24  O   LIG    1       23.559 -29.522   6.024  0.00  0.00    -0.251 OA
BRANCH  23  25
ATOM     25  C   LIG    1       24.640 -27.462   5.438  0.00  0.00    +0.120 C 
BRANCH  25  27
ATOM     26  C   LIG    1       25.423 -25.177   6.277  0.00  0.00    +0.004 C 
ATOM     27  C   LIG    1       24.294 -26.194   6.192  0.00  0.00    +0.008 C 
ENDBRANCH  25  27
ENDBRANCH  23  25
ENDBRANCH  22  23
ENDBRANCH  21  22
ENDBRANCH  20  21
ENDBRANCH  18  20
ENDBRANCH   1  18
BRANCH   3  28
ATOM     28  C   LIG    1       21.701 -29.772  14.385  0.00  0.00    +0.337 C 
ATOM     29  O   LIG    1       21.671 -29.102  15.382  0.00  0.00    -0.245 OA
BRANCH  28  30
ATOM     30  O   LIG    1       20.637 -30.363  13.781  0.00  0.00    -0.465 OA
ATOM     31  C   LIG    1       19.366 -29.720  13.775  0.00  0.00    +0.280 C 
ENDBRANCH  28  30
ENDBRANCH   3  28
TORSDOF 10
ENDMDL
