MODEL 1
REMARK VINA RESULT:      13.4      0.000      0.000
REMARK  Name = *****
REMARK                            x       y       z     vdW  Elec       q    Type
REMARK                         _______ _______ _______ _____ _____    ______ ____
ROOT
ATOM      1  C   LIG    1       21.565 -18.855   3.941  0.00  0.00    +0.130 C 
ATOM      2  C   LIG    1       22.537 -19.331   2.846  0.00  0.00    +0.079 C 
ATOM      3  C   LIG    1       23.987 -19.376   3.338  0.00  0.00    +0.158 C 
ATOM      4  C   LIG    1       24.389 -17.956   3.719  0.00  0.00    +0.030 A 
ATOM      5  C   LIG    1       23.456 -17.118   4.377  0.00  0.00    +0.007 A 
ATOM      6  C   LIG    1       23.874 -15.866   4.851  0.00  0.00    +0.132 A 
ATOM      7  C   LIG    1       25.157 -15.369   4.576  0.00  0.00    +0.078 A 
ATOM      8  C   LIG    1       25.554 -14.033   5.052  0.00  0.00    +0.198 C 
ATOM      9  O   LIG    1       24.851 -13.442   5.867  0.00  0.00    -0.286 OA
ATOM     10  C   LIG    1       26.775 -13.407   4.517  0.00  0.00    +0.033 A 
ATOM     11  C   LIG    1       27.604 -14.121   3.665  0.00  0.00    +0.033 A 
ATOM     12  C   LIG    1       28.726 -13.477   3.099  0.00  0.00    +0.012 A 
ATOM     13  C   LIG    1       29.014 -12.150   3.419  0.00  0.00    +0.001 A 
ATOM     14  C   LIG    1       28.193 -11.449   4.304  0.00  0.00    +0.001 A 
ATOM     15  C   LIG    1       27.298 -15.526   3.334  0.00  0.00    +0.198 C 
ATOM     16  O   LIG    1       28.071 -16.190   2.646  0.00  0.00    -0.286 OA
ATOM     17  C   LIG    1       27.077 -12.072   4.855  0.00  0.00    +0.012 A 
ATOM     18  C   LIG    1       26.034 -16.127   3.789  0.00  0.00    +0.078 A 
ATOM     19  C   LIG    1       25.656 -17.433   3.406  0.00  0.00    +0.135 A 
ATOM     20  C   LIG    1       21.975 -17.465   4.453  0.00  0.00    +0.082 C 
ENDROOT
BRANCH   1  22
ATOM     21  C   LIG    1       19.668 -17.544   2.706  0.00  0.00    +0.089 C 
ATOM     22  C   LIG    1       20.133 -18.821   3.363  0.00  0.00    +0.162 C 
ATOM     23  O   LIG    1       19.362 -19.782   3.451  0.00  0.00    -0.295 OA
ENDBRANCH   1  22
BRANCH   1  24
ATOM     24  O   LIG    1       21.507 -19.759   5.050  0.00  0.00    -0.381 OA
ATOM     25  H   LIG    1       21.005 -19.311   5.761  0.00  0.00    +0.211 HD
ENDBRANCH   1  24
BRANCH   6  26
ATOM     26  O   LIG    1       22.956 -15.124   5.553  0.00  0.00    -0.506 OA
ATOM     27  H   LIG    1       22.117 -15.094   5.040  0.00  0.00    +0.292 HD
ENDBRANCH   6  26
BRANCH  19  28
ATOM     28  O   LIG    1       26.496 -18.216   2.649  0.00  0.00    -0.506 OA
ATOM     29  H   LIG    1       26.439 -19.145   2.970  0.00  0.00    +0.292 HD
ENDBRANCH  19  28
BRANCH   3  30
ATOM     30  O   LIG    1       24.178 -20.215   4.492  0.00  0.00    -0.343 OA
BRANCH  30  31
ATOM     31  C   LIG    1       25.525 -20.272   4.982  0.00  0.00    +0.253 C 
ATOM     32  O   LIG    1       25.518 -20.098   6.400  0.00  0.00    -0.346 OA
ATOM     33  C   LIG    1       26.797 -20.149   7.032  0.00  0.00    +0.148 C 
ATOM     34  C   LIG    1       27.357 -21.571   7.058  0.00  0.00    +0.040 C 
ATOM     35  C   LIG    1       27.715 -19.051   6.471  0.00  0.00    +0.160 C 
ATOM     36  C   LIG    1       27.741 -19.005   4.926  0.00  0.00    +0.087 C 
ATOM     37  C   LIG    1       26.318 -19.119   4.360  0.00  0.00    +0.082 C 
BRANCH  36  38
ATOM     38  N   LIG    1       28.647 -19.989   4.315  0.00  0.00    -0.325 NA
ATOM     39  H   LIG    1       28.221 -20.371   3.471  0.00  0.00    +0.119 HD
ATOM     40  H   LIG    1       29.547 -19.593   4.061  0.00  0.00    +0.119 HD
ENDBRANCH  36  38
BRANCH  35  41
ATOM     41  O   LIG    1       29.032 -19.113   7.017  0.00  0.00    -0.388 OA
ATOM     42  H   LIG    1       29.620 -19.486   6.340  0.00  0.00    +0.210 HD
ENDBRANCH  35  41
ENDBRANCH  30  31
ENDBRANCH   3  30
TORSDOF 8
ENDMDL
MODEL 2
REMARK VINA RESULT:      15.1      1.805      1.907
REMARK  Name = *****
REMARK                            x       y       z     vdW  Elec       q    Type
REMARK                         _______ _______ _______ _____ _____    ______ ____
ROOT
ATOM      1  C   LIG    1       22.002 -20.629   5.055  0.00  0.00    +0.130 C 
ATOM      2  C   LIG    1       22.898 -20.942   3.842  0.00  0.00    +0.079 C 
ATOM      3  C   LIG    1       24.310 -20.369   4.002  0.00  0.00    +0.158 C 
ATOM      4  C   LIG    1       24.185 -18.853   4.097  0.00  0.00    +0.030 A 
ATOM      5  C   LIG    1       23.117 -18.286   4.833  0.00  0.00    +0.007 A 
ATOM      6  C   LIG    1       23.086 -16.898   5.038  0.00  0.00    +0.132 A 
ATOM      7  C   LIG    1       24.016 -16.046   4.424  0.00  0.00    +0.078 A 
ATOM      8  C   LIG    1       23.934 -14.590   4.624  0.00  0.00    +0.198 C 
ATOM      9  O   LIG    1       23.194 -14.133   5.491  0.00  0.00    -0.286 OA
ATOM     10  C   LIG    1       24.717 -13.694   3.755  0.00  0.00    +0.033 A 
ATOM     11  C   LIG    1       25.612 -14.225   2.839  0.00  0.00    +0.033 A 
ATOM     12  C   LIG    1       26.293 -13.354   1.960  0.00  0.00    +0.012 A 
ATOM     13  C   LIG    1       26.092 -11.976   2.034  0.00  0.00    +0.001 A 
ATOM     14  C   LIG    1       25.214 -11.447   2.982  0.00  0.00    +0.001 A 
ATOM     15  C   LIG    1       25.826 -15.683   2.768  0.00  0.00    +0.198 C 
ATOM     16  O   LIG    1       26.678 -16.155   2.016  0.00  0.00    -0.286 OA
ATOM     17  C   LIG    1       24.527 -12.300   3.842  0.00  0.00    +0.012 A 
ATOM     18  C   LIG    1       24.983 -16.588   3.565  0.00  0.00    +0.078 A 
ATOM     19  C   LIG    1       25.085 -17.991   3.447  0.00  0.00    +0.135 A 
ATOM     20  C   LIG    1       21.917 -19.111   5.280  0.00  0.00    +0.082 C 
ENDROOT
BRANCH   1  22
ATOM     21  C   LIG    1       20.119 -21.335   3.383  0.00  0.00    +0.089 C 
ATOM     22  C   LIG    1       20.598 -21.223   4.810  0.00  0.00    +0.162 C 
ATOM     23  O   LIG    1       19.857 -21.571   5.735  0.00  0.00    -0.295 OA
ENDBRANCH   1  22
BRANCH   1  24
ATOM     24  O   LIG    1       22.474 -21.250   6.256  0.00  0.00    -0.381 OA
ATOM     25  H   LIG    1       23.417 -21.007   6.355  0.00  0.00    +0.211 HD
ENDBRANCH   1  24
BRANCH   6  26
ATOM     26  O   LIG    1       22.075 -16.403   5.825  0.00  0.00    -0.506 OA
ATOM     27  H   LIG    1       21.660 -15.641   5.362  0.00  0.00    +0.292 HD
ENDBRANCH   6  26
BRANCH  19  28
ATOM     28  O   LIG    1       26.032 -18.562   2.629  0.00  0.00    -0.506 OA
ATOM     29  H   LIG    1       25.710 -19.446   2.339  0.00  0.00    +0.292 HD
ENDBRANCH  19  28
BRANCH   3  30
ATOM     30  O   LIG    1       24.990 -20.834   5.182  0.00  0.00    -0.343 OA
BRANCH  30  31
ATOM     31  C   LIG    1       26.323 -20.333   5.349  0.00  0.00    +0.253 C 
ATOM     32  O   LIG    1       26.627 -20.254   6.743  0.00  0.00    -0.346 OA
ATOM     33  C   LIG    1       27.937 -19.785   7.062  0.00  0.00    +0.148 C 
ATOM     34  C   LIG    1       29.006 -20.827   6.734  0.00  0.00    +0.040 C 
ATOM     35  C   LIG    1       28.150 -18.371   6.497  0.00  0.00    +0.160 C 
ATOM     36  C   LIG    1       27.741 -18.236   5.012  0.00  0.00    +0.087 C 
ATOM     37  C   LIG    1       26.389 -18.920   4.762  0.00  0.00    +0.082 C 
BRANCH  36  38
ATOM     38  N   LIG    1       28.767 -18.702   4.066  0.00  0.00    -0.325 NA
ATOM     39  H   LIG    1       29.693 -18.565   4.471  0.00  0.00    +0.119 HD
ATOM     40  H   LIG    1       28.670 -19.684   3.831  0.00  0.00    +0.119 HD
ENDBRANCH  36  38
BRANCH  35  41
ATOM     41  O   LIG    1       29.474 -17.890   6.723  0.00  0.00    -0.388 OA
ATOM     42  H   LIG    1       29.705 -17.293   5.993  0.00  0.00    +0.210 HD
ENDBRANCH  35  41
ENDBRANCH  30  31
ENDBRANCH   3  30
TORSDOF 8
ENDMDL
