MODEL 1
REMARK VINA RESULT:      -7.5      0.000      0.000
REMARK  Name = *****
REMARK                            x       y       z     vdW  Elec       q    Type
REMARK                         _______ _______ _______ _____ _____    ______ ____
ROOT
ATOM      1  C   LIG    1       27.046 -29.082  11.725  0.00  0.00    +0.082 C 
ATOM      2  C   LIG    1       26.378 -30.422  11.327  0.00  0.00    +0.066 C 
ATOM      3  C   LIG    1       24.999 -30.236  10.667  0.00  0.00    +0.157 C 
ATOM      4  C   LIG    1       24.103 -29.546  11.676  0.00  0.00    +0.030 A 
ATOM      5  C   LIG    1       24.622 -28.529  12.501  0.00  0.00    +0.006 A 
ATOM      6  C   LIG    1       23.742 -27.780  13.290  0.00  0.00    +0.132 A 
ATOM      7  C   LIG    1       22.375 -28.084  13.340  0.00  0.00    +0.078 A 
ATOM      8  C   LIG    1       21.474 -27.287  14.186  0.00  0.00    +0.198 C 
ATOM      9  O   LIG    1       21.901 -26.271  14.743  0.00  0.00    -0.286 OA
ATOM     10  C   LIG    1       20.087 -27.716  14.385  0.00  0.00    +0.033 A 
ATOM     11  C   LIG    1       19.595 -28.826  13.700  0.00  0.00    +0.033 A 
ATOM     12  C   LIG    1       18.281 -29.251  13.921  0.00  0.00    +0.012 A 
ATOM     13  C   LIG    1       17.467 -28.560  14.823  0.00  0.00    +0.001 A 
ATOM     14  C   LIG    1       17.959 -27.442  15.499  0.00  0.00    +0.001 A 
ATOM     15  C   LIG    1       20.460 -29.548  12.752  0.00  0.00    +0.198 C 
ATOM     16  O   LIG    1       20.015 -30.487  12.085  0.00  0.00    -0.286 OA
ATOM     17  C   LIG    1       19.266 -27.017  15.281  0.00  0.00    +0.012 A 
ATOM     18  C   LIG    1       21.878 -29.163  12.612  0.00  0.00    +0.078 A 
ATOM     19  C   LIG    1       22.741 -29.883  11.774  0.00  0.00    +0.135 A 
ATOM     20  C   LIG    1       26.114 -28.297  12.669  0.00  0.00    +0.069 C 
ENDROOT
BRANCH   1  22
ATOM     21  C   LIG    1       28.440 -29.244  13.952  0.00  0.00    +0.088 C 
ATOM     22  C   LIG    1       28.393 -29.375  12.446  0.00  0.00    +0.150 C 
ATOM     23  O   LIG    1       29.415 -29.688  11.827  0.00  0.00    -0.296 OA
ENDBRANCH   1  22
BRANCH   1  24
ATOM     24  N   LIG    1       27.357 -28.237  10.547  0.00  0.00    -0.318 NA
ATOM     25  H   LIG    1       27.387 -27.261  10.845  0.00  0.00    +0.119 HD
ATOM     26  H   LIG    1       28.330 -28.433  10.284  0.00  0.00    +0.119 HD
ENDBRANCH   1  24
BRANCH   6  27
ATOM     27  O   LIG    1       24.290 -26.763  14.032  0.00  0.00    -0.506 OA
ATOM     28  H   LIG    1       24.067 -26.909  14.979  0.00  0.00    +0.292 HD
ENDBRANCH   6  27
BRANCH  19  29
ATOM     29  O   LIG    1       22.300 -30.948  11.033  0.00  0.00    -0.506 OA
ATOM     30  H   LIG    1       21.498 -30.685  10.527  0.00  0.00    +0.292 HD
ENDBRANCH  19  29
BRANCH   3  31
ATOM     31  O   LIG    1       25.136 -29.438   9.474  0.00  0.00    -0.343 OA
BRANCH  31  32
ATOM     32  C   LIG    1       24.671 -30.052   8.259  0.00  0.00    +0.253 C 
ATOM     33  O   LIG    1       25.427 -31.227   7.966  0.00  0.00    -0.349 OA
ATOM     34  C   LIG    1       25.065 -31.827   6.724  0.00  0.00    +0.196 C 
ATOM     35  C   LIG    1       25.413 -30.886   5.573  0.00  0.00    +0.169 C 
ATOM     36  C   LIG    1       24.632 -29.582   5.754  0.00  0.00    +0.150 C 
ATOM     37  C   LIG    1       24.848 -29.006   7.148  0.00  0.00    +0.095 C 
BRANCH  35  38
ATOM     38  O   LIG    1       25.079 -31.463   4.308  0.00  0.00    -0.387 OA
ATOM     39  H   LIG    1       25.755 -32.140   4.117  0.00  0.00    +0.210 HD
ENDBRANCH  35  38
BRANCH  36  40
ATOM     40  O   LIG    1       23.237 -29.830   5.538  0.00  0.00    -0.389 OA
ATOM     41  H   LIG    1       22.823 -29.702   6.418  0.00  0.00    +0.210 HD
ENDBRANCH  36  40
ENDBRANCH  31  32
ENDBRANCH   3  31
TORSDOF 8
ENDMDL
MODEL 2
REMARK VINA RESULT:      -6.6      2.637      5.606
REMARK  Name = *****
REMARK                            x       y       z     vdW  Elec       q    Type
REMARK                         _______ _______ _______ _____ _____    ______ ____
ROOT
ATOM      1  C   LIG    1       24.929 -31.020  11.509  0.00  0.00    +0.082 C 
ATOM      2  C   LIG    1       25.011 -29.518  11.144  0.00  0.00    +0.066 C 
ATOM      3  C   LIG    1       24.587 -28.592  12.299  0.00  0.00    +0.157 C 
ATOM      4  C   LIG    1       23.145 -28.915  12.634  0.00  0.00    +0.030 A 
ATOM      5  C   LIG    1       22.699 -30.252  12.615  0.00  0.00    +0.006 A 
ATOM      6  C   LIG    1       21.424 -30.548  13.104  0.00  0.00    +0.132 A 
ATOM      7  C   LIG    1       20.554 -29.533  13.526  0.00  0.00    +0.078 A 
ATOM      8  C   LIG    1       19.213 -29.872  14.026  0.00  0.00    +0.198 C 
ATOM      9  O   LIG    1       18.909 -31.056  14.200  0.00  0.00    -0.286 OA
ATOM     10  C   LIG    1       18.240 -28.809  14.291  0.00  0.00    +0.033 A 
ATOM     11  C   LIG    1       18.614 -27.473  14.156  0.00  0.00    +0.033 A 
ATOM     12  C   LIG    1       17.670 -26.464  14.375  0.00  0.00    +0.012 A 
ATOM     13  C   LIG    1       16.361 -26.799  14.731  0.00  0.00    +0.001 A 
ATOM     14  C   LIG    1       15.993 -28.138  14.876  0.00  0.00    +0.001 A 
ATOM     15  C   LIG    1       19.995 -27.129  13.781  0.00  0.00    +0.198 C 
ATOM     16  O   LIG    1       20.357 -25.950  13.729  0.00  0.00    -0.286 OA
ATOM     17  C   LIG    1       16.929 -29.144  14.659  0.00  0.00    +0.012 A 
ATOM     18  C   LIG    1       20.951 -28.201  13.439  0.00  0.00    +0.078 A 
ATOM     19  C   LIG    1       22.249 -27.897  13.004  0.00  0.00    +0.135 A 
ATOM     20  C   LIG    1       23.497 -31.368  11.963  0.00  0.00    +0.069 C 
ENDROOT
BRANCH   1  22
ATOM     21  C   LIG    1       24.425 -31.768   9.037  0.00  0.00    +0.088 C 
ATOM     22  C   LIG    1       25.304 -31.872  10.263  0.00  0.00    +0.150 C 
ATOM     23  O   LIG    1       26.275 -32.635  10.256  0.00  0.00    -0.296 OA
ENDBRANCH   1  22
BRANCH   1  24
ATOM     24  N   LIG    1       25.876 -31.388  12.590  0.00  0.00    -0.318 NA
ATOM     25  H   LIG    1       26.312 -32.280  12.351  0.00  0.00    +0.119 HD
ATOM     26  H   LIG    1       26.658 -30.724  12.544  0.00  0.00    +0.119 HD
ENDBRANCH   1  24
BRANCH   6  27
ATOM     27  O   LIG    1       21.058 -31.871  13.117  0.00  0.00    -0.506 OA
ATOM     28  H   LIG    1       21.332 -32.283  12.268  0.00  0.00    +0.292 HD
ENDBRANCH   6  27
BRANCH  19  29
ATOM     29  O   LIG    1       22.690 -26.602  12.907  0.00  0.00    -0.506 OA
ATOM     30  H   LIG    1       22.860 -26.384  11.963  0.00  0.00    +0.292 HD
ENDBRANCH  19  29
BRANCH   3  31
ATOM     31  O   LIG    1       25.441 -28.817  13.439  0.00  0.00    -0.343 OA
BRANCH  31  32
ATOM     32  C   LIG    1       26.016 -27.636  14.028  0.00  0.00    +0.253 C 
ATOM     33  O   LIG    1       25.049 -26.946  14.820  0.00  0.00    -0.349 OA
ATOM     34  C   LIG    1       25.542 -25.720  15.356  0.00  0.00    +0.196 C 
ATOM     35  C   LIG    1       25.837 -24.740  14.224  0.00  0.00    +0.169 C 
ATOM     36  C   LIG    1       26.897 -25.356  13.307  0.00  0.00    +0.150 C 
ATOM     37  C   LIG    1       26.487 -26.754  12.861  0.00  0.00    +0.095 C 
BRANCH  35  38
ATOM     38  O   LIG    1       26.317 -23.491  14.726  0.00  0.00    -0.387 OA
ATOM     39  H   LIG    1       27.169 -23.315  14.285  0.00  0.00    +0.210 HD
ENDBRANCH  35  38
BRANCH  36  40
ATOM     40  O   LIG    1       28.150 -25.411  14.000  0.00  0.00    -0.389 OA
ATOM     41  H   LIG    1       28.077 -24.726  14.699  0.00  0.00    +0.210 HD
ENDBRANCH  36  40
ENDBRANCH  31  32
ENDBRANCH   3  31
TORSDOF 8
ENDMDL
MODEL 3
REMARK VINA RESULT:      -6.4      2.662      8.193
REMARK  Name = *****
REMARK                            x       y       z     vdW  Elec       q    Type
REMARK                         _______ _______ _______ _____ _____    ______ ____
ROOT
ATOM      1  C   LIG    1       21.232 -28.122  14.027  0.00  0.00    +0.082 C 
ATOM      2  C   LIG    1       22.627 -28.162  14.700  0.00  0.00    +0.066 C 
ATOM      3  C   LIG    1       23.772 -27.798  13.736  0.00  0.00    +0.157 C 
ATOM      4  C   LIG    1       23.762 -28.817  12.614  0.00  0.00    +0.030 A 
ATOM      5  C   LIG    1       22.537 -29.283  12.095  0.00  0.00    +0.006 A 
ATOM      6  C   LIG    1       22.546 -30.076  10.944  0.00  0.00    +0.132 A 
ATOM      7  C   LIG    1       23.750 -30.487  10.356  0.00  0.00    +0.078 A 
ATOM      8  C   LIG    1       23.731 -31.331   9.151  0.00  0.00    +0.198 C 
ATOM      9  O   LIG    1       22.658 -31.560   8.585  0.00  0.00    -0.286 OA
ATOM     10  C   LIG    1       24.978 -31.913   8.645  0.00  0.00    +0.033 A 
ATOM     11  C   LIG    1       26.191 -31.594   9.250  0.00  0.00    +0.033 A 
ATOM     12  C   LIG    1       27.373 -32.181   8.785  0.00  0.00    +0.012 A 
ATOM     13  C   LIG    1       27.331 -33.080   7.716  0.00  0.00    +0.001 A 
ATOM     14  C   LIG    1       26.115 -33.388   7.105  0.00  0.00    +0.001 A 
ATOM     15  C   LIG    1       26.227 -30.646  10.376  0.00  0.00    +0.198 C 
ATOM     16  O   LIG    1       27.302 -30.300  10.873  0.00  0.00    -0.286 OA
ATOM     17  C   LIG    1       24.937 -32.806   7.565  0.00  0.00    +0.012 A 
ATOM     18  C   LIG    1       24.964 -30.122  10.934  0.00  0.00    +0.078 A 
ATOM     19  C   LIG    1       24.966 -29.280  12.054  0.00  0.00    +0.135 A 
ATOM     20  C   LIG    1       21.214 -29.067  12.810  0.00  0.00    +0.069 C 
ENDROOT
BRANCH   1  22
ATOM     21  C   LIG    1       20.147 -30.019  15.493  0.00  0.00    +0.088 C 
ATOM     22  C   LIG    1       20.154 -28.572  15.055  0.00  0.00    +0.150 C 
ATOM     23  O   LIG    1       19.305 -27.794  15.500  0.00  0.00    -0.296 OA
ENDBRANCH   1  22
BRANCH   1  24
ATOM     24  N   LIG    1       20.864 -26.757  13.579  0.00  0.00    -0.318 NA
ATOM     25  H   LIG    1       19.901 -26.775  13.237  0.00  0.00    +0.119 HD
ATOM     26  H   LIG    1       20.803 -26.170  14.420  0.00  0.00    +0.119 HD
ENDBRANCH   1  24
BRANCH   6  27
ATOM     27  O   LIG    1       21.325 -30.457  10.445  0.00  0.00    -0.506 OA
ATOM     28  H   LIG    1       21.064 -31.306  10.864  0.00  0.00    +0.292 HD
ENDBRANCH   6  27
BRANCH  19  29
ATOM     29  O   LIG    1       26.133 -28.887  12.656  0.00  0.00    -0.506 OA
ATOM     30  H   LIG    1       26.898 -29.237  12.146  0.00  0.00    +0.292 HD
ENDBRANCH  19  29
BRANCH   3  31
ATOM     31  O   LIG    1       23.567 -26.467  13.221  0.00  0.00    -0.343 OA
BRANCH  31  32
ATOM     32  C   LIG    1       24.648 -25.543  13.441  0.00  0.00    +0.253 C 
ATOM     33  O   LIG    1       25.909 -26.201  13.311  0.00  0.00    -0.349 OA
ATOM     34  C   LIG    1       27.014 -25.350  13.606  0.00  0.00    +0.196 C 
ATOM     35  C   LIG    1       26.977 -24.943  15.077  0.00  0.00    +0.169 C 
ATOM     36  C   LIG    1       25.671 -24.191  15.344  0.00  0.00    +0.150 C 
ATOM     37  C   LIG    1       24.469 -24.997  14.866  0.00  0.00    +0.095 C 
BRANCH  35  38
ATOM     38  O   LIG    1       28.082 -24.101  15.414  0.00  0.00    -0.387 OA
ATOM     39  H   LIG    1       28.551 -23.900  14.582  0.00  0.00    +0.210 HD
ENDBRANCH  35  38
BRANCH  36  40
ATOM     40  O   LIG    1       25.708 -22.923  14.675  0.00  0.00    -0.389 OA
ATOM     41  H   LIG    1       26.042 -23.126  13.776  0.00  0.00    +0.210 HD
ENDBRANCH  36  40
ENDBRANCH  31  32
ENDBRANCH   3  31
TORSDOF 8
ENDMDL
MODEL 4
REMARK VINA RESULT:      -6.3      1.842      2.554
REMARK  Name = *****
REMARK                            x       y       z     vdW  Elec       q    Type
REMARK                         _______ _______ _______ _____ _____    ______ ____
ROOT
ATOM      1  C   LIG    1       26.469 -28.719  12.166  0.00  0.00    +0.082 C 
ATOM      2  C   LIG    1       26.546 -30.089  11.449  0.00  0.00    +0.066 C 
ATOM      3  C   LIG    1       25.428 -30.289  10.408  0.00  0.00    +0.157 C 
ATOM      4  C   LIG    1       24.105 -30.218  11.144  0.00  0.00    +0.030 A 
ATOM      5  C   LIG    1       23.927 -29.286  12.187  0.00  0.00    +0.006 A 
ATOM      6  C   LIG    1       22.649 -29.108  12.726  0.00  0.00    +0.132 A 
ATOM      7  C   LIG    1       21.570 -29.901  12.311  0.00  0.00    +0.078 A 
ATOM      8  C   LIG    1       20.239 -29.700  12.903  0.00  0.00    +0.198 C 
ATOM      9  O   LIG    1       20.047 -28.745  13.663  0.00  0.00    -0.286 OA
ATOM     10  C   LIG    1       19.157 -30.644  12.610  0.00  0.00    +0.033 A 
ATOM     11  C   LIG    1       19.363 -31.679  11.700  0.00  0.00    +0.033 A 
ATOM     12  C   LIG    1       18.338 -32.599  11.452  0.00  0.00    +0.012 A 
ATOM     13  C   LIG    1       17.114 -32.473  12.113  0.00  0.00    +0.001 A 
ATOM     14  C   LIG    1       16.907 -31.428  13.016  0.00  0.00    +0.001 A 
ATOM     15  C   LIG    1       20.656 -31.805  11.008  0.00  0.00    +0.198 C 
ATOM     16  O   LIG    1       20.827 -32.672  10.147  0.00  0.00    -0.286 OA
ATOM     17  C   LIG    1       17.924 -30.512  13.265  0.00  0.00    +0.012 A 
ATOM     18  C   LIG    1       21.769 -30.901  11.362  0.00  0.00    +0.078 A 
ATOM     19  C   LIG    1       23.033 -31.049  10.774  0.00  0.00    +0.135 A 
ATOM     20  C   LIG    1       25.091 -28.560  12.839  0.00  0.00    +0.069 C 
ENDROOT
BRANCH   1  22
ATOM     21  C   LIG    1       28.759 -29.590  13.126  0.00  0.00    +0.088 C 
ATOM     22  C   LIG    1       27.588 -28.640  13.243  0.00  0.00    +0.150 C 
ATOM     23  O   LIG    1       27.536 -27.848  14.189  0.00  0.00    -0.296 OA
ENDBRANCH   1  22
BRANCH   1  24
ATOM     24  N   LIG    1       26.680 -27.584  11.235  0.00  0.00    -0.318 NA
ATOM     25  H   LIG    1       25.970 -26.874  11.421  0.00  0.00    +0.119 HD
ATOM     26  H   LIG    1       27.553 -27.122  11.516  0.00  0.00    +0.119 HD
ENDBRANCH   1  24
BRANCH   6  27
ATOM     27  O   LIG    1       22.516 -28.149  13.699  0.00  0.00    -0.506 OA
ATOM     28  H   LIG    1       22.223 -28.582  14.531  0.00  0.00    +0.292 HD
ENDBRANCH   6  27
BRANCH  19  29
ATOM     29  O   LIG    1       23.278 -32.013   9.831  0.00  0.00    -0.506 OA
ATOM     30  H   LIG    1       22.835 -32.850  10.096  0.00  0.00    +0.292 HD
ENDBRANCH  19  29
BRANCH   3  31
ATOM     31  O   LIG    1       25.511 -29.258   9.404  0.00  0.00    -0.343 OA
BRANCH  31  32
ATOM     32  C   LIG    1       25.362 -29.703   8.043  0.00  0.00    +0.253 C 
ATOM     33  O   LIG    1       23.984 -29.725   7.668  0.00  0.00    -0.349 OA
ATOM     34  C   LIG    1       23.772 -30.242   6.357  0.00  0.00    +0.196 C 
ATOM     35  C   LIG    1       24.176 -31.713   6.308  0.00  0.00    +0.169 C 
ATOM     36  C   LIG    1       25.660 -31.826   6.665  0.00  0.00    +0.150 C 
ATOM     37  C   LIG    1       25.961 -31.116   7.980  0.00  0.00    +0.095 C 
BRANCH  35  38
ATOM     38  O   LIG    1       23.960 -32.272   5.010  0.00  0.00    -0.387 OA
ATOM     39  H   LIG    1       24.655 -31.914   4.427  0.00  0.00    +0.210 HD
ENDBRANCH  35  38
BRANCH  36  40
ATOM     40  O   LIG    1       26.446 -31.256   5.611  0.00  0.00    -0.389 OA
ATOM     41  H   LIG    1       26.904 -30.495   6.026  0.00  0.00    +0.210 HD
ENDBRANCH  36  40
ENDBRANCH  31  32
ENDBRANCH   3  31
TORSDOF 8
ENDMDL
MODEL 5
REMARK VINA RESULT:      -6.2      1.683      5.539
REMARK  Name = *****
REMARK                            x       y       z     vdW  Elec       q    Type
REMARK                         _______ _______ _______ _____ _____    ______ ____
ROOT
ATOM      1  C   LIG    1       25.540 -30.408  10.299  0.00  0.00    +0.082 C 
ATOM      2  C   LIG    1       25.829 -28.933  10.670  0.00  0.00    +0.066 C 
ATOM      3  C   LIG    1       25.475 -28.597  12.131  0.00  0.00    +0.157 C 
ATOM      4  C   LIG    1       23.989 -28.842  12.305  0.00  0.00    +0.030 A 
ATOM      5  C   LIG    1       23.378 -29.946  11.677  0.00  0.00    +0.006 A 
ATOM      6  C   LIG    1       22.054 -30.261  11.997  0.00  0.00    +0.132 A 
ATOM      7  C   LIG    1       21.303 -29.449  12.857  0.00  0.00    +0.078 A 
ATOM      8  C   LIG    1       19.908 -29.798  13.169  0.00  0.00    +0.198 C 
ATOM      9  O   LIG    1       19.448 -30.875  12.780  0.00  0.00    -0.286 OA
ATOM     10  C   LIG    1       19.067 -28.857  13.914  0.00  0.00    +0.033 A 
ATOM     11  C   LIG    1       19.613 -27.673  14.407  0.00  0.00    +0.033 A 
ATOM     12  C   LIG    1       18.797 -26.763  15.086  0.00  0.00    +0.012 A 
ATOM     13  C   LIG    1       17.441 -27.045  15.271  0.00  0.00    +0.001 A 
ATOM     14  C   LIG    1       16.900 -28.237  14.786  0.00  0.00    +0.001 A 
ATOM     15  C   LIG    1       21.043 -27.383  14.208  0.00  0.00    +0.198 C 
ATOM     16  O   LIG    1       21.554 -26.374  14.701  0.00  0.00    -0.286 OA
ATOM     17  C   LIG    1       17.709 -29.145  14.110  0.00  0.00    +0.012 A 
ATOM     18  C   LIG    1       21.870 -28.293  13.391  0.00  0.00    +0.078 A 
ATOM     19  C   LIG    1       23.214 -28.000  13.121  0.00  0.00    +0.135 A 
ATOM     20  C   LIG    1       24.056 -30.731  10.567  0.00  0.00    +0.069 C 
ENDROOT
BRANCH   1  22
ATOM     21  C   LIG    1       25.095 -29.817   7.774  0.00  0.00    +0.088 C 
ATOM     22  C   LIG    1       25.860 -30.631   8.794  0.00  0.00    +0.150 C 
ATOM     23  O   LIG    1       26.695 -31.457   8.414  0.00  0.00    -0.296 OA
ENDBRANCH   1  22
BRANCH   1  24
ATOM     24  N   LIG    1       26.382 -31.357  11.068  0.00  0.00    -0.318 NA
ATOM     25  H   LIG    1       27.023 -30.821  11.656  0.00  0.00    +0.119 HD
ATOM     26  H   LIG    1       25.769 -31.819  11.751  0.00  0.00    +0.119 HD
ENDBRANCH   1  24
BRANCH   6  27
ATOM     27  O   LIG    1       21.522 -31.379  11.402  0.00  0.00    -0.506 OA
ATOM     28  H   LIG    1       21.983 -32.172  11.754  0.00  0.00    +0.292 HD
ENDBRANCH   6  27
BRANCH  19  29
ATOM     29  O   LIG    1       23.820 -26.879  13.627  0.00  0.00    -0.506 OA
ATOM     30  H   LIG    1       23.560 -26.763  14.569  0.00  0.00    +0.292 HD
ENDBRANCH  19  29
BRANCH   3  31
ATOM     31  O   LIG    1       26.240 -29.435  13.020  0.00  0.00    -0.343 OA
BRANCH  31  32
ATOM     32  C   LIG    1       27.556 -28.954  13.348  0.00  0.00    +0.253 C 
ATOM     33  O   LIG    1       28.533 -29.974  13.135  0.00  0.00    -0.349 OA
ATOM     34  C   LIG    1       29.845 -29.580  13.529  0.00  0.00    +0.196 C 
ATOM     35  C   LIG    1       29.889 -29.357  15.038  0.00  0.00    +0.169 C 
ATOM     36  C   LIG    1       28.895 -28.250  15.399  0.00  0.00    +0.150 C 
ATOM     37  C   LIG    1       27.514 -28.549  14.829  0.00  0.00    +0.095 C 
BRANCH  35  38
ATOM     38  O   LIG    1       31.196 -28.976  15.472  0.00  0.00    -0.387 OA
ATOM     39  H   LIG    1       31.563 -29.732  15.968  0.00  0.00    +0.210 HD
ENDBRANCH  35  38
BRANCH  36  40
ATOM     40  O   LIG    1       29.374 -26.998  14.890  0.00  0.00    -0.389 OA
ATOM     41  H   LIG    1       30.220 -27.218  14.446  0.00  0.00    +0.210 HD
ENDBRANCH  36  40
ENDBRANCH  31  32
ENDBRANCH   3  31
TORSDOF 8
ENDMDL
MODEL 6
REMARK VINA RESULT:      -6.0      2.574      8.393
REMARK  Name = *****
REMARK                            x       y       z     vdW  Elec       q    Type
REMARK                         _______ _______ _______ _____ _____    ______ ____
ROOT
ATOM      1  C   LIG    1       22.309 -29.189  13.505  0.00  0.00    +0.082 C 
ATOM      2  C   LIG    1       23.700 -29.554  14.080  0.00  0.00    +0.066 C 
ATOM      3  C   LIG    1       24.861 -29.162  13.147  0.00  0.00    +0.157 C 
ATOM      4  C   LIG    1       24.676 -29.922  11.849  0.00  0.00    +0.030 A 
ATOM      5  C   LIG    1       23.384 -30.101  11.315  0.00  0.00    +0.006 A 
ATOM      6  C   LIG    1       23.250 -30.638  10.031  0.00  0.00    +0.132 A 
ATOM      7  C   LIG    1       24.367 -31.082   9.309  0.00  0.00    +0.078 A 
ATOM      8  C   LIG    1       24.196 -31.653   7.965  0.00  0.00    +0.198 C 
ATOM      9  O   LIG    1       23.087 -31.615   7.423  0.00  0.00    -0.286 OA
ATOM     10  C   LIG    1       25.332 -32.285   7.288  0.00  0.00    +0.033 A 
ATOM     11  C   LIG    1       26.594 -32.263   7.878  0.00  0.00    +0.033 A 
ATOM     12  C   LIG    1       27.666 -32.900   7.244  0.00  0.00    +0.012 A 
ATOM     13  C   LIG    1       27.469 -33.549   6.022  0.00  0.00    +0.001 A 
ATOM     14  C   LIG    1       26.206 -33.558   5.429  0.00  0.00    +0.001 A 
ATOM     15  C   LIG    1       26.794 -31.578   9.165  0.00  0.00    +0.198 C 
ATOM     16  O   LIG    1       27.920 -31.489   9.662  0.00  0.00    -0.286 OA
ATOM     17  C   LIG    1       25.137 -32.927   6.057  0.00  0.00    +0.012 A 
ATOM     18  C   LIG    1       25.635 -31.010   9.882  0.00  0.00    +0.078 A 
ATOM     19  C   LIG    1       25.786 -30.421  11.145  0.00  0.00    +0.135 A 
ATOM     20  C   LIG    1       22.124 -29.856  12.127  0.00  0.00    +0.069 C 
ENDROOT
BRANCH   1  22
ATOM     21  C   LIG    1       20.833 -31.153  14.448  0.00  0.00    +0.088 C 
ATOM     22  C   LIG    1       21.204 -29.687  14.479  0.00  0.00    +0.150 C 
ATOM     23  O   LIG    1       20.617 -28.924  15.252  0.00  0.00    -0.296 OA
ENDBRANCH   1  22
BRANCH   1  24
ATOM     24  N   LIG    1       22.130 -27.724  13.355  0.00  0.00    -0.318 NA
ATOM     25  H   LIG    1       22.437 -27.269  14.216  0.00  0.00    +0.119 HD
ATOM     26  H   LIG    1       22.819 -27.406  12.662  0.00  0.00    +0.119 HD
ENDBRANCH   1  24
BRANCH   6  27
ATOM     27  O   LIG    1       21.975 -30.740   9.532  0.00  0.00    -0.506 OA
ATOM     28  H   LIG    1       21.784 -31.685   9.343  0.00  0.00    +0.292 HD
ENDBRANCH   6  27
BRANCH  19  29
ATOM     29  O   LIG    1       27.013 -30.321  11.749  0.00  0.00    -0.506 OA
ATOM     30  H   LIG    1       27.238 -29.372  11.877  0.00  0.00    +0.292 HD
ENDBRANCH  19  29
BRANCH   3  31
ATOM     31  O   LIG    1       24.838 -27.740  12.916  0.00  0.00    -0.343 OA
BRANCH  31  32
ATOM     32  C   LIG    1       25.650 -26.952  13.806  0.00  0.00    +0.253 C 
ATOM     33  O   LIG    1       24.839 -26.055  14.566  0.00  0.00    -0.349 OA
ATOM     34  C   LIG    1       25.602 -25.188  15.402  0.00  0.00    +0.196 C 
ATOM     35  C   LIG    1       26.451 -24.255  14.542  0.00  0.00    +0.169 C 
ATOM     36  C   LIG    1       27.399 -25.102  13.689  0.00  0.00    +0.150 C 
ATOM     37  C   LIG    1       26.632 -26.171  12.920  0.00  0.00    +0.095 C 
BRANCH  35  38
ATOM     38  O   LIG    1       27.219 -23.357  15.347  0.00  0.00    -0.387 OA
ATOM     39  H   LIG    1       27.096 -22.464  14.974  0.00  0.00    +0.210 HD
ENDBRANCH  35  38
BRANCH  36  40
ATOM     40  O   LIG    1       28.379 -25.716  14.536  0.00  0.00    -0.389 OA
ATOM     41  H   LIG    1       27.975 -26.569  14.804  0.00  0.00    +0.210 HD
ENDBRANCH  36  40
ENDBRANCH  31  32
ENDBRANCH   3  31
TORSDOF 8
ENDMDL
MODEL 7
REMARK VINA RESULT:      -5.9      7.176     10.695
REMARK  Name = *****
REMARK                            x       y       z     vdW  Elec       q    Type
REMARK                         _______ _______ _______ _____ _____    ______ ____
ROOT
ATOM      1  C   LIG    1       24.891 -20.558   5.031  0.00  0.00    +0.082 C 
ATOM      2  C   LIG    1       24.936 -20.609   6.578  0.00  0.00    +0.066 C 
ATOM      3  C   LIG    1       26.017 -21.564   7.119  0.00  0.00    +0.157 C 
ATOM      4  C   LIG    1       25.689 -22.954   6.613  0.00  0.00    +0.030 A 
ATOM      5  C   LIG    1       25.197 -23.130   5.304  0.00  0.00    +0.006 A 
ATOM      6  C   LIG    1       25.078 -24.426   4.793  0.00  0.00    +0.132 A 
ATOM      7  C   LIG    1       25.351 -25.548   5.589  0.00  0.00    +0.078 A 
ATOM      8  C   LIG    1       25.207 -26.900   5.029  0.00  0.00    +0.198 C 
ATOM      9  O   LIG    1       24.977 -27.040   3.824  0.00  0.00    -0.286 OA
ATOM     10  C   LIG    1       25.310 -28.070   5.906  0.00  0.00    +0.033 A 
ATOM     11  C   LIG    1       25.636 -27.906   7.251  0.00  0.00    +0.033 A 
ATOM     12  C   LIG    1       25.697 -29.023   8.091  0.00  0.00    +0.012 A 
ATOM     13  C   LIG    1       25.437 -30.296   7.578  0.00  0.00    +0.001 A 
ATOM     14  C   LIG    1       25.122 -30.458   6.227  0.00  0.00    +0.001 A 
ATOM     15  C   LIG    1       25.909 -26.561   7.784  0.00  0.00    +0.198 C 
ATOM     16  O   LIG    1       26.269 -26.410   8.955  0.00  0.00    -0.286 OA
ATOM     17  C   LIG    1       25.060 -29.349   5.389  0.00  0.00    +0.012 A 
ATOM     18  C   LIG    1       25.728 -25.378   6.919  0.00  0.00    +0.078 A 
ATOM     19  C   LIG    1       25.906 -24.082   7.423  0.00  0.00    +0.135 A 
ATOM     20  C   LIG    1       24.668 -21.977   4.469  0.00  0.00    +0.069 C 
ENDROOT
BRANCH   1  22
ATOM     21  C   LIG    1       22.468 -19.607   5.420  0.00  0.00    +0.088 C 
ATOM     22  C   LIG    1       23.727 -19.629   4.582  0.00  0.00    +0.150 C 
ATOM     23  O   LIG    1       23.795 -18.935   3.563  0.00  0.00    -0.296 OA
ENDBRANCH   1  22
BRANCH   1  24
ATOM     24  N   LIG    1       26.139 -20.005   4.450  0.00  0.00    -0.318 NA
ATOM     25  H   LIG    1       26.338 -20.496   3.577  0.00  0.00    +0.119 HD
ATOM     26  H   LIG    1       25.928 -19.049   4.139  0.00  0.00    +0.119 HD
ENDBRANCH   1  24
BRANCH   6  27
ATOM     27  O   LIG    1       24.649 -24.543   3.494  0.00  0.00    -0.506 OA
ATOM     28  H   LIG    1       24.486 -23.643   3.134  0.00  0.00    +0.292 HD
ENDBRANCH   6  27
BRANCH  19  29
ATOM     29  O   LIG    1       26.282 -23.863   8.723  0.00  0.00    -0.506 OA
ATOM     30  H   LIG    1       26.088 -22.929   8.967  0.00  0.00    +0.292 HD
ENDBRANCH  19  29
BRANCH   3  31
ATOM     31  O   LIG    1       27.314 -21.141   6.652  0.00  0.00    -0.343 OA
BRANCH  31  32
ATOM     32  C   LIG    1       28.263 -20.801   7.679  0.00  0.00    +0.253 C 
ATOM     33  O   LIG    1       28.685 -19.443   7.546  0.00  0.00    -0.349 OA
ATOM     34  C   LIG    1       29.693 -19.079   8.485  0.00  0.00    +0.196 C 
ATOM     35  C   LIG    1       30.968 -19.873   8.212  0.00  0.00    +0.169 C 
ATOM     36  C   LIG    1       30.655 -21.365   8.356  0.00  0.00    +0.150 C 
ATOM     37  C   LIG    1       29.454 -21.755   7.502  0.00  0.00    +0.095 C 
BRANCH  35  38
ATOM     38  O   LIG    1       32.009 -19.521   9.126  0.00  0.00    -0.387 OA
ATOM     39  H   LIG    1       32.084 -18.548   9.112  0.00  0.00    +0.210 HD
ENDBRANCH  35  38
BRANCH  36  40
ATOM     40  O   LIG    1       30.395 -21.665   9.733  0.00  0.00    -0.389 OA
ATOM     41  H   LIG    1       31.278 -21.660  10.159  0.00  0.00    +0.210 HD
ENDBRANCH  36  40
ENDBRANCH  31  32
ENDBRANCH   3  31
TORSDOF 8
ENDMDL
MODEL 8
REMARK VINA RESULT:      -5.9      1.894      5.381
REMARK  Name = *****
REMARK                            x       y       z     vdW  Elec       q    Type
REMARK                         _______ _______ _______ _____ _____    ______ ____
ROOT
ATOM      1  C   LIG    1       23.790 -31.774   8.909  0.00  0.00    +0.082 C 
ATOM      2  C   LIG    1       24.338 -30.351   9.176  0.00  0.00    +0.066 C 
ATOM      3  C   LIG    1       24.366 -29.986  10.672  0.00  0.00    +0.157 C 
ATOM      4  C   LIG    1       22.939 -30.042  11.180  0.00  0.00    +0.030 A 
ATOM      5  C   LIG    1       22.069 -31.054  10.726  0.00  0.00    +0.006 A 
ATOM      6  C   LIG    1       20.822 -31.201  11.341  0.00  0.00    +0.132 A 
ATOM      7  C   LIG    1       20.391 -30.308  12.331  0.00  0.00    +0.078 A 
ATOM      8  C   LIG    1       19.070 -30.480  12.954  0.00  0.00    +0.198 C 
ATOM      9  O   LIG    1       18.403 -31.487  12.699  0.00  0.00    -0.286 OA
ATOM     10  C   LIG    1       18.542 -29.447  13.850  0.00  0.00    +0.033 A 
ATOM     11  C   LIG    1       19.330 -28.347  14.184  0.00  0.00    +0.033 A 
ATOM     12  C   LIG    1       18.807 -27.347  15.011  0.00  0.00    +0.012 A 
ATOM     13  C   LIG    1       17.503 -27.457  15.500  0.00  0.00    +0.001 A 
ATOM     14  C   LIG    1       16.721 -28.566  15.172  0.00  0.00    +0.001 A 
ATOM     15  C   LIG    1       20.703 -28.239  13.664  0.00  0.00    +0.198 C 
ATOM     16  O   LIG    1       21.434 -27.307  14.011  0.00  0.00    -0.286 OA
ATOM     17  C   LIG    1       17.238 -29.563  14.350  0.00  0.00    +0.012 A 
ATOM     18  C   LIG    1       21.204 -29.239  12.701  0.00  0.00    +0.078 A 
ATOM     19  C   LIG    1       22.479 -29.116  12.132  0.00  0.00    +0.135 A 
ATOM     20  C   LIG    1       22.377 -31.908   9.508  0.00  0.00    +0.069 C 
ENDROOT
BRANCH   1  22
ATOM     21  C   LIG    1       23.841 -33.446   6.877  0.00  0.00    +0.088 C 
ATOM     22  C   LIG    1       23.733 -32.022   7.374  0.00  0.00    +0.150 C 
ATOM     23  O   LIG    1       23.623 -31.098   6.563  0.00  0.00    -0.296 OA
ENDBRANCH   1  22
BRANCH   1  24
ATOM     24  N   LIG    1       24.658 -32.828   9.488  0.00  0.00    -0.318 NA
ATOM     25  H   LIG    1       24.068 -33.504   9.976  0.00  0.00    +0.119 HD
ATOM     26  H   LIG    1       25.038 -33.371   8.703  0.00  0.00    +0.119 HD
ENDBRANCH   1  24
BRANCH   6  27
ATOM     27  O   LIG    1       20.034 -32.237  10.902  0.00  0.00    -0.506 OA
ATOM     28  H   LIG    1       20.488 -32.684  10.154  0.00  0.00    +0.292 HD
ENDBRANCH   6  27
BRANCH  19  29
ATOM     29  O   LIG    1       23.319 -28.085  12.467  0.00  0.00    -0.506 OA
ATOM     30  H   LIG    1       23.657 -28.222  13.380  0.00  0.00    +0.292 HD
ENDBRANCH  19  29
BRANCH   3  31
ATOM     31  O   LIG    1       25.200 -30.922  11.384  0.00  0.00    -0.343 OA
BRANCH  31  32
ATOM     32  C   LIG    1       26.250 -30.340  12.178  0.00  0.00    +0.253 C 
ATOM     33  O   LIG    1       25.728 -29.821  13.402  0.00  0.00    -0.349 OA
ATOM     34  C   LIG    1       26.712 -29.154  14.189  0.00  0.00    +0.196 C 
ATOM     35  C   LIG    1       27.203 -27.908  13.457  0.00  0.00    +0.169 C 
ATOM     36  C   LIG    1       27.822 -28.335  12.124  0.00  0.00    +0.150 C 
ATOM     37  C   LIG    1       26.861 -29.213  11.332  0.00  0.00    +0.095 C 
BRANCH  35  38
ATOM     38  O   LIG    1       28.181 -27.202  14.225  0.00  0.00    -0.387 OA
ATOM     39  H   LIG    1       27.815 -27.096  15.123  0.00  0.00    +0.210 HD
ENDBRANCH  35  38
BRANCH  36  40
ATOM     40  O   LIG    1       29.042 -29.046  12.373  0.00  0.00    -0.389 OA
ATOM     41  H   LIG    1       28.755 -29.939  12.659  0.00  0.00    +0.210 HD
ENDBRANCH  36  40
ENDBRANCH  31  32
ENDBRANCH   3  31
TORSDOF 8
ENDMDL
MODEL 9
REMARK VINA RESULT:      -5.8      2.339      5.808
REMARK  Name = *****
REMARK                            x       y       z     vdW  Elec       q    Type
REMARK                         _______ _______ _______ _____ _____    ______ ____
ROOT
ATOM      1  C   LIG    1       25.224 -31.098   8.193  0.00  0.00    +0.082 C 
ATOM      2  C   LIG    1       25.139 -29.695   8.842  0.00  0.00    +0.066 C 
ATOM      3  C   LIG    1       24.774 -29.743  10.338  0.00  0.00    +0.157 C 
ATOM      4  C   LIG    1       23.411 -30.396  10.452  0.00  0.00    +0.030 A 
ATOM      5  C   LIG    1       23.078 -31.483   9.618  0.00  0.00    +0.006 A 
ATOM      6  C   LIG    1       21.895 -32.187   9.863  0.00  0.00    +0.132 A 
ATOM      7  C   LIG    1       20.999 -31.775  10.858  0.00  0.00    +0.078 A 
ATOM      8  C   LIG    1       19.756 -32.528  11.087  0.00  0.00    +0.198 C 
ATOM      9  O   LIG    1       19.572 -33.595  10.495  0.00  0.00    -0.286 OA
ATOM     10  C   LIG    1       18.734 -31.996  11.994  0.00  0.00    +0.033 A 
ATOM     11  C   LIG    1       18.978 -30.825  12.709  0.00  0.00    +0.033 A 
ATOM     12  C   LIG    1       17.985 -30.303  13.545  0.00  0.00    +0.012 A 
ATOM     13  C   LIG    1       16.757 -30.959  13.662  0.00  0.00    +0.001 A 
ATOM     14  C   LIG    1       16.521 -32.139  12.954  0.00  0.00    +0.001 A 
ATOM     15  C   LIG    1       20.275 -30.140  12.579  0.00  0.00    +0.198 C 
ATOM     16  O   LIG    1       20.530 -29.143  13.261  0.00  0.00    -0.286 OA
ATOM     17  C   LIG    1       17.506 -32.660  12.121  0.00  0.00    +0.012 A 
ATOM     18  C   LIG    1       21.272 -30.633  11.608  0.00  0.00    +0.078 A 
ATOM     19  C   LIG    1       22.482 -29.954  11.409  0.00  0.00    +0.135 A 
ATOM     20  C   LIG    1       23.887 -31.841   8.383  0.00  0.00    +0.069 C 
ENDROOT
BRANCH   1  22
ATOM     21  C   LIG    1       24.846 -29.819   5.924  0.00  0.00    +0.088 C 
ATOM     22  C   LIG    1       25.524 -30.943   6.674  0.00  0.00    +0.150 C 
ATOM     23  O   LIG    1       26.275 -31.715   6.071  0.00  0.00    -0.296 OA
ENDBRANCH   1  22
BRANCH   1  24
ATOM     24  N   LIG    1       26.314 -31.920   8.771  0.00  0.00    -0.318 NA
ATOM     25  H   LIG    1       25.919 -32.804   9.098  0.00  0.00    +0.119 HD
ATOM     26  H   LIG    1       26.920 -32.208   7.992  0.00  0.00    +0.119 HD
ENDBRANCH   1  24
BRANCH   6  27
ATOM     27  O   LIG    1       21.644 -33.272   9.061  0.00  0.00    -0.506 OA
ATOM     28  H   LIG    1       20.767 -33.646   9.301  0.00  0.00    +0.292 HD
ENDBRANCH   6  27
BRANCH  19  29
ATOM     29  O   LIG    1       22.800 -28.829  12.125  0.00  0.00    -0.506 OA
ATOM     30  H   LIG    1       22.631 -28.031  11.574  0.00  0.00    +0.292 HD
ENDBRANCH  19  29
BRANCH   3  31
ATOM     31  O   LIG    1       25.768 -30.504  11.055  0.00  0.00    -0.343 OA
BRANCH  31  32
ATOM     32  C   LIG    1       26.286 -29.883  12.246  0.00  0.00    +0.253 C 
ATOM     33  O   LIG    1       25.361 -30.015  13.326  0.00  0.00    -0.349 OA
ATOM     34  C   LIG    1       25.786 -29.341  14.508  0.00  0.00    +0.196 C 
ATOM     35  C   LIG    1       25.827 -27.835  14.260  0.00  0.00    +0.169 C 
ATOM     36  C   LIG    1       26.819 -27.553  13.129  0.00  0.00    +0.150 C 
ATOM     37  C   LIG    1       26.506 -28.402  11.903  0.00  0.00    +0.095 C 
BRANCH  35  38
ATOM     38  O   LIG    1       26.233 -27.124  15.431  0.00  0.00    -0.387 OA
ATOM     39  H   LIG    1       25.829 -27.577  16.194  0.00  0.00    +0.210 HD
ENDBRANCH  35  38
BRANCH  36  40
ATOM     40  O   LIG    1       28.150 -27.825  13.586  0.00  0.00    -0.389 OA
ATOM     41  H   LIG    1       28.675 -27.047  13.300  0.00  0.00    +0.210 HD
ENDBRANCH  36  40
ENDBRANCH  31  32
ENDBRANCH   3  31
TORSDOF 8
ENDMDL
