MODEL 1
REMARK VINA RESULT:      -6.1      0.000      0.000
REMARK  Name = *****
REMARK                            x       y       z     vdW  Elec       q    Type
REMARK                         _______ _______ _______ _____ _____    ______ ____
ROOT
ATOM      1  O   LIG    1       26.408 -17.292   3.331  0.00  0.00    -0.488 OA
ENDROOT
BRANCH   1   5
ATOM      2  C   LIG    1       23.716 -13.254   3.525  0.00  0.00    +0.044 C 
ATOM      3  C   LIG    1       25.066 -13.909   3.565  0.00  0.00    -0.047 A 
ATOM      4  C   LIG    1       25.178 -15.301   3.437  0.00  0.00    +0.049 A 
ATOM      5  C   LIG    1       26.428 -15.926   3.466  0.00  0.00    +0.121 A 
ATOM      6  C   LIG    1       27.574 -15.147   3.631  0.00  0.00    +0.049 A 
ATOM      7  C   LIG    1       27.483 -13.754   3.765  0.00  0.00    -0.047 A 
ATOM      8  C   LIG    1       28.733 -12.948   3.966  0.00  0.00    +0.044 C 
ATOM      9  C   LIG    1       26.227 -13.142   3.727  0.00  0.00    +0.007 A 
ENDBRANCH   1   5
BRANCH   1  10
ATOM     10  C   LIG    1       25.126 -17.911   3.449  0.00  0.00    +0.275 C 
BRANCH  10  11
ATOM     11  C   LIG    1       25.282 -19.419   3.593  0.00  0.00    +0.232 C 
ATOM     12  O   LIG    1       26.084 -19.721   4.752  0.00  0.00    -0.442 OA
ATOM     13  C   LIG    1       25.534 -20.804   5.377  0.00  0.00    +0.401 C 
ATOM     14  O   LIG    1       25.995 -21.346   6.364  0.00  0.00    -0.227 OA
ATOM     15  N   LIG    1       24.373 -21.160   4.752  0.00  0.00    -0.278 N 
ATOM     16  H   LIG    1       23.758 -21.824   5.206  0.00  0.00    +0.152 HD
ATOM     17  C   LIG    1       23.975 -20.142   3.842  0.00  0.00    +0.155 C 
ENDBRANCH  10  11
ENDBRANCH   1  10
TORSDOF 3
ENDMDL
MODEL 2
REMARK VINA RESULT:      -6.1      2.622      6.542
REMARK  Name = *****
REMARK                            x       y       z     vdW  Elec       q    Type
REMARK                         _______ _______ _______ _____ _____    ______ ____
ROOT
ATOM      1  O   LIG    1       25.778 -17.874   2.993  0.00  0.00    -0.488 OA
ENDROOT
BRANCH   1   5
ATOM      2  C   LIG    1       26.778 -21.110   6.475  0.00  0.00    +0.044 C 
ATOM      3  C   LIG    1       25.776 -20.457   5.567  0.00  0.00    -0.047 A 
ATOM      4  C   LIG    1       26.181 -19.454   4.674  0.00  0.00    +0.049 A 
ATOM      5  C   LIG    1       25.262 -18.841   3.819  0.00  0.00    +0.121 A 
ATOM      6  C   LIG    1       23.923 -19.235   3.864  0.00  0.00    +0.049 A 
ATOM      7  C   LIG    1       23.497 -20.233   4.752  0.00  0.00    -0.047 A 
ATOM      8  C   LIG    1       22.047 -20.615   4.792  0.00  0.00    +0.044 C 
ATOM      9  C   LIG    1       24.430 -20.842   5.597  0.00  0.00    +0.007 A 
ENDBRANCH   1   5
BRANCH   1  10
ATOM     10  C   LIG    1       26.782 -17.036   3.567  0.00  0.00    +0.275 C 
BRANCH  10  11
ATOM     11  C   LIG    1       26.515 -15.579   3.213  0.00  0.00    +0.232 C 
ATOM     12  O   LIG    1       25.192 -15.204   3.645  0.00  0.00    -0.442 OA
ATOM     13  C   LIG    1       25.258 -13.942   4.164  0.00  0.00    +0.401 C 
ATOM     14  O   LIG    1       24.305 -13.308   4.576  0.00  0.00    -0.227 OA
ATOM     15  N   LIG    1       26.556 -13.516   4.186  0.00  0.00    -0.278 N 
ATOM     16  H   LIG    1       26.787 -12.681   4.708  0.00  0.00    +0.152 HD
ATOM     17  C   LIG    1       27.432 -14.606   3.924  0.00  0.00    +0.155 C 
ENDBRANCH  10  11
ENDBRANCH   1  10
TORSDOF 3
ENDMDL
MODEL 3
REMARK VINA RESULT:      -6.1      2.684      6.108
REMARK  Name = *****
REMARK                            x       y       z     vdW  Elec       q    Type
REMARK                         _______ _______ _______ _____ _____    ______ ____
ROOT
ATOM      1  O   LIG    1       26.094 -17.716   2.953  0.00  0.00    -0.488 OA
ENDROOT
BRANCH   1   5
ATOM      2  C   LIG    1       21.590 -18.950   4.289  0.00  0.00    +0.044 C 
ATOM      3  C   LIG    1       23.070 -19.190   4.361  0.00  0.00    -0.047 A 
ATOM      4  C   LIG    1       23.954 -18.373   3.641  0.00  0.00    +0.049 A 
ATOM      5  C   LIG    1       25.334 -18.579   3.703  0.00  0.00    +0.121 A 
ATOM      6  C   LIG    1       25.832 -19.618   4.491  0.00  0.00    +0.049 A 
ATOM      7  C   LIG    1       24.966 -20.448   5.216  0.00  0.00    -0.047 A 
ATOM      8  C   LIG    1       25.532 -21.572   6.034  0.00  0.00    +0.044 C 
ATOM      9  C   LIG    1       23.587 -20.226   5.150  0.00  0.00    +0.007 A 
ENDBRANCH   1   5
BRANCH   1  10
ATOM     10  C   LIG    1       26.946 -16.836   3.689  0.00  0.00    +0.275 C 
BRANCH  10  11
ATOM     11  C   LIG    1       26.659 -15.390   3.312  0.00  0.00    +0.232 C 
ATOM     12  O   LIG    1       25.302 -15.052   3.661  0.00  0.00    -0.442 OA
ATOM     13  C   LIG    1       25.299 -13.787   4.177  0.00  0.00    +0.401 C 
ATOM     14  O   LIG    1       24.305 -13.180   4.528  0.00  0.00    -0.227 OA
ATOM     15  N   LIG    1       26.581 -13.323   4.275  0.00  0.00    -0.278 N 
ATOM     16  H   LIG    1       26.756 -12.480   4.806  0.00  0.00    +0.152 HD
ATOM     17  C   LIG    1       27.503 -14.388   4.071  0.00  0.00    +0.155 C 
ENDBRANCH  10  11
ENDBRANCH   1  10
TORSDOF 3
ENDMDL
MODEL 4
REMARK VINA RESULT:      -6.1      0.424      2.171
REMARK  Name = *****
REMARK                            x       y       z     vdW  Elec       q    Type
REMARK                         _______ _______ _______ _____ _____    ______ ____
ROOT
ATOM      1  O   LIG    1       26.070 -17.208   3.030  0.00  0.00    -0.488 OA
ENDROOT
BRANCH   1   5
ATOM      2  C   LIG    1       28.775 -13.257   3.842  0.00  0.00    +0.044 C 
ATOM      3  C   LIG    1       27.424 -13.910   3.794  0.00  0.00    -0.047 A 
ATOM      4  C   LIG    1       27.305 -15.261   3.437  0.00  0.00    +0.049 A 
ATOM      5  C   LIG    1       26.056 -15.885   3.393  0.00  0.00    +0.121 A 
ATOM      6  C   LIG    1       24.914 -15.144   3.706  0.00  0.00    +0.049 A 
ATOM      7  C   LIG    1       25.011 -13.791   4.062  0.00  0.00    -0.047 A 
ATOM      8  C   LIG    1       23.762 -13.018   4.367  0.00  0.00    +0.044 C 
ATOM      9  C   LIG    1       26.269 -13.183   4.108  0.00  0.00    +0.007 A 
ENDBRANCH   1   5
BRANCH   1  10
ATOM     10  C   LIG    1       25.017 -18.013   3.565  0.00  0.00    +0.275 C 
BRANCH  10  11
ATOM     11  C   LIG    1       25.461 -19.466   3.656  0.00  0.00    +0.232 C 
ATOM     12  O   LIG    1       25.977 -19.741   4.973  0.00  0.00    -0.442 OA
ATOM     13  C   LIG    1       25.537 -20.977   5.351  0.00  0.00    +0.401 C 
ATOM     14  O   LIG    1       25.832 -21.532   6.393  0.00  0.00    -0.227 OA
ATOM     15  N   LIG    1       24.690 -21.478   4.404  0.00  0.00    -0.278 N 
ATOM     16  H   LIG    1       24.141 -22.300   4.625  0.00  0.00    +0.152 HD
ATOM     17  C   LIG    1       24.329 -20.457   3.482  0.00  0.00    +0.155 C 
ENDBRANCH  10  11
ENDBRANCH   1  10
TORSDOF 3
ENDMDL
MODEL 5
REMARK VINA RESULT:      -5.9      2.892      6.640
REMARK  Name = *****
REMARK                            x       y       z     vdW  Elec       q    Type
REMARK                         _______ _______ _______ _____ _____    ______ ____
ROOT
ATOM      1  O   LIG    1       25.796 -17.522   2.959  0.00  0.00    -0.488 OA
ENDROOT
BRANCH   1   5
ATOM      2  C   LIG    1       26.935 -20.938   6.220  0.00  0.00    +0.044 C 
ATOM      3  C   LIG    1       25.904 -20.266   5.360  0.00  0.00    -0.047 A 
ATOM      4  C   LIG    1       26.266 -19.192   4.533  0.00  0.00    +0.049 A 
ATOM      5  C   LIG    1       25.320 -18.560   3.722  0.00  0.00    +0.121 A 
ATOM      6  C   LIG    1       23.997 -19.005   3.746  0.00  0.00    +0.049 A 
ATOM      7  C   LIG    1       23.614 -20.074   4.568  0.00  0.00    -0.047 A 
ATOM      8  C   LIG    1       22.179 -20.512   4.588  0.00  0.00    +0.044 C 
ATOM      9  C   LIG    1       24.573 -20.702   5.369  0.00  0.00    +0.007 A 
ENDBRANCH   1   5
BRANCH   1  10
ATOM     10  C   LIG    1       26.968 -16.871   3.454  0.00  0.00    +0.275 C 
BRANCH  10  11
ATOM     11  C   LIG    1       26.699 -15.386   3.650  0.00  0.00    +0.232 C 
ATOM     12  O   LIG    1       27.823 -14.766   4.306  0.00  0.00    -0.442 OA
ATOM     13  C   LIG    1       28.036 -13.549   3.723  0.00  0.00    +0.401 C 
ATOM     14  O   LIG    1       28.882 -12.748   4.073  0.00  0.00    -0.227 OA
ATOM     15  N   LIG    1       27.184 -13.385   2.668  0.00  0.00    -0.278 N 
ATOM     16  H   LIG    1       27.343 -12.618   2.026  0.00  0.00    +0.152 HD
ATOM     17  C   LIG    1       26.553 -14.620   2.352  0.00  0.00    +0.155 C 
ENDBRANCH  10  11
ENDBRANCH   1  10
TORSDOF 3
ENDMDL
MODEL 6
REMARK VINA RESULT:      -5.1      2.931      6.193
REMARK  Name = *****
REMARK                            x       y       z     vdW  Elec       q    Type
REMARK                         _______ _______ _______ _____ _____    ______ ____
ROOT
ATOM      1  O   LIG    1       25.969 -16.652   2.926  0.00  0.00    -0.488 OA
ENDROOT
BRANCH   1   5
ATOM      2  C   LIG    1       23.602 -20.743   4.048  0.00  0.00    +0.044 C 
ATOM      3  C   LIG    1       24.835 -19.894   4.153  0.00  0.00    -0.047 A 
ATOM      4  C   LIG    1       24.894 -18.650   3.508  0.00  0.00    +0.049 A 
ATOM      5  C   LIG    1       26.032 -17.846   3.601  0.00  0.00    +0.121 A 
ATOM      6  C   LIG    1       27.124 -18.296   4.345  0.00  0.00    +0.049 A 
ATOM      7  C   LIG    1       27.088 -19.538   4.995  0.00  0.00    -0.047 A 
ATOM      8  C   LIG    1       28.288 -20.004   5.765  0.00  0.00    +0.044 C 
ATOM      9  C   LIG    1       25.939 -20.329   4.897  0.00  0.00    +0.007 A 
ENDBRANCH   1   5
BRANCH   1  10
ATOM     10  C   LIG    1       26.846 -15.625   3.392  0.00  0.00    +0.275 C 
BRANCH  10  11
ATOM     11  C   LIG    1       26.046 -14.391   3.786  0.00  0.00    +0.232 C 
ATOM     12  O   LIG    1       26.134 -13.395   2.748  0.00  0.00    -0.442 OA
ATOM     13  C   LIG    1       24.903 -12.822   2.605  0.00  0.00    +0.401 C 
ATOM     14  O   LIG    1       24.645 -11.909   1.843  0.00  0.00    -0.227 OA
ATOM     15  N   LIG    1       24.001 -13.450   3.416  0.00  0.00    -0.278 N 
ATOM     16  H   LIG    1       23.015 -13.262   3.288  0.00  0.00    +0.152 HD
ATOM     17  C   LIG    1       24.562 -14.652   3.931  0.00  0.00    +0.155 C 
ENDBRANCH  10  11
ENDBRANCH   1  10
TORSDOF 3
ENDMDL
MODEL 7
REMARK VINA RESULT:      -4.9      3.088      6.107
REMARK  Name = *****
REMARK                            x       y       z     vdW  Elec       q    Type
REMARK                         _______ _______ _______ _____ _____    ______ ____
ROOT
ATOM      1  O   LIG    1       26.129 -16.482   2.939  0.00  0.00    -0.488 OA
ENDROOT
BRANCH   1   5
ATOM      2  C   LIG    1       23.830 -20.650   3.908  0.00  0.00    +0.044 C 
ATOM      3  C   LIG    1       25.039 -19.774   4.068  0.00  0.00    -0.047 A 
ATOM      4  C   LIG    1       25.086 -18.516   3.448  0.00  0.00    +0.049 A 
ATOM      5  C   LIG    1       26.201 -17.687   3.593  0.00  0.00    +0.121 A 
ATOM      6  C   LIG    1       27.281 -18.126   4.362  0.00  0.00    +0.049 A 
ATOM      7  C   LIG    1       27.255 -19.381   4.986  0.00  0.00    -0.047 A 
ATOM      8  C   LIG    1       28.442 -19.832   5.785  0.00  0.00    +0.044 C 
ATOM      9  C   LIG    1       26.129 -20.197   4.838  0.00  0.00    +0.007 A 
ENDBRANCH   1   5
BRANCH   1  10
ATOM     10  C   LIG    1       25.324 -15.481   3.563  0.00  0.00    +0.275 C 
BRANCH  10  11
ATOM     11  C   LIG    1       25.976 -14.113   3.411  0.00  0.00    +0.232 C 
ATOM     12  O   LIG    1       26.555 -13.702   4.664  0.00  0.00    -0.442 OA
ATOM     13  C   LIG    1       27.756 -13.107   4.402  0.00  0.00    +0.401 C 
ATOM     14  O   LIG    1       28.481 -12.604   5.239  0.00  0.00    -0.227 OA
ATOM     15  N   LIG    1       28.035 -13.195   3.068  0.00  0.00    -0.278 N 
ATOM     16  H   LIG    1       28.968 -12.965   2.748  0.00  0.00    +0.152 HD
ATOM     17  C   LIG    1       27.137 -14.101   2.439  0.00  0.00    +0.155 C 
ENDBRANCH  10  11
ENDBRANCH   1  10
TORSDOF 3
ENDMDL
MODEL 8
REMARK VINA RESULT:      -4.8      2.997      6.495
REMARK  Name = *****
REMARK                            x       y       z     vdW  Elec       q    Type
REMARK                         _______ _______ _______ _____ _____    ______ ____
ROOT
ATOM      1  O   LIG    1       26.417 -17.137   3.310  0.00  0.00    -0.488 OA
ENDROOT
BRANCH   1   5
ATOM      2  C   LIG    1       25.080 -21.568   4.784  0.00  0.00    +0.044 C 
ATOM      3  C   LIG    1       24.706 -20.163   4.411  0.00  0.00    -0.047 A 
ATOM      4  C   LIG    1       25.695 -19.247   4.025  0.00  0.00    +0.049 A 
ATOM      5  C   LIG    1       25.362 -17.938   3.668  0.00  0.00    +0.121 A 
ATOM      6  C   LIG    1       24.023 -17.543   3.705  0.00  0.00    +0.049 A 
ATOM      7  C   LIG    1       23.019 -18.442   4.092  0.00  0.00    -0.047 A 
ATOM      8  C   LIG    1       21.593 -17.978   4.144  0.00  0.00    +0.044 C 
ATOM      9  C   LIG    1       23.367 -19.751   4.439  0.00  0.00    +0.007 A 
ENDBRANCH   1   5
BRANCH   1  10
ATOM     10  C   LIG    1       26.145 -15.736   3.252  0.00  0.00    +0.275 C 
BRANCH  10  11
ATOM     11  C   LIG    1       27.000 -14.992   4.268  0.00  0.00    +0.232 C 
ATOM     12  O   LIG    1       28.093 -14.331   3.601  0.00  0.00    -0.442 OA
ATOM     13  C   LIG    1       28.257 -13.101   4.173  0.00  0.00    +0.401 C 
ATOM     14  O   LIG    1       29.127 -12.305   3.874  0.00  0.00    -0.227 OA
ATOM     15  N   LIG    1       27.278 -12.887   5.101  0.00  0.00    -0.278 N 
ATOM     16  H   LIG    1       27.156 -11.955   5.476  0.00  0.00    +0.152 HD
ATOM     17  C   LIG    1       26.263 -13.876   4.979  0.00  0.00    +0.155 C 
ENDBRANCH  10  11
ENDBRANCH   1  10
TORSDOF 3
ENDMDL
MODEL 9
REMARK VINA RESULT:      -4.3      2.323      3.261
REMARK  Name = *****
REMARK                            x       y       z     vdW  Elec       q    Type
REMARK                         _______ _______ _______ _____ _____    ______ ____
ROOT
ATOM      1  O   LIG    1       23.002 -15.334   4.706  0.00  0.00    -0.488 OA
ENDROOT
BRANCH   1   5
ATOM      2  C   LIG    1       27.712 -14.632   3.752  0.00  0.00    +0.044 C 
ATOM      3  C   LIG    1       26.283 -14.206   3.583  0.00  0.00    -0.047 A 
ATOM      4  C   LIG    1       25.253 -14.931   4.199  0.00  0.00    +0.049 A 
ATOM      5  C   LIG    1       23.918 -14.544   4.056  0.00  0.00    +0.121 A 
ATOM      6  C   LIG    1       23.614 -13.422   3.283  0.00  0.00    +0.049 A 
ATOM      7  C   LIG    1       24.629 -12.686   2.656  0.00  0.00    -0.047 A 
ATOM      8  C   LIG    1       24.266 -11.499   1.812  0.00  0.00    +0.044 C 
ATOM      9  C   LIG    1       25.960 -13.081   2.814  0.00  0.00    +0.007 A 
ENDBRANCH   1   5
BRANCH   1  10
ATOM     10  C   LIG    1       22.570 -16.498   3.999  0.00  0.00    +0.275 C 
BRANCH  10  11
ATOM     11  C   LIG    1       23.201 -17.744   4.605  0.00  0.00    +0.232 C 
ATOM     12  O   LIG    1       22.172 -18.654   5.041  0.00  0.00    -0.442 OA
ATOM     13  C   LIG    1       22.565 -19.923   4.722  0.00  0.00    +0.401 C 
ATOM     14  O   LIG    1       21.944 -20.933   4.995  0.00  0.00    -0.227 OA
ATOM     15  N   LIG    1       23.737 -19.883   4.021  0.00  0.00    -0.278 N 
ATOM     16  H   LIG    1       24.057 -20.724   3.558  0.00  0.00    +0.152 HD
ATOM     17  C   LIG    1       24.020 -18.549   3.617  0.00  0.00    +0.155 C 
ENDBRANCH  10  11
ENDBRANCH   1  10
TORSDOF 3
ENDMDL
