MODEL 1
REMARK VINA RESULT:      -4.9      0.000      0.000
REMARK  Name = *****
REMARK                            x       y       z     vdW  Elec       q    Type
REMARK                         _______ _______ _______ _____ _____    ______ ____
ROOT
ATOM      1  C   LIG    1       26.404 -20.698   6.001  0.00  0.00    -0.015 A 
ATOM      2  C   LIG    1       26.997 -19.626   5.317  0.00  0.00    +0.051 A 
ATOM      3  C   LIG    1       28.345 -19.334   5.505  0.00  0.00    +0.117 A 
ATOM      4  C   LIG    1       29.126 -20.086   6.375  0.00  0.00    +0.045 A 
ATOM      5  C   LIG    1       28.546 -21.154   7.062  0.00  0.00    +0.004 A 
ATOM      6  C   LIG    1       27.197 -21.459   6.877  0.00  0.00    +0.006 A 
ENDROOT
BRANCH   3   7
ATOM      7  O   LIG    1       28.865 -18.280   4.813  0.00  0.00    -0.507 OA
ATOM      8  H   LIG    1       28.749 -18.446   3.862  0.00  0.00    +0.292 HD
ENDBRANCH   3   7
BRANCH   1   9
ATOM      9  C   LIG    1       24.934 -21.016   5.820  0.00  0.00    +0.158 C 
BRANCH   9  10
ATOM     10  O   LIG    1       24.242 -20.828   7.062  0.00  0.00    -0.386 OA
ATOM     11  H   LIG    1       23.309 -20.654   6.846  0.00  0.00    +0.210 HD
ENDBRANCH   9  10
BRANCH   9  12
ATOM     12  C   LIG    1       24.255 -20.167   4.715  0.00  0.00    +0.116 C 
BRANCH  12  14
ATOM     13  C   LIG    1       22.358 -18.660   4.423  0.00  0.00    +0.101 C 
ATOM     14  N   LIG    1       22.800 -19.972   4.877  0.00  0.00    -0.316 NA
ATOM     15  H   LIG    1       22.338 -20.684   4.307  0.00  0.00    +0.122 HD
ENDBRANCH  12  14
ENDBRANCH   9  12
ENDBRANCH   1   9
TORSDOF 5
ENDMDL
MODEL 2
REMARK VINA RESULT:      -4.8      1.553      1.625
REMARK  Name = *****
REMARK                            x       y       z     vdW  Elec       q    Type
REMARK                         _______ _______ _______ _____ _____    ______ ____
ROOT
ATOM      1  C   LIG    1       26.419 -20.070   5.207  0.00  0.00    -0.015 A 
ATOM      2  C   LIG    1       27.391 -19.127   4.838  0.00  0.00    +0.051 A 
ATOM      3  C   LIG    1       28.569 -19.011   5.570  0.00  0.00    +0.117 A 
ATOM      4  C   LIG    1       28.804 -19.814   6.681  0.00  0.00    +0.045 A 
ATOM      5  C   LIG    1       27.844 -20.755   7.058  0.00  0.00    +0.004 A 
ATOM      6  C   LIG    1       26.662 -20.884   6.328  0.00  0.00    +0.006 A 
ENDROOT
BRANCH   3   7
ATOM      7  O   LIG    1       29.475 -18.077   5.163  0.00  0.00    -0.507 OA
ATOM      8  H   LIG    1       29.772 -17.574   5.940  0.00  0.00    +0.292 HD
ENDBRANCH   3   7
BRANCH   1   9
ATOM      9  C   LIG    1       25.124 -20.195   4.431  0.00  0.00    +0.158 C 
BRANCH   9  10
ATOM     10  O   LIG    1       25.389 -20.088   3.026  0.00  0.00    -0.386 OA
ATOM     11  H   LIG    1       25.555 -19.147   2.838  0.00  0.00    +0.210 HD
ENDBRANCH   9  10
BRANCH   9  12
ATOM     12  C   LIG    1       24.365 -21.517   4.716  0.00  0.00    +0.116 C 
BRANCH  12  14
ATOM     13  C   LIG    1       22.407 -20.134   5.166  0.00  0.00    +0.101 C 
ATOM     14  N   LIG    1       22.892 -21.417   4.677  0.00  0.00    -0.316 NA
ATOM     15  H   LIG    1       22.611 -21.517   3.699  0.00  0.00    +0.122 HD
ENDBRANCH  12  14
ENDBRANCH   9  12
ENDBRANCH   1   9
TORSDOF 5
ENDMDL
MODEL 3
REMARK VINA RESULT:      -4.7      2.224      5.651
REMARK  Name = *****
REMARK                            x       y       z     vdW  Elec       q    Type
REMARK                         _______ _______ _______ _____ _____    ______ ____
ROOT
ATOM      1  C   LIG    1       24.414 -19.447   4.149  0.00  0.00    -0.015 A 
ATOM      2  C   LIG    1       23.664 -20.559   4.561  0.00  0.00    +0.051 A 
ATOM      3  C   LIG    1       22.285 -20.456   4.718  0.00  0.00    +0.117 A 
ATOM      4  C   LIG    1       21.625 -19.256   4.482  0.00  0.00    +0.045 A 
ATOM      5  C   LIG    1       22.361 -18.142   4.074  0.00  0.00    +0.004 A 
ATOM      6  C   LIG    1       23.743 -18.235   3.907  0.00  0.00    +0.006 A 
ENDROOT
BRANCH   3   7
ATOM      7  O   LIG    1       21.611 -21.572   5.120  0.00  0.00    -0.507 OA
ATOM      8  H   LIG    1       21.183 -21.971   4.345  0.00  0.00    +0.292 HD
ENDBRANCH   3   7
BRANCH   1   9
ATOM      9  C   LIG    1       25.918 -19.539   3.991  0.00  0.00    +0.158 C 
BRANCH   9  10
ATOM     10  O   LIG    1       26.449 -18.251   3.652  0.00  0.00    -0.386 OA
ATOM     11  H   LIG    1       27.393 -18.260   3.886  0.00  0.00    +0.210 HD
ENDBRANCH   9  10
BRANCH   9  12
ATOM     12  C   LIG    1       26.634 -20.078   5.256  0.00  0.00    +0.116 C 
BRANCH  12  14
ATOM     13  C   LIG    1       28.715 -20.432   6.479  0.00  0.00    +0.101 C 
ATOM     14  N   LIG    1       28.106 -19.958   5.244  0.00  0.00    -0.316 NA
ATOM     15  H   LIG    1       28.447 -20.537   4.472  0.00  0.00    +0.122 HD
ENDBRANCH  12  14
ENDBRANCH   9  12
ENDBRANCH   1   9
TORSDOF 5
ENDMDL
MODEL 4
REMARK VINA RESULT:      -4.7      2.482      5.087
REMARK  Name = *****
REMARK                            x       y       z     vdW  Elec       q    Type
REMARK                         _______ _______ _______ _____ _____    ______ ____
ROOT
ATOM      1  C   LIG    1       24.854 -20.464   5.191  0.00  0.00    -0.015 A 
ATOM      2  C   LIG    1       24.118 -19.415   4.620  0.00  0.00    +0.051 A 
ATOM      3  C   LIG    1       22.727 -19.450   4.627  0.00  0.00    +0.117 A 
ATOM      4  C   LIG    1       22.040 -20.522   5.187  0.00  0.00    +0.045 A 
ATOM      5  C   LIG    1       22.762 -21.571   5.757  0.00  0.00    +0.004 A 
ATOM      6  C   LIG    1       24.158 -21.545   5.760  0.00  0.00    +0.006 A 
ENDROOT
BRANCH   3   7
ATOM      7  O   LIG    1       22.067 -18.402   4.057  0.00  0.00    -0.507 OA
ATOM      8  H   LIG    1       22.645 -17.999   3.388  0.00  0.00    +0.292 HD
ENDBRANCH   3   7
BRANCH   1   9
ATOM      9  C   LIG    1       26.369 -20.449   5.175  0.00  0.00    +0.158 C 
BRANCH   9  10
ATOM     10  O   LIG    1       26.834 -19.307   4.443  0.00  0.00    -0.386 OA
ATOM     11  H   LIG    1       27.687 -19.552   4.043  0.00  0.00    +0.210 HD
ENDBRANCH   9  10
BRANCH   9  12
ATOM     12  C   LIG    1       26.997 -20.446   6.593  0.00  0.00    +0.116 C 
BRANCH  12  14
ATOM     13  C   LIG    1       29.407 -20.080   6.690  0.00  0.00    +0.101 C 
ATOM     14  N   LIG    1       28.334 -21.065   6.689  0.00  0.00    -0.316 NA
ATOM     15  H   LIG    1       28.364 -21.576   7.575  0.00  0.00    +0.122 HD
ENDBRANCH  12  14
ENDBRANCH   9  12
ENDBRANCH   1   9
TORSDOF 5
ENDMDL
MODEL 5
REMARK VINA RESULT:      -4.6      6.729      8.547
REMARK  Name = *****
REMARK                            x       y       z     vdW  Elec       q    Type
REMARK                         _______ _______ _______ _____ _____    ______ ____
ROOT
ATOM      1  C   LIG    1       25.597 -13.737   3.543  0.00  0.00    -0.015 A 
ATOM      2  C   LIG    1       24.893 -13.082   4.565  0.00  0.00    +0.051 A 
ATOM      3  C   LIG    1       24.015 -12.046   4.258  0.00  0.00    +0.117 A 
ATOM      4  C   LIG    1       23.825 -11.635   2.944  0.00  0.00    +0.045 A 
ATOM      5  C   LIG    1       24.521 -12.278   1.920  0.00  0.00    +0.004 A 
ATOM      6  C   LIG    1       25.400 -13.322   2.215  0.00  0.00    +0.006 A 
ENDROOT
BRANCH   3   7
ATOM      7  O   LIG    1       23.359 -11.448   5.294  0.00  0.00    -0.507 OA
ATOM      8  H   LIG    1       22.923 -10.646   4.962  0.00  0.00    +0.292 HD
ENDBRANCH   3   7
BRANCH   1   9
ATOM      9  C   LIG    1       26.570 -14.854   3.864  0.00  0.00    +0.158 C 
BRANCH   9  10
ATOM     10  O   LIG    1       26.309 -15.981   3.017  0.00  0.00    -0.386 OA
ATOM     11  H   LIG    1       26.972 -15.965   2.306  0.00  0.00    +0.210 HD
ENDBRANCH   9  10
BRANCH   9  12
ATOM     12  C   LIG    1       28.055 -14.432   3.720  0.00  0.00    +0.116 C 
BRANCH  12  14
ATOM     13  C   LIG    1       28.752 -12.296   4.672  0.00  0.00    +0.101 C 
ATOM     14  N   LIG    1       28.280 -12.992   3.483  0.00  0.00    -0.316 NA
ATOM     15  H   LIG    1       28.997 -12.916   2.758  0.00  0.00    +0.122 HD
ENDBRANCH  12  14
ENDBRANCH   9  12
ENDBRANCH   1   9
TORSDOF 5
ENDMDL
MODEL 6
REMARK VINA RESULT:      -4.5      3.064      4.740
REMARK  Name = *****
REMARK                            x       y       z     vdW  Elec       q    Type
REMARK                         _______ _______ _______ _____ _____    ______ ____
ROOT
ATOM      1  C   LIG    1       24.752 -20.182   4.785  0.00  0.00    -0.015 A 
ATOM      2  C   LIG    1       23.458 -20.580   4.414  0.00  0.00    +0.051 A 
ATOM      3  C   LIG    1       22.627 -21.208   5.337  0.00  0.00    +0.117 A 
ATOM      4  C   LIG    1       23.059 -21.461   6.634  0.00  0.00    +0.045 A 
ATOM      5  C   LIG    1       24.344 -21.071   7.013  0.00  0.00    +0.004 A 
ATOM      6  C   LIG    1       25.185 -20.436   6.098  0.00  0.00    +0.006 A 
ENDROOT
BRANCH   3   7
ATOM      7  O   LIG    1       21.381 -21.572   4.918  0.00  0.00    -0.507 OA
ATOM      8  H   LIG    1       21.214 -22.487   5.200  0.00  0.00    +0.292 HD
ENDBRANCH   3   7
BRANCH   1   9
ATOM      9  C   LIG    1       25.675 -19.514   3.786  0.00  0.00    +0.158 C 
BRANCH   9  10
ATOM     10  O   LIG    1       25.626 -20.216   2.537  0.00  0.00    -0.386 OA
ATOM     11  H   LIG    1       25.992 -19.621   1.859  0.00  0.00    +0.210 HD
ENDBRANCH   9  10
BRANCH   9  12
ATOM     12  C   LIG    1       25.344 -18.017   3.552  0.00  0.00    +0.116 C 
BRANCH  12  14
ATOM     13  C   LIG    1       26.196 -15.741   3.344  0.00  0.00    +0.101 C 
ATOM     14  N   LIG    1       26.502 -17.160   3.230  0.00  0.00    -0.316 NA
ATOM     15  H   LIG    1       27.239 -17.388   3.903  0.00  0.00    +0.122 HD
ENDBRANCH  12  14
ENDBRANCH   9  12
ENDBRANCH   1   9
TORSDOF 5
ENDMDL
MODEL 7
REMARK VINA RESULT:      -4.3      4.528      5.925
REMARK  Name = *****
REMARK                            x       y       z     vdW  Elec       q    Type
REMARK                         _______ _______ _______ _____ _____    ______ ____
ROOT
ATOM      1  C   LIG    1       26.283 -15.464   3.801  0.00  0.00    -0.015 A 
ATOM      2  C   LIG    1       27.254 -14.625   4.370  0.00  0.00    +0.051 A 
ATOM      3  C   LIG    1       26.897 -13.372   4.860  0.00  0.00    +0.117 A 
ATOM      4  C   LIG    1       25.584 -12.922   4.788  0.00  0.00    +0.045 A 
ATOM      5  C   LIG    1       24.610 -13.747   4.223  0.00  0.00    +0.004 A 
ATOM      6  C   LIG    1       24.955 -15.008   3.733  0.00  0.00    +0.006 A 
ENDROOT
BRANCH   3   7
ATOM      7  O   LIG    1       27.885 -12.603   5.402  0.00  0.00    -0.507 OA
ATOM      8  H   LIG    1       28.381 -13.141   6.041  0.00  0.00    +0.292 HD
ENDBRANCH   3   7
BRANCH   1   9
ATOM      9  C   LIG    1       26.659 -16.823   3.247  0.00  0.00    +0.158 C 
BRANCH   9  10
ATOM     10  O   LIG    1       27.794 -17.338   3.956  0.00  0.00    -0.386 OA
ATOM     11  H   LIG    1       28.299 -17.884   3.328  0.00  0.00    +0.210 HD
ENDBRANCH   9  10
BRANCH   9  12
ATOM     12  C   LIG    1       25.500 -17.851   3.308  0.00  0.00    +0.116 C 
BRANCH  12  14
ATOM     13  C   LIG    1       24.750 -20.114   3.826  0.00  0.00    +0.101 C 
ATOM     14  N   LIG    1       25.889 -19.213   3.726  0.00  0.00    -0.316 NA
ATOM     15  H   LIG    1       26.525 -19.574   3.010  0.00  0.00    +0.122 HD
ENDBRANCH  12  14
ENDBRANCH   9  12
ENDBRANCH   1   9
TORSDOF 5
ENDMDL
MODEL 8
REMARK VINA RESULT:      -4.3      4.483      5.898
REMARK  Name = *****
REMARK                            x       y       z     vdW  Elec       q    Type
REMARK                         _______ _______ _______ _____ _____    ______ ____
ROOT
ATOM      1  C   LIG    1       26.166 -15.793   3.386  0.00  0.00    -0.015 A 
ATOM      2  C   LIG    1       27.152 -14.817   3.174  0.00  0.00    +0.051 A 
ATOM      3  C   LIG    1       26.843 -13.467   3.311  0.00  0.00    +0.117 A 
ATOM      4  C   LIG    1       25.559 -13.057   3.651  0.00  0.00    +0.045 A 
ATOM      5  C   LIG    1       24.570 -14.018   3.864  0.00  0.00    +0.004 A 
ATOM      6  C   LIG    1       24.869 -15.376   3.734  0.00  0.00    +0.006 A 
ENDROOT
BRANCH   3   7
ATOM      7  O   LIG    1       27.844 -12.566   3.092  0.00  0.00    -0.507 OA
ATOM      8  H   LIG    1       28.683 -13.049   3.009  0.00  0.00    +0.292 HD
ENDBRANCH   3   7
BRANCH   1   9
ATOM      9  C   LIG    1       26.482 -17.265   3.222  0.00  0.00    +0.158 C 
BRANCH   9  10
ATOM     10  O   LIG    1       27.597 -17.617   4.053  0.00  0.00    -0.386 OA
ATOM     11  H   LIG    1       27.674 -16.927   4.735  0.00  0.00    +0.210 HD
ENDBRANCH   9  10
BRANCH   9  12
ATOM     12  C   LIG    1       25.281 -18.190   3.549  0.00  0.00    +0.116 C 
BRANCH  12  14
ATOM     13  C   LIG    1       25.368 -20.303   4.766  0.00  0.00    +0.101 C 
ATOM     14  N   LIG    1       25.567 -19.637   3.486  0.00  0.00    -0.316 NA
ATOM     15  H   LIG    1       24.916 -20.041   2.807  0.00  0.00    +0.122 HD
ENDBRANCH  12  14
ENDBRANCH   9  12
ENDBRANCH   1   9
TORSDOF 5
ENDMDL
MODEL 9
REMARK VINA RESULT:      -4.3      5.843      7.534
REMARK  Name = *****
REMARK                            x       y       z     vdW  Elec       q    Type
REMARK                         _______ _______ _______ _____ _____    ______ ____
ROOT
ATOM      1  C   LIG    1       26.037 -13.861   3.612  0.00  0.00    -0.015 A 
ATOM      2  C   LIG    1       25.400 -13.157   2.580  0.00  0.00    +0.051 A 
ATOM      3  C   LIG    1       24.331 -12.311   2.864  0.00  0.00    +0.117 A 
ATOM      4  C   LIG    1       23.868 -12.155   4.165  0.00  0.00    +0.045 A 
ATOM      5  C   LIG    1       24.493 -12.852   5.200  0.00  0.00    +0.004 A 
ATOM      6  C   LIG    1       25.569 -13.698   4.928  0.00  0.00    +0.006 A 
ENDROOT
BRANCH   3   7
ATOM      7  O   LIG    1       23.753 -11.653   1.818  0.00  0.00    -0.507 OA
ATOM      8  H   LIG    1       24.350 -10.943   1.531  0.00  0.00    +0.292 HD
ENDBRANCH   3   7
BRANCH   1   9
ATOM      9  C   LIG    1       27.190 -14.799   3.316  0.00  0.00    +0.158 C 
BRANCH   9  10
ATOM     10  O   LIG    1       28.371 -14.342   3.989  0.00  0.00    -0.386 OA
ATOM     11  H   LIG    1       28.538 -14.958   4.723  0.00  0.00    +0.210 HD
ENDBRANCH   9  10
BRANCH   9  12
ATOM     12  C   LIG    1       26.902 -16.269   3.717  0.00  0.00    +0.116 C 
BRANCH  12  14
ATOM     13  C   LIG    1       25.505 -18.256   3.484  0.00  0.00    +0.101 C 
ATOM     14  N   LIG    1       25.756 -16.896   3.027  0.00  0.00    -0.316 NA
ATOM     15  H   LIG    1       24.933 -16.326   3.237  0.00  0.00    +0.122 HD
ENDBRANCH  12  14
ENDBRANCH   9  12
ENDBRANCH   1   9
TORSDOF 5
ENDMDL
