MODEL 1
REMARK VINA RESULT:       2.1      0.000      0.000
REMARK  Name = *****
REMARK                            x       y       z     vdW  Elec       q    Type
REMARK                         _______ _______ _______ _____ _____    ______ ____
ROOT
ATOM      1  C   LIG    1       26.489 -18.003   3.635  0.00  0.00    +0.117 C 
ENDROOT
BRANCH   1   6
ATOM      2  F   LIG    1       27.986 -12.410   3.472  0.00  0.00    -0.205 F 
ATOM      3  C   LIG    1       27.655 -13.705   3.506  0.00  0.00    +0.123 A 
ATOM      4  C   LIG    1       28.131 -14.514   4.514  0.00  0.00    +0.039 A 
ATOM      5  C   LIG    1       27.800 -15.880   4.524  0.00  0.00    +0.008 A 
ATOM      6  C   LIG    1       26.969 -16.491   3.559  0.00  0.00    -0.026 A 
ATOM      7  C   LIG    1       26.477 -15.595   2.585  0.00  0.00    +0.008 A 
ATOM      8  C   LIG    1       26.827 -14.235   2.541  0.00  0.00    +0.039 A 
ENDBRANCH   1   6
BRANCH   1   9
ATOM      9  C   LIG    1       27.264 -18.914   4.676  0.00  0.00    -0.026 A 
ATOM     10  C   LIG    1       28.529 -18.614   5.201  0.00  0.00    +0.008 A 
ATOM     11  C   LIG    1       29.310 -19.485   5.939  0.00  0.00    +0.039 A 
ATOM     12  C   LIG    1       28.753 -20.687   6.301  0.00  0.00    +0.123 A 
ATOM     13  F   LIG    1       29.474 -21.543   7.062  0.00  0.00    -0.205 F 
ATOM     14  C   LIG    1       27.456 -20.997   5.960  0.00  0.00    +0.039 A 
ATOM     15  C   LIG    1       26.702 -20.103   5.194  0.00  0.00    +0.008 A 
ENDBRANCH   1   9
BRANCH   1  16
ATOM     16  N   LIG    1       24.996 -18.230   3.674  0.00  0.00    -0.289 NA
ATOM     17  C   LIG    1       24.453 -19.303   2.819  0.00  0.00    +0.100 C 
ATOM     18  C   LIG    1       22.907 -19.439   2.865  0.00  0.00    +0.100 C 
ATOM     19  N   LIG    1       22.303 -19.458   4.205  0.00  0.00    -0.296 NA
ATOM     20  C   LIG    1       23.381 -19.452   5.211  0.00  0.00    +0.100 C 
ATOM     21  C   LIG    1       24.389 -18.271   5.030  0.00  0.00    +0.100 C 
BRANCH  19  22
ATOM     22  C   LIG    1       21.391 -18.318   4.376  0.00  0.00    +0.112 C 
BRANCH  22  23
ATOM     23  C   LIG    1       22.098 -17.051   4.038  0.00  0.00    -0.011 C 
ATOM     24  C   LIG    1       22.435 -16.091   4.934  0.00  0.00    +0.005 C 
BRANCH  24  25
ATOM     25  C   LIG    1       23.110 -14.862   4.534  0.00  0.00    -0.025 A 
ATOM     26  C   LIG    1       23.884 -14.102   5.439  0.00  0.00    +0.008 A 
ATOM     27  C   LIG    1       24.477 -12.911   5.013  0.00  0.00    +0.001 A 
ATOM     28  C   LIG    1       24.337 -12.474   3.692  0.00  0.00    +0.000 A 
ATOM     29  C   LIG    1       23.602 -13.243   2.791  0.00  0.00    +0.001 A 
ATOM     30  C   LIG    1       22.999 -14.431   3.201  0.00  0.00    +0.008 A 
ENDBRANCH  24  25
ENDBRANCH  22  23
ENDBRANCH  19  22
ENDBRANCH   1  16
TORSDOF 6
ENDMDL
