MODEL 1
REMARK VINA RESULT:      54.0      0.000      0.000
REMARK  Name = *****
REMARK                            x       y       z     vdW  Elec       q    Type
REMARK                         _______ _______ _______ _____ _____    ______ ____
ROOT
ATOM      1  C   LIG    1       25.080 -16.593   4.155  0.00  0.00    +0.077 C 
ENDROOT
BRANCH   1   3
ATOM      2  C   LIG    1       22.534 -15.888   3.252  0.00  0.00    +0.234 C 
ATOM      3  N   LIG    1       23.672 -15.864   4.059  0.00  0.00    -0.311 N 
ATOM      4  H   LIG    1       23.803 -14.858   4.158  0.00  0.00    +0.149 HD
ATOM      5  O   LIG    1       22.152 -14.750   2.895  0.00  0.00    -0.274 OA
BRANCH   2   6
ATOM      6  C   LIG    1       21.475 -17.060   2.941  0.00  0.00    +0.161 C 
BRANCH   6   9
ATOM      7  N   LIG    1       21.635 -15.698   5.711  0.00  0.00    -0.283 N 
ATOM      8  C   LIG    1       20.524 -16.298   5.168  0.00  0.00    +0.303 C 
ATOM      9  N   LIG    1       20.533 -17.135   4.068  0.00  0.00    -0.288 N 
ATOM     10  H   LIG    1       19.592 -17.326   3.704  0.00  0.00    +0.151 HD
ATOM     11  O   LIG    1       19.412 -15.849   5.511  0.00  0.00    -0.253 OA
ATOM     12  C   LIG    1       23.030 -16.198   5.761  0.00  0.00    +0.134 C 
BRANCH   7  13
ATOM     13  C   LIG    1       21.346 -14.608   6.689  0.00  0.00    +0.165 C 
BRANCH  13  17
ATOM     14  C   LIG    1       24.341 -13.138   6.050  0.00  0.00    +0.081 A 
ATOM     15  S   LIG    1       23.677 -11.529   6.230  0.00  0.00    -0.080 S 
ATOM     16  C   LIG    1       22.287 -12.275   6.767  0.00  0.00    +0.071 A 
ATOM     17  C   LIG    1       22.345 -13.637   6.426  0.00  0.00    +0.066 A 
ATOM     18  N   LIG    1       23.481 -14.090   5.858  0.00  0.00    -0.247 NA
BRANCH  14  20
ATOM     19  C   LIG    1       26.469 -11.979   5.697  0.00  0.00    +0.014 C 
ATOM     20  C   LIG    1       25.786 -13.320   5.889  0.00  0.00    +0.038 C 
ATOM     21  C   LIG    1       26.331 -14.133   7.056  0.00  0.00    +0.014 C 
ENDBRANCH  14  20
ENDBRANCH  13  17
ENDBRANCH   7  13
ENDBRANCH   6   9
BRANCH   6  22
ATOM     22  C   LIG    1       22.002 -18.366   2.155  0.00  0.00    +0.047 C 
BRANCH  22  23
ATOM     23  C   LIG    1       21.647 -20.256   2.169  0.00  0.00    +0.087 C 
BRANCH  23  24
ATOM     24  N   LIG    1       20.684 -21.147   2.882  0.00  0.00    -0.298 NA
ATOM     25  C   LIG    1       19.356 -20.638   3.098  0.00  0.00    +0.112 C 
ATOM     26  C   LIG    1       19.553 -19.146   3.279  0.00  0.00    +0.175 C 
ATOM     27  O   LIG    1       20.778 -18.690   4.107  0.00  0.00    -0.377 OA
ATOM     28  C   LIG    1       20.771 -19.785   5.015  0.00  0.00    +0.175 C 
ATOM     29  C   LIG    1       21.222 -21.106   4.266  0.00  0.00    +0.112 C 
ENDBRANCH  23  24
ENDBRANCH  22  23
ENDBRANCH   6  22
ENDBRANCH   2   6
ENDBRANCH   1   3
BRANCH   1  30
ATOM     30  C   LIG    1       26.157 -15.960   3.304  0.00  0.00    +0.024 C 
BRANCH  30  31
ATOM     31  C   LIG    1       27.550 -16.591   3.088  0.00  0.00    +0.024 C 
BRANCH  31  32
ATOM     32  C   LIG    1       28.607 -15.756   3.803  0.00  0.00    +0.081 C 
BRANCH  32  33
ATOM     33  N   LIG    1       27.955 -14.422   4.007  0.00  0.00    -0.278 N 
ATOM     34  H   LIG    1       27.905 -14.046   4.926  0.00  0.00    +0.152 HD
ATOM     35  C   LIG    1       28.585 -13.246   3.489  0.00  0.00    +0.401 C 
ATOM     36  O   LIG    1       29.445 -12.909   4.139  0.00  0.00    -0.227 OA
BRANCH  35  37
ATOM     37  O   LIG    1       27.776 -12.642   2.515  0.00  0.00    -0.445 OA
BRANCH  37  38
ATOM     38  C   LIG    1       26.358 -11.709   1.824  0.00  0.00    +0.278 C 
BRANCH  38  39
ATOM     39  C   LIG    1       24.574 -11.461   2.568  0.00  0.00    +0.046 A 
ATOM     40  S   LIG    1       23.962 -11.849   4.108  0.00  0.00    -0.077 S 
ATOM     41  C   LIG    1       22.557 -12.771   3.580  0.00  0.00    +0.156 A 
ATOM     42  N   LIG    1       22.196 -12.351   2.432  0.00  0.00    -0.255 NA
ATOM     43  C   LIG    1       23.272 -11.695   1.813  0.00  0.00    +0.125 A 
ENDBRANCH  38  39
ENDBRANCH  37  38
ENDBRANCH  35  37
ENDBRANCH  32  33
BRANCH  32  44
ATOM     44  C   LIG    1       29.132 -16.489   5.214  0.00  0.00    +0.057 C 
BRANCH  44  45
ATOM     45  C   LIG    1       28.781 -18.051   5.506  0.00  0.00    -0.046 A 
ATOM     46  C   LIG    1       28.876 -18.827   6.672  0.00  0.00    +0.003 A 
ATOM     47  C   LIG    1       28.371 -20.202   6.734  0.00  0.00    +0.000 A 
ATOM     48  C   LIG    1       27.883 -20.904   5.625  0.00  0.00    +0.000 A 
ATOM     49  C   LIG    1       27.774 -20.189   4.474  0.00  0.00    +0.000 A 
ATOM     50  C   LIG    1       28.128 -18.822   4.534  0.00  0.00    +0.003 A 
ENDBRANCH  44  45
ENDBRANCH  32  44
ENDBRANCH  31  32
ENDBRANCH  30  31
ENDBRANCH   1  30
BRANCH   1  51
ATOM     51  C   LIG    1       25.160 -18.260   3.898  0.00  0.00    +0.057 C 
BRANCH  51  52
ATOM     52  C   LIG    1       24.604 -19.462   5.034  0.00  0.00    -0.046 A 
ATOM     53  C   LIG    1       25.352 -20.501   5.641  0.00  0.00    +0.003 A 
ATOM     54  C   LIG    1       24.836 -21.363   6.699  0.00  0.00    +0.000 A 
ATOM     55  C   LIG    1       23.493 -21.417   7.032  0.00  0.00    +0.000 A 
ATOM     56  C   LIG    1       22.667 -20.667   6.248  0.00  0.00    +0.000 A 
ATOM     57  C   LIG    1       23.229 -19.616   5.427  0.00  0.00    +0.003 A 
ENDBRANCH  51  52
ENDBRANCH   1  51
TORSDOF 20
ENDMDL
