MODEL 1
REMARK VINA RESULT:      -9.8      0.000      0.000
REMARK  Name = *****
REMARK                            x       y       z     vdW  Elec       q    Type
REMARK                         _______ _______ _______ _____ _____    ______ ____
ROOT
ATOM      1  C   LIG    1       24.294 -22.276   7.007  0.00  0.00    +0.220 A 
ATOM      2  N   LIG    1       24.251 -23.514   6.550  0.00  0.00    -0.193 NA
ATOM      3  C   LIG    1       25.438 -24.145   6.519  0.00  0.00    +0.185 A 
ATOM      4  N   LIG    1       26.599 -23.588   6.869  0.00  0.00    -0.193 NA
ATOM      5  C   LIG    1       26.533 -22.361   7.347  0.00  0.00    +0.224 A 
ATOM      6  N   LIG    1       25.387 -21.681   7.435  0.00  0.00    -0.181 NA
ENDROOT
BRANCH   3   7
ATOM      7  C   LIG    1       25.451 -25.569   6.084  0.00  0.00    +0.109 A 
ATOM      8  N   LIG    1       25.403 -26.514   7.071  0.00  0.00    -0.240 NA
ATOM      9  C   LIG    1       25.401 -27.839   6.737  0.00  0.00    +0.144 A 
ATOM     10  C   LIG    1       25.454 -28.257   5.409  0.00  0.00    +0.032 A 
ATOM     11  C   LIG    1       25.501 -27.297   4.404  0.00  0.00    +0.004 A 
ATOM     12  C   LIG    1       25.495 -25.946   4.742  0.00  0.00    +0.031 A 
BRANCH   9  13
ATOM     13  C   LIG    1       25.335 -28.870   7.857  0.00  0.00    +0.434 C 
ATOM     14  F   LIG    1       24.058 -29.166   8.238  0.00  0.00    -0.164 F 
ATOM     15  F   LIG    1       25.985 -28.476   8.989  0.00  0.00    -0.164 F 
ATOM     16  F   LIG    1       25.896 -30.071   7.518  0.00  0.00    -0.164 F 
ENDBRANCH   9  13
ENDBRANCH   3   7
BRANCH   1  17
ATOM     17  N   LIG    1       23.082 -21.596   7.058  0.00  0.00    -0.311 N 
ATOM     18  H   LIG    1       22.360 -22.200   6.686  0.00  0.00    +0.149 HD
BRANCH  17  19
ATOM     19  C   LIG    1       23.070 -20.229   6.498  0.00  0.00    +0.138 C 
BRANCH  19  21
ATOM     20  C   LIG    1       23.920 -20.581   4.121  0.00  0.00    +0.042 C 
ATOM     21  C   LIG    1       22.698 -20.239   4.987  0.00  0.00    +0.076 C 
ATOM     22  C   LIG    1       22.114 -18.895   4.548  0.00  0.00    +0.042 C 
BRANCH  21  23
ATOM     23  O   LIG    1       21.702 -21.250   4.765  0.00  0.00    -0.388 OA
ATOM     24  H   LIG    1       21.524 -21.286   3.807  0.00  0.00    +0.210 HD
ENDBRANCH  21  23
ENDBRANCH  19  21
ENDBRANCH  17  19
ENDBRANCH   1  17
BRANCH   5  25
ATOM     25  N   LIG    1       27.722 -21.781   7.785  0.00  0.00    -0.283 N 
ATOM     26  H   LIG    1       28.089 -22.291   8.576  0.00  0.00    +0.155 HD
BRANCH  25  27
ATOM     27  C   LIG    1       28.386 -20.623   7.365  0.00  0.00    +0.037 A 
ATOM     28  C   LIG    1       29.336 -19.966   8.152  0.00  0.00    +0.055 A 
ATOM     29  C   LIG    1       30.036 -18.865   7.658  0.00  0.00    +0.145 A 
ATOM     30  N   LIG    1       29.833 -18.397   6.399  0.00  0.00    -0.251 NA
ATOM     31  C   LIG    1       28.927 -19.048   5.637  0.00  0.00    +0.113 A 
ATOM     32  C   LIG    1       28.199 -20.147   6.069  0.00  0.00    +0.043 A 
BRANCH  29  33
ATOM     33  C   LIG    1       31.038 -18.195   8.585  0.00  0.00    +0.434 C 
ATOM     34  F   LIG    1       32.259 -18.010   8.000  0.00  0.00    -0.164 F 
ATOM     35  F   LIG    1       31.291 -18.943   9.703  0.00  0.00    -0.164 F 
ATOM     36  F   LIG    1       30.656 -16.969   9.041  0.00  0.00    -0.164 F 
ENDBRANCH  29  33
ENDBRANCH  25  27
ENDBRANCH   5  25
TORSDOF 9
ENDMDL
MODEL 2
REMARK VINA RESULT:      -9.4      1.118      8.108
REMARK  Name = *****
REMARK                            x       y       z     vdW  Elec       q    Type
REMARK                         _______ _______ _______ _____ _____    ______ ____
ROOT
ATOM      1  C   LIG    1       24.417 -21.569   7.036  0.00  0.00    +0.220 A 
ATOM      2  N   LIG    1       25.423 -20.721   6.923  0.00  0.00    -0.193 NA
ATOM      3  C   LIG    1       26.644 -21.278   7.009  0.00  0.00    +0.185 A 
ATOM      4  N   LIG    1       26.867 -22.574   7.238  0.00  0.00    -0.193 NA
ATOM      5  C   LIG    1       25.799 -23.345   7.300  0.00  0.00    +0.224 A 
ATOM      6  N   LIG    1       24.557 -22.868   7.194  0.00  0.00    -0.181 NA
ENDROOT
BRANCH   3   7
ATOM      7  C   LIG    1       27.823 -20.391   6.816  0.00  0.00    +0.109 A 
ATOM      8  N   LIG    1       28.731 -20.343   7.837  0.00  0.00    -0.240 NA
ATOM      9  C   LIG    1       29.840 -19.555   7.718  0.00  0.00    +0.144 A 
ATOM     10  C   LIG    1       30.072 -18.789   6.578  0.00  0.00    +0.032 A 
ATOM     11  C   LIG    1       29.151 -18.837   5.537  0.00  0.00    +0.004 A 
ATOM     12  C   LIG    1       28.023 -19.646   5.654  0.00  0.00    +0.031 A 
BRANCH   9  13
ATOM     13  C   LIG    1       30.841 -19.531   8.867  0.00  0.00    +0.434 C 
ATOM     14  F   LIG    1       31.087 -20.767   9.390  0.00  0.00    -0.164 F 
ATOM     15  F   LIG    1       30.440 -18.752   9.912  0.00  0.00    -0.164 F 
ATOM     16  F   LIG    1       32.067 -19.045   8.505  0.00  0.00    -0.164 F 
ENDBRANCH   9  13
ENDBRANCH   3   7
BRANCH   1  17
ATOM     17  N   LIG    1       23.141 -21.025   6.944  0.00  0.00    -0.311 N 
ATOM     18  H   LIG    1       22.507 -21.745   6.622  0.00  0.00    +0.149 HD
BRANCH  17  19
ATOM     19  C   LIG    1       23.022 -19.746   6.214  0.00  0.00    +0.138 C 
BRANCH  19  21
ATOM     20  C   LIG    1       23.849 -20.173   3.841  0.00  0.00    +0.042 C 
ATOM     21  C   LIG    1       22.612 -19.977   4.730  0.00  0.00    +0.076 C 
ATOM     22  C   LIG    1       21.770 -18.817   4.198  0.00  0.00    +0.042 C 
BRANCH  21  23
ATOM     23  O   LIG    1       21.819 -21.173   4.654  0.00  0.00    -0.388 OA
ATOM     24  H   LIG    1       22.310 -21.884   5.102  0.00  0.00    +0.210 HD
ENDBRANCH  21  23
ENDBRANCH  19  21
ENDBRANCH  17  19
ENDBRANCH   1  17
BRANCH   5  25
ATOM     25  N   LIG    1       26.008 -24.712   7.468  0.00  0.00    -0.283 N 
ATOM     26  H   LIG    1       26.485 -24.888   8.342  0.00  0.00    +0.155 HD
BRANCH  25  27
ATOM     27  C   LIG    1       25.742 -25.792   6.619  0.00  0.00    +0.037 A 
ATOM     28  C   LIG    1       25.368 -27.053   7.090  0.00  0.00    +0.055 A 
ATOM     29  C   LIG    1       25.028 -28.076   6.205  0.00  0.00    +0.145 A 
ATOM     30  N   LIG    1       25.037 -27.887   4.860  0.00  0.00    -0.251 NA
ATOM     31  C   LIG    1       25.381 -26.661   4.412  0.00  0.00    +0.113 A 
ATOM     32  C   LIG    1       25.729 -25.602   5.239  0.00  0.00    +0.043 A 
BRANCH  29  33
ATOM     33  C   LIG    1       24.652 -29.425   6.799  0.00  0.00    +0.434 C 
ATOM     34  F   LIG    1       23.802 -30.136   5.999  0.00  0.00    -0.164 F 
ATOM     35  F   LIG    1       23.995 -29.301   7.993  0.00  0.00    -0.164 F 
ATOM     36  F   LIG    1       25.708 -30.251   7.043  0.00  0.00    -0.164 F 
ENDBRANCH  29  33
ENDBRANCH  25  27
ENDBRANCH   5  25
TORSDOF 9
ENDMDL
MODEL 3
REMARK VINA RESULT:      -9.0      1.637      7.642
REMARK  Name = *****
REMARK                            x       y       z     vdW  Elec       q    Type
REMARK                         _______ _______ _______ _____ _____    ______ ____
ROOT
ATOM      1  C   LIG    1       24.455 -22.565   6.860  0.00  0.00    +0.220 A 
ATOM      2  N   LIG    1       25.453 -21.754   7.159  0.00  0.00    -0.193 NA
ATOM      3  C   LIG    1       26.677 -22.297   7.038  0.00  0.00    +0.185 A 
ATOM      4  N   LIG    1       26.910 -23.564   6.691  0.00  0.00    -0.193 NA
ATOM      5  C   LIG    1       25.851 -24.283   6.376  0.00  0.00    +0.224 A 
ATOM      6  N   LIG    1       24.607 -23.804   6.444  0.00  0.00    -0.181 NA
ENDROOT
BRANCH   3   7
ATOM      7  C   LIG    1       27.851 -21.416   7.289  0.00  0.00    +0.109 A 
ATOM      8  N   LIG    1       28.857 -21.936   8.055  0.00  0.00    -0.240 NA
ATOM      9  C   LIG    1       29.967 -21.182   8.314  0.00  0.00    +0.144 A 
ATOM     10  C   LIG    1       30.100 -19.886   7.821  0.00  0.00    +0.032 A 
ATOM     11  C   LIG    1       29.078 -19.356   7.040  0.00  0.00    +0.004 A 
ATOM     12  C   LIG    1       27.950 -20.126   6.769  0.00  0.00    +0.031 A 
BRANCH   9  13
ATOM     13  C   LIG    1       31.078 -21.792   9.160  0.00  0.00    +0.434 C 
ATOM     14  F   LIG    1       32.016 -20.881   9.549  0.00  0.00    -0.164 F 
ATOM     15  F   LIG    1       31.759 -22.784   8.517  0.00  0.00    -0.164 F 
ATOM     16  F   LIG    1       30.625 -22.359  10.320  0.00  0.00    -0.164 F 
ENDBRANCH   9  13
ENDBRANCH   3   7
BRANCH   1  17
ATOM     17  N   LIG    1       23.175 -22.032   6.969  0.00  0.00    -0.311 N 
ATOM     18  H   LIG    1       22.525 -22.664   6.522  0.00  0.00    +0.149 HD
BRANCH  17  19
ATOM     19  C   LIG    1       23.015 -20.619   6.567  0.00  0.00    +0.138 C 
BRANCH  19  21
ATOM     20  C   LIG    1       23.831 -20.879   4.166  0.00  0.00    +0.042 C 
ATOM     21  C   LIG    1       22.642 -20.498   5.060  0.00  0.00    +0.076 C 
ATOM     22  C   LIG    1       22.169 -19.085   4.715  0.00  0.00    +0.042 C 
BRANCH  21  23
ATOM     23  O   LIG    1       21.567 -21.408   4.778  0.00  0.00    -0.388 OA
ATOM     24  H   LIG    1       20.733 -20.965   5.017  0.00  0.00    +0.210 HD
ENDBRANCH  21  23
ENDBRANCH  19  21
ENDBRANCH  17  19
ENDBRANCH   1  17
BRANCH   5  25
ATOM     25  N   LIG    1       26.071 -25.589   5.943  0.00  0.00    -0.283 N 
ATOM     26  H   LIG    1       26.584 -25.587   5.071  0.00  0.00    +0.155 HD
BRANCH  25  27
ATOM     27  C   LIG    1       25.639 -26.813   6.465  0.00  0.00    +0.037 A 
ATOM     28  C   LIG    1       26.154 -27.358   7.644  0.00  0.00    +0.055 A 
ATOM     29  C   LIG    1       25.633 -28.539   8.174  0.00  0.00    +0.145 A 
ATOM     30  N   LIG    1       24.605 -29.196   7.576  0.00  0.00    -0.251 NA
ATOM     31  C   LIG    1       24.100 -28.654   6.447  0.00  0.00    +0.113 A 
ATOM     32  C   LIG    1       24.573 -27.484   5.870  0.00  0.00    +0.043 A 
BRANCH  29  33
ATOM     33  C   LIG    1       26.263 -29.076   9.450  0.00  0.00    +0.434 C 
ATOM     34  F   LIG    1       27.024 -28.143  10.097  0.00  0.00    -0.164 F 
ATOM     35  F   LIG    1       27.113 -30.121   9.209  0.00  0.00    -0.164 F 
ATOM     36  F   LIG    1       25.371 -29.531  10.374  0.00  0.00    -0.164 F 
ENDBRANCH  29  33
ENDBRANCH  25  27
ENDBRANCH   5  25
TORSDOF 9
ENDMDL
MODEL 4
REMARK VINA RESULT:      -9.0      1.843      8.404
REMARK  Name = *****
REMARK                            x       y       z     vdW  Elec       q    Type
REMARK                         _______ _______ _______ _____ _____    ______ ____
ROOT
ATOM      1  C   LIG    1       26.578 -20.112   5.462  0.00  0.00    +0.220 A 
ATOM      2  N   LIG    1       27.633 -19.471   5.930  0.00  0.00    -0.193 NA
ATOM      3  C   LIG    1       28.282 -20.103   6.924  0.00  0.00    +0.185 A 
ATOM      4  N   LIG    1       27.898 -21.264   7.457  0.00  0.00    -0.193 NA
ATOM      5  C   LIG    1       26.855 -21.843   6.897  0.00  0.00    +0.224 A 
ATOM      6  N   LIG    1       26.178 -21.290   5.888  0.00  0.00    -0.181 NA
ENDROOT
BRANCH   3   7
ATOM      7  C   LIG    1       29.523 -19.471   7.449  0.00  0.00    +0.109 A 
ATOM      8  N   LIG    1       29.430 -18.842   8.660  0.00  0.00    -0.240 NA
ATOM      9  C   LIG    1       30.535 -18.252   9.202  0.00  0.00    +0.144 A 
ATOM     10  C   LIG    1       31.765 -18.267   8.547  0.00  0.00    +0.032 A 
ATOM     11  C   LIG    1       31.863 -18.906   7.316  0.00  0.00    +0.004 A 
ATOM     12  C   LIG    1       30.738 -19.516   6.766  0.00  0.00    +0.031 A 
BRANCH   9  13
ATOM     13  C   LIG    1       30.404 -17.570  10.558  0.00  0.00    +0.434 C 
ATOM     14  F   LIG    1       31.335 -17.992  11.462  0.00  0.00    -0.164 F 
ATOM     15  F   LIG    1       29.189 -17.771  11.144  0.00  0.00    -0.164 F 
ATOM     16  F   LIG    1       30.553 -16.211  10.496  0.00  0.00    -0.164 F 
ENDBRANCH   9  13
ENDBRANCH   3   7
BRANCH   1  17
ATOM     17  N   LIG    1       25.888 -19.488   4.428  0.00  0.00    -0.311 N 
ATOM     18  H   LIG    1       25.669 -18.542   4.713  0.00  0.00    +0.149 HD
BRANCH  17  19
ATOM     19  C   LIG    1       24.742 -20.228   3.862  0.00  0.00    +0.138 C 
BRANCH  19  21
ATOM     20  C   LIG    1       22.371 -21.006   4.383  0.00  0.00    +0.042 C 
ATOM     21  C   LIG    1       23.430 -19.924   4.642  0.00  0.00    +0.076 C 
ATOM     22  C   LIG    1       22.867 -18.551   4.272  0.00  0.00    +0.042 C 
BRANCH  21  23
ATOM     23  O   LIG    1       23.723 -19.919   6.049  0.00  0.00    -0.388 OA
ATOM     24  H   LIG    1       23.561 -20.818   6.388  0.00  0.00    +0.210 HD
ENDBRANCH  21  23
ENDBRANCH  19  21
ENDBRANCH  17  19
ENDBRANCH   1  17
BRANCH   5  25
ATOM     25  N   LIG    1       26.475 -23.090   7.389  0.00  0.00    -0.283 N 
ATOM     26  H   LIG    1       27.010 -23.317   8.217  0.00  0.00    +0.155 HD
BRANCH  25  27
ATOM     27  C   LIG    1       25.580 -24.041   6.886  0.00  0.00    +0.037 A 
ATOM     28  C   LIG    1       25.982 -25.310   6.460  0.00  0.00    +0.055 A 
ATOM     29  C   LIG    1       25.045 -26.256   6.046  0.00  0.00    +0.145 A 
ATOM     30  N   LIG    1       23.713 -25.990   6.052  0.00  0.00    -0.251 NA
ATOM     31  C   LIG    1       23.330 -24.769   6.482  0.00  0.00    +0.113 A 
ATOM     32  C   LIG    1       24.211 -23.784   6.906  0.00  0.00    +0.043 A 
BRANCH  29  33
ATOM     33  C   LIG    1       25.567 -27.606   5.578  0.00  0.00    +0.434 C 
ATOM     34  F   LIG    1       24.710 -28.235   4.719  0.00  0.00    -0.164 F 
ATOM     35  F   LIG    1       25.737 -28.484   6.614  0.00  0.00    -0.164 F 
ATOM     36  F   LIG    1       26.767 -27.557   4.935  0.00  0.00    -0.164 F 
ENDBRANCH  29  33
ENDBRANCH  25  27
ENDBRANCH   5  25
TORSDOF 9
ENDMDL
MODEL 5
REMARK VINA RESULT:      -9.0      1.450      8.368
REMARK  Name = *****
REMARK                            x       y       z     vdW  Elec       q    Type
REMARK                         _______ _______ _______ _____ _____    ______ ____
ROOT
ATOM      1  C   LIG    1       25.954 -20.738   5.875  0.00  0.00    +0.220 A 
ATOM      2  N   LIG    1       27.069 -20.285   6.418  0.00  0.00    -0.193 NA
ATOM      3  C   LIG    1       27.647 -21.120   7.299  0.00  0.00    +0.185 A 
ATOM      4  N   LIG    1       27.144 -22.301   7.661  0.00  0.00    -0.193 NA
ATOM      5  C   LIG    1       26.047 -22.681   7.036  0.00  0.00    +0.224 A 
ATOM      6  N   LIG    1       25.432 -21.919   6.129  0.00  0.00    -0.181 NA
ENDROOT
BRANCH   3   7
ATOM      7  C   LIG    1       28.946 -20.704   7.894  0.00  0.00    +0.109 A 
ATOM      8  N   LIG    1       29.051 -19.401   8.295  0.00  0.00    -0.240 NA
ATOM      9  C   LIG    1       30.213 -18.958   8.858  0.00  0.00    +0.144 A 
ATOM     10  C   LIG    1       31.307 -19.803   9.033  0.00  0.00    +0.032 A 
ATOM     11  C   LIG    1       31.203 -21.129   8.628  0.00  0.00    +0.004 A 
ATOM     12  C   LIG    1       30.015 -21.584   8.060  0.00  0.00    +0.031 A 
BRANCH   9  13
ATOM     13  C   LIG    1       30.296 -17.504   9.306  0.00  0.00    +0.434 C 
ATOM     14  F   LIG    1       29.982 -17.330  10.622  0.00  0.00    -0.164 F 
ATOM     15  F   LIG    1       29.465 -16.679   8.607  0.00  0.00    -0.164 F 
ATOM     16  F   LIG    1       31.545 -16.965   9.160  0.00  0.00    -0.164 F 
ENDBRANCH   9  13
ENDBRANCH   3   7
BRANCH   1  17
ATOM     17  N   LIG    1       25.334 -19.900   4.954  0.00  0.00    -0.311 N 
ATOM     18  H   LIG    1       25.168 -19.005   5.394  0.00  0.00    +0.149 HD
BRANCH  17  19
ATOM     19  C   LIG    1       24.158 -20.452   4.250  0.00  0.00    +0.138 C 
BRANCH  19  21
ATOM     20  C   LIG    1       21.730 -21.089   4.691  0.00  0.00    +0.042 C 
ATOM     21  C   LIG    1       22.833 -20.055   4.964  0.00  0.00    +0.076 C 
ATOM     22  C   LIG    1       22.360 -18.667   4.529  0.00  0.00    +0.042 C 
BRANCH  21  23
ATOM     23  O   LIG    1       23.067 -20.021   6.381  0.00  0.00    -0.388 OA
ATOM     24  H   LIG    1       23.175 -20.940   6.686  0.00  0.00    +0.210 HD
ENDBRANCH  21  23
ENDBRANCH  19  21
ENDBRANCH  17  19
ENDBRANCH   1  17
BRANCH   5  25
ATOM     25  N   LIG    1       25.539 -23.941   7.345  0.00  0.00    -0.283 N 
ATOM     26  H   LIG    1       25.203 -23.959   8.298  0.00  0.00    +0.155 HD
BRANCH  25  27
ATOM     27  C   LIG    1       25.507 -25.125   6.599  0.00  0.00    +0.037 A 
ATOM     28  C   LIG    1       25.413 -26.389   7.188  0.00  0.00    +0.055 A 
ATOM     29  C   LIG    1       25.298 -27.537   6.403  0.00  0.00    +0.145 A 
ATOM     30  N   LIG    1       25.261 -27.473   5.047  0.00  0.00    -0.251 NA
ATOM     31  C   LIG    1       25.333 -26.247   4.485  0.00  0.00    +0.113 A 
ATOM     32  C   LIG    1       25.449 -25.068   5.209  0.00  0.00    +0.043 A 
BRANCH  29  33
ATOM     33  C   LIG    1       25.221 -28.875   7.121  0.00  0.00    +0.434 C 
ATOM     34  F   LIG    1       23.976 -29.137   7.620  0.00  0.00    -0.164 F 
ATOM     35  F   LIG    1       26.055 -28.932   8.204  0.00  0.00    -0.164 F 
ATOM     36  F   LIG    1       25.545 -29.951   6.350  0.00  0.00    -0.164 F 
ENDBRANCH  29  33
ENDBRANCH  25  27
ENDBRANCH   5  25
TORSDOF 9
ENDMDL
MODEL 6
REMARK VINA RESULT:      -8.7      1.442      1.943
REMARK  Name = *****
REMARK                            x       y       z     vdW  Elec       q    Type
REMARK                         _______ _______ _______ _____ _____    ______ ____
ROOT
ATOM      1  C   LIG    1       24.083 -22.367   6.900  0.00  0.00    +0.220 A 
ATOM      2  N   LIG    1       24.108 -23.584   6.390  0.00  0.00    -0.193 NA
ATOM      3  C   LIG    1       25.264 -24.247   6.568  0.00  0.00    +0.185 A 
ATOM      4  N   LIG    1       26.342 -23.737   7.165  0.00  0.00    -0.193 NA
ATOM      5  C   LIG    1       26.206 -22.528   7.674  0.00  0.00    +0.224 A 
ATOM      6  N   LIG    1       25.081 -21.820   7.563  0.00  0.00    -0.181 NA
ENDROOT
BRANCH   3   7
ATOM      7  C   LIG    1       25.336 -25.652   6.081  0.00  0.00    +0.109 A 
ATOM      8  N   LIG    1       25.259 -26.636   7.028  0.00  0.00    -0.240 NA
ATOM      9  C   LIG    1       25.308 -27.946   6.645  0.00  0.00    +0.144 A 
ATOM     10  C   LIG    1       25.441 -28.311   5.308  0.00  0.00    +0.032 A 
ATOM     11  C   LIG    1       25.518 -27.313   4.343  0.00  0.00    +0.004 A 
ATOM     12  C   LIG    1       25.460 -25.976   4.730  0.00  0.00    +0.031 A 
BRANCH   9  13
ATOM     13  C   LIG    1       25.208 -29.021   7.721  0.00  0.00    +0.434 C 
ATOM     14  F   LIG    1       25.835 -28.677   8.883  0.00  0.00    -0.164 F 
ATOM     15  F   LIG    1       25.749 -30.214   7.339  0.00  0.00    -0.164 F 
ATOM     16  F   LIG    1       23.919 -29.308   8.079  0.00  0.00    -0.164 F 
ENDBRANCH   9  13
ENDBRANCH   3   7
BRANCH   1  17
ATOM     17  N   LIG    1       22.899 -21.656   6.739  0.00  0.00    -0.311 N 
ATOM     18  H   LIG    1       22.290 -22.182   6.125  0.00  0.00    +0.149 HD
BRANCH  17  19
ATOM     19  C   LIG    1       23.032 -20.229   6.379  0.00  0.00    +0.138 C 
BRANCH  19  21
ATOM     20  C   LIG    1       24.406 -19.922   4.254  0.00  0.00    +0.042 C 
ATOM     21  C   LIG    1       22.988 -20.029   4.836  0.00  0.00    +0.076 C 
ATOM     22  C   LIG    1       22.179 -18.787   4.458  0.00  0.00    +0.042 C 
BRANCH  21  23
ATOM     23  O   LIG    1       22.351 -21.171   4.241  0.00  0.00    -0.388 OA
ATOM     24  H   LIG    1       23.044 -21.825   4.038  0.00  0.00    +0.210 HD
ENDBRANCH  21  23
ENDBRANCH  19  21
ENDBRANCH  17  19
ENDBRANCH   1  17
BRANCH   5  25
ATOM     25  N   LIG    1       27.295 -21.999   8.365  0.00  0.00    -0.283 N 
ATOM     26  H   LIG    1       27.177 -22.133   9.360  0.00  0.00    +0.155 HD
BRANCH  25  27
ATOM     27  C   LIG    1       28.410 -21.286   7.911  0.00  0.00    +0.037 A 
ATOM     28  C   LIG    1       28.326 -20.288   6.937  0.00  0.00    +0.055 A 
ATOM     29  C   LIG    1       29.449 -19.543   6.577  0.00  0.00    +0.145 A 
ATOM     30  N   LIG    1       30.658 -19.748   7.161  0.00  0.00    -0.251 NA
ATOM     31  C   LIG    1       30.728 -20.701   8.115  0.00  0.00    +0.113 A 
ATOM     32  C   LIG    1       29.650 -21.476   8.518  0.00  0.00    +0.043 A 
BRANCH  29  33
ATOM     33  C   LIG    1       29.277 -18.489   5.494  0.00  0.00    +0.434 C 
ATOM     34  F   LIG    1       30.309 -18.477   4.598  0.00  0.00    -0.164 F 
ATOM     35  F   LIG    1       29.238 -17.220   6.006  0.00  0.00    -0.164 F 
ATOM     36  F   LIG    1       28.143 -18.620   4.750  0.00  0.00    -0.164 F 
ENDBRANCH  29  33
ENDBRANCH  25  27
ENDBRANCH   5  25
TORSDOF 9
ENDMDL
MODEL 7
REMARK VINA RESULT:      -8.6      4.062      7.245
REMARK  Name = *****
REMARK                            x       y       z     vdW  Elec       q    Type
REMARK                         _______ _______ _______ _____ _____    ______ ____
ROOT
ATOM      1  C   LIG    1       24.700 -28.963   6.396  0.00  0.00    +0.220 A 
ATOM      2  N   LIG    1       25.273 -29.333   7.527  0.00  0.00    -0.193 NA
ATOM      3  C   LIG    1       25.941 -28.357   8.167  0.00  0.00    +0.185 A 
ATOM      4  N   LIG    1       26.079 -27.112   7.708  0.00  0.00    -0.193 NA
ATOM      5  C   LIG    1       25.440 -26.831   6.590  0.00  0.00    +0.224 A 
ATOM      6  N   LIG    1       24.733 -27.739   5.914  0.00  0.00    -0.181 NA
ENDROOT
BRANCH   3   7
ATOM      7  C   LIG    1       26.550 -28.687   9.484  0.00  0.00    +0.109 A 
ATOM      8  N   LIG    1       26.412 -27.756  10.476  0.00  0.00    -0.240 NA
ATOM      9  C   LIG    1       26.938 -28.002  11.712  0.00  0.00    +0.144 A 
ATOM     10  C   LIG    1       27.623 -29.183  11.991  0.00  0.00    +0.032 A 
ATOM     11  C   LIG    1       27.763 -30.132  10.984  0.00  0.00    +0.004 A 
ATOM     12  C   LIG    1       27.220 -29.886   9.726  0.00  0.00    +0.031 A 
BRANCH   9  13
ATOM     13  C   LIG    1       26.759 -26.952  12.801  0.00  0.00    +0.434 C 
ATOM     14  F   LIG    1       27.381 -27.280  13.970  0.00  0.00    -0.164 F 
ATOM     15  F   LIG    1       25.451 -26.727  13.119  0.00  0.00    -0.164 F 
ATOM     16  F   LIG    1       27.261 -25.726  12.458  0.00  0.00    -0.164 F 
ENDBRANCH   9  13
ENDBRANCH   3   7
BRANCH   1  17
ATOM     17  N   LIG    1       23.994 -29.948   5.713  0.00  0.00    -0.311 N 
ATOM     18  H   LIG    1       23.041 -29.633   5.589  0.00  0.00    +0.149 HD
BRANCH  17  19
ATOM     19  C   LIG    1       24.110 -31.324   6.239  0.00  0.00    +0.138 C 
BRANCH  19  21
ATOM     20  C   LIG    1       24.466 -33.603   5.155  0.00  0.00    +0.042 C 
ATOM     21  C   LIG    1       25.045 -32.194   5.349  0.00  0.00    +0.076 C 
ATOM     22  C   LIG    1       26.450 -32.290   5.944  0.00  0.00    +0.042 C 
BRANCH  21  23
ATOM     23  O   LIG    1       25.152 -31.578   4.055  0.00  0.00    -0.388 OA
ATOM     24  H   LIG    1       26.065 -31.704   3.741  0.00  0.00    +0.210 HD
ENDBRANCH  21  23
ENDBRANCH  19  21
ENDBRANCH  17  19
ENDBRANCH   1  17
BRANCH   5  25
ATOM     25  N   LIG    1       25.511 -25.518   6.126  0.00  0.00    -0.283 N 
ATOM     26  H   LIG    1       26.074 -25.474   5.288  0.00  0.00    +0.155 HD
BRANCH  25  27
ATOM     27  C   LIG    1       25.015 -24.327   6.667  0.00  0.00    +0.037 A 
ATOM     28  C   LIG    1       25.845 -23.319   7.167  0.00  0.00    +0.055 A 
ATOM     29  C   LIG    1       25.311 -22.112   7.618  0.00  0.00    +0.145 A 
ATOM     30  N   LIG    1       23.976 -21.863   7.578  0.00  0.00    -0.251 NA
ATOM     31  C   LIG    1       23.183 -22.834   7.077  0.00  0.00    +0.113 A 
ATOM     32  C   LIG    1       23.650 -24.055   6.613  0.00  0.00    +0.043 A 
BRANCH  29  33
ATOM     33  C   LIG    1       26.280 -21.075   8.165  0.00  0.00    +0.434 C 
ATOM     34  F   LIG    1       26.539 -20.071   7.275  0.00  0.00    -0.164 F 
ATOM     35  F   LIG    1       27.504 -21.612   8.459  0.00  0.00    -0.164 F 
ATOM     36  F   LIG    1       25.864 -20.459   9.308  0.00  0.00    -0.164 F 
ENDBRANCH  29  33
ENDBRANCH  25  27
ENDBRANCH   5  25
TORSDOF 9
ENDMDL
MODEL 8
REMARK VINA RESULT:      -8.3      3.927      8.888
REMARK  Name = *****
REMARK                            x       y       z     vdW  Elec       q    Type
REMARK                         _______ _______ _______ _____ _____    ______ ____
ROOT
ATOM      1  C   LIG    1       27.538 -21.731   7.343  0.00  0.00    +0.220 A 
ATOM      2  N   LIG    1       27.131 -20.784   6.517  0.00  0.00    -0.193 NA
ATOM      3  C   LIG    1       26.008 -21.073   5.837  0.00  0.00    +0.185 A 
ATOM      4  N   LIG    1       25.350 -22.230   5.924  0.00  0.00    -0.193 NA
ATOM      5  C   LIG    1       25.813 -23.097   6.803  0.00  0.00    +0.224 A 
ATOM      6  N   LIG    1       26.906 -22.869   7.534  0.00  0.00    -0.181 NA
ENDROOT
BRANCH   3   7
ATOM      7  C   LIG    1       25.453 -20.020   4.942  0.00  0.00    +0.109 A 
ATOM      8  N   LIG    1       24.101 -19.823   4.990  0.00  0.00    -0.240 NA
ATOM      9  C   LIG    1       23.530 -18.865   4.202  0.00  0.00    +0.144 A 
ATOM     10  C   LIG    1       24.292 -18.080   3.339  0.00  0.00    +0.032 A 
ATOM     11  C   LIG    1       25.668 -18.278   3.290  0.00  0.00    +0.004 A 
ATOM     12  C   LIG    1       26.252 -19.250   4.099  0.00  0.00    +0.031 A 
BRANCH   9  13
ATOM     13  C   LIG    1       22.023 -18.658   4.285  0.00  0.00    +0.434 C 
ATOM     14  F   LIG    1       21.666 -17.640   5.121  0.00  0.00    -0.164 F 
ATOM     15  F   LIG    1       21.353 -19.762   4.727  0.00  0.00    -0.164 F 
ATOM     16  F   LIG    1       21.453 -18.349   3.080  0.00  0.00    -0.164 F 
ENDBRANCH   9  13
ENDBRANCH   3   7
BRANCH   1  17
ATOM     17  N   LIG    1       28.695 -21.460   8.066  0.00  0.00    -0.311 N 
ATOM     18  H   LIG    1       28.516 -21.659   9.042  0.00  0.00    +0.149 HD
BRANCH  17  19
ATOM     19  C   LIG    1       29.330 -20.149   7.825  0.00  0.00    +0.138 C 
BRANCH  19  21
ATOM     20  C   LIG    1       31.177 -21.464   8.989  0.00  0.00    +0.042 C 
ATOM     21  C   LIG    1       30.814 -20.143   8.294  0.00  0.00    +0.076 C 
ATOM     22  C   LIG    1       31.097 -18.970   9.232  0.00  0.00    +0.042 C 
BRANCH  21  23
ATOM     23  O   LIG    1       31.660 -20.004   7.141  0.00  0.00    -0.388 OA
ATOM     24  H   LIG    1       32.153 -20.837   7.032  0.00  0.00    +0.210 HD
ENDBRANCH  21  23
ENDBRANCH  19  21
ENDBRANCH  17  19
ENDBRANCH   1  17
BRANCH   5  25
ATOM     25  N   LIG    1       25.104 -24.285   6.964  0.00  0.00    -0.283 N 
ATOM     26  H   LIG    1       24.381 -24.170   7.661  0.00  0.00    +0.155 HD
BRANCH  25  27
ATOM     27  C   LIG    1       25.293 -25.550   6.395  0.00  0.00    +0.037 A 
ATOM     28  C   LIG    1       25.173 -26.735   7.126  0.00  0.00    +0.055 A 
ATOM     29  C   LIG    1       25.285 -27.976   6.500  0.00  0.00    +0.145 A 
ATOM     30  N   LIG    1       25.502 -28.084   5.164  0.00  0.00    -0.251 NA
ATOM     31  C   LIG    1       25.599 -26.935   4.460  0.00  0.00    +0.113 A 
ATOM     32  C   LIG    1       25.497 -25.671   5.023  0.00  0.00    +0.043 A 
BRANCH  29  33
ATOM     33  C   LIG    1       25.161 -29.218   7.371  0.00  0.00    +0.434 C 
ATOM     34  F   LIG    1       25.973 -29.176   8.469  0.00  0.00    -0.164 F 
ATOM     35  F   LIG    1       25.525 -30.357   6.705  0.00  0.00    -0.164 F 
ATOM     36  F   LIG    1       23.906 -29.453   7.846  0.00  0.00    -0.164 F 
ENDBRANCH  29  33
ENDBRANCH  25  27
ENDBRANCH   5  25
TORSDOF 9
ENDMDL
MODEL 9
REMARK VINA RESULT:      -8.2      3.938      7.275
REMARK  Name = *****
REMARK                            x       y       z     vdW  Elec       q    Type
REMARK                         _______ _______ _______ _____ _____    ______ ____
ROOT
ATOM      1  C   LIG    1       25.218 -29.185   5.796  0.00  0.00    +0.220 A 
ATOM      2  N   LIG    1       25.409 -29.608   7.032  0.00  0.00    -0.193 NA
ATOM      3  C   LIG    1       25.767 -28.651   7.907  0.00  0.00    +0.185 A 
ATOM      4  N   LIG    1       25.970 -27.373   7.585  0.00  0.00    -0.193 NA
ATOM      5  C   LIG    1       25.719 -27.042   6.334  0.00  0.00    +0.224 A 
ATOM      6  N   LIG    1       25.332 -27.931   5.416  0.00  0.00    -0.181 NA
ENDROOT
BRANCH   3   7
ATOM      7  C   LIG    1       25.927 -29.045   9.334  0.00  0.00    +0.109 A 
ATOM      8  N   LIG    1       25.261 -30.168   9.740  0.00  0.00    -0.240 NA
ATOM      9  C   LIG    1       25.375 -30.589  11.035  0.00  0.00    +0.144 A 
ATOM     10  C   LIG    1       26.152 -29.897  11.961  0.00  0.00    +0.032 A 
ATOM     11  C   LIG    1       26.831 -28.756  11.549  0.00  0.00    +0.004 A 
ATOM     12  C   LIG    1       26.722 -28.330  10.228  0.00  0.00    +0.031 A 
BRANCH   9  13
ATOM     13  C   LIG    1       24.632 -31.851  11.456  0.00  0.00    +0.434 C 
ATOM     14  F   LIG    1       23.923 -32.421  10.440  0.00  0.00    -0.164 F 
ATOM     15  F   LIG    1       23.740 -31.637  12.466  0.00  0.00    -0.164 F 
ATOM     16  F   LIG    1       25.462 -32.839  11.913  0.00  0.00    -0.164 F 
ENDBRANCH   9  13
ENDBRANCH   3   7
BRANCH   1  17
ATOM     17  N   LIG    1       24.840 -30.149   4.868  0.00  0.00    -0.311 N 
ATOM     18  H   LIG    1       23.829 -30.164   4.813  0.00  0.00    +0.149 HD
BRANCH  17  19
ATOM     19  C   LIG    1       25.454 -31.484   5.020  0.00  0.00    +0.138 C 
BRANCH  19  21
ATOM     20  C   LIG    1       24.887 -33.194   6.823  0.00  0.00    +0.042 C 
ATOM     21  C   LIG    1       24.416 -32.531   5.521  0.00  0.00    +0.076 C 
ATOM     22  C   LIG    1       24.151 -33.603   4.462  0.00  0.00    +0.042 C 
BRANCH  21  23
ATOM     23  O   LIG    1       23.176 -31.857   5.790  0.00  0.00    -0.388 OA
ATOM     24  H   LIG    1       22.722 -32.344   6.501  0.00  0.00    +0.210 HD
ENDBRANCH  21  23
ENDBRANCH  19  21
ENDBRANCH  17  19
ENDBRANCH   1  17
BRANCH   5  25
ATOM     25  N   LIG    1       25.856 -25.699   5.988  0.00  0.00    -0.283 N 
ATOM     26  H   LIG    1       26.564 -25.593   5.273  0.00  0.00    +0.155 HD
BRANCH  25  27
ATOM     27  C   LIG    1       25.254 -24.550   6.513  0.00  0.00    +0.037 A 
ATOM     28  C   LIG    1       25.987 -23.457   6.983  0.00  0.00    +0.055 A 
ATOM     29  C   LIG    1       25.344 -22.299   7.418  0.00  0.00    +0.145 A 
ATOM     30  N   LIG    1       23.992 -22.181   7.393  0.00  0.00    -0.251 NA
ATOM     31  C   LIG    1       23.290 -23.234   6.920  0.00  0.00    +0.113 A 
ATOM     32  C   LIG    1       23.868 -24.414   6.474  0.00  0.00    +0.043 A 
BRANCH  29  33
ATOM     33  C   LIG    1       26.215 -21.162   7.933  0.00  0.00    +0.434 C 
ATOM     34  F   LIG    1       27.410 -21.596   8.434  0.00  0.00    -0.164 F 
ATOM     35  F   LIG    1       25.624 -20.482   8.963  0.00  0.00    -0.164 F 
ATOM     36  F   LIG    1       26.525 -20.219   6.999  0.00  0.00    -0.164 F 
ENDBRANCH  29  33
ENDBRANCH  25  27
ENDBRANCH   5  25
TORSDOF 9
ENDMDL
