MODEL 1
REMARK VINA RESULT:      -9.3      0.000      0.000
REMARK  Name = *****
REMARK                            x       y       z     vdW  Elec       q    Type
REMARK                         _______ _______ _______ _____ _____    ______ ____
ROOT
ATOM      1  C   LIG    1       24.795 -22.710   6.299  0.00  0.00    +0.061 A 
ATOM      2  C   LIG    1       25.135 -21.514   5.599  0.00  0.00    +0.082 A 
ATOM      3  C   LIG    1       24.055 -20.727   5.154  0.00  0.00    +0.180 A 
ATOM      4  F   LIG    1       24.252 -19.726   4.281  0.00  0.00    -0.201 F 
ATOM      5  C   LIG    1       22.744 -20.981   5.550  0.00  0.00    +0.160 A 
ATOM      6  F   LIG    1       21.751 -20.187   5.125  0.00  0.00    -0.202 F 
ATOM      7  C   LIG    1       22.448 -22.044   6.384  0.00  0.00    +0.042 A 
ATOM      8  C   LIG    1       23.470 -22.922   6.742  0.00  0.00    +0.018 A 
ENDROOT
BRANCH   1  10
ATOM      9  O   LIG    1       26.775 -23.425   7.345  0.00  0.00    -0.270 OA
ATOM     10  C   LIG    1       25.834 -23.739   6.637  0.00  0.00    +0.249 C 
ATOM     11  N   LIG    1       25.661 -25.037   6.174  0.00  0.00    -0.292 N 
ATOM     12  C   LIG    1       25.333 -25.563   4.841  0.00  0.00    +0.146 C 
ATOM     13  C   LIG    1       25.667 -26.975   5.448  0.00  0.00    +0.112 C 
ATOM     14  C   LIG    1       26.577 -26.150   6.421  0.00  0.00    +0.146 C 
BRANCH  13  15
ATOM     15  C   LIG    1       24.405 -27.651   6.086  0.00  0.00    +0.088 C 
ATOM     16  N   LIG    1       23.745 -28.646   5.212  0.00  0.00    -0.310 NA
ATOM     17  H   LIG    1       22.779 -28.751   5.524  0.00  0.00    +0.122 HD
ATOM     18  C   LIG    1       24.362 -29.975   5.242  0.00  0.00    +0.081 C 
ATOM     19  C   LIG    1       24.484 -30.537   6.656  0.00  0.00    +0.015 C 
ATOM     20  C   LIG    1       25.242 -29.583   7.565  0.00  0.00    +0.003 C 
ATOM     21  C   LIG    1       24.629 -28.190   7.509  0.00  0.00    +0.021 C 
ENDBRANCH  13  15
BRANCH  13  22
ATOM     22  O   LIG    1       26.391 -27.865   4.555  0.00  0.00    -0.384 OA
ATOM     23  H   LIG    1       27.224 -28.067   5.009  0.00  0.00    +0.210 HD
ENDBRANCH  13  22
ENDBRANCH   1  10
BRANCH   2  24
ATOM     24  N   LIG    1       26.491 -21.133   5.379  0.00  0.00    -0.309 N 
ATOM     25  H   LIG    1       26.987 -21.806   4.777  0.00  0.00    +0.152 HD
BRANCH  24  26
ATOM     26  C   LIG    1       27.430 -20.429   6.192  0.00  0.00    +0.067 A 
ATOM     27  C   LIG    1       27.155 -20.252   7.565  0.00  0.00    +0.145 A 
ATOM     28  F   LIG    1       25.994 -20.700   8.066  0.00  0.00    -0.203 F 
ATOM     29  C   LIG    1       28.037 -19.601   8.437  0.00  0.00    +0.054 A 
ATOM     30  C   LIG    1       29.240 -19.112   7.948  0.00  0.00    +0.016 A 
ATOM     31  I   LIG    1       30.566 -18.114   9.199  0.00  0.00    -0.044 I 
ATOM     32  C   LIG    1       29.559 -19.284   6.606  0.00  0.00    +0.016 A 
ATOM     33  C   LIG    1       28.663 -19.938   5.744  0.00  0.00    +0.027 A 
ENDBRANCH  24  26
ENDBRANCH   2  24
TORSDOF 5
ENDMDL
MODEL 2
REMARK VINA RESULT:      -8.9      5.050      8.319
REMARK  Name = *****
REMARK                            x       y       z     vdW  Elec       q    Type
REMARK                         _______ _______ _______ _____ _____    ______ ____
ROOT
ATOM      1  C   LIG    1       27.417 -20.453   6.702  0.00  0.00    +0.061 A 
ATOM      2  C   LIG    1       26.384 -20.310   5.728  0.00  0.00    +0.082 A 
ATOM      3  C   LIG    1       25.122 -20.826   6.080  0.00  0.00    +0.180 A 
ATOM      4  F   LIG    1       24.158 -20.967   5.157  0.00  0.00    -0.201 F 
ATOM      5  C   LIG    1       24.836 -21.259   7.373  0.00  0.00    +0.160 A 
ATOM      6  F   LIG    1       23.612 -21.716   7.671  0.00  0.00    -0.202 F 
ATOM      7  C   LIG    1       25.802 -21.221   8.363  0.00  0.00    +0.042 A 
ATOM      8  C   LIG    1       27.098 -20.838   8.024  0.00  0.00    +0.018 A 
ENDROOT
BRANCH   1  10
ATOM      9  O   LIG    1       29.237 -20.270   5.226  0.00  0.00    -0.270 OA
ATOM     10  C   LIG    1       28.848 -20.142   6.374  0.00  0.00    +0.249 C 
ATOM     11  N   LIG    1       29.673 -19.662   7.383  0.00  0.00    -0.292 N 
ATOM     12  C   LIG    1       29.916 -20.136   8.754  0.00  0.00    +0.146 C 
ATOM     13  C   LIG    1       31.095 -19.095   8.776  0.00  0.00    +0.112 C 
ATOM     14  C   LIG    1       31.084 -19.308   7.223  0.00  0.00    +0.146 C 
BRANCH  13  15
ATOM     15  C   LIG    1       30.627 -17.689   9.284  0.00  0.00    +0.088 C 
ATOM     16  N   LIG    1       30.077 -17.696  10.659  0.00  0.00    -0.310 NA
ATOM     17  H   LIG    1       29.481 -16.875  10.766  0.00  0.00    +0.122 HD
ATOM     18  C   LIG    1       31.095 -17.639  11.712  0.00  0.00    +0.081 C 
ATOM     19  C   LIG    1       32.049 -16.459  11.547  0.00  0.00    +0.015 C 
ATOM     20  C   LIG    1       32.708 -16.468  10.177  0.00  0.00    +0.003 C 
ATOM     21  C   LIG    1       31.657 -16.567   9.079  0.00  0.00    +0.021 C 
ENDBRANCH  13  15
BRANCH  13  22
ATOM     22  O   LIG    1       32.303 -19.560   9.438  0.00  0.00    -0.384 OA
ATOM     23  H   LIG    1       32.910 -18.803   9.434  0.00  0.00    +0.210 HD
ENDBRANCH  13  22
ENDBRANCH   1  10
BRANCH   2  24
ATOM     24  N   LIG    1       26.616 -19.665   4.477  0.00  0.00    -0.309 N 
ATOM     25  H   LIG    1       27.323 -20.160   3.914  0.00  0.00    +0.152 HD
BRANCH  24  26
ATOM     26  C   LIG    1       26.560 -18.293   4.083  0.00  0.00    +0.067 A 
ATOM     27  C   LIG    1       25.363 -17.782   3.540  0.00  0.00    +0.145 A 
ATOM     28  F   LIG    1       24.319 -18.606   3.354  0.00  0.00    -0.203 F 
ATOM     29  C   LIG    1       25.214 -16.443   3.158  0.00  0.00    +0.054 A 
ATOM     30  C   LIG    1       26.279 -15.567   3.323  0.00  0.00    +0.016 A 
ATOM     31  I   LIG    1       26.115 -13.578   2.743  0.00  0.00    -0.044 I 
ATOM     32  C   LIG    1       27.470 -16.026   3.874  0.00  0.00    +0.016 A 
ATOM     33  C   LIG    1       27.602 -17.373   4.251  0.00  0.00    +0.027 A 
ENDBRANCH  24  26
ENDBRANCH   2  24
TORSDOF 5
ENDMDL
MODEL 3
REMARK VINA RESULT:      -8.3      1.650      1.964
REMARK  Name = *****
REMARK                            x       y       z     vdW  Elec       q    Type
REMARK                         _______ _______ _______ _____ _____    ______ ____
ROOT
ATOM      1  C   LIG    1       24.622 -21.234   6.412  0.00  0.00    +0.061 A 
ATOM      2  C   LIG    1       25.366 -20.634   5.353  0.00  0.00    +0.082 A 
ATOM      3  C   LIG    1       24.626 -19.869   4.429  0.00  0.00    +0.180 A 
ATOM      4  F   LIG    1       25.178 -19.473   3.272  0.00  0.00    -0.201 F 
ATOM      5  C   LIG    1       23.291 -19.541   4.646  0.00  0.00    +0.160 A 
ATOM      6  F   LIG    1       22.634 -18.786   3.754  0.00  0.00    -0.202 F 
ATOM      7  C   LIG    1       22.627 -19.979   5.778  0.00  0.00    +0.042 A 
ATOM      8  C   LIG    1       23.285 -20.843   6.651  0.00  0.00    +0.018 A 
ENDROOT
BRANCH   1  10
ATOM      9  O   LIG    1       25.579 -21.896   8.455  0.00  0.00    -0.270 OA
ATOM     10  C   LIG    1       25.249 -22.240   7.333  0.00  0.00    +0.249 C 
ATOM     11  N   LIG    1       25.381 -23.551   6.895  0.00  0.00    -0.292 N 
ATOM     12  C   LIG    1       25.915 -24.114   5.646  0.00  0.00    +0.146 C 
ATOM     13  C   LIG    1       25.813 -25.506   6.371  0.00  0.00    +0.112 C 
ATOM     14  C   LIG    1       25.963 -24.646   7.672  0.00  0.00    +0.146 C 
BRANCH  13  15
ATOM     15  C   LIG    1       24.418 -26.183   6.146  0.00  0.00    +0.088 C 
ATOM     16  N   LIG    1       24.101 -26.458   4.726  0.00  0.00    -0.310 NA
ATOM     17  H   LIG    1       23.087 -26.539   4.638  0.00  0.00    +0.122 HD
ATOM     18  C   LIG    1       24.686 -27.698   4.211  0.00  0.00    +0.081 C 
ATOM     19  C   LIG    1       24.331 -28.916   5.060  0.00  0.00    +0.015 C 
ATOM     20  C   LIG    1       24.728 -28.710   6.513  0.00  0.00    +0.003 C 
ATOM     21  C   LIG    1       24.155 -27.403   7.044  0.00  0.00    +0.021 C 
ENDBRANCH  13  15
BRANCH  13  22
ATOM     22  O   LIG    1       26.925 -26.408   6.114  0.00  0.00    -0.384 OA
ATOM     23  H   LIG    1       26.933 -26.543   5.153  0.00  0.00    +0.210 HD
ENDBRANCH  13  22
ENDBRANCH   1  10
BRANCH   2  24
ATOM     24  N   LIG    1       26.780 -20.788   5.247  0.00  0.00    -0.309 N 
ATOM     25  H   LIG    1       27.039 -21.699   4.843  0.00  0.00    +0.152 HD
BRANCH  24  26
ATOM     26  C   LIG    1       27.858 -20.287   6.040  0.00  0.00    +0.067 A 
ATOM     27  C   LIG    1       28.462 -19.062   5.685  0.00  0.00    +0.145 A 
ATOM     28  F   LIG    1       28.048 -18.419   4.582  0.00  0.00    -0.203 F 
ATOM     29  C   LIG    1       29.502 -18.486   6.426  0.00  0.00    +0.054 A 
ATOM     30  C   LIG    1       29.964 -19.132   7.564  0.00  0.00    +0.016 A 
ATOM     31  I   LIG    1       31.525 -18.331   8.678  0.00  0.00    -0.044 I 
ATOM     32  C   LIG    1       29.382 -20.331   7.960  0.00  0.00    +0.016 A 
ATOM     33  C   LIG    1       28.340 -20.895   7.205  0.00  0.00    +0.027 A 
ENDBRANCH  24  26
ENDBRANCH   2  24
TORSDOF 5
ENDMDL
MODEL 4
REMARK VINA RESULT:      -7.7      5.825      8.943
REMARK  Name = *****
REMARK                            x       y       z     vdW  Elec       q    Type
REMARK                         _______ _______ _______ _____ _____    ______ ____
ROOT
ATOM      1  C   LIG    1       26.668 -31.842   8.042  0.00  0.00    +0.061 A 
ATOM      2  C   LIG    1       25.917 -31.191   7.018  0.00  0.00    +0.082 A 
ATOM      3  C   LIG    1       26.131 -31.650   5.704  0.00  0.00    +0.180 A 
ATOM      4  F   LIG    1       25.672 -30.953   4.652  0.00  0.00    -0.201 F 
ATOM      5  C   LIG    1       26.865 -32.802   5.435  0.00  0.00    +0.160 A 
ATOM      6  F   LIG    1       27.018 -33.219   4.170  0.00  0.00    -0.202 F 
ATOM      7  C   LIG    1       27.439 -33.533   6.460  0.00  0.00    +0.042 A 
ATOM      8  C   LIG    1       27.359 -33.042   7.762  0.00  0.00    +0.018 A 
ENDROOT
BRANCH   1  10
ATOM      9  O   LIG    1       27.740 -30.879   9.900  0.00  0.00    -0.270 OA
ATOM     10  C   LIG    1       26.695 -31.312   9.446  0.00  0.00    +0.249 C 
ATOM     11  N   LIG    1       25.509 -31.280  10.168  0.00  0.00    -0.292 N 
ATOM     12  C   LIG    1       24.476 -32.302  10.395  0.00  0.00    +0.146 C 
ATOM     13  C   LIG    1       23.889 -31.301  11.456  0.00  0.00    +0.112 C 
ATOM     14  C   LIG    1       25.368 -30.790  11.540  0.00  0.00    +0.146 C 
BRANCH  13  15
ATOM     15  C   LIG    1       22.852 -30.314  10.819  0.00  0.00    +0.088 C 
ATOM     16  N   LIG    1       21.954 -30.941   9.823  0.00  0.00    -0.310 NA
ATOM     17  H   LIG    1       21.591 -30.206   9.215  0.00  0.00    +0.122 HD
ATOM     18  C   LIG    1       20.802 -31.634  10.406  0.00  0.00    +0.081 C 
ATOM     19  C   LIG    1       19.988 -30.743  11.340  0.00  0.00    +0.015 C 
ATOM     20  C   LIG    1       20.859 -30.152  12.438  0.00  0.00    +0.003 C 
ATOM     21  C   LIG    1       22.078 -29.463  11.840  0.00  0.00    +0.021 C 
ENDBRANCH  13  15
BRANCH  13  22
ATOM     22  O   LIG    1       23.398 -31.925  12.675  0.00  0.00    -0.384 OA
ATOM     23  H   LIG    1       23.782 -32.816  12.684  0.00  0.00    +0.210 HD
ENDBRANCH  13  22
ENDBRANCH   1  10
BRANCH   2  24
ATOM     24  N   LIG    1       24.991 -30.147   7.314  0.00  0.00    -0.309 N 
ATOM     25  H   LIG    1       24.029 -30.503   7.416  0.00  0.00    +0.152 HD
BRANCH  24  26
ATOM     26  C   LIG    1       24.959 -28.766   6.951  0.00  0.00    +0.067 A 
ATOM     27  C   LIG    1       25.791 -27.855   7.635  0.00  0.00    +0.145 A 
ATOM     28  F   LIG    1       26.555 -28.294   8.648  0.00  0.00    -0.203 F 
ATOM     29  C   LIG    1       25.843 -26.491   7.320  0.00  0.00    +0.054 A 
ATOM     30  C   LIG    1       25.054 -26.002   6.288  0.00  0.00    +0.016 A 
ATOM     31  I   LIG    1       25.076 -23.980   5.804  0.00  0.00    -0.044 I 
ATOM     32  C   LIG    1       24.235 -26.870   5.575  0.00  0.00    +0.016 A 
ATOM     33  C   LIG    1       24.195 -28.235   5.905  0.00  0.00    +0.027 A 
ENDBRANCH  24  26
ENDBRANCH   2  24
TORSDOF 5
ENDMDL
MODEL 5
REMARK VINA RESULT:      -7.5      3.194      4.977
REMARK  Name = *****
REMARK                            x       y       z     vdW  Elec       q    Type
REMARK                         _______ _______ _______ _____ _____    ______ ____
ROOT
ATOM      1  C   LIG    1       27.229 -20.764   6.614  0.00  0.00    +0.061 A 
ATOM      2  C   LIG    1       28.094 -19.861   5.927  0.00  0.00    +0.082 A 
ATOM      3  C   LIG    1       29.302 -19.540   6.578  0.00  0.00    +0.180 A 
ATOM      4  F   LIG    1       30.063 -18.524   6.145  0.00  0.00    -0.201 F 
ATOM      5  C   LIG    1       29.728 -20.218   7.717  0.00  0.00    +0.160 A 
ATOM      6  F   LIG    1       30.899 -19.900   8.287  0.00  0.00    -0.202 F 
ATOM      7  C   LIG    1       28.960 -21.226   8.272  0.00  0.00    +0.042 A 
ATOM      8  C   LIG    1       27.701 -21.485   7.734  0.00  0.00    +0.018 A 
ENDROOT
BRANCH   1  10
ATOM      9  O   LIG    1       25.175 -20.095   5.689  0.00  0.00    -0.270 OA
ATOM     10  C   LIG    1       25.830 -21.020   6.136  0.00  0.00    +0.249 C 
ATOM     11  N   LIG    1       25.343 -22.320   6.168  0.00  0.00    -0.292 N 
ATOM     12  C   LIG    1       25.346 -23.339   7.228  0.00  0.00    +0.146 C 
ATOM     13  C   LIG    1       24.385 -24.151   6.285  0.00  0.00    +0.112 C 
ATOM     14  C   LIG    1       24.009 -22.733   5.733  0.00  0.00    +0.146 C 
BRANCH  13  15
ATOM     15  C   LIG    1       25.175 -25.086   5.308  0.00  0.00    +0.088 C 
ATOM     16  N   LIG    1       26.470 -25.565   5.844  0.00  0.00    -0.310 NA
ATOM     17  H   LIG    1       27.059 -25.834   5.055  0.00  0.00    +0.122 HD
ATOM     18  C   LIG    1       26.360 -26.729   6.726  0.00  0.00    +0.081 C 
ATOM     19  C   LIG    1       25.612 -27.892   6.079  0.00  0.00    +0.015 C 
ATOM     20  C   LIG    1       24.235 -27.463   5.598  0.00  0.00    +0.003 C 
ATOM     21  C   LIG    1       24.338 -26.230   4.711  0.00  0.00    +0.021 C 
ENDBRANCH  13  15
BRANCH  13  22
ATOM     22  O   LIG    1       23.300 -24.838   6.969  0.00  0.00    -0.384 OA
ATOM     23  H   LIG    1       22.655 -25.058   6.278  0.00  0.00    +0.210 HD
ENDBRANCH  13  22
ENDBRANCH   1  10
BRANCH   2  24
ATOM     24  N   LIG    1       27.760 -19.328   4.646  0.00  0.00    -0.309 N 
ATOM     25  H   LIG    1       28.264 -19.807   3.887  0.00  0.00    +0.152 HD
BRANCH  24  26
ATOM     26  C   LIG    1       27.384 -18.016   4.226  0.00  0.00    +0.067 A 
ATOM     27  C   LIG    1       26.176 -17.840   3.518  0.00  0.00    +0.145 A 
ATOM     28  F   LIG    1       25.432 -18.914   3.209  0.00  0.00    -0.203 F 
ATOM     29  C   LIG    1       25.720 -16.585   3.097  0.00  0.00    +0.054 A 
ATOM     30  C   LIG    1       26.473 -15.455   3.388  0.00  0.00    +0.016 A 
ATOM     31  I   LIG    1       25.850 -13.575   2.758  0.00  0.00    -0.044 I 
ATOM     32  C   LIG    1       27.659 -15.583   4.101  0.00  0.00    +0.016 A 
ATOM     33  C   LIG    1       28.103 -16.850   4.515  0.00  0.00    +0.027 A 
ENDBRANCH  24  26
ENDBRANCH   2  24
TORSDOF 5
ENDMDL
MODEL 6
REMARK VINA RESULT:      -7.3      5.795      8.528
REMARK  Name = *****
REMARK                            x       y       z     vdW  Elec       q    Type
REMARK                         _______ _______ _______ _____ _____    ______ ____
ROOT
ATOM      1  C   LIG    1       25.097 -30.159   8.971  0.00  0.00    +0.061 A 
ATOM      2  C   LIG    1       25.161 -30.006   7.554  0.00  0.00    +0.082 A 
ATOM      3  C   LIG    1       24.479 -30.975   6.792  0.00  0.00    +0.180 A 
ATOM      4  F   LIG    1       24.678 -31.069   5.469  0.00  0.00    -0.201 F 
ATOM      5  C   LIG    1       23.620 -31.902   7.377  0.00  0.00    +0.160 A 
ATOM      6  F   LIG    1       22.967 -32.786   6.610  0.00  0.00    -0.202 F 
ATOM      7  C   LIG    1       23.422 -31.921   8.746  0.00  0.00    +0.042 A 
ATOM      8  C   LIG    1       24.176 -31.064   9.546  0.00  0.00    +0.018 A 
ENDROOT
BRANCH   1  10
ATOM      9  O   LIG    1       27.047 -28.962   9.506  0.00  0.00    -0.270 OA
ATOM     10  C   LIG    1       25.949 -29.329   9.885  0.00  0.00    +0.249 C 
ATOM     11  N   LIG    1       25.433 -28.956  11.120  0.00  0.00    -0.292 N 
ATOM     12  C   LIG    1       24.766 -29.734  12.175  0.00  0.00    +0.146 C 
ATOM     13  C   LIG    1       24.911 -28.438  13.055  0.00  0.00    +0.112 C 
ATOM     14  C   LIG    1       26.133 -28.146  12.117  0.00  0.00    +0.146 C 
BRANCH  13  15
ATOM     15  C   LIG    1       23.678 -27.484  12.900  0.00  0.00    +0.088 C 
ATOM     16  N   LIG    1       22.372 -28.141  13.135  0.00  0.00    -0.310 NA
ATOM     17  H   LIG    1       21.651 -27.589  12.670  0.00  0.00    +0.122 HD
ATOM     18  C   LIG    1       22.000 -28.247  14.548  0.00  0.00    +0.081 C 
ATOM     19  C   LIG    1       22.034 -26.903  15.271  0.00  0.00    +0.015 C 
ATOM     20  C   LIG    1       23.394 -26.236  15.132  0.00  0.00    +0.003 C 
ATOM     21  C   LIG    1       23.804 -26.158  13.667  0.00  0.00    +0.021 C 
ENDBRANCH  13  15
BRANCH  13  22
ATOM     22  O   LIG    1       25.263 -28.683  14.444  0.00  0.00    -0.384 OA
ATOM     23  H   LIG    1       24.457 -28.500  14.953  0.00  0.00    +0.210 HD
ENDBRANCH  13  22
ENDBRANCH   1  10
BRANCH   2  24
ATOM     24  N   LIG    1       25.864 -28.923   6.947  0.00  0.00    -0.309 N 
ATOM     25  H   LIG    1       26.884 -29.017   7.056  0.00  0.00    +0.152 HD
BRANCH  24  26
ATOM     26  C   LIG    1       25.523 -27.549   6.756  0.00  0.00    +0.067 A 
ATOM     27  C   LIG    1       24.380 -27.223   5.997  0.00  0.00    +0.145 A 
ATOM     28  F   LIG    1       23.668 -28.206   5.424  0.00  0.00    -0.203 F 
ATOM     29  C   LIG    1       23.959 -25.904   5.788  0.00  0.00    +0.054 A 
ATOM     30  C   LIG    1       24.682 -24.862   6.354  0.00  0.00    +0.016 A 
ATOM     31  I   LIG    1       24.112 -22.887   6.047  0.00  0.00    -0.044 I 
ATOM     32  C   LIG    1       25.803 -25.142   7.127  0.00  0.00    +0.016 A 
ATOM     33  C   LIG    1       26.212 -26.471   7.325  0.00  0.00    +0.027 A 
ENDBRANCH  24  26
ENDBRANCH   2  24
TORSDOF 5
ENDMDL
MODEL 7
REMARK VINA RESULT:      -7.2      8.236     10.607
REMARK  Name = *****
REMARK                            x       y       z     vdW  Elec       q    Type
REMARK                         _______ _______ _______ _____ _____    ______ ____
ROOT
ATOM      1  C   LIG    1       24.012 -27.469  14.610  0.00  0.00    +0.061 A 
ATOM      2  C   LIG    1       25.080 -27.335  13.674  0.00  0.00    +0.082 A 
ATOM      3  C   LIG    1       25.605 -26.038  13.512  0.00  0.00    +0.180 A 
ATOM      4  F   LIG    1       26.430 -25.756  12.491  0.00  0.00    -0.201 F 
ATOM      5  C   LIG    1       25.255 -24.989  14.359  0.00  0.00    +0.160 A 
ATOM      6  F   LIG    1       25.802 -23.778  14.186  0.00  0.00    -0.202 F 
ATOM      7  C   LIG    1       24.349 -25.180  15.386  0.00  0.00    +0.042 A 
ATOM      8  C   LIG    1       23.711 -26.414  15.500  0.00  0.00    +0.018 A 
ENDROOT
BRANCH   1  10
ATOM      9  O   LIG    1       23.799 -29.771  15.039  0.00  0.00    -0.270 OA
ATOM     10  C   LIG    1       23.227 -28.743  14.720  0.00  0.00    +0.249 C 
ATOM     11  N   LIG    1       21.855 -28.699  14.508  0.00  0.00    -0.292 N 
ATOM     12  C   LIG    1       21.051 -28.100  13.432  0.00  0.00    +0.146 C 
ATOM     13  C   LIG    1       19.838 -28.871  14.072  0.00  0.00    +0.112 C 
ATOM     14  C   LIG    1       20.952 -29.848  14.584  0.00  0.00    +0.146 C 
BRANCH  13  15
ATOM     15  C   LIG    1       19.113 -28.015  15.166  0.00  0.00    +0.088 C 
ATOM     16  N   LIG    1       19.177 -26.555  14.932  0.00  0.00    -0.310 NA
ATOM     17  H   LIG    1       19.027 -26.084  15.825  0.00  0.00    +0.122 HD
ATOM     18  C   LIG    1       18.167 -26.052  13.997  0.00  0.00    +0.081 C 
ATOM     19  C   LIG    1       16.747 -26.446  14.394  0.00  0.00    +0.015 C 
ATOM     20  C   LIG    1       16.615 -27.952  14.553  0.00  0.00    +0.003 C 
ATOM     21  C   LIG    1       17.687 -28.486  15.495  0.00  0.00    +0.021 C 
ENDBRANCH  13  15
BRANCH  13  22
ATOM     22  O   LIG    1       18.917 -29.458  13.113  0.00  0.00    -0.384 OA
ATOM     23  H   LIG    1       19.444 -30.088  12.597  0.00  0.00    +0.210 HD
ENDBRANCH  13  22
ENDBRANCH   1  10
BRANCH   2  24
ATOM     24  N   LIG    1       25.596 -28.455  12.957  0.00  0.00    -0.309 N 
ATOM     25  H   LIG    1       26.556 -28.690  13.248  0.00  0.00    +0.152 HD
BRANCH  24  26
ATOM     26  C   LIG    1       25.363 -28.930  11.630  0.00  0.00    +0.067 A 
ATOM     27  C   LIG    1       26.330 -28.684  10.632  0.00  0.00    +0.145 A 
ATOM     28  F   LIG    1       27.421 -27.964  10.936  0.00  0.00    -0.203 F 
ATOM     29  C   LIG    1       26.194 -29.142   9.315  0.00  0.00    +0.054 A 
ATOM     30  C   LIG    1       25.070 -29.878   8.964  0.00  0.00    +0.016 A 
ATOM     31  I   LIG    1       24.811 -30.552   7.015  0.00  0.00    -0.044 I 
ATOM     32  C   LIG    1       24.104 -30.159   9.923  0.00  0.00    +0.016 A 
ATOM     33  C   LIG    1       24.256 -29.692  11.239  0.00  0.00    +0.027 A 
ENDBRANCH  24  26
ENDBRANCH   2  24
TORSDOF 5
ENDMDL
MODEL 8
REMARK VINA RESULT:      -7.0      3.601      5.327
REMARK  Name = *****
REMARK                            x       y       z     vdW  Elec       q    Type
REMARK                         _______ _______ _______ _____ _____    ______ ____
ROOT
ATOM      1  C   LIG    1       27.192 -20.498   6.129  0.00  0.00    +0.061 A 
ATOM      2  C   LIG    1       28.353 -19.700   6.360  0.00  0.00    +0.082 A 
ATOM      3  C   LIG    1       28.579 -18.653   5.446  0.00  0.00    +0.180 A 
ATOM      4  F   LIG    1       29.756 -18.008   5.423  0.00  0.00    -0.201 F 
ATOM      5  C   LIG    1       27.627 -18.281   4.500  0.00  0.00    +0.160 A 
ATOM      6  F   LIG    1       27.874 -17.258   3.669  0.00  0.00    -0.202 F 
ATOM      7  C   LIG    1       26.420 -18.950   4.407  0.00  0.00    +0.042 A 
ATOM      8  C   LIG    1       26.210 -20.072   5.206  0.00  0.00    +0.018 A 
ENDROOT
BRANCH   1  10
ATOM      9  O   LIG    1       27.776 -22.132   7.714  0.00  0.00    -0.270 OA
ATOM     10  C   LIG    1       26.952 -21.766   6.895  0.00  0.00    +0.249 C 
ATOM     11  N   LIG    1       25.765 -22.456   6.684  0.00  0.00    -0.292 N 
ATOM     12  C   LIG    1       25.086 -22.875   5.448  0.00  0.00    +0.146 C 
ATOM     13  C   LIG    1       24.142 -23.707   6.393  0.00  0.00    +0.112 C 
ATOM     14  C   LIG    1       25.381 -23.698   7.353  0.00  0.00    +0.146 C 
BRANCH  13  15
ATOM     15  C   LIG    1       22.900 -22.874   6.860  0.00  0.00    +0.088 C 
ATOM     16  N   LIG    1       23.225 -21.784   7.808  0.00  0.00    -0.310 NA
ATOM     17  H   LIG    1       22.377 -21.551   8.326  0.00  0.00    +0.122 HD
ATOM     18  C   LIG    1       23.698 -20.553   7.168  0.00  0.00    +0.081 C 
ATOM     19  C   LIG    1       22.736 -20.035   6.102  0.00  0.00    +0.015 C 
ATOM     20  C   LIG    1       22.450 -21.098   5.053  0.00  0.00    +0.003 C 
ATOM     21  C   LIG    1       21.994 -22.392   5.714  0.00  0.00    +0.021 C 
ENDBRANCH  13  15
BRANCH  13  22
ATOM     22  O   LIG    1       23.781 -25.021   5.887  0.00  0.00    -0.384 OA
ATOM     23  H   LIG    1       24.622 -25.472   5.710  0.00  0.00    +0.210 HD
ENDBRANCH  13  22
ENDBRANCH   1  10
BRANCH   2  24
ATOM     24  N   LIG    1       29.222 -19.942   7.465  0.00  0.00    -0.309 N 
ATOM     25  H   LIG    1       28.897 -20.729   8.045  0.00  0.00    +0.152 HD
BRANCH  24  26
ATOM     26  C   LIG    1       30.039 -19.070   8.247  0.00  0.00    +0.067 A 
ATOM     27  C   LIG    1       31.382 -18.862   7.869  0.00  0.00    +0.145 A 
ATOM     28  F   LIG    1       31.880 -19.529   6.816  0.00  0.00    -0.203 F 
ATOM     29  C   LIG    1       32.241 -18.000   8.563  0.00  0.00    +0.054 A 
ATOM     30  C   LIG    1       31.762 -17.307   9.666  0.00  0.00    +0.016 A 
ATOM     31  I   LIG    1       33.008 -16.040  10.744  0.00  0.00    -0.044 I 
ATOM     32  C   LIG    1       30.438 -17.467  10.060  0.00  0.00    +0.016 A 
ATOM     33  C   LIG    1       29.591 -18.337   9.353  0.00  0.00    +0.027 A 
ENDBRANCH  24  26
ENDBRANCH   2  24
TORSDOF 5
ENDMDL
MODEL 9
REMARK VINA RESULT:      -7.0      6.123      9.367
REMARK  Name = *****
REMARK                            x       y       z     vdW  Elec       q    Type
REMARK                         _______ _______ _______ _____ _____    ______ ____
ROOT
ATOM      1  C   LIG    1       25.063 -31.256  10.117  0.00  0.00    +0.061 A 
ATOM      2  C   LIG    1       24.765 -31.159   8.725  0.00  0.00    +0.082 A 
ATOM      3  C   LIG    1       23.651 -31.896   8.276  0.00  0.00    +0.180 A 
ATOM      4  F   LIG    1       23.432 -32.074   6.964  0.00  0.00    -0.201 F 
ATOM      5  C   LIG    1       22.768 -32.510   9.161  0.00  0.00    +0.160 A 
ATOM      6  F   LIG    1       21.704 -33.176   8.690  0.00  0.00    -0.202 F 
ATOM      7  C   LIG    1       22.969 -32.440  10.528  0.00  0.00    +0.042 A 
ATOM      8  C   LIG    1       24.127 -31.831  11.006  0.00  0.00    +0.018 A 
ENDROOT
BRANCH   1  10
ATOM      9  O   LIG    1       27.403 -31.049  10.207  0.00  0.00    -0.270 OA
ATOM     10  C   LIG    1       26.337 -30.698  10.682  0.00  0.00    +0.249 C 
ATOM     11  N   LIG    1       26.257 -29.754  11.697  0.00  0.00    -0.292 N 
ATOM     12  C   LIG    1       25.494 -29.733  12.954  0.00  0.00    +0.146 C 
ATOM     13  C   LIG    1       26.354 -28.466  13.315  0.00  0.00    +0.112 C 
ATOM     14  C   LIG    1       27.402 -29.114  12.346  0.00  0.00    +0.146 C 
BRANCH  13  15
ATOM     15  C   LIG    1       25.680 -27.141  12.818  0.00  0.00    +0.088 C 
ATOM     16  N   LIG    1       24.349 -26.881  13.411  0.00  0.00    -0.310 NA
ATOM     17  H   LIG    1       23.844 -26.246  12.791  0.00  0.00    +0.122 HD
ATOM     18  C   LIG    1       24.393 -26.257  14.736  0.00  0.00    +0.081 C 
ATOM     19  C   LIG    1       25.222 -24.975  14.757  0.00  0.00    +0.015 C 
ATOM     20  C   LIG    1       26.632 -25.221  14.242  0.00  0.00    +0.003 C 
ATOM     21  C   LIG    1       26.593 -25.905  12.882  0.00  0.00    +0.021 C 
ENDBRANCH  13  15
BRANCH  13  22
ATOM     22  O   LIG    1       26.780 -28.395  14.703  0.00  0.00    -0.384 OA
ATOM     23  H   LIG    1       26.137 -28.926  15.200  0.00  0.00    +0.210 HD
ENDBRANCH  13  22
ENDBRANCH   1  10
BRANCH   2  24
ATOM     24  N   LIG    1       25.542 -30.350   7.845  0.00  0.00    -0.309 N 
ATOM     25  H   LIG    1       26.551 -30.531   7.945  0.00  0.00    +0.152 HD
BRANCH  24  26
ATOM     26  C   LIG    1       25.336 -29.037   7.322  0.00  0.00    +0.067 A 
ATOM     27  C   LIG    1       26.087 -27.963   7.845  0.00  0.00    +0.145 A 
ATOM     28  F   LIG    1       26.938 -28.187   8.858  0.00  0.00    -0.203 F 
ATOM     29  C   LIG    1       25.969 -26.651   7.368  0.00  0.00    +0.054 A 
ATOM     30  C   LIG    1       25.086 -26.383   6.330  0.00  0.00    +0.016 A 
ATOM     31  I   LIG    1       24.856 -24.447   5.609  0.00  0.00    -0.044 I 
ATOM     32  C   LIG    1       24.343 -27.417   5.773  0.00  0.00    +0.016 A 
ATOM     33  C   LIG    1       24.473 -28.726   6.264  0.00  0.00    +0.027 A 
ENDBRANCH  24  26
ENDBRANCH   2  24
TORSDOF 5
ENDMDL
