MODEL 1
REMARK VINA RESULT:      -3.5      0.000      0.000
REMARK  Name = *****
REMARK                            x       y       z     vdW  Elec       q    Type
REMARK                         _______ _______ _______ _____ _____    ______ ____
ROOT
ATOM      1  C   LIG    1       24.875 -18.940   3.728  0.00  0.00    +0.053 C 
ENDROOT
BRANCH   1   8
ATOM      2  C   LIG    1       24.421 -13.020   4.503  0.00  0.00    +0.048 C 
ATOM      3  C   LIG    1       24.617 -14.481   4.222  0.00  0.00    +0.003 C 
ATOM      4  C   LIG    1       23.435 -15.319   4.514  0.00  0.00    +0.185 C 
ATOM      5  O   LIG    1       22.454 -14.813   5.055  0.00  0.00    -0.287 OA
ATOM      6  C   LIG    1       23.468 -16.784   4.187  0.00  0.00    +0.004 C 
ATOM      7  C   LIG    1       22.091 -17.384   4.331  0.00  0.00    +0.048 C 
ATOM      8  C   LIG    1       24.615 -17.403   3.809  0.00  0.00    +0.013 C 
ATOM      9  C   LIG    1       25.742 -16.505   3.397  0.00  0.00    +0.186 C 
ATOM     10  O   LIG    1       26.655 -16.902   2.682  0.00  0.00    -0.287 OA
ATOM     11  C   LIG    1       25.715 -15.053   3.714  0.00  0.00    +0.003 C 
ATOM     12  C   LIG    1       26.986 -14.339   3.352  0.00  0.00    +0.048 C 
ENDBRANCH   1   8
BRANCH   1  13
ATOM     13  C   LIG    1       23.726 -19.836   4.302  0.00  0.00    -0.040 A 
ATOM     14  C   LIG    1       23.661 -20.118   5.671  0.00  0.00    +0.004 A 
ATOM     15  C   LIG    1       22.678 -20.874   6.304  0.00  0.00    +0.000 A 
ATOM     16  C   LIG    1       21.643 -21.375   5.566  0.00  0.00    +0.000 A 
ATOM     17  C   LIG    1       21.645 -21.135   4.185  0.00  0.00    +0.000 A 
ATOM     18  C   LIG    1       22.671 -20.379   3.560  0.00  0.00    +0.004 A 
ENDBRANCH   1  13
BRANCH   1  19
ATOM     19  C   LIG    1       26.328 -19.416   4.168  0.00  0.00    +0.013 C 
BRANCH  19  20
ATOM     20  C   LIG    1       26.425 -20.613   5.130  0.00  0.00    +0.001 C 
BRANCH  20  21
ATOM     21  C   LIG    1       26.812 -20.344   6.584  0.00  0.00    +0.001 C 
BRANCH  21  22
ATOM     22  C   LIG    1       28.192 -20.978   6.930  0.00  0.00    +0.011 C 
BRANCH  22  23
ATOM     23  C   LIG    1       29.471 -20.138   6.690  0.00  0.00    +0.120 C 
BRANCH  23  24
ATOM     24  C   LIG    1       29.404 -18.717   6.222  0.00  0.00    +0.305 C 
ATOM     25  O   LIG    1       29.475 -17.758   6.998  0.00  0.00    -0.251 OA
BRANCH  24  26
ATOM     26  O   LIG    1       29.474 -18.558   4.876  0.00  0.00    -0.481 OA
ATOM     27  H   LIG    1       28.619 -18.393   4.440  0.00  0.00    +0.295 HD
ENDBRANCH  24  26
ENDBRANCH  23  24
ENDBRANCH  22  23
ENDBRANCH  21  22
ENDBRANCH  20  21
ENDBRANCH  19  20
ENDBRANCH   1  19
TORSDOF 9
ENDMDL
MODEL 2
REMARK VINA RESULT:      -2.6      2.196      5.806
REMARK  Name = *****
REMARK                            x       y       z     vdW  Elec       q    Type
REMARK                         _______ _______ _______ _____ _____    ______ ____
ROOT
ATOM      1  C   LIG    1       26.606 -18.121   3.645  0.00  0.00    +0.053 C 
ENDROOT
BRANCH   1   8
ATOM      2  C   LIG    1       20.782 -19.155   4.576  0.00  0.00    +0.048 C 
ATOM      3  C   LIG    1       22.211 -18.783   4.310  0.00  0.00    +0.003 C 
ATOM      4  C   LIG    1       23.071 -19.920   3.919  0.00  0.00    +0.185 C 
ATOM      5  O   LIG    1       22.616 -21.062   3.951  0.00  0.00    -0.287 OA
ATOM      6  C   LIG    1       24.500 -19.668   3.532  0.00  0.00    +0.004 C 
ATOM      7  C   LIG    1       25.109 -20.914   2.937  0.00  0.00    +0.048 C 
ATOM      8  C   LIG    1       25.082 -18.456   3.713  0.00  0.00    +0.013 C 
ATOM      9  C   LIG    1       24.151 -17.311   3.978  0.00  0.00    +0.186 C 
ATOM     10  O   LIG    1       24.482 -16.150   3.770  0.00  0.00    -0.287 OA
ATOM     11  C   LIG    1       22.735 -17.552   4.358  0.00  0.00    +0.003 C 
ATOM     12  C   LIG    1       21.992 -16.299   4.721  0.00  0.00    +0.048 C 
ENDBRANCH   1   8
BRANCH   1  13
ATOM     13  C   LIG    1       27.462 -18.701   4.821  0.00  0.00    -0.040 A 
ATOM     14  C   LIG    1       26.969 -19.745   5.612  0.00  0.00    +0.004 A 
ATOM     15  C   LIG    1       27.642 -20.362   6.663  0.00  0.00    +0.000 A 
ATOM     16  C   LIG    1       28.917 -19.971   6.961  0.00  0.00    +0.000 A 
ATOM     17  C   LIG    1       29.475 -18.925   6.212  0.00  0.00    +0.000 A 
ATOM     18  C   LIG    1       28.759 -18.298   5.159  0.00  0.00    +0.004 A 
ENDBRANCH   1  13
BRANCH   1  19
ATOM     19  C   LIG    1       26.964 -16.613   3.285  0.00  0.00    +0.013 C 
BRANCH  19  20
ATOM     20  C   LIG    1       27.512 -15.722   4.413  0.00  0.00    +0.001 C 
BRANCH  20  21
ATOM     21  C   LIG    1       27.317 -14.210   4.301  0.00  0.00    +0.001 C 
BRANCH  21  22
ATOM     22  C   LIG    1       27.030 -13.784   2.830  0.00  0.00    +0.011 C 
BRANCH  22  23
ATOM     23  C   LIG    1       25.806 -12.874   2.552  0.00  0.00    +0.120 C 
BRANCH  23  24
ATOM     24  C   LIG    1       24.582 -12.916   3.414  0.00  0.00    +0.305 C 
ATOM     25  O   LIG    1       24.467 -12.237   4.439  0.00  0.00    -0.251 OA
BRANCH  24  26
ATOM     26  O   LIG    1       23.532 -13.586   2.875  0.00  0.00    -0.481 OA
ATOM     27  H   LIG    1       23.758 -14.446   2.477  0.00  0.00    +0.295 HD
ENDBRANCH  24  26
ENDBRANCH  23  24
ENDBRANCH  22  23
ENDBRANCH  21  22
ENDBRANCH  20  21
ENDBRANCH  19  20
ENDBRANCH   1  19
TORSDOF 9
ENDMDL
MODEL 3
REMARK VINA RESULT:      -2.2      2.215      6.794
REMARK  Name = *****
REMARK                            x       y       z     vdW  Elec       q    Type
REMARK                         _______ _______ _______ _____ _____    ______ ____
ROOT
ATOM      1  C   LIG    1       26.069 -16.918   3.385  0.00  0.00    +0.053 C 
ENDROOT
BRANCH   1   8
ATOM      2  C   LIG    1       28.251 -21.136   7.034  0.00  0.00    +0.048 C 
ATOM      3  C   LIG    1       27.644 -20.167   6.061  0.00  0.00    +0.003 C 
ATOM      4  C   LIG    1       28.460 -18.958   5.821  0.00  0.00    +0.185 C 
ATOM      5  O   LIG    1       29.475 -18.771   6.489  0.00  0.00    -0.287 OA
ATOM      6  C   LIG    1       28.011 -17.955   4.798  0.00  0.00    +0.004 C 
ATOM      7  C   LIG    1       29.103 -16.946   4.540  0.00  0.00    +0.048 C 
ATOM      8  C   LIG    1       26.785 -18.026   4.222  0.00  0.00    +0.013 C 
ATOM      9  C   LIG    1       26.054 -19.325   4.386  0.00  0.00    +0.186 C 
ATOM     10  O   LIG    1       25.159 -19.663   3.621  0.00  0.00    -0.287 OA
ATOM     11  C   LIG    1       26.494 -20.325   5.395  0.00  0.00    +0.003 C 
ATOM     12  C   LIG    1       25.564 -21.498   5.517  0.00  0.00    +0.048 C 
ENDBRANCH   1   8
BRANCH   1  13
ATOM     13  C   LIG    1       26.560 -15.458   3.667  0.00  0.00    -0.040 A 
ATOM     14  C   LIG    1       26.272 -14.834   4.885  0.00  0.00    +0.004 A 
ATOM     15  C   LIG    1       26.674 -13.557   5.265  0.00  0.00    +0.000 A 
ATOM     16  C   LIG    1       27.454 -12.823   4.416  0.00  0.00    +0.000 A 
ATOM     17  C   LIG    1       27.779 -13.384   3.173  0.00  0.00    +0.000 A 
ATOM     18  C   LIG    1       27.338 -14.681   2.802  0.00  0.00    +0.004 A 
ENDBRANCH   1  13
BRANCH   1  19
ATOM     19  C   LIG    1       24.486 -17.046   3.286  0.00  0.00    +0.013 C 
BRANCH  19  20
ATOM     20  C   LIG    1       23.641 -16.219   4.271  0.00  0.00    +0.001 C 
BRANCH  20  21
ATOM     21  C   LIG    1       22.341 -16.827   4.797  0.00  0.00    +0.001 C 
BRANCH  21  22
ATOM     22  C   LIG    1       22.131 -18.272   4.255  0.00  0.00    +0.011 C 
BRANCH  22  23
ATOM     23  C   LIG    1       22.384 -19.463   5.213  0.00  0.00    +0.120 C 
BRANCH  23  24
ATOM     24  C   LIG    1       22.149 -20.880   4.787  0.00  0.00    +0.305 C 
ATOM     25  O   LIG    1       21.061 -21.446   4.934  0.00  0.00    -0.251 OA
BRANCH  24  26
ATOM     26  O   LIG    1       23.145 -21.421   4.040  0.00  0.00    -0.481 OA
ATOM     27  H   LIG    1       23.701 -20.772   3.573  0.00  0.00    +0.295 HD
ENDBRANCH  24  26
ENDBRANCH  23  24
ENDBRANCH  22  23
ENDBRANCH  21  22
ENDBRANCH  20  21
ENDBRANCH  19  20
ENDBRANCH   1  19
TORSDOF 9
ENDMDL
MODEL 4
REMARK VINA RESULT:      -1.2      1.783      5.082
REMARK  Name = *****
REMARK                            x       y       z     vdW  Elec       q    Type
REMARK                         _______ _______ _______ _____ _____    ______ ____
ROOT
ATOM      1  C   LIG    1       25.507 -16.162   4.105  0.00  0.00    +0.053 C 
ENDROOT
BRANCH   1   8
ATOM      2  C   LIG    1       21.218 -20.334   3.869  0.00  0.00    +0.048 C 
ATOM      3  C   LIG    1       22.369 -19.375   3.967  0.00  0.00    +0.003 C 
ATOM      4  C   LIG    1       21.971 -17.975   4.226  0.00  0.00    +0.185 C 
ATOM      5  O   LIG    1       20.779 -17.675   4.226  0.00  0.00    -0.287 OA
ATOM      6  C   LIG    1       23.031 -16.933   4.441  0.00  0.00    +0.004 C 
ATOM      7  C   LIG    1       22.410 -15.648   4.932  0.00  0.00    +0.048 C 
ATOM      8  C   LIG    1       24.343 -17.196   4.216  0.00  0.00    +0.013 C 
ATOM      9  C   LIG    1       24.712 -18.643   4.090  0.00  0.00    +0.186 C 
ATOM     10  O   LIG    1       25.857 -19.036   4.280  0.00  0.00    -0.287 OA
ATOM     11  C   LIG    1       23.669 -19.681   3.881  0.00  0.00    +0.003 C 
ATOM     12  C   LIG    1       24.231 -21.052   3.636  0.00  0.00    +0.048 C 
ENDBRANCH   1   8
BRANCH   1  13
ATOM     13  C   LIG    1       25.076 -14.729   3.642  0.00  0.00    -0.040 A 
ATOM     14  C   LIG    1       24.802 -13.730   4.583  0.00  0.00    +0.004 A 
ATOM     15  C   LIG    1       24.440 -12.417   4.299  0.00  0.00    +0.000 A 
ATOM     16  C   LIG    1       24.368 -12.011   2.996  0.00  0.00    +0.000 A 
ATOM     17  C   LIG    1       24.625 -12.961   1.997  0.00  0.00    +0.000 A 
ATOM     18  C   LIG    1       24.972 -14.300   2.313  0.00  0.00    +0.004 A 
ENDBRANCH   1  13
BRANCH   1  19
ATOM     19  C   LIG    1       26.828 -16.686   3.390  0.00  0.00    +0.013 C 
BRANCH  19  20
ATOM     20  C   LIG    1       28.101 -16.811   4.246  0.00  0.00    +0.001 C 
BRANCH  20  21
ATOM     21  C   LIG    1       28.563 -18.209   4.657  0.00  0.00    +0.001 C 
BRANCH  21  22
ATOM     22  C   LIG    1       29.475 -18.156   5.919  0.00  0.00    +0.011 C 
BRANCH  22  23
ATOM     23  C   LIG    1       29.212 -19.168   7.062  0.00  0.00    +0.120 C 
BRANCH  23  24
ATOM     24  C   LIG    1       28.291 -20.336   6.883  0.00  0.00    +0.305 C 
ATOM     25  O   LIG    1       27.069 -20.249   7.037  0.00  0.00    -0.251 OA
BRANCH  24  26
ATOM     26  O   LIG    1       28.870 -21.435   6.336  0.00  0.00    -0.481 OA
ATOM     27  H   LIG    1       28.246 -22.063   5.929  0.00  0.00    +0.295 HD
ENDBRANCH  24  26
ENDBRANCH  23  24
ENDBRANCH  22  23
ENDBRANCH  21  22
ENDBRANCH  20  21
ENDBRANCH  19  20
ENDBRANCH   1  19
TORSDOF 9
ENDMDL
MODEL 5
REMARK VINA RESULT:      -0.7      2.221      5.394
REMARK  Name = *****
REMARK                            x       y       z     vdW  Elec       q    Type
REMARK                         _______ _______ _______ _____ _____    ______ ____
ROOT
ATOM      1  C   LIG    1       26.650 -16.640   4.286  0.00  0.00    +0.053 C 
ENDROOT
BRANCH   1   8
ATOM      2  C   LIG    1       21.273 -19.262   4.004  0.00  0.00    +0.048 C 
ATOM      3  C   LIG    1       22.565 -18.498   4.059  0.00  0.00    +0.003 C 
ATOM      4  C   LIG    1       23.744 -19.270   3.614  0.00  0.00    +0.185 C 
ATOM      5  O   LIG    1       23.623 -20.465   3.355  0.00  0.00    -0.287 OA
ATOM      6  C   LIG    1       25.082 -18.592   3.530  0.00  0.00    +0.004 C 
ATOM      7  C   LIG    1       26.076 -19.482   2.825  0.00  0.00    +0.048 C 
ATOM      8  C   LIG    1       25.281 -17.346   4.030  0.00  0.00    +0.013 C 
ATOM      9  C   LIG    1       24.045 -16.557   4.342  0.00  0.00    +0.186 C 
ATOM     10  O   LIG    1       24.063 -15.334   4.414  0.00  0.00    -0.287 OA
ATOM     11  C   LIG    1       22.717 -17.220   4.424  0.00  0.00    +0.003 C 
ATOM     12  C   LIG    1       21.620 -16.303   4.884  0.00  0.00    +0.048 C 
ENDBRANCH   1   8
BRANCH   1  13
ATOM     13  C   LIG    1       26.754 -15.181   3.727  0.00  0.00    -0.040 A 
ATOM     14  C   LIG    1       27.655 -14.268   4.287  0.00  0.00    +0.004 A 
ATOM     15  C   LIG    1       27.861 -12.958   3.863  0.00  0.00    +0.000 A 
ATOM     16  C   LIG    1       27.169 -12.490   2.782  0.00  0.00    +0.000 A 
ATOM     17  C   LIG    1       26.244 -13.349   2.172  0.00  0.00    +0.000 A 
ATOM     18  C   LIG    1       26.038 -14.674   2.637  0.00  0.00    +0.004 A 
ENDBRANCH   1  13
BRANCH   1  19
ATOM     19  C   LIG    1       27.943 -17.521   4.000  0.00  0.00    +0.013 C 
BRANCH  19  20
ATOM     20  C   LIG    1       28.706 -18.082   5.213  0.00  0.00    +0.001 C 
BRANCH  20  21
ATOM     21  C   LIG    1       28.620 -19.581   5.492  0.00  0.00    +0.001 C 
BRANCH  21  22
ATOM     22  C   LIG    1       28.013 -19.862   6.900  0.00  0.00    +0.011 C 
BRANCH  22  23
ATOM     23  C   LIG    1       27.051 -21.065   7.062  0.00  0.00    +0.120 C 
BRANCH  23  24
ATOM     24  C   LIG    1       25.681 -21.065   6.456  0.00  0.00    +0.305 C 
ATOM     25  O   LIG    1       24.725 -20.479   6.975  0.00  0.00    -0.251 OA
BRANCH  24  26
ATOM     26  O   LIG    1       25.617 -21.572   5.199  0.00  0.00    -0.481 OA
ATOM     27  H   LIG    1       25.890 -20.954   4.497  0.00  0.00    +0.295 HD
ENDBRANCH  24  26
ENDBRANCH  23  24
ENDBRANCH  22  23
ENDBRANCH  21  22
ENDBRANCH  20  21
ENDBRANCH  19  20
ENDBRANCH   1  19
TORSDOF 9
ENDMDL
MODEL 6
REMARK VINA RESULT:      -0.6      1.792      7.162
REMARK  Name = *****
REMARK                            x       y       z     vdW  Elec       q    Type
REMARK                         _______ _______ _______ _____ _____    ______ ____
ROOT
ATOM      1  C   LIG    1       26.931 -15.814   3.186  0.00  0.00    +0.053 C 
ENDROOT
BRANCH   1   8
ATOM      2  C   LIG    1       26.419 -21.073   6.003  0.00  0.00    +0.048 C 
ATOM      3  C   LIG    1       26.474 -19.799   5.211  0.00  0.00    +0.003 C 
ATOM      4  C   LIG    1       27.719 -19.024   5.396  0.00  0.00    +0.185 C 
ATOM      5  O   LIG    1       28.539 -19.388   6.236  0.00  0.00    -0.287 OA
ATOM      6  C   LIG    1       27.941 -17.778   4.587  0.00  0.00    +0.004 C 
ATOM      7  C   LIG    1       29.361 -17.294   4.750  0.00  0.00    +0.048 C 
ATOM      8  C   LIG    1       26.953 -17.236   3.830  0.00  0.00    +0.013 C 
ATOM      9  C   LIG    1       25.769 -18.116   3.565  0.00  0.00    +0.186 C 
ATOM     10  O   LIG    1       25.022 -17.921   2.613  0.00  0.00    -0.287 OA
ATOM     11  C   LIG    1       25.544 -19.352   4.359  0.00  0.00    +0.003 C 
ATOM     12  C   LIG    1       24.240 -20.029   4.052  0.00  0.00    +0.048 C 
ENDBRANCH   1   8
BRANCH   1  13
ATOM     13  C   LIG    1       27.484 -14.667   4.097  0.00  0.00    -0.040 A 
ATOM     14  C   LIG    1       28.435 -13.765   3.606  0.00  0.00    +0.004 A 
ATOM     15  C   LIG    1       28.980 -12.691   4.304  0.00  0.00    +0.000 A 
ATOM     16  C   LIG    1       28.550 -12.434   5.575  0.00  0.00    +0.000 A 
ATOM     17  C   LIG    1       27.600 -13.300   6.135  0.00  0.00    +0.000 A 
ATOM     18  C   LIG    1       27.075 -14.401   5.409  0.00  0.00    +0.004 A 
ENDBRANCH   1  13
BRANCH   1  19
ATOM     19  C   LIG    1       25.590 -15.425   2.423  0.00  0.00    +0.013 C 
BRANCH  19  20
ATOM     20  C   LIG    1       25.293 -13.929   2.222  0.00  0.00    +0.001 C 
BRANCH  20  21
ATOM     21  C   LIG    1       23.986 -13.368   2.782  0.00  0.00    +0.001 C 
BRANCH  21  22
ATOM     22  C   LIG    1       23.733 -13.866   4.236  0.00  0.00    +0.011 C 
BRANCH  22  23
ATOM     23  C   LIG    1       23.650 -15.392   4.489  0.00  0.00    +0.120 C 
BRANCH  23  24
ATOM     24  C   LIG    1       22.410 -16.034   5.031  0.00  0.00    +0.305 C 
ATOM     25  O   LIG    1       22.034 -17.156   4.677  0.00  0.00    -0.251 OA
BRANCH  24  26
ATOM     26  O   LIG    1       21.852 -15.390   6.087  0.00  0.00    -0.481 OA
ATOM     27  H   LIG    1       20.886 -15.282   6.034  0.00  0.00    +0.295 HD
ENDBRANCH  24  26
ENDBRANCH  23  24
ENDBRANCH  22  23
ENDBRANCH  21  22
ENDBRANCH  20  21
ENDBRANCH  19  20
ENDBRANCH   1  19
TORSDOF 9
ENDMDL
