MODEL 1
REMARK VINA RESULT:      -6.7      0.000      0.000
REMARK  Name = *****
REMARK                            x       y       z     vdW  Elec       q    Type
REMARK                         _______ _______ _______ _____ _____    ______ ____
ROOT
ATOM      1  C   LIG    1       30.881 -18.778   9.473  0.00  0.00    +0.251 C 
ATOM      2  C   LIG    1       31.507 -20.033   8.819  0.00  0.00    +0.259 C 
ATOM      3  O   LIG    1       32.163 -20.909   9.360  0.00  0.00    -0.272 OA
ATOM      4  N   LIG    1       31.225 -19.991   7.486  0.00  0.00    -0.237 N 
ATOM      5  H   LIG    1       31.509 -20.685   6.815  0.00  0.00    +0.159 HD
ATOM      6  C   LIG    1       30.617 -18.827   7.163  0.00  0.00    +0.308 C 
ATOM      7  O   LIG    1       30.266 -18.485   6.049  0.00  0.00    -0.252 OA
ATOM      8  N   LIG    1       30.472 -18.072   8.299  0.00  0.00    -0.273 N 
ATOM      9  H   LIG    1       29.955 -17.205   8.296  0.00  0.00    +0.152 HD
ENDROOT
BRANCH   1  14
ATOM     10  N   LIG    1       32.242 -16.365  11.748  0.00  0.00    -0.313 N 
ATOM     11  H   LIG    1       33.167 -16.286  11.350  0.00  0.00    +0.146 HD
ATOM     12  H   LIG    1       31.913 -15.532  12.220  0.00  0.00    +0.146 HD
ATOM     13  C   LIG    1       31.292 -16.958  10.984  0.00  0.00    +0.299 C 
ATOM     14  N   LIG    1       31.788 -17.984  10.241  0.00  0.00    -0.274 N 
ATOM     15  H   LIG    1       32.566 -18.468  10.662  0.00  0.00    +0.152 HD
ATOM     16  O   LIG    1       30.135 -16.565  10.970  0.00  0.00    -0.253 OA
ENDBRANCH   1  14
TORSDOF 1
ENDMDL
MODEL 2
REMARK VINA RESULT:      -6.4      2.773      4.829
REMARK  Name = *****
REMARK                            x       y       z     vdW  Elec       q    Type
REMARK                         _______ _______ _______ _____ _____    ______ ____
ROOT
ATOM      1  C   LIG    1       29.720 -20.046   7.912  0.00  0.00    +0.251 C 
ATOM      2  C   LIG    1       31.123 -19.454   8.188  0.00  0.00    +0.259 C 
ATOM      3  O   LIG    1       31.546 -18.354   7.871  0.00  0.00    -0.272 OA
ATOM      4  N   LIG    1       31.852 -20.402   8.842  0.00  0.00    -0.237 N 
ATOM      5  H   LIG    1       32.804 -20.288   9.148  0.00  0.00    +0.159 HD
ATOM      6  C   LIG    1       31.166 -21.565   8.915  0.00  0.00    +0.308 C 
ATOM      7  O   LIG    1       31.562 -22.603   9.414  0.00  0.00    -0.252 OA
ATOM      8  N   LIG    1       29.945 -21.399   8.312  0.00  0.00    -0.273 N 
ATOM      9  H   LIG    1       29.238 -22.119   8.341  0.00  0.00    +0.152 HD
ENDROOT
BRANCH   1  14
ATOM     10  N   LIG    1       27.714 -19.959   4.943  0.00  0.00    -0.313 N 
ATOM     11  H   LIG    1       28.405 -20.286   4.283  0.00  0.00    +0.146 HD
ATOM     12  H   LIG    1       26.757 -20.179   4.694  0.00  0.00    +0.146 HD
ATOM     13  C   LIG    1       27.982 -20.146   6.258  0.00  0.00    +0.299 C 
ATOM     14  N   LIG    1       29.303 -19.993   6.545  0.00  0.00    -0.274 N 
ATOM     15  H   LIG    1       29.788 -19.338   5.952  0.00  0.00    +0.152 HD
ATOM     16  O   LIG    1       27.111 -20.446   7.060  0.00  0.00    -0.253 OA
ENDBRANCH   1  14
TORSDOF 1
ENDMDL
MODEL 3
REMARK VINA RESULT:      -6.3      1.449      4.215
REMARK  Name = *****
REMARK                            x       y       z     vdW  Elec       q    Type
REMARK                         _______ _______ _______ _____ _____    ______ ____
ROOT
ATOM      1  C   LIG    1       30.652 -18.636   8.012  0.00  0.00    +0.251 C 
ATOM      2  C   LIG    1       31.433 -19.325   9.157  0.00  0.00    +0.259 C 
ATOM      3  O   LIG    1       32.042 -20.383   9.115  0.00  0.00    -0.272 OA
ATOM      4  N   LIG    1       31.306 -18.551  10.271  0.00  0.00    -0.237 N 
ATOM      5  H   LIG    1       31.716 -18.758  11.166  0.00  0.00    +0.159 HD
ATOM      6  C   LIG    1       30.450 -17.528  10.046  0.00  0.00    +0.308 C 
ATOM      7  O   LIG    1       30.112 -16.683  10.855  0.00  0.00    -0.252 OA
ATOM      8  N   LIG    1       30.000 -17.603   8.752  0.00  0.00    -0.273 N 
ATOM      9  H   LIG    1       29.424 -16.877   8.350  0.00  0.00    +0.152 HD
ENDROOT
BRANCH   1  14
ATOM     10  N   LIG    1       28.421 -20.031   5.578  0.00  0.00    -0.313 N 
ATOM     11  H   LIG    1       27.800 -20.523   6.204  0.00  0.00    +0.146 HD
ATOM     12  H   LIG    1       27.992 -19.726   4.712  0.00  0.00    +0.146 HD
ATOM     13  C   LIG    1       29.240 -19.101   6.126  0.00  0.00    +0.299 C 
ATOM     14  N   LIG    1       29.687 -19.465   7.358  0.00  0.00    -0.274 N 
ATOM     15  H   LIG    1       29.783 -20.460   7.493  0.00  0.00    +0.152 HD
ATOM     16  O   LIG    1       29.499 -18.052   5.558  0.00  0.00    -0.253 OA
ENDBRANCH   1  14
TORSDOF 1
ENDMDL
MODEL 4
REMARK VINA RESULT:      -6.2      1.690      2.736
REMARK  Name = *****
REMARK                            x       y       z     vdW  Elec       q    Type
REMARK                         _______ _______ _______ _____ _____    ______ ____
ROOT
ATOM      1  C   LIG    1       30.947 -19.131   8.527  0.00  0.00    +0.251 C 
ATOM      2  C   LIG    1       29.868 -20.005   7.844  0.00  0.00    +0.259 C 
ATOM      3  O   LIG    1       28.850 -19.633   7.283  0.00  0.00    -0.272 OA
ATOM      4  N   LIG    1       30.233 -21.310   7.997  0.00  0.00    -0.237 N 
ATOM      5  H   LIG    1       29.714 -22.097   7.648  0.00  0.00    +0.159 HD
ATOM      6  C   LIG    1       31.324 -21.410   8.790  0.00  0.00    +0.308 C 
ATOM      7  O   LIG    1       31.870 -22.443   9.132  0.00  0.00    -0.252 OA
ATOM      8  N   LIG    1       31.714 -20.151   9.170  0.00  0.00    -0.273 N 
ATOM      9  H   LIG    1       32.567 -19.995   9.687  0.00  0.00    +0.152 HD
ENDROOT
BRANCH   1  14
ATOM     10  N   LIG    1       30.732 -16.608  11.064  0.00  0.00    -0.313 N 
ATOM     11  H   LIG    1       29.819 -16.837  11.430  0.00  0.00    +0.146 HD
ATOM     12  H   LIG    1       31.361 -16.184  11.736  0.00  0.00    +0.146 HD
ATOM     13  C   LIG    1       31.333 -17.536  10.280  0.00  0.00    +0.299 C 
ATOM     14  N   LIG    1       30.446 -18.201   9.491  0.00  0.00    -0.274 N 
ATOM     15  H   LIG    1       29.640 -17.661   9.219  0.00  0.00    +0.152 HD
ATOM     16  O   LIG    1       32.536 -17.744  10.328  0.00  0.00    -0.253 OA
ENDBRANCH   1  14
TORSDOF 1
ENDMDL
MODEL 5
REMARK VINA RESULT:      -6.0      1.617      4.228
REMARK  Name = *****
REMARK                            x       y       z     vdW  Elec       q    Type
REMARK                         _______ _______ _______ _____ _____    ______ ____
ROOT
ATOM      1  C   LIG    1       30.752 -19.620   8.790  0.00  0.00    +0.251 C 
ATOM      2  C   LIG    1       30.783 -18.388   7.854  0.00  0.00    +0.259 C 
ATOM      3  O   LIG    1       30.505 -18.344   6.666  0.00  0.00    -0.272 OA
ATOM      4  N   LIG    1       31.215 -17.321   8.585  0.00  0.00    -0.237 N 
ATOM      5  H   LIG    1       31.330 -16.387   8.229  0.00  0.00    +0.159 HD
ATOM      6  C   LIG    1       31.590 -17.713   9.824  0.00  0.00    +0.308 C 
ATOM      7  O   LIG    1       32.043 -16.996  10.697  0.00  0.00    -0.252 OA
ATOM      8  N   LIG    1       31.395 -19.067   9.940  0.00  0.00    -0.273 N 
ATOM      9  H   LIG    1       31.522 -19.546  10.819  0.00  0.00    +0.152 HD
ENDROOT
BRANCH   1  14
ATOM     10  N   LIG    1       32.062 -22.934   8.405  0.00  0.00    -0.313 N 
ATOM     11  H   LIG    1       32.899 -22.708   7.888  0.00  0.00    +0.146 HD
ATOM     12  H   LIG    1       32.131 -23.769   8.975  0.00  0.00    +0.146 HD
ATOM     13  C   LIG    1       31.428 -21.911   9.029  0.00  0.00    +0.299 C 
ATOM     14  N   LIG    1       31.477 -20.756   8.312  0.00  0.00    -0.274 N 
ATOM     15  H   LIG    1       31.507 -20.884   7.313  0.00  0.00    +0.152 HD
ATOM     16  O   LIG    1       30.908 -22.045  10.126  0.00  0.00    -0.253 OA
ENDBRANCH   1  14
TORSDOF 1
ENDMDL
MODEL 6
REMARK VINA RESULT:      -5.9      1.884      4.630
REMARK  Name = *****
REMARK                            x       y       z     vdW  Elec       q    Type
REMARK                         _______ _______ _______ _____ _____    ______ ____
ROOT
ATOM      1  C   LIG    1       31.200 -17.609  10.198  0.00  0.00    +0.251 C 
ATOM      2  C   LIG    1       32.069 -16.355   9.935  0.00  0.00    +0.259 C 
ATOM      3  O   LIG    1       32.451 -15.923   8.859  0.00  0.00    -0.272 OA
ATOM      4  N   LIG    1       32.377 -15.803  11.142  0.00  0.00    -0.237 N 
ATOM      5  H   LIG    1       32.931 -14.973  11.272  0.00  0.00    +0.159 HD
ATOM      6  C   LIG    1       31.940 -16.590  12.152  0.00  0.00    +0.308 C 
ATOM      7  O   LIG    1       32.088 -16.379  13.342  0.00  0.00    -0.252 OA
ATOM      8  N   LIG    1       31.314 -17.688  11.620  0.00  0.00    -0.273 N 
ATOM      9  H   LIG    1       30.830 -18.355  12.203  0.00  0.00    +0.152 HD
ENDROOT
BRANCH   1  14
ATOM     10  N   LIG    1       31.457 -20.574   8.199  0.00  0.00    -0.313 N 
ATOM     11  H   LIG    1       32.160 -21.059   8.737  0.00  0.00    +0.146 HD
ATOM     12  H   LIG    1       30.820 -21.178   7.694  0.00  0.00    +0.146 HD
ATOM     13  C   LIG    1       30.839 -19.525   8.797  0.00  0.00    +0.299 C 
ATOM     14  N   LIG    1       31.681 -18.812   9.592  0.00  0.00    -0.274 N 
ATOM     15  H   LIG    1       32.643 -18.810   9.290  0.00  0.00    +0.152 HD
ATOM     16  O   LIG    1       29.650 -19.298   8.637  0.00  0.00    -0.253 OA
ENDBRANCH   1  14
TORSDOF 1
ENDMDL
MODEL 7
REMARK VINA RESULT:      -5.8      1.815      4.172
REMARK  Name = *****
REMARK                            x       y       z     vdW  Elec       q    Type
REMARK                         _______ _______ _______ _____ _____    ______ ____
ROOT
ATOM      1  C   LIG    1       31.735 -18.314   9.473  0.00  0.00    +0.251 C 
ATOM      2  C   LIG    1       30.835 -17.506  10.439  0.00  0.00    +0.259 C 
ATOM      3  O   LIG    1       29.835 -17.891  11.026  0.00  0.00    -0.272 OA
ATOM      4  N   LIG    1       31.334 -16.240  10.513  0.00  0.00    -0.237 N 
ATOM      5  H   LIG    1       30.946 -15.500  11.071  0.00  0.00    +0.159 HD
ATOM      6  C   LIG    1       32.351 -16.078   9.636  0.00  0.00    +0.308 C 
ATOM      7  O   LIG    1       32.981 -15.052   9.449  0.00  0.00    -0.252 OA
ATOM      8  N   LIG    1       32.554 -17.258   8.966  0.00  0.00    -0.273 N 
ATOM      9  H   LIG    1       33.331 -17.380   8.334  0.00  0.00    +0.152 HD
ENDROOT
BRANCH   1  14
ATOM     10  N   LIG    1       29.984 -20.740   7.501  0.00  0.00    -0.313 N 
ATOM     11  H   LIG    1       30.179 -20.362   6.585  0.00  0.00    +0.146 HD
ATOM     12  H   LIG    1       29.844 -21.743   7.521  0.00  0.00    +0.146 HD
ATOM     13  C   LIG    1       30.738 -20.284   8.530  0.00  0.00    +0.299 C 
ATOM     14  N   LIG    1       31.042 -18.963   8.405  0.00  0.00    -0.274 N 
ATOM     15  H   LIG    1       30.346 -18.417   7.922  0.00  0.00    +0.152 HD
ATOM     16  O   LIG    1       31.109 -21.015   9.435  0.00  0.00    -0.253 OA
ENDBRANCH   1  14
TORSDOF 1
ENDMDL
MODEL 8
REMARK VINA RESULT:      -5.8      2.026      3.484
REMARK  Name = *****
REMARK                            x       y       z     vdW  Elec       q    Type
REMARK                         _______ _______ _______ _____ _____    ______ ____
ROOT
ATOM      1  C   LIG    1       30.491 -19.512   7.073  0.00  0.00    +0.251 C 
ATOM      2  C   LIG    1       29.443 -19.008   6.051  0.00  0.00    +0.259 C 
ATOM      3  O   LIG    1       29.454 -17.959   5.426  0.00  0.00    -0.272 OA
ATOM      4  N   LIG    1       28.453 -19.942   5.976  0.00  0.00    -0.237 N 
ATOM      5  H   LIG    1       27.642 -19.874   5.386  0.00  0.00    +0.159 HD
ATOM      6  C   LIG    1       28.645 -20.915   6.896  0.00  0.00    +0.308 C 
ATOM      7  O   LIG    1       27.918 -21.871   7.092  0.00  0.00    -0.252 OA
ATOM      8  N   LIG    1       29.793 -20.643   7.597  0.00  0.00    -0.273 N 
ATOM      9  H   LIG    1       30.170 -21.297   8.267  0.00  0.00    +0.152 HD
ENDROOT
BRANCH   1  14
ATOM     10  N   LIG    1       31.933 -17.985   9.978  0.00  0.00    -0.313 N 
ATOM     11  H   LIG    1       31.199 -17.322  10.181  0.00  0.00    +0.146 HD
ATOM     12  H   LIG    1       32.458 -18.293  10.787  0.00  0.00    +0.146 HD
ATOM     13  C   LIG    1       31.634 -18.990   9.119  0.00  0.00    +0.299 C 
ATOM     14  N   LIG    1       30.802 -18.589   8.120  0.00  0.00    -0.274 N 
ATOM     15  H   LIG    1       30.903 -17.622   7.853  0.00  0.00    +0.152 HD
ATOM     16  O   LIG    1       32.060 -20.124   9.276  0.00  0.00    -0.253 OA
ENDBRANCH   1  14
TORSDOF 1
ENDMDL
MODEL 9
REMARK VINA RESULT:      -5.8      2.427      4.278
REMARK  Name = *****
REMARK                            x       y       z     vdW  Elec       q    Type
REMARK                         _______ _______ _______ _____ _____    ______ ____
ROOT
ATOM      1  C   LIG    1       30.135 -20.328   7.593  0.00  0.00    +0.251 C 
ATOM      2  C   LIG    1       30.962 -20.656   8.859  0.00  0.00    +0.259 C 
ATOM      3  O   LIG    1       30.889 -21.652   9.562  0.00  0.00    -0.272 OA
ATOM      4  N   LIG    1       31.798 -19.605   9.094  0.00  0.00    -0.237 N 
ATOM      5  H   LIG    1       32.453 -19.550   9.855  0.00  0.00    +0.159 HD
ATOM      6  C   LIG    1       31.541 -18.591   8.237  0.00  0.00    +0.308 C 
ATOM      7  O   LIG    1       32.101 -17.511   8.214  0.00  0.00    -0.252 OA
ATOM      8  N   LIG    1       30.522 -18.966   7.398  0.00  0.00    -0.273 N 
ATOM      9  H   LIG    1       30.239 -18.389   6.619  0.00  0.00    +0.152 HD
ENDROOT
BRANCH   1  14
ATOM     10  N   LIG    1       26.610 -20.439   6.950  0.00  0.00    -0.313 N 
ATOM     11  H   LIG    1       26.280 -20.192   7.871  0.00  0.00    +0.146 HD
ATOM     12  H   LIG    1       25.991 -20.171   6.194  0.00  0.00    +0.146 HD
ATOM     13  C   LIG    1       27.918 -20.202   6.681  0.00  0.00    +0.299 C 
ATOM     14  N   LIG    1       28.718 -20.425   7.758  0.00  0.00    -0.274 N 
ATOM     15  H   LIG    1       28.386 -21.139   8.387  0.00  0.00    +0.152 HD
ATOM     16  O   LIG    1       28.292 -19.805   5.588  0.00  0.00    -0.253 OA
ENDBRANCH   1  14
TORSDOF 1
ENDMDL
