MODEL 1
REMARK VINA RESULT:      -9.4      0.000      0.000
REMARK  Name = *****
REMARK                            x       y       z     vdW  Elec       q    Type
REMARK                         _______ _______ _______ _____ _____    ______ ____
ROOT
ATOM      1  C   LIG    1       24.103 -29.652   7.029  0.00  0.00    +0.044 C 
ATOM      2  C   LIG    1       24.491 -31.000   6.384  0.00  0.00    +0.122 C 
ATOM      3  C   LIG    1       25.522 -30.647   5.303  0.00  0.00    +0.036 C 
ATOM      4  C   LIG    1       25.222 -29.195   4.888  0.00  0.00    -0.001 C 
ATOM      5  C   LIG    1       26.353 -28.177   5.124  0.00  0.00    +0.034 C 
ATOM      6  C   LIG    1       25.689 -26.972   5.763  0.00  0.00    -0.073 C 
ATOM      7  C   LIG    1       26.347 -25.857   6.141  0.00  0.00    -0.027 C 
ATOM      8  C   LIG    1       24.214 -27.229   5.906  0.00  0.00    +0.035 C 
ATOM      9  C   LIG    1       24.058 -28.739   5.777  0.00  0.00    +0.006 C 
ENDROOT
BRANCH   1  11
ATOM     10  C   LIG    1       25.340 -30.102   9.194  0.00  0.00    +0.000 C 
ATOM     11  C   LIG    1       25.080 -29.308   8.137  0.00  0.00    -0.022 C 
BRANCH  10  12
ATOM     12  C   LIG    1       26.357 -29.789  10.267  0.00  0.00    +0.141 C 
BRANCH  12  13
ATOM     13  C   LIG    1       25.941 -28.675  11.267  0.00  0.00    +0.030 C 
ATOM     14  C   LIG    1       27.166 -27.862  11.734  0.00  0.00    +0.011 C 
BRANCH  13  15
ATOM     15  C   LIG    1       25.162 -29.199  12.490  0.00  0.00    +0.095 C 
BRANCH  15  18
ATOM     16  C   LIG    1       22.177 -26.493  13.370  0.00  0.00    +0.106 C 
ATOM     17  C   LIG    1       23.162 -27.531  13.094  0.00  0.00    -0.106 C 
ATOM     18  C   LIG    1       24.037 -28.329  12.844  0.00  0.00    -0.102 C 
ENDBRANCH  15  18
ENDBRANCH  13  15
ENDBRANCH  12  13
BRANCH  12  19
ATOM     19  O   LIG    1       27.543 -29.365   9.591  0.00  0.00    -0.388 OA
ATOM     20  H   LIG    1       28.100 -28.914  10.249  0.00  0.00    +0.210 HD
ENDBRANCH  12  19
ENDBRANCH  10  12
ENDBRANCH   1  11
BRANCH   2  21
ATOM     21  O   LIG    1       23.336 -31.585   5.781  0.00  0.00    -0.391 OA
ATOM     22  H   LIG    1       22.656 -30.892   5.720  0.00  0.00    +0.210 HD
ENDBRANCH   2  21
BRANCH   7  23
ATOM     23  C   LIG    1       25.788 -24.638   6.842  0.00  0.00    +0.028 C 
BRANCH  23  24
ATOM     24  C   LIG    1       24.773 -23.784   6.055  0.00  0.00    +0.015 C 
BRANCH  24  25
ATOM     25  C   LIG    1       23.465 -23.542   6.808  0.00  0.00    +0.121 C 
BRANCH  25  26
ATOM     26  C   LIG    1       23.111 -22.079   6.981  0.00  0.00    +0.307 C 
ATOM     27  O   LIG    1       22.900 -21.514   8.044  0.00  0.00    -0.251 OA
BRANCH  26  28
ATOM     28  O   LIG    1       22.994 -21.495   5.752  0.00  0.00    -0.457 OA
BRANCH  28  29
ATOM     29  C   LIG    1       23.629 -20.222   5.624  0.00  0.00    +0.311 C 
BRANCH  29  30
ATOM     30  C   LIG    1       25.046 -20.361   5.063  0.00  0.00    +0.200 C 
ATOM     31  O   LIG    1       25.228 -20.539   3.857  0.00  0.00    -0.288 OA
BRANCH  30  32
ATOM     32  C   LIG    1       26.227 -20.298   5.979  0.00  0.00    +0.021 A 
ATOM     33  C   LIG    1       27.496 -20.034   5.438  0.00  0.00    +0.011 A 
ATOM     34  C   LIG    1       28.627 -20.026   6.261  0.00  0.00    +0.001 A 
ATOM     35  C   LIG    1       28.502 -20.296   7.623  0.00  0.00    +0.000 A 
ATOM     36  C   LIG    1       27.245 -20.521   8.171  0.00  0.00    +0.001 A 
ATOM     37  C   LIG    1       26.114 -20.508   7.357  0.00  0.00    +0.011 A 
ENDBRANCH  30  32
ENDBRANCH  29  30
ENDBRANCH  28  29
ENDBRANCH  26  28
ENDBRANCH  25  26
ENDBRANCH  24  25
ENDBRANCH  23  24
ENDBRANCH   7  23
TORSDOF 15
ENDMDL
MODEL 2
REMARK VINA RESULT:      -9.3      1.943      9.258
REMARK  Name = *****
REMARK                            x       y       z     vdW  Elec       q    Type
REMARK                         _______ _______ _______ _____ _____    ______ ____
ROOT
ATOM      1  C   LIG    1       25.090 -20.898   5.100  0.00  0.00    +0.044 C 
ATOM      2  C   LIG    1       23.997 -19.855   5.414  0.00  0.00    +0.122 C 
ATOM      3  C   LIG    1       22.915 -20.626   6.183  0.00  0.00    +0.036 C 
ATOM      4  C   LIG    1       23.038 -22.093   5.734  0.00  0.00    -0.001 C 
ATOM      5  C   LIG    1       23.374 -23.112   6.838  0.00  0.00    +0.034 C 
ATOM      6  C   LIG    1       24.468 -23.991   6.260  0.00  0.00    -0.073 C 
ATOM      7  C   LIG    1       25.051 -25.008   6.926  0.00  0.00    -0.027 C 
ATOM      8  C   LIG    1       24.784 -23.543   4.860  0.00  0.00    +0.035 C 
ATOM      9  C   LIG    1       24.218 -22.132   4.756  0.00  0.00    +0.006 C 
ENDROOT
BRANCH   1  11
ATOM     10  C   LIG    1       27.153 -20.233   6.412  0.00  0.00    +0.000 C 
ATOM     11  C   LIG    1       26.057 -21.002   6.265  0.00  0.00    -0.022 C 
BRANCH  10  12
ATOM     12  C   LIG    1       28.083 -20.292   7.602  0.00  0.00    +0.141 C 
BRANCH  12  13
ATOM     13  C   LIG    1       29.592 -20.426   7.255  0.00  0.00    +0.030 C 
ATOM     14  C   LIG    1       30.336 -21.251   8.324  0.00  0.00    +0.011 C 
BRANCH  13  15
ATOM     15  C   LIG    1       30.303 -19.074   7.047  0.00  0.00    +0.095 C 
BRANCH  15  18
ATOM     16  C   LIG    1       30.394 -17.040  10.633  0.00  0.00    +0.106 C 
ATOM     17  C   LIG    1       30.336 -17.661   9.316  0.00  0.00    -0.106 C 
ATOM     18  C   LIG    1       30.301 -18.254   8.261  0.00  0.00    -0.102 C 
ENDBRANCH  15  18
ENDBRANCH  13  15
ENDBRANCH  12  13
BRANCH  12  19
ATOM     19  O   LIG    1       27.695 -21.437   8.365  0.00  0.00    -0.388 OA
ATOM     20  H   LIG    1       28.476 -22.014   8.430  0.00  0.00    +0.210 HD
ENDBRANCH  12  19
ENDBRANCH  10  12
ENDBRANCH   1  11
BRANCH   2  21
ATOM     21  O   LIG    1       23.457 -19.353   4.190  0.00  0.00    -0.391 OA
ATOM     22  H   LIG    1       24.068 -18.671   3.860  0.00  0.00    +0.210 HD
ENDBRANCH   2  21
BRANCH   7  23
ATOM     23  C   LIG    1       26.188 -25.894   6.462  0.00  0.00    +0.028 C 
BRANCH  23  24
ATOM     24  C   LIG    1       25.833 -27.030   5.483  0.00  0.00    +0.015 C 
BRANCH  24  25
ATOM     25  C   LIG    1       24.574 -27.803   5.876  0.00  0.00    +0.121 C 
BRANCH  25  26
ATOM     26  C   LIG    1       24.711 -29.307   5.768  0.00  0.00    +0.307 C 
ATOM     27  O   LIG    1       25.555 -29.904   5.115  0.00  0.00    -0.251 OA
BRANCH  26  28
ATOM     28  O   LIG    1       23.697 -29.905   6.460  0.00  0.00    -0.457 OA
BRANCH  28  29
ATOM     29  C   LIG    1       24.108 -30.912   7.386  0.00  0.00    +0.311 C 
BRANCH  29  30
ATOM     30  C   LIG    1       23.773 -30.516   8.825  0.00  0.00    +0.200 C 
ATOM     31  O   LIG    1       22.673 -30.789   9.311  0.00  0.00    -0.288 OA
BRANCH  30  32
ATOM     32  C   LIG    1       24.773 -29.776   9.654  0.00  0.00    +0.021 A 
ATOM     33  C   LIG    1       24.550 -29.642  11.034  0.00  0.00    +0.011 A 
ATOM     34  C   LIG    1       25.439 -28.907  11.826  0.00  0.00    +0.001 A 
ATOM     35  C   LIG    1       26.545 -28.290  11.244  0.00  0.00    +0.000 A 
ATOM     36  C   LIG    1       26.793 -28.449   9.886  0.00  0.00    +0.001 A 
ATOM     37  C   LIG    1       25.920 -29.199   9.099  0.00  0.00    +0.011 A 
ENDBRANCH  30  32
ENDBRANCH  29  30
ENDBRANCH  28  29
ENDBRANCH  26  28
ENDBRANCH  25  26
ENDBRANCH  24  25
ENDBRANCH  23  24
ENDBRANCH   7  23
TORSDOF 15
ENDMDL
MODEL 3
REMARK VINA RESULT:      -9.0      1.890      9.351
REMARK  Name = *****
REMARK                            x       y       z     vdW  Elec       q    Type
REMARK                         _______ _______ _______ _____ _____    ______ ____
ROOT
ATOM      1  C   LIG    1       25.072 -20.538   4.947  0.00  0.00    +0.044 C 
ATOM      2  C   LIG    1       23.969 -19.470   5.106  0.00  0.00    +0.122 C 
ATOM      3  C   LIG    1       22.815 -20.186   5.822  0.00  0.00    +0.036 C 
ATOM      4  C   LIG    1       22.957 -21.678   5.469  0.00  0.00    -0.001 C 
ATOM      5  C   LIG    1       23.186 -22.634   6.654  0.00  0.00    +0.034 C 
ATOM      6  C   LIG    1       24.313 -23.554   6.223  0.00  0.00    -0.073 C 
ATOM      7  C   LIG    1       24.825 -24.535   6.993  0.00  0.00    -0.027 C 
ATOM      8  C   LIG    1       24.753 -23.190   4.832  0.00  0.00    +0.035 C 
ATOM      9  C   LIG    1       24.216 -21.783   4.599  0.00  0.00    +0.006 C 
ENDROOT
BRANCH   1  11
ATOM     10  C   LIG    1       27.237 -20.240   6.229  0.00  0.00    +0.000 C 
ATOM     11  C   LIG    1       25.934 -20.582   6.194  0.00  0.00    -0.022 C 
BRANCH  10  12
ATOM     12  C   LIG    1       28.082 -20.224   7.482  0.00  0.00    +0.141 C 
BRANCH  12  13
ATOM     13  C   LIG    1       29.617 -20.205   7.243  0.00  0.00    +0.030 C 
ATOM     14  C   LIG    1       30.353 -21.054   8.300  0.00  0.00    +0.011 C 
BRANCH  13  15
ATOM     15  C   LIG    1       30.219 -18.787   7.197  0.00  0.00    +0.095 C 
BRANCH  15  18
ATOM     16  C   LIG    1       30.604 -16.942  10.864  0.00  0.00    +0.106 C 
ATOM     17  C   LIG    1       30.358 -17.601   9.588  0.00  0.00    -0.106 C 
ATOM     18  C   LIG    1       30.239 -18.149   8.516  0.00  0.00    -0.102 C 
ENDBRANCH  15  18
ENDBRANCH  13  15
ENDBRANCH  12  13
BRANCH  12  19
ATOM     19  O   LIG    1       27.755 -21.412   8.208  0.00  0.00    -0.388 OA
ATOM     20  H   LIG    1       28.555 -21.966   8.222  0.00  0.00    +0.210 HD
ENDBRANCH  12  19
ENDBRANCH  10  12
ENDBRANCH   1  11
BRANCH   2  21
ATOM     21  O   LIG    1       23.542 -19.035   3.814  0.00  0.00    -0.391 OA
ATOM     22  H   LIG    1       23.692 -18.074   3.766  0.00  0.00    +0.210 HD
ENDBRANCH   2  21
BRANCH   7  23
ATOM     23  C   LIG    1       25.986 -25.455   6.680  0.00  0.00    +0.028 C 
BRANCH  23  24
ATOM     24  C   LIG    1       25.839 -26.931   7.099  0.00  0.00    +0.015 C 
BRANCH  24  25
ATOM     25  C   LIG    1       24.765 -27.685   6.314  0.00  0.00    +0.121 C 
BRANCH  25  26
ATOM     26  C   LIG    1       24.572 -29.122   6.750  0.00  0.00    +0.307 C 
ATOM     27  O   LIG    1       23.628 -29.840   6.454  0.00  0.00    -0.251 OA
BRANCH  26  28
ATOM     28  O   LIG    1       25.587 -29.479   7.591  0.00  0.00    -0.457 OA
BRANCH  28  29
ATOM     29  C   LIG    1       25.188 -30.245   8.730  0.00  0.00    +0.311 C 
BRANCH  29  30
ATOM     30  C   LIG    1       26.218 -30.146   9.856  0.00  0.00    +0.200 C 
ATOM     31  O   LIG    1       27.192 -30.901   9.884  0.00  0.00    -0.288 OA
BRANCH  30  32
ATOM     32  C   LIG    1       26.045 -29.138  10.947  0.00  0.00    +0.021 A 
ATOM     33  C   LIG    1       24.886 -29.184  11.740  0.00  0.00    +0.011 A 
ATOM     34  C   LIG    1       24.669 -28.220  12.730  0.00  0.00    +0.001 A 
ATOM     35  C   LIG    1       25.596 -27.198  12.926  0.00  0.00    +0.000 A 
ATOM     36  C   LIG    1       26.763 -27.168  12.171  0.00  0.00    +0.001 A 
ATOM     37  C   LIG    1       26.991 -28.139  11.198  0.00  0.00    +0.011 A 
ENDBRANCH  30  32
ENDBRANCH  29  30
ENDBRANCH  28  29
ENDBRANCH  26  28
ENDBRANCH  25  26
ENDBRANCH  24  25
ENDBRANCH  23  24
ENDBRANCH   7  23
TORSDOF 15
ENDMDL
MODEL 4
REMARK VINA RESULT:      -9.0      2.797      9.925
REMARK  Name = *****
REMARK                            x       y       z     vdW  Elec       q    Type
REMARK                         _______ _______ _______ _____ _____    ______ ____
ROOT
ATOM      1  C   LIG    1       25.131 -20.715   5.014  0.00  0.00    +0.044 C 
ATOM      2  C   LIG    1       24.039 -19.643   5.219  0.00  0.00    +0.122 C 
ATOM      3  C   LIG    1       22.898 -20.366   5.949  0.00  0.00    +0.036 C 
ATOM      4  C   LIG    1       23.023 -21.852   5.565  0.00  0.00    -0.001 C 
ATOM      5  C   LIG    1       23.273 -22.831   6.727  0.00  0.00    +0.034 C 
ATOM      6  C   LIG    1       24.385 -23.749   6.252  0.00  0.00    -0.073 C 
ATOM      7  C   LIG    1       24.908 -24.748   6.992  0.00  0.00    -0.027 C 
ATOM      8  C   LIG    1       24.794 -23.362   4.858  0.00  0.00    +0.035 C 
ATOM      9  C   LIG    1       24.260 -21.948   4.664  0.00  0.00    +0.006 C 
ENDROOT
BRANCH   1  11
ATOM     10  C   LIG    1       27.267 -20.275   6.303  0.00  0.00    +0.000 C 
ATOM     11  C   LIG    1       26.023 -20.786   6.239  0.00  0.00    -0.022 C 
BRANCH  10  12
ATOM     12  C   LIG    1       28.133 -20.291   7.542  0.00  0.00    +0.141 C 
BRANCH  12  13
ATOM     13  C   LIG    1       29.664 -20.251   7.278  0.00  0.00    +0.030 C 
ATOM     14  C   LIG    1       30.432 -21.060   8.343  0.00  0.00    +0.011 C 
BRANCH  13  15
ATOM     15  C   LIG    1       30.240 -18.823   7.188  0.00  0.00    +0.095 C 
BRANCH  15  18
ATOM     16  C   LIG    1       30.566 -16.925  10.834  0.00  0.00    +0.106 C 
ATOM     17  C   LIG    1       30.339 -17.578   9.551  0.00  0.00    -0.106 C 
ATOM     18  C   LIG    1       30.237 -18.141   8.485  0.00  0.00    -0.102 C 
ENDBRANCH  15  18
ENDBRANCH  13  15
ENDBRANCH  12  13
BRANCH  12  19
ATOM     19  O   LIG    1       27.830 -21.504   8.235  0.00  0.00    -0.388 OA
ATOM     20  H   LIG    1       28.306 -22.220   7.780  0.00  0.00    +0.210 HD
ENDBRANCH  12  19
ENDBRANCH  10  12
ENDBRANCH   1  11
BRANCH   2  21
ATOM     21  O   LIG    1       23.584 -19.182   3.945  0.00  0.00    -0.391 OA
ATOM     22  H   LIG    1       23.946 -19.784   3.271  0.00  0.00    +0.210 HD
ENDBRANCH   2  21
BRANCH   7  23
ATOM     23  C   LIG    1       26.056 -25.668   6.634  0.00  0.00    +0.028 C 
BRANCH  23  24
ATOM     24  C   LIG    1       25.716 -26.912   5.790  0.00  0.00    +0.015 C 
BRANCH  24  25
ATOM     25  C   LIG    1       24.300 -27.441   6.025  0.00  0.00    +0.121 C 
BRANCH  25  26
ATOM     26  C   LIG    1       24.225 -28.938   6.238  0.00  0.00    +0.307 C 
ATOM     27  O   LIG    1       23.408 -29.693   5.732  0.00  0.00    -0.251 OA
BRANCH  26  28
ATOM     28  O   LIG    1       25.174 -29.314   7.146  0.00  0.00    -0.457 OA
BRANCH  28  29
ATOM     29  C   LIG    1       24.971 -30.599   7.736  0.00  0.00    +0.311 C 
BRANCH  29  30
ATOM     30  C   LIG    1       26.265 -31.415   7.752  0.00  0.00    +0.200 C 
ATOM     31  O   LIG    1       26.997 -31.411   8.744  0.00  0.00    -0.288 OA
BRANCH  30  32
ATOM     32  C   LIG    1       26.665 -32.215   6.553  0.00  0.00    +0.021 A 
ATOM     33  C   LIG    1       27.794 -33.045   6.633  0.00  0.00    +0.011 A 
ATOM     34  C   LIG    1       28.226 -33.761   5.511  0.00  0.00    +0.001 A 
ATOM     35  C   LIG    1       27.543 -33.641   4.301  0.00  0.00    +0.000 A 
ATOM     36  C   LIG    1       26.403 -32.851   4.225  0.00  0.00    +0.001 A 
ATOM     37  C   LIG    1       25.959 -32.154   5.347  0.00  0.00    +0.011 A 
ENDBRANCH  30  32
ENDBRANCH  29  30
ENDBRANCH  28  29
ENDBRANCH  26  28
ENDBRANCH  25  26
ENDBRANCH  24  25
ENDBRANCH  23  24
ENDBRANCH   7  23
TORSDOF 15
ENDMDL
MODEL 5
REMARK VINA RESULT:      -8.9      1.652      2.281
REMARK  Name = *****
REMARK                            x       y       z     vdW  Elec       q    Type
REMARK                         _______ _______ _______ _____ _____    ______ ____
ROOT
ATOM      1  C   LIG    1       24.128 -29.253   7.055  0.00  0.00    +0.044 C 
ATOM      2  C   LIG    1       24.542 -30.536   6.302  0.00  0.00    +0.122 C 
ATOM      3  C   LIG    1       25.541 -30.069   5.233  0.00  0.00    +0.036 C 
ATOM      4  C   LIG    1       25.190 -28.600   4.936  0.00  0.00    -0.001 C 
ATOM      5  C   LIG    1       26.295 -27.569   5.230  0.00  0.00    +0.034 C 
ATOM      6  C   LIG    1       25.607 -26.437   5.971  0.00  0.00    -0.073 C 
ATOM      7  C   LIG    1       26.240 -25.334   6.420  0.00  0.00    -0.027 C 
ATOM      8  C   LIG    1       24.144 -26.750   6.119  0.00  0.00    +0.035 C 
ATOM      9  C   LIG    1       24.031 -28.250   5.877  0.00  0.00    +0.006 C 
ENDROOT
BRANCH   1  11
ATOM     10  C   LIG    1       25.339 -29.782   9.216  0.00  0.00    +0.000 C 
ATOM     11  C   LIG    1       25.115 -28.964   8.169  0.00  0.00    -0.022 C 
BRANCH  10  12
ATOM     12  C   LIG    1       26.367 -29.524  10.295  0.00  0.00    +0.141 C 
BRANCH  12  13
ATOM     13  C   LIG    1       25.954 -28.476  11.364  0.00  0.00    +0.030 C 
ATOM     14  C   LIG    1       27.186 -27.730  11.915  0.00  0.00    +0.011 C 
BRANCH  13  15
ATOM     15  C   LIG    1       25.134 -29.068  12.528  0.00  0.00    +0.095 C 
BRANCH  15  18
ATOM     16  C   LIG    1       21.895 -26.630  13.283  0.00  0.00    +0.106 C 
ATOM     17  C   LIG    1       22.967 -27.578  13.010  0.00  0.00    -0.106 C 
ATOM     18  C   LIG    1       23.915 -28.300  12.795  0.00  0.00    -0.102 C 
ENDBRANCH  15  18
ENDBRANCH  13  15
ENDBRANCH  12  13
BRANCH  12  19
ATOM     19  O   LIG    1       27.542 -29.051   9.633  0.00  0.00    -0.388 OA
ATOM     20  H   LIG    1       27.247 -28.543   8.857  0.00  0.00    +0.210 HD
ENDBRANCH  12  19
ENDBRANCH  10  12
ENDBRANCH   1  11
BRANCH   2  21
ATOM     21  O   LIG    1       23.394 -31.109   5.676  0.00  0.00    -0.391 OA
ATOM     22  H   LIG    1       23.699 -31.866   5.145  0.00  0.00    +0.210 HD
ENDBRANCH   2  21
BRANCH   7  23
ATOM     23  C   LIG    1       25.658 -24.189   7.223  0.00  0.00    +0.028 C 
BRANCH  23  24
ATOM     24  C   LIG    1       24.735 -23.210   6.472  0.00  0.00    +0.015 C 
BRANCH  24  25
ATOM     25  C   LIG    1       24.346 -21.983   7.297  0.00  0.00    +0.121 C 
BRANCH  25  26
ATOM     26  C   LIG    1       25.496 -21.358   8.058  0.00  0.00    +0.307 C 
ATOM     27  O   LIG    1       25.704 -21.466   9.258  0.00  0.00    -0.251 OA
BRANCH  26  28
ATOM     28  O   LIG    1       26.235 -20.587   7.207  0.00  0.00    -0.457 OA
BRANCH  28  29
ATOM     29  C   LIG    1       27.543 -21.086   6.922  0.00  0.00    +0.311 C 
BRANCH  29  30
ATOM     30  C   LIG    1       28.506 -19.951   6.568  0.00  0.00    +0.200 C 
ATOM     31  O   LIG    1       28.437 -19.388   5.473  0.00  0.00    -0.288 OA
BRANCH  30  32
ATOM     32  C   LIG    1       29.556 -19.523   7.544  0.00  0.00    +0.021 A 
ATOM     33  C   LIG    1       29.622 -18.173   7.925  0.00  0.00    +0.011 A 
ATOM     34  C   LIG    1       30.628 -17.732   8.791  0.00  0.00    +0.001 A 
ATOM     35  C   LIG    1       31.581 -18.630   9.270  0.00  0.00    +0.000 A 
ATOM     36  C   LIG    1       31.499 -19.974   8.926  0.00  0.00    +0.001 A 
ATOM     37  C   LIG    1       30.485 -20.419   8.081  0.00  0.00    +0.011 A 
ENDBRANCH  30  32
ENDBRANCH  29  30
ENDBRANCH  28  29
ENDBRANCH  26  28
ENDBRANCH  25  26
ENDBRANCH  24  25
ENDBRANCH  23  24
ENDBRANCH   7  23
TORSDOF 15
ENDMDL
MODEL 6
REMARK VINA RESULT:      -8.7      2.387      4.653
REMARK  Name = *****
REMARK                            x       y       z     vdW  Elec       q    Type
REMARK                         _______ _______ _______ _____ _____    ______ ____
ROOT
ATOM      1  C   LIG    1       24.738 -31.135  11.232  0.00  0.00    +0.044 C 
ATOM      2  C   LIG    1       25.508 -31.076  12.569  0.00  0.00    +0.122 C 
ATOM      3  C   LIG    1       26.629 -30.052  12.342  0.00  0.00    +0.036 C 
ATOM      4  C   LIG    1       26.911 -30.059  10.829  0.00  0.00    -0.001 C 
ATOM      5  C   LIG    1       26.680 -28.727  10.092  0.00  0.00    +0.034 C 
ATOM      6  C   LIG    1       25.907 -29.087   8.836  0.00  0.00    -0.073 C 
ATOM      7  C   LIG    1       25.494 -28.188   7.920  0.00  0.00    -0.027 C 
ATOM      8  C   LIG    1       25.681 -30.573   8.794  0.00  0.00    +0.035 C 
ATOM      9  C   LIG    1       25.911 -31.051  10.222  0.00  0.00    +0.006 C 
ENDROOT
BRANCH   1  11
ATOM     10  C   LIG    1       22.774 -29.840  12.172  0.00  0.00    +0.000 C 
ATOM     11  C   LIG    1       23.678 -30.050  11.196  0.00  0.00    -0.022 C 
BRANCH  10  12
ATOM     12  C   LIG    1       21.757 -28.722  12.167  0.00  0.00    +0.141 C 
BRANCH  12  13
ATOM     13  C   LIG    1       21.701 -27.874  13.467  0.00  0.00    +0.030 C 
ATOM     14  C   LIG    1       20.245 -27.675  13.937  0.00  0.00    +0.011 C 
BRANCH  13  15
ATOM     15  C   LIG    1       22.406 -26.508  13.348  0.00  0.00    +0.095 C 
BRANCH  15  18
ATOM     16  C   LIG    1       26.528 -26.559  13.420  0.00  0.00    +0.106 C 
ATOM     17  C   LIG    1       25.075 -26.648  13.360  0.00  0.00    -0.106 C 
ATOM     18  C   LIG    1       23.865 -26.637  13.330  0.00  0.00    -0.102 C 
ENDBRANCH  15  18
ENDBRANCH  13  15
ENDBRANCH  12  13
BRANCH  12  19
ATOM     19  O   LIG    1       20.480 -29.334  11.975  0.00  0.00    -0.388 OA
ATOM     20  H   LIG    1       19.897 -29.006  12.682  0.00  0.00    +0.210 HD
ENDBRANCH  12  19
ENDBRANCH  10  12
ENDBRANCH   1  11
BRANCH   2  21
ATOM     21  O   LIG    1       26.072 -32.359  12.847  0.00  0.00    -0.391 OA
ATOM     22  H   LIG    1       25.667 -32.994  12.231  0.00  0.00    +0.210 HD
ENDBRANCH   2  21
BRANCH   7  23
ATOM     23  C   LIG    1       24.665 -28.439   6.678  0.00  0.00    +0.028 C 
BRANCH  23  24
ATOM     24  C   LIG    1       24.417 -27.233   5.749  0.00  0.00    +0.015 C 
BRANCH  24  25
ATOM     25  C   LIG    1       25.181 -25.976   6.164  0.00  0.00    +0.121 C 
BRANCH  25  26
ATOM     26  C   LIG    1       24.323 -24.731   6.254  0.00  0.00    +0.307 C 
ATOM     27  O   LIG    1       23.182 -24.678   6.688  0.00  0.00    -0.251 OA
BRANCH  26  28
ATOM     28  O   LIG    1       24.997 -23.677   5.705  0.00  0.00    -0.457 OA
BRANCH  28  29
ATOM     29  C   LIG    1       25.659 -22.828   6.645  0.00  0.00    +0.311 C 
BRANCH  29  30
ATOM     30  C   LIG    1       24.808 -21.602   6.981  0.00  0.00    +0.200 C 
ATOM     31  O   LIG    1       24.545 -21.323   8.153  0.00  0.00    -0.288 OA
BRANCH  30  32
ATOM     32  C   LIG    1       24.272 -20.735   5.887  0.00  0.00    +0.021 A 
ATOM     33  C   LIG    1       25.117 -20.380   4.822  0.00  0.00    +0.011 A 
ATOM     34  C   LIG    1       24.662 -19.524   3.814  0.00  0.00    +0.001 A 
ATOM     35  C   LIG    1       23.369 -19.006   3.869  0.00  0.00    +0.000 A 
ATOM     36  C   LIG    1       22.515 -19.382   4.899  0.00  0.00    +0.001 A 
ATOM     37  C   LIG    1       22.960 -20.252   5.893  0.00  0.00    +0.011 A 
ENDBRANCH  30  32
ENDBRANCH  29  30
ENDBRANCH  28  29
ENDBRANCH  26  28
ENDBRANCH  25  26
ENDBRANCH  24  25
ENDBRANCH  23  24
ENDBRANCH   7  23
TORSDOF 15
ENDMDL
MODEL 7
REMARK VINA RESULT:      -8.6      1.554      2.801
REMARK  Name = *****
REMARK                            x       y       z     vdW  Elec       q    Type
REMARK                         _______ _______ _______ _____ _____    ______ ____
ROOT
ATOM      1  C   LIG    1       24.255 -29.703   7.138  0.00  0.00    +0.044 C 
ATOM      2  C   LIG    1       24.595 -30.983   6.344  0.00  0.00    +0.122 C 
ATOM      3  C   LIG    1       25.480 -30.512   5.181  0.00  0.00    +0.036 C 
ATOM      4  C   LIG    1       25.097 -29.044   4.925  0.00  0.00    -0.001 C 
ATOM      5  C   LIG    1       26.224 -28.010   5.108  0.00  0.00    +0.034 C 
ATOM      6  C   LIG    1       25.612 -26.881   5.917  0.00  0.00    -0.073 C 
ATOM      7  C   LIG    1       26.284 -25.778   6.303  0.00  0.00    -0.027 C 
ATOM      8  C   LIG    1       24.172 -27.197   6.210  0.00  0.00    +0.035 C 
ATOM      9  C   LIG    1       24.038 -28.697   5.978  0.00  0.00    +0.006 C 
ENDROOT
BRANCH   1  11
ATOM     10  C   LIG    1       25.447 -30.010   9.352  0.00  0.00    +0.000 C 
ATOM     11  C   LIG    1       25.349 -29.414   8.148  0.00  0.00    -0.022 C 
BRANCH  10  12
ATOM     12  C   LIG    1       26.570 -29.768  10.334  0.00  0.00    +0.141 C 
BRANCH  12  13
ATOM     13  C   LIG    1       26.169 -28.993  11.619  0.00  0.00    +0.030 C 
ATOM     14  C   LIG    1       24.635 -28.896  11.752  0.00  0.00    +0.011 C 
BRANCH  13  15
ATOM     15  C   LIG    1       26.794 -27.586  11.715  0.00  0.00    +0.095 C 
BRANCH  15  18
ATOM     16  C   LIG    1       24.880 -25.384  14.629  0.00  0.00    +0.106 C 
ATOM     17  C   LIG    1       25.527 -26.082  13.526  0.00  0.00    -0.106 C 
ATOM     18  C   LIG    1       26.081 -26.727  12.665  0.00  0.00    -0.102 C 
ENDBRANCH  15  18
ENDBRANCH  13  15
ENDBRANCH  12  13
BRANCH  12  19
ATOM     19  O   LIG    1       27.560 -29.005   9.641  0.00  0.00    -0.388 OA
ATOM     20  H   LIG    1       27.671 -29.412   8.764  0.00  0.00    +0.210 HD
ENDBRANCH  12  19
ENDBRANCH  10  12
ENDBRANCH   1  11
BRANCH   2  21
ATOM     21  O   LIG    1       23.390 -31.558   5.835  0.00  0.00    -0.391 OA
ATOM     22  H   LIG    1       22.645 -31.102   6.265  0.00  0.00    +0.210 HD
ENDBRANCH   2  21
BRANCH   7  23
ATOM     23  C   LIG    1       25.784 -24.636   7.163  0.00  0.00    +0.028 C 
BRANCH  23  24
ATOM     24  C   LIG    1       26.182 -23.211   6.730  0.00  0.00    +0.015 C 
BRANCH  24  25
ATOM     25  C   LIG    1       26.851 -22.400   7.841  0.00  0.00    +0.121 C 
BRANCH  25  26
ATOM     26  C   LIG    1       25.974 -21.316   8.430  0.00  0.00    +0.307 C 
ATOM     27  O   LIG    1       26.333 -20.183   8.720  0.00  0.00    -0.251 OA
BRANCH  26  28
ATOM     28  O   LIG    1       24.725 -21.818   8.659  0.00  0.00    -0.457 OA
BRANCH  28  29
ATOM     29  C   LIG    1       23.651 -21.018   8.160  0.00  0.00    +0.311 C 
BRANCH  29  30
ATOM     30  C   LIG    1       23.286 -21.408   6.726  0.00  0.00    +0.200 C 
ATOM     31  O   LIG    1       22.824 -22.524   6.478  0.00  0.00    -0.288 OA
BRANCH  30  32
ATOM     32  C   LIG    1       23.503 -20.442   5.606  0.00  0.00    +0.021 A 
ATOM     33  C   LIG    1       22.481 -19.536   5.279  0.00  0.00    +0.011 A 
ATOM     34  C   LIG    1       22.632 -18.659   4.200  0.00  0.00    +0.001 A 
ATOM     35  C   LIG    1       23.795 -18.690   3.432  0.00  0.00    +0.000 A 
ATOM     36  C   LIG    1       24.826 -19.558   3.772  0.00  0.00    +0.001 A 
ATOM     37  C   LIG    1       24.686 -20.417   4.860  0.00  0.00    +0.011 A 
ENDBRANCH  30  32
ENDBRANCH  29  30
ENDBRANCH  28  29
ENDBRANCH  26  28
ENDBRANCH  25  26
ENDBRANCH  24  25
ENDBRANCH  23  24
ENDBRANCH   7  23
TORSDOF 15
ENDMDL
MODEL 8
REMARK VINA RESULT:      -8.6      2.534      9.488
REMARK  Name = *****
REMARK                            x       y       z     vdW  Elec       q    Type
REMARK                         _______ _______ _______ _____ _____    ______ ____
ROOT
ATOM      1  C   LIG    1       25.883 -19.922   4.053  0.00  0.00    +0.044 C 
ATOM      2  C   LIG    1       25.515 -18.460   3.717  0.00  0.00    +0.122 C 
ATOM      3  C   LIG    1       24.083 -18.276   4.239  0.00  0.00    +0.036 C 
ATOM      4  C   LIG    1       23.443 -19.676   4.227  0.00  0.00    -0.001 C 
ATOM      5  C   LIG    1       22.983 -20.220   5.592  0.00  0.00    +0.034 C 
ATOM      6  C   LIG    1       23.482 -21.652   5.647  0.00  0.00    -0.073 C 
ATOM      7  C   LIG    1       23.294 -22.478   6.697  0.00  0.00    -0.027 C 
ATOM      8  C   LIG    1       24.208 -21.980   4.372  0.00  0.00    +0.035 C 
ATOM      9  C   LIG    1       24.540 -20.632   3.745  0.00  0.00    +0.006 C 
ENDROOT
BRANCH   1  11
ATOM     10  C   LIG    1       27.734 -20.204   5.760  0.00  0.00    +0.000 C 
ATOM     11  C   LIG    1       26.435 -20.006   5.464  0.00  0.00    -0.022 C 
BRANCH  10  12
ATOM     12  C   LIG    1       28.295 -20.227   7.163  0.00  0.00    +0.141 C 
BRANCH  12  13
ATOM     13  C   LIG    1       29.838 -20.385   7.255  0.00  0.00    +0.030 C 
ATOM     14  C   LIG    1       30.244 -21.132   8.541  0.00  0.00    +0.011 C 
BRANCH  13  15
ATOM     15  C   LIG    1       30.605 -19.051   7.159  0.00  0.00    +0.095 C 
BRANCH  15  18
ATOM     16  C   LIG    1       30.420 -17.207  10.842  0.00  0.00    +0.106 C 
ATOM     17  C   LIG    1       30.508 -17.758   9.496  0.00  0.00    -0.106 C 
ATOM     18  C   LIG    1       30.556 -18.292   8.411  0.00  0.00    -0.102 C 
ENDBRANCH  15  18
ENDBRANCH  13  15
ENDBRANCH  12  13
BRANCH  12  19
ATOM     19  O   LIG    1       27.690 -21.339   7.825  0.00  0.00    -0.388 OA
ATOM     20  H   LIG    1       28.256 -22.113   7.657  0.00  0.00    +0.210 HD
ENDBRANCH  12  19
ENDBRANCH  10  12
ENDBRANCH   1  11
BRANCH   2  21
ATOM     21  O   LIG    1       25.542 -18.279   2.301  0.00  0.00    -0.391 OA
ATOM     22  H   LIG    1       24.706 -17.851   2.046  0.00  0.00    +0.210 HD
ENDBRANCH   2  21
BRANCH   7  23
ATOM     23  C   LIG    1       23.807 -23.892   6.872  0.00  0.00    +0.028 C 
BRANCH  23  24
ATOM     24  C   LIG    1       25.336 -24.075   6.941  0.00  0.00    +0.015 C 
BRANCH  24  25
ATOM     25  C   LIG    1       25.780 -25.536   6.864  0.00  0.00    +0.121 C 
BRANCH  25  26
ATOM     26  C   LIG    1       25.316 -26.260   5.619  0.00  0.00    +0.307 C 
ATOM     27  O   LIG    1       25.614 -25.972   4.469  0.00  0.00    -0.251 OA
BRANCH  26  28
ATOM     28  O   LIG    1       24.447 -27.253   5.971  0.00  0.00    -0.457 OA
BRANCH  28  29
ATOM     29  C   LIG    1       24.648 -28.499   5.300  0.00  0.00    +0.311 C 
BRANCH  29  30
ATOM     30  C   LIG    1       24.335 -29.682   6.219  0.00  0.00    +0.200 C 
ATOM     31  O   LIG    1       23.348 -30.392   6.013  0.00  0.00    -0.288 OA
BRANCH  30  32
ATOM     32  C   LIG    1       25.217 -29.979   7.389  0.00  0.00    +0.021 A 
ATOM     33  C   LIG    1       25.505 -28.953   8.304  0.00  0.00    +0.011 A 
ATOM     34  C   LIG    1       26.373 -29.186   9.376  0.00  0.00    +0.001 A 
ATOM     35  C   LIG    1       26.969 -30.436   9.533  0.00  0.00    +0.000 A 
ATOM     36  C   LIG    1       26.660 -31.466   8.654  0.00  0.00    +0.001 A 
ATOM     37  C   LIG    1       25.779 -31.243   7.597  0.00  0.00    +0.011 A 
ENDBRANCH  30  32
ENDBRANCH  29  30
ENDBRANCH  28  29
ENDBRANCH  26  28
ENDBRANCH  25  26
ENDBRANCH  24  25
ENDBRANCH  23  24
ENDBRANCH   7  23
TORSDOF 15
ENDMDL
MODEL 9
REMARK VINA RESULT:      -8.4      2.422      5.277
REMARK  Name = *****
REMARK                            x       y       z     vdW  Elec       q    Type
REMARK                         _______ _______ _______ _____ _____    ______ ____
ROOT
ATOM      1  C   LIG    1       25.337 -30.549  12.078  0.00  0.00    +0.044 C 
ATOM      2  C   LIG    1       26.189 -30.027  13.254  0.00  0.00    +0.122 C 
ATOM      3  C   LIG    1       27.138 -28.991  12.634  0.00  0.00    +0.036 C 
ATOM      4  C   LIG    1       27.304 -29.397  11.158  0.00  0.00    -0.001 C 
ATOM      5  C   LIG    1       26.835 -28.364  10.116  0.00  0.00    +0.034 C 
ATOM      6  C   LIG    1       26.027 -29.150   9.100  0.00  0.00    -0.073 C 
ATOM      7  C   LIG    1       25.426 -28.601   8.025  0.00  0.00    -0.027 C 
ATOM      8  C   LIG    1       26.006 -30.602   9.490  0.00  0.00    +0.035 C 
ATOM      9  C   LIG    1       26.408 -30.626  10.960  0.00  0.00    +0.006 C 
ENDROOT
BRANCH   1  11
ATOM     10  C   LIG    1       22.882 -29.947  12.250  0.00  0.00    +0.000 C 
ATOM     11  C   LIG    1       24.137 -29.645  11.866  0.00  0.00    -0.022 C 
BRANCH  10  12
ATOM     12  C   LIG    1       21.697 -29.021  12.095  0.00  0.00    +0.141 C 
BRANCH  12  13
ATOM     13  C   LIG    1       21.297 -28.240  13.377  0.00  0.00    +0.030 C 
ATOM     14  C   LIG    1       19.845 -28.556  13.790  0.00  0.00    +0.011 C 
BRANCH  13  15
ATOM     15  C   LIG    1       21.489 -26.714  13.258  0.00  0.00    +0.095 C 
BRANCH  15  18
ATOM     16  C   LIG    1       25.510 -25.914  13.691  0.00  0.00    +0.106 C 
ATOM     17  C   LIG    1       24.070 -26.086  13.552  0.00  0.00    -0.106 C 
ATOM     18  C   LIG    1       22.888 -26.316  13.432  0.00  0.00    -0.102 C 
ENDBRANCH  15  18
ENDBRANCH  13  15
ENDBRANCH  12  13
BRANCH  12  19
ATOM     19  O   LIG    1       20.591 -29.839  11.705  0.00  0.00    -0.388 OA
ATOM     20  H   LIG    1       20.939 -30.523  11.108  0.00  0.00    +0.210 HD
ENDBRANCH  12  19
ENDBRANCH  10  12
ENDBRANCH   1  11
BRANCH   2  21
ATOM     21  O   LIG    1       26.944 -31.106  13.807  0.00  0.00    -0.391 OA
ATOM     22  H   LIG    1       27.853 -31.030  13.466  0.00  0.00    +0.210 HD
ENDBRANCH   2  21
BRANCH   7  23
ATOM     23  C   LIG    1       24.549 -29.286   6.999  0.00  0.00    +0.028 C 
BRANCH  23  24
ATOM     24  C   LIG    1       25.004 -29.207   5.528  0.00  0.00    +0.015 C 
BRANCH  24  25
ATOM     25  C   LIG    1       24.780 -27.835   4.892  0.00  0.00    +0.121 C 
BRANCH  25  26
ATOM     26  C   LIG    1       26.042 -27.013   4.732  0.00  0.00    +0.307 C 
ATOM     27  O   LIG    1       27.155 -27.451   4.478  0.00  0.00    -0.251 OA
BRANCH  26  28
ATOM     28  O   LIG    1       25.761 -25.701   4.986  0.00  0.00    -0.457 OA
BRANCH  28  29
ATOM     29  C   LIG    1       25.727 -25.346   6.370  0.00  0.00    +0.311 C 
BRANCH  29  30
ATOM     30  C   LIG    1       24.508 -24.479   6.692  0.00  0.00    +0.200 C 
ATOM     31  O   LIG    1       23.367 -24.915   6.525  0.00  0.00    -0.288 OA
BRANCH  30  32
ATOM     32  C   LIG    1       24.690 -23.084   7.198  0.00  0.00    +0.021 A 
ATOM     33  C   LIG    1       23.688 -22.132   6.950  0.00  0.00    +0.011 A 
ATOM     34  C   LIG    1       23.856 -20.806   7.361  0.00  0.00    +0.001 A 
ATOM     35  C   LIG    1       25.028 -20.418   8.008  0.00  0.00    +0.000 A 
ATOM     36  C   LIG    1       26.008 -21.362   8.290  0.00  0.00    +0.001 A 
ATOM     37  C   LIG    1       25.833 -22.689   7.901  0.00  0.00    +0.011 A 
ENDBRANCH  30  32
ENDBRANCH  29  30
ENDBRANCH  28  29
ENDBRANCH  26  28
ENDBRANCH  25  26
ENDBRANCH  24  25
ENDBRANCH  23  24
ENDBRANCH   7  23
TORSDOF 15
ENDMDL
