MODEL 1
REMARK VINA RESULT:      -8.7      0.000      0.000
REMARK  Name = *****
REMARK                            x       y       z     vdW  Elec       q    Type
REMARK                         _______ _______ _______ _____ _____    ______ ____
ROOT
ATOM      1  O   LIG    1       25.896 -21.650   8.958  0.00  0.00    -0.270 OA
ATOM      2  C   LIG    1       26.268 -22.221   7.942  0.00  0.00    +0.252 C 
ATOM      3  N   LIG    1       27.482 -22.022   7.312  0.00  0.00    -0.280 N 
ATOM      4  H   LIG    1       27.651 -22.578   6.473  0.00  0.00    +0.155 HD
ENDROOT
BRANCH   2   5
ATOM      5  C   LIG    1       25.345 -23.227   7.324  0.00  0.00    +0.080 A 
ATOM      6  C   LIG    1       23.955 -23.068   7.201  0.00  0.00    +0.129 A 
ATOM      7  C   LIG    1       23.177 -24.053   6.587  0.00  0.00    +0.048 A 
ATOM      8  C   LIG    1       23.782 -25.213   6.097  0.00  0.00    +0.023 A 
ATOM      9  C   LIG    1       25.157 -25.386   6.226  0.00  0.00    +0.042 A 
ATOM     10 CL   LIG    1       25.897 -26.820   5.632  0.00  0.00    -0.084 Cl
ATOM     11  C   LIG    1       25.936 -24.404   6.830  0.00  0.00    +0.036 A 
BRANCH   6  12
ATOM     12  O   LIG    1       23.335 -21.943   7.677  0.00  0.00    -0.506 OA
ATOM     13  H   LIG    1       23.746 -21.154   7.279  0.00  0.00    +0.292 HD
ENDBRANCH   6  12
ENDBRANCH   2   5
BRANCH   3  14
ATOM     14  C   LIG    1       28.532 -21.160   7.704  0.00  0.00    +0.052 A 
ATOM     15  C   LIG    1       28.727 -19.955   6.994  0.00  0.00    +0.069 A 
ATOM     16 CL   LIG    1       27.662 -19.487   5.712  0.00  0.00    -0.081 Cl
ATOM     17  C   LIG    1       29.789 -19.101   7.299  0.00  0.00    +0.106 A 
ATOM     18  C   LIG    1       30.654 -19.461   8.333  0.00  0.00    +0.275 A 
ATOM     19  C   LIG    1       30.471 -20.625   9.076  0.00  0.00    +0.086 A 
ATOM     20  C   LIG    1       29.404 -21.468   8.757  0.00  0.00    +0.031 A 
BRANCH  18  21
ATOM     21  N   LIG    1       31.795 -18.619   8.627  0.00  0.00    +0.080 N 
ATOM     22  O   LIG    1       32.235 -18.655   9.782  0.00  0.00    -0.576 OA
ATOM     23  O   LIG    1       32.236 -17.925   7.702  0.00  0.00    +0.041 OA
ENDBRANCH  18  21
ENDBRANCH   3  14
TORSDOF 4
ENDMDL
MODEL 2
REMARK VINA RESULT:      -8.4      1.543      2.059
REMARK  Name = *****
REMARK                            x       y       z     vdW  Elec       q    Type
REMARK                         _______ _______ _______ _____ _____    ______ ____
ROOT
ATOM      1  O   LIG    1       26.385 -20.413   9.147  0.00  0.00    -0.270 OA
ATOM      2  C   LIG    1       26.765 -21.071   8.189  0.00  0.00    +0.252 C 
ATOM      3  N   LIG    1       27.996 -20.950   7.574  0.00  0.00    -0.280 N 
ATOM      4  H   LIG    1       28.170 -21.574   6.785  0.00  0.00    +0.155 HD
ENDROOT
BRANCH   2   5
ATOM      5  C   LIG    1       25.830 -22.102   7.630  0.00  0.00    +0.080 A 
ATOM      6  C   LIG    1       24.449 -21.920   7.459  0.00  0.00    +0.129 A 
ATOM      7  C   LIG    1       23.660 -22.933   6.906  0.00  0.00    +0.048 A 
ATOM      8  C   LIG    1       24.246 -24.142   6.526  0.00  0.00    +0.023 A 
ATOM      9  C   LIG    1       25.613 -24.337   6.703  0.00  0.00    +0.042 A 
ATOM     10 CL   LIG    1       26.330 -25.831   6.245  0.00  0.00    -0.084 Cl
ATOM     11  C   LIG    1       26.403 -23.328   7.247  0.00  0.00    +0.036 A 
BRANCH   6  12
ATOM     12  O   LIG    1       23.847 -20.746   7.827  0.00  0.00    -0.506 OA
ATOM     13  H   LIG    1       24.123 -20.035   7.220  0.00  0.00    +0.292 HD
ENDBRANCH   6  12
ENDBRANCH   2   5
BRANCH   3  14
ATOM     14  C   LIG    1       29.059 -20.085   7.921  0.00  0.00    +0.052 A 
ATOM     15  C   LIG    1       30.179 -20.616   8.597  0.00  0.00    +0.069 A 
ATOM     16 CL   LIG    1       30.302 -22.309   8.936  0.00  0.00    -0.081 Cl
ATOM     17  C   LIG    1       31.225 -19.793   9.019  0.00  0.00    +0.106 A 
ATOM     18  C   LIG    1       31.144 -18.426   8.749  0.00  0.00    +0.275 A 
ATOM     19  C   LIG    1       30.070 -17.874   8.054  0.00  0.00    +0.086 A 
ATOM     20  C   LIG    1       29.033 -18.711   7.640  0.00  0.00    +0.031 A 
BRANCH  18  21
ATOM     21  N   LIG    1       32.191 -17.548   9.228  0.00  0.00    +0.080 N 
ATOM     22  O   LIG    1       32.546 -16.634   8.473  0.00  0.00    -0.576 OA
ATOM     23  O   LIG    1       32.652 -17.782  10.352  0.00  0.00    +0.041 OA
ENDBRANCH  18  21
ENDBRANCH   3  14
TORSDOF 4
ENDMDL
MODEL 3
REMARK VINA RESULT:      -7.8      2.819      7.839
REMARK  Name = *****
REMARK                            x       y       z     vdW  Elec       q    Type
REMARK                         _______ _______ _______ _____ _____    ______ ____
ROOT
ATOM      1  O   LIG    1       29.541 -21.367   8.325  0.00  0.00    -0.270 OA
ATOM      2  C   LIG    1       29.227 -20.187   8.250  0.00  0.00    +0.252 C 
ATOM      3  N   LIG    1       27.980 -19.714   7.886  0.00  0.00    -0.280 N 
ATOM      4  H   LIG    1       27.869 -18.699   7.874  0.00  0.00    +0.155 HD
ENDROOT
BRANCH   2   5
ATOM      5  C   LIG    1       30.266 -19.159   8.586  0.00  0.00    +0.080 A 
ATOM      6  C   LIG    1       31.451 -18.954   7.861  0.00  0.00    +0.129 A 
ATOM      7  C   LIG    1       32.351 -17.954   8.236  0.00  0.00    +0.048 A 
ATOM      8  C   LIG    1       32.079 -17.153   9.347  0.00  0.00    +0.023 A 
ATOM      9  C   LIG    1       30.913 -17.357  10.080  0.00  0.00    +0.042 A 
ATOM     10 CL   LIG    1       30.586 -16.377  11.455  0.00  0.00    -0.084 Cl
ATOM     11  C   LIG    1       30.010 -18.348   9.705  0.00  0.00    +0.036 A 
BRANCH   6  12
ATOM     12  O   LIG    1       31.746 -19.728   6.770  0.00  0.00    -0.506 OA
ATOM     13  H   LIG    1       31.374 -19.315   5.969  0.00  0.00    +0.292 HD
ENDBRANCH   6  12
ENDBRANCH   2   5
BRANCH   3  14
ATOM     14  C   LIG    1       26.830 -20.465   7.554  0.00  0.00    +0.052 A 
ATOM     15  C   LIG    1       26.382 -20.472   6.214  0.00  0.00    +0.069 A 
ATOM     16 CL   LIG    1       27.257 -19.643   4.972  0.00  0.00    -0.081 Cl
ATOM     17  C   LIG    1       25.215 -21.145   5.847  0.00  0.00    +0.106 A 
ATOM     18  C   LIG    1       24.501 -21.822   6.835  0.00  0.00    +0.275 A 
ATOM     19  C   LIG    1       24.932 -21.865   8.159  0.00  0.00    +0.086 A 
ATOM     20  C   LIG    1       26.101 -21.186   8.509  0.00  0.00    +0.031 A 
BRANCH  18  21
ATOM     21  N   LIG    1       23.258 -22.478   6.485  0.00  0.00    +0.080 N 
ATOM     22  O   LIG    1       22.424 -21.805   5.866  0.00  0.00    -0.576 OA
ATOM     23  O   LIG    1       23.124 -23.656   6.837  0.00  0.00    +0.041 OA
ENDBRANCH  18  21
ENDBRANCH   3  14
TORSDOF 4
ENDMDL
MODEL 4
REMARK VINA RESULT:      -7.6      4.724      7.563
REMARK  Name = *****
REMARK                            x       y       z     vdW  Elec       q    Type
REMARK                         _______ _______ _______ _____ _____    ______ ____
ROOT
ATOM      1  O   LIG    1       23.267 -22.122   6.737  0.00  0.00    -0.270 OA
ATOM      2  C   LIG    1       23.951 -22.040   5.726  0.00  0.00    +0.252 C 
ATOM      3  N   LIG    1       24.713 -23.062   5.191  0.00  0.00    -0.280 N 
ATOM      4  H   LIG    1       25.228 -22.842   4.338  0.00  0.00    +0.155 HD
ENDROOT
BRANCH   2   5
ATOM      5  C   LIG    1       23.969 -20.732   4.993  0.00  0.00    +0.080 A 
ATOM      6  C   LIG    1       25.125 -20.111   4.493  0.00  0.00    +0.129 A 
ATOM      7  C   LIG    1       25.039 -18.900   3.801  0.00  0.00    +0.048 A 
ATOM      8  C   LIG    1       23.796 -18.294   3.610  0.00  0.00    +0.023 A 
ATOM      9  C   LIG    1       22.646 -18.895   4.113  0.00  0.00    +0.042 A 
ATOM     10 CL   LIG    1       21.118 -18.140   3.886  0.00  0.00    -0.084 Cl
ATOM     11  C   LIG    1       22.726 -20.105   4.796  0.00  0.00    +0.036 A 
BRANCH   6  12
ATOM     12  O   LIG    1       26.357 -20.681   4.671  0.00  0.00    -0.506 OA
ATOM     13  H   LIG    1       27.050 -20.033   4.446  0.00  0.00    +0.292 HD
ENDBRANCH   6  12
ENDBRANCH   2   5
BRANCH   3  14
ATOM     14  C   LIG    1       24.844 -24.387   5.666  0.00  0.00    +0.052 A 
ATOM     15  C   LIG    1       25.676 -24.634   6.780  0.00  0.00    +0.069 A 
ATOM     16 CL   LIG    1       26.471 -23.339   7.610  0.00  0.00    -0.081 Cl
ATOM     17  C   LIG    1       25.890 -25.932   7.248  0.00  0.00    +0.106 A 
ATOM     18  C   LIG    1       25.254 -26.986   6.594  0.00  0.00    +0.275 A 
ATOM     19  C   LIG    1       24.399 -26.776   5.514  0.00  0.00    +0.086 A 
ATOM     20  C   LIG    1       24.197 -25.472   5.059  0.00  0.00    +0.031 A 
BRANCH  18  21
ATOM     21  N   LIG    1       25.508 -28.344   7.028  0.00  0.00    +0.080 N 
ATOM     22  O   LIG    1       25.283 -29.246   6.210  0.00  0.00    -0.576 OA
ATOM     23  O   LIG    1       25.925 -28.498   8.182  0.00  0.00    +0.041 OA
ENDBRANCH  18  21
ENDBRANCH   3  14
TORSDOF 4
ENDMDL
MODEL 5
REMARK VINA RESULT:      -7.6      4.633      8.359
REMARK  Name = *****
REMARK                            x       y       z     vdW  Elec       q    Type
REMARK                         _______ _______ _______ _____ _____    ______ ____
ROOT
ATOM      1  O   LIG    1       23.354 -24.900   6.500  0.00  0.00    -0.270 OA
ATOM      2  C   LIG    1       24.546 -24.664   6.643  0.00  0.00    +0.252 C 
ATOM      3  N   LIG    1       25.550 -25.612   6.672  0.00  0.00    -0.280 N 
ATOM      4  H   LIG    1       26.500 -25.259   6.794  0.00  0.00    +0.155 HD
ENDROOT
BRANCH   2   5
ATOM      5  C   LIG    1       24.965 -23.232   6.792  0.00  0.00    +0.080 A 
ATOM      6  C   LIG    1       24.145 -22.126   6.518  0.00  0.00    +0.129 A 
ATOM      7  C   LIG    1       24.617 -20.824   6.710  0.00  0.00    +0.048 A 
ATOM      8  C   LIG    1       25.919 -20.617   7.171  0.00  0.00    +0.023 A 
ATOM      9  C   LIG    1       26.744 -21.707   7.433  0.00  0.00    +0.042 A 
ATOM     10 CL   LIG    1       28.350 -21.449   7.990  0.00  0.00    -0.084 Cl
ATOM     11  C   LIG    1       26.275 -23.005   7.250  0.00  0.00    +0.036 A 
BRANCH   6  12
ATOM     12  O   LIG    1       22.866 -22.300   6.060  0.00  0.00    -0.506 OA
ATOM     13  H   LIG    1       22.237 -21.918   6.700  0.00  0.00    +0.292 HD
ENDBRANCH   6  12
ENDBRANCH   2   5
BRANCH   3  14
ATOM     14  C   LIG    1       25.427 -27.013   6.525  0.00  0.00    +0.052 A 
ATOM     15  C   LIG    1       25.371 -27.560   5.225  0.00  0.00    +0.069 A 
ATOM     16 CL   LIG    1       25.525 -26.558   3.822  0.00  0.00    -0.081 Cl
ATOM     17  C   LIG    1       25.185 -28.930   5.026  0.00  0.00    +0.106 A 
ATOM     18  C   LIG    1       25.064 -29.753   6.146  0.00  0.00    +0.275 A 
ATOM     19  C   LIG    1       25.150 -29.250   7.443  0.00  0.00    +0.086 A 
ATOM     20  C   LIG    1       25.335 -27.879   7.624  0.00  0.00    +0.031 A 
BRANCH  18  21
ATOM     21  N   LIG    1       24.813 -31.167   5.961  0.00  0.00    +0.080 N 
ATOM     22  O   LIG    1       23.650 -31.556   6.125  0.00  0.00    -0.576 OA
ATOM     23  O   LIG    1       25.781 -31.876   5.660  0.00  0.00    +0.041 OA
ENDBRANCH  18  21
ENDBRANCH   3  14
TORSDOF 4
ENDMDL
MODEL 6
REMARK VINA RESULT:      -7.5      2.585      3.321
REMARK  Name = *****
REMARK                            x       y       z     vdW  Elec       q    Type
REMARK                         _______ _______ _______ _____ _____    ______ ____
ROOT
ATOM      1  O   LIG    1       25.037 -21.149   8.530  0.00  0.00    -0.270 OA
ATOM      2  C   LIG    1       25.189 -21.019   7.323  0.00  0.00    +0.252 C 
ATOM      3  N   LIG    1       26.401 -20.835   6.685  0.00  0.00    -0.280 N 
ATOM      4  H   LIG    1       26.367 -20.747   5.669  0.00  0.00    +0.155 HD
ENDROOT
BRANCH   2   5
ATOM      5  C   LIG    1       23.969 -21.069   6.452  0.00  0.00    +0.080 A 
ATOM      6  C   LIG    1       23.150 -22.197   6.287  0.00  0.00    +0.129 A 
ATOM      7  C   LIG    1       22.017 -22.141   5.471  0.00  0.00    +0.048 A 
ATOM      8  C   LIG    1       21.698 -20.957   4.804  0.00  0.00    +0.023 A 
ATOM      9  C   LIG    1       22.511 -19.836   4.951  0.00  0.00    +0.042 A 
ATOM     10 CL   LIG    1       22.122 -18.382   4.119  0.00  0.00    -0.084 Cl
ATOM     11  C   LIG    1       23.636 -19.886   5.769  0.00  0.00    +0.036 A 
BRANCH   6  12
ATOM     12  O   LIG    1       23.442 -23.373   6.925  0.00  0.00    -0.506 OA
ATOM     13  H   LIG    1       24.234 -23.773   6.522  0.00  0.00    +0.292 HD
ENDBRANCH   6  12
ENDBRANCH   2   5
BRANCH   3  14
ATOM     14  C   LIG    1       27.689 -20.782   7.266  0.00  0.00    +0.052 A 
ATOM     15  C   LIG    1       28.658 -19.925   6.700  0.00  0.00    +0.069 A 
ATOM     16 CL   LIG    1       28.272 -18.893   5.365  0.00  0.00    -0.081 Cl
ATOM     17  C   LIG    1       29.962 -19.883   7.196  0.00  0.00    +0.106 A 
ATOM     18  C   LIG    1       30.288 -20.705   8.275  0.00  0.00    +0.275 A 
ATOM     19  C   LIG    1       29.348 -21.536   8.879  0.00  0.00    +0.086 A 
ATOM     20  C   LIG    1       28.049 -21.566   8.370  0.00  0.00    +0.031 A 
BRANCH  18  21
ATOM     21  N   LIG    1       31.650 -20.719   8.767  0.00  0.00    +0.080 N 
ATOM     22  O   LIG    1       32.154 -21.827   8.992  0.00  0.00    -0.576 OA
ATOM     23  O   LIG    1       32.202 -19.624   8.929  0.00  0.00    +0.041 OA
ENDBRANCH  18  21
ENDBRANCH   3  14
TORSDOF 4
ENDMDL
MODEL 7
REMARK VINA RESULT:      -7.4      2.534      3.296
REMARK  Name = *****
REMARK                            x       y       z     vdW  Elec       q    Type
REMARK                         _______ _______ _______ _____ _____    ______ ____
ROOT
ATOM      1  O   LIG    1       26.780 -20.274   8.906  0.00  0.00    -0.270 OA
ATOM      2  C   LIG    1       27.171 -20.414   7.756  0.00  0.00    +0.252 C 
ATOM      3  N   LIG    1       28.377 -19.956   7.260  0.00  0.00    -0.280 N 
ATOM      4  H   LIG    1       28.565 -20.154   6.277  0.00  0.00    +0.155 HD
ENDROOT
BRANCH   2   5
ATOM      5  C   LIG    1       26.283 -21.147   6.796  0.00  0.00    +0.080 A 
ATOM      6  C   LIG    1       25.863 -22.478   6.951  0.00  0.00    +0.129 A 
ATOM      7  C   LIG    1       25.014 -23.071   6.014  0.00  0.00    +0.048 A 
ATOM      8  C   LIG    1       24.581 -22.340   4.906  0.00  0.00    +0.023 A 
ATOM      9  C   LIG    1       25.001 -21.024   4.736  0.00  0.00    +0.042 A 
ATOM     10 CL   LIG    1       24.477 -20.129   3.364  0.00  0.00    -0.084 Cl
ATOM     11  C   LIG    1       25.842 -20.427   5.671  0.00  0.00    +0.036 A 
BRANCH   6  12
ATOM     12  O   LIG    1       26.276 -23.221   8.026  0.00  0.00    -0.506 OA
ATOM     13  H   LIG    1       26.791 -22.656   8.632  0.00  0.00    +0.292 HD
ENDBRANCH   6  12
ENDBRANCH   2   5
BRANCH   3  14
ATOM     14  C   LIG    1       29.397 -19.269   7.957  0.00  0.00    +0.052 A 
ATOM     15  C   LIG    1       30.388 -20.017   8.629  0.00  0.00    +0.069 A 
ATOM     16 CL   LIG    1       30.414 -21.746   8.550  0.00  0.00    -0.081 Cl
ATOM     17  C   LIG    1       31.380 -19.388   9.384  0.00  0.00    +0.106 A 
ATOM     18  C   LIG    1       31.376 -17.994   9.454  0.00  0.00    +0.275 A 
ATOM     19  C   LIG    1       30.434 -17.224   8.776  0.00  0.00    +0.086 A 
ATOM     20  C   LIG    1       29.450 -17.869   8.026  0.00  0.00    +0.031 A 
BRANCH  18  21
ATOM     21  N   LIG    1       32.361 -17.325  10.279  0.00  0.00    +0.080 N 
ATOM     22  O   LIG    1       33.025 -16.429   9.744  0.00  0.00    -0.576 OA
ATOM     23  O   LIG    1       32.466 -17.706  11.452  0.00  0.00    +0.041 OA
ENDBRANCH  18  21
ENDBRANCH   3  14
TORSDOF 4
ENDMDL
MODEL 8
REMARK VINA RESULT:      -7.3      5.125      8.917
REMARK  Name = *****
REMARK                            x       y       z     vdW  Elec       q    Type
REMARK                         _______ _______ _______ _____ _____    ______ ____
ROOT
ATOM      1  O   LIG    1       26.551 -25.743   5.737  0.00  0.00    -0.270 OA
ATOM      2  C   LIG    1       25.524 -25.569   6.379  0.00  0.00    +0.252 C 
ATOM      3  N   LIG    1       24.657 -26.565   6.785  0.00  0.00    -0.280 N 
ATOM      4  H   LIG    1       23.841 -26.263   7.318  0.00  0.00    +0.155 HD
ENDROOT
BRANCH   2   5
ATOM      5  C   LIG    1       25.168 -24.165   6.768  0.00  0.00    +0.080 A 
ATOM      6  C   LIG    1       23.861 -23.653   6.806  0.00  0.00    +0.129 A 
ATOM      7  C   LIG    1       23.624 -22.335   7.206  0.00  0.00    +0.048 A 
ATOM      8  C   LIG    1       24.695 -21.513   7.563  0.00  0.00    +0.023 A 
ATOM      9  C   LIG    1       25.995 -22.008   7.517  0.00  0.00    +0.042 A 
ATOM     10 CL   LIG    1       27.313 -20.990   7.947  0.00  0.00    -0.084 Cl
ATOM     11  C   LIG    1       26.235 -23.322   7.126  0.00  0.00    +0.036 A 
BRANCH   6  12
ATOM     12  O   LIG    1       22.793 -24.435   6.456  0.00  0.00    -0.506 OA
ATOM     13  H   LIG    1       22.088 -24.340   7.123  0.00  0.00    +0.292 HD
ENDBRANCH   6  12
ENDBRANCH   2   5
BRANCH   3  14
ATOM     14  C   LIG    1       24.776 -27.958   6.575  0.00  0.00    +0.052 A 
ATOM     15  C   LIG    1       25.532 -28.724   7.490  0.00  0.00    +0.069 A 
ATOM     16 CL   LIG    1       26.245 -28.000   8.891  0.00  0.00    -0.081 Cl
ATOM     17  C   LIG    1       25.734 -30.091   7.293  0.00  0.00    +0.106 A 
ATOM     18  C   LIG    1       25.161 -30.692   6.171  0.00  0.00    +0.275 A 
ATOM     19  C   LIG    1       24.381 -29.973   5.268  0.00  0.00    +0.086 A 
ATOM     20  C   LIG    1       24.190 -28.607   5.479  0.00  0.00    +0.031 A 
BRANCH  18  21
ATOM     21  N   LIG    1       25.407 -32.096   5.918  0.00  0.00    +0.080 N 
ATOM     22  O   LIG    1       26.547 -32.516   6.148  0.00  0.00    -0.576 OA
ATOM     23  O   LIG    1       24.459 -32.765   5.487  0.00  0.00    +0.041 OA
ENDBRANCH  18  21
ENDBRANCH   3  14
TORSDOF 4
ENDMDL
MODEL 9
REMARK VINA RESULT:      -7.2      5.272      8.883
REMARK  Name = *****
REMARK                            x       y       z     vdW  Elec       q    Type
REMARK                         _______ _______ _______ _____ _____    ______ ____
ROOT
ATOM      1  O   LIG    1       23.588 -25.897   5.228  0.00  0.00    -0.270 OA
ATOM      2  C   LIG    1       24.312 -25.678   6.190  0.00  0.00    +0.252 C 
ATOM      3  N   LIG    1       25.010 -26.636   6.900  0.00  0.00    -0.280 N 
ATOM      4  H   LIG    1       25.576 -26.297   7.678  0.00  0.00    +0.155 HD
ENDROOT
BRANCH   2   5
ATOM      5  C   LIG    1       24.468 -24.257   6.642  0.00  0.00    +0.080 A 
ATOM      6  C   LIG    1       23.405 -23.370   6.875  0.00  0.00    +0.129 A 
ATOM      7  C   LIG    1       23.648 -22.067   7.319  0.00  0.00    +0.048 A 
ATOM      8  C   LIG    1       24.959 -21.637   7.527  0.00  0.00    +0.023 A 
ATOM      9  C   LIG    1       26.021 -22.504   7.288  0.00  0.00    +0.042 A 
ATOM     10 CL   LIG    1       27.636 -21.968   7.535  0.00  0.00    -0.084 Cl
ATOM     11  C   LIG    1       25.783 -23.805   6.852  0.00  0.00    +0.036 A 
BRANCH   6  12
ATOM     12  O   LIG    1       22.108 -23.764   6.673  0.00  0.00    -0.506 OA
ATOM     13  H   LIG    1       21.530 -23.319   7.319  0.00  0.00    +0.292 HD
ENDBRANCH   6  12
ENDBRANCH   2   5
BRANCH   3  14
ATOM     14  C   LIG    1       25.057 -28.029   6.662  0.00  0.00    +0.052 A 
ATOM     15  C   LIG    1       25.724 -28.503   5.511  0.00  0.00    +0.069 A 
ATOM     16 CL   LIG    1       26.541 -27.419   4.438  0.00  0.00    -0.081 Cl
ATOM     17  C   LIG    1       25.744 -29.864   5.198  0.00  0.00    +0.106 A 
ATOM     18  C   LIG    1       25.095 -30.752   6.056  0.00  0.00    +0.275 A 
ATOM     19  C   LIG    1       24.457 -30.322   7.217  0.00  0.00    +0.086 A 
ATOM     20  C   LIG    1       24.446 -28.959   7.515  0.00  0.00    +0.031 A 
BRANCH  18  21
ATOM     21  N   LIG    1       25.055 -32.160   5.718  0.00  0.00    +0.080 N 
ATOM     22  O   LIG    1       24.595 -32.928   6.572  0.00  0.00    -0.576 OA
ATOM     23  O   LIG    1       25.489 -32.485   4.606  0.00  0.00    +0.041 OA
ENDBRANCH  18  21
ENDBRANCH   3  14
TORSDOF 4
ENDMDL
