MODEL 1
REMARK VINA RESULT:      -5.8      0.000      0.000
REMARK  Name = *****
REMARK                            x       y       z     vdW  Elec       q    Type
REMARK                         _______ _______ _______ _____ _____    ______ ____
ROOT
ATOM      1  C   LIG    1       24.571 -19.288   4.489  0.00  0.00    +0.064 C 
ATOM      2  C   LIG    1       25.017 -20.229   5.683  0.00  0.00    +0.039 C 
ATOM      3  C   LIG    1       24.259 -21.552   5.364  0.00  0.00    -0.002 C 
ATOM      4  C   LIG    1       24.210 -21.572   3.834  0.00  0.00    +0.009 C 
ATOM      5  C   LIG    1       22.769 -21.356   5.702  0.00  0.00    +0.004 C 
ATOM      6  C   LIG    1       22.298 -20.386   4.616  0.00  0.00    +0.005 C 
ATOM      7  C   LIG    1       23.552 -20.200   3.744  0.00  0.00    +0.007 C 
ENDROOT
BRANCH   2   8
ATOM      8  C   LIG    1       26.501 -20.405   5.983  0.00  0.00    -0.043 A 
ATOM      9  C   LIG    1       27.005 -21.484   6.735  0.00  0.00    +0.004 A 
ATOM     10  C   LIG    1       28.363 -21.566   7.061  0.00  0.00    +0.000 A 
ATOM     11  C   LIG    1       29.245 -20.582   6.643  0.00  0.00    +0.000 A 
ATOM     12  C   LIG    1       28.769 -19.509   5.886  0.00  0.00    +0.000 A 
ATOM     13  C   LIG    1       27.412 -19.426   5.563  0.00  0.00    +0.004 A 
ENDBRANCH   2   8
BRANCH   1  14
ATOM     14  N   LIG    1       25.666 -18.831   3.622  0.00  0.00    -0.313 NA
ATOM     15  H   LIG    1       26.555 -19.054   4.071  0.00  0.00    +0.122 HD
BRANCH  14  17
ATOM     16  C   LIG    1       26.968 -16.758   3.602  0.00  0.00    +0.020 C 
ATOM     17  C   LIG    1       25.614 -17.397   3.331  0.00  0.00    +0.077 C 
ENDBRANCH  14  17
ENDBRANCH   1  14
TORSDOF 3
ENDMDL
MODEL 2
REMARK VINA RESULT:      -5.1      1.519      4.327
REMARK  Name = *****
REMARK                            x       y       z     vdW  Elec       q    Type
REMARK                         _______ _______ _______ _____ _____    ______ ____
ROOT
ATOM      1  C   LIG    1       24.628 -20.178   4.225  0.00  0.00    +0.064 C 
ATOM      2  C   LIG    1       23.656 -18.966   3.915  0.00  0.00    +0.039 C 
ATOM      3  C   LIG    1       22.512 -19.185   4.948  0.00  0.00    -0.002 C 
ATOM      4  C   LIG    1       23.231 -19.811   6.145  0.00  0.00    +0.009 C 
ATOM      5  C   LIG    1       21.646 -20.368   4.475  0.00  0.00    +0.004 C 
ATOM      6  C   LIG    1       22.569 -21.571   4.682  0.00  0.00    +0.005 C 
ATOM      7  C   LIG    1       23.824 -20.945   5.316  0.00  0.00    +0.007 C 
ENDROOT
BRANCH   2   8
ATOM      8  C   LIG    1       24.216 -17.548   3.880  0.00  0.00    -0.043 A 
ATOM      9  C   LIG    1       23.464 -16.421   4.262  0.00  0.00    +0.004 A 
ATOM     10  C   LIG    1       23.983 -15.129   4.136  0.00  0.00    +0.000 A 
ATOM     11  C   LIG    1       25.260 -14.932   3.633  0.00  0.00    +0.000 A 
ATOM     12  C   LIG    1       26.028 -16.036   3.257  0.00  0.00    +0.000 A 
ATOM     13  C   LIG    1       25.507 -17.328   3.381  0.00  0.00    +0.004 A 
ENDBRANCH   2   8
BRANCH   1  14
ATOM     14  N   LIG    1       25.972 -19.792   4.676  0.00  0.00    -0.313 NA
ATOM     15  H   LIG    1       26.624 -19.900   3.897  0.00  0.00    +0.122 HD
BRANCH  14  17
ATOM     16  C   LIG    1       27.849 -20.133   6.210  0.00  0.00    +0.020 C 
ATOM     17  C   LIG    1       26.446 -20.573   5.820  0.00  0.00    +0.077 C 
ENDBRANCH  14  17
ENDBRANCH   1  14
TORSDOF 3
ENDMDL
MODEL 3
REMARK VINA RESULT:      -4.0      4.221      7.041
REMARK  Name = *****
REMARK                            x       y       z     vdW  Elec       q    Type
REMARK                         _______ _______ _______ _____ _____    ______ ____
ROOT
ATOM      1  C   LIG    1       25.684 -13.833   2.575  0.00  0.00    +0.064 C 
ATOM      2  C   LIG    1       25.817 -15.187   3.388  0.00  0.00    +0.039 C 
ATOM      3  C   LIG    1       26.710 -14.764   4.592  0.00  0.00    -0.002 C 
ATOM      4  C   LIG    1       26.311 -13.306   4.834  0.00  0.00    +0.009 C 
ATOM      5  C   LIG    1       28.157 -14.593   4.093  0.00  0.00    +0.004 C 
ATOM      6  C   LIG    1       28.073 -13.331   3.231  0.00  0.00    +0.005 C 
ATOM      7  C   LIG    1       26.608 -12.889   3.399  0.00  0.00    +0.007 C 
ENDROOT
BRANCH   2   8
ATOM      8  C   LIG    1       24.558 -15.956   3.771  0.00  0.00    -0.043 A 
ATOM      9  C   LIG    1       23.437 -15.342   4.361  0.00  0.00    +0.004 A 
ATOM     10  C   LIG    1       22.334 -16.094   4.776  0.00  0.00    +0.000 A 
ATOM     11  C   LIG    1       22.322 -17.470   4.608  0.00  0.00    +0.000 A 
ATOM     12  C   LIG    1       23.418 -18.101   4.015  0.00  0.00    +0.000 A 
ATOM     13  C   LIG    1       24.522 -17.348   3.603  0.00  0.00    +0.004 A 
ENDBRANCH   2   8
BRANCH   1  14
ATOM     14  N   LIG    1       24.313 -13.321   2.450  0.00  0.00    -0.313 NA
ATOM     15  H   LIG    1       23.925 -13.634   1.560  0.00  0.00    +0.122 HD
BRANCH  14  17
ATOM     16  C   LIG    1       23.478 -11.447   3.787  0.00  0.00    +0.020 C 
ATOM     17  C   LIG    1       24.231 -11.861   2.531  0.00  0.00    +0.077 C 
ENDBRANCH  14  17
ENDBRANCH   1  14
TORSDOF 3
ENDMDL
MODEL 4
REMARK VINA RESULT:      -4.0      4.186      6.972
REMARK  Name = *****
REMARK                            x       y       z     vdW  Elec       q    Type
REMARK                         _______ _______ _______ _____ _____    ______ ____
ROOT
ATOM      1  C   LIG    1       25.353 -13.704   2.846  0.00  0.00    +0.064 C 
ATOM      2  C   LIG    1       25.667 -15.153   3.407  0.00  0.00    +0.039 C 
ATOM      3  C   LIG    1       26.728 -14.859   4.508  0.00  0.00    -0.002 C 
ATOM      4  C   LIG    1       26.321 -13.481   5.034  0.00  0.00    +0.009 C 
ATOM      5  C   LIG    1       28.067 -14.529   3.822  0.00  0.00    +0.004 C 
ATOM      6  C   LIG    1       27.797 -13.160   3.192  0.00  0.00    +0.005 C 
ATOM      7  C   LIG    1       26.365 -12.838   3.653  0.00  0.00    +0.007 C 
ENDROOT
BRANCH   2   8
ATOM      8  C   LIG    1       24.516 -16.046   3.857  0.00  0.00    -0.043 A 
ATOM      9  C   LIG    1       24.498 -17.437   3.636  0.00  0.00    +0.004 A 
ATOM     10  C   LIG    1       23.387 -18.210   3.988  0.00  0.00    +0.000 A 
ATOM     11  C   LIG    1       22.277 -17.618   4.569  0.00  0.00    +0.000 A 
ATOM     12  C   LIG    1       22.277 -16.242   4.807  0.00  0.00    +0.000 A 
ATOM     13  C   LIG    1       23.386 -15.469   4.453  0.00  0.00    +0.004 A 
ENDBRANCH   2   8
BRANCH   1  14
ATOM     14  N   LIG    1       23.962 -13.264   3.018  0.00  0.00    -0.313 NA
ATOM     15  H   LIG    1       23.415 -13.585   2.219  0.00  0.00    +0.122 HD
BRANCH  14  17
ATOM     16  C   LIG    1       23.463 -11.447   4.581  0.00  0.00    +0.020 C 
ATOM     17  C   LIG    1       23.827 -11.812   3.150  0.00  0.00    +0.077 C 
ENDBRANCH  14  17
ENDBRANCH   1  14
TORSDOF 3
ENDMDL
MODEL 5
REMARK VINA RESULT:      -3.6      2.669      5.833
REMARK  Name = *****
REMARK                            x       y       z     vdW  Elec       q    Type
REMARK                         _______ _______ _______ _____ _____    ______ ____
ROOT
ATOM      1  C   LIG    1       25.651 -14.776   3.181  0.00  0.00    +0.064 C 
ATOM      2  C   LIG    1       26.987 -15.614   3.332  0.00  0.00    +0.039 C 
ATOM      3  C   LIG    1       27.837 -14.716   4.278  0.00  0.00    -0.002 C 
ATOM      4  C   LIG    1       26.788 -14.045   5.168  0.00  0.00    +0.009 C 
ATOM      5  C   LIG    1       28.353 -13.509   3.472  0.00  0.00    +0.004 C 
ATOM      6  C   LIG    1       27.081 -12.693   3.229  0.00  0.00    +0.005 C 
ATOM      7  C   LIG    1       26.003 -13.490   3.985  0.00  0.00    +0.007 C 
ENDROOT
BRANCH   2   8
ATOM      8  C   LIG    1       26.908 -17.079   3.750  0.00  0.00    -0.043 A 
ATOM      9  C   LIG    1       25.826 -17.913   3.408  0.00  0.00    +0.004 A 
ATOM     10  C   LIG    1       25.749 -19.227   3.881  0.00  0.00    +0.000 A 
ATOM     11  C   LIG    1       26.746 -19.737   4.697  0.00  0.00    +0.000 A 
ATOM     12  C   LIG    1       27.834 -18.932   5.040  0.00  0.00    +0.000 A 
ATOM     13  C   LIG    1       27.909 -17.617   4.569  0.00  0.00    +0.004 A 
ENDBRANCH   2   8
BRANCH   1  14
ATOM     14  N   LIG    1       24.442 -15.446   3.681  0.00  0.00    -0.313 NA
ATOM     15  H   LIG    1       23.964 -15.889   2.895  0.00  0.00    +0.122 HD
BRANCH  14  17
ATOM     16  C   LIG    1       22.561 -15.330   5.243  0.00  0.00    +0.020 C 
ATOM     17  C   LIG    1       23.518 -14.538   4.364  0.00  0.00    +0.077 C 
ENDBRANCH  14  17
ENDBRANCH   1  14
TORSDOF 3
ENDMDL
MODEL 6
REMARK VINA RESULT:      -3.3      3.304      6.182
REMARK  Name = *****
REMARK                            x       y       z     vdW  Elec       q    Type
REMARK                         _______ _______ _______ _____ _____    ______ ____
ROOT
ATOM      1  C   LIG    1       23.889 -14.535   3.721  0.00  0.00    +0.064 C 
ATOM      2  C   LIG    1       25.305 -14.768   3.050  0.00  0.00    +0.039 C 
ATOM      3  C   LIG    1       26.023 -13.411   3.312  0.00  0.00    -0.002 C 
ATOM      4  C   LIG    1       25.442 -12.955   4.652  0.00  0.00    +0.009 C 
ATOM      5  C   LIG    1       25.432 -12.353   2.361  0.00  0.00    +0.004 C 
ATOM      6  C   LIG    1       24.023 -12.142   2.920  0.00  0.00    +0.005 C 
ATOM      7  C   LIG    1       24.000 -13.047   4.165  0.00  0.00    +0.007 C 
ENDROOT
BRANCH   2   8
ATOM      8  C   LIG    1       26.120 -15.999   3.429  0.00  0.00    -0.043 A 
ATOM      9  C   LIG    1       25.634 -17.313   3.276  0.00  0.00    +0.004 A 
ATOM     10  C   LIG    1       26.378 -18.413   3.713  0.00  0.00    +0.000 A 
ATOM     11  C   LIG    1       27.618 -18.232   4.305  0.00  0.00    +0.000 A 
ATOM     12  C   LIG    1       28.124 -16.939   4.457  0.00  0.00    +0.000 A 
ATOM     13  C   LIG    1       27.379 -15.839   4.023  0.00  0.00    +0.004 A 
ENDBRANCH   2   8
BRANCH   1  14
ATOM     14  N   LIG    1       23.579 -15.440   4.837  0.00  0.00    -0.313 NA
ATOM     15  H   LIG    1       24.267 -16.194   4.849  0.00  0.00    +0.122 HD
BRANCH  14  17
ATOM     16  C   LIG    1       22.310 -17.515   4.566  0.00  0.00    +0.020 C 
ATOM     17  C   LIG    1       22.232 -16.009   4.765  0.00  0.00    +0.077 C 
ENDBRANCH  14  17
ENDBRANCH   1  14
TORSDOF 3
ENDMDL
MODEL 7
REMARK VINA RESULT:      -3.2      1.159      4.588
REMARK  Name = *****
REMARK                            x       y       z     vdW  Elec       q    Type
REMARK                         _______ _______ _______ _____ _____    ______ ____
ROOT
ATOM      1  C   LIG    1       27.649 -19.565   4.677  0.00  0.00    +0.064 C 
ATOM      2  C   LIG    1       26.554 -20.541   5.277  0.00  0.00    +0.039 C 
ATOM      3  C   LIG    1       26.988 -20.648   6.769  0.00  0.00    -0.002 C 
ATOM      4  C   LIG    1       27.593 -19.274   7.062  0.00  0.00    +0.009 C 
ATOM      5  C   LIG    1       28.238 -21.544   6.853  0.00  0.00    +0.004 C 
ATOM      6  C   LIG    1       29.323 -20.674   6.212  0.00  0.00    +0.005 C 
ATOM      7  C   LIG    1       28.583 -19.360   5.906  0.00  0.00    +0.007 C 
ENDROOT
BRANCH   2   8
ATOM      8  C   LIG    1       25.077 -20.229   5.067  0.00  0.00    -0.043 A 
ATOM      9  C   LIG    1       24.587 -19.600   3.906  0.00  0.00    +0.004 A 
ATOM     10  C   LIG    1       23.238 -19.254   3.785  0.00  0.00    +0.000 A 
ATOM     11  C   LIG    1       22.349 -19.530   4.813  0.00  0.00    +0.000 A 
ATOM     12  C   LIG    1       22.810 -20.163   5.969  0.00  0.00    +0.000 A 
ATOM     13  C   LIG    1       24.160 -20.507   6.090  0.00  0.00    +0.004 A 
ENDBRANCH   2   8
BRANCH   1  14
ATOM     14  N   LIG    1       27.122 -18.301   4.145  0.00  0.00    -0.313 NA
ATOM     15  H   LIG    1       26.979 -18.402   3.139  0.00  0.00    +0.122 HD
BRANCH  14  17
ATOM     16  C   LIG    1       27.341 -15.874   3.913  0.00  0.00    +0.020 C 
ATOM     17  C   LIG    1       27.999 -17.156   4.399  0.00  0.00    +0.077 C 
ENDBRANCH  14  17
ENDBRANCH   1  14
TORSDOF 3
ENDMDL
MODEL 8
REMARK VINA RESULT:      -3.2      3.907      6.850
REMARK  Name = *****
REMARK                            x       y       z     vdW  Elec       q    Type
REMARK                         _______ _______ _______ _____ _____    ______ ____
ROOT
ATOM      1  C   LIG    1       25.813 -13.762   3.825  0.00  0.00    +0.064 C 
ATOM      2  C   LIG    1       24.302 -14.170   4.068  0.00  0.00    +0.039 C 
ATOM      3  C   LIG    1       23.559 -13.370   2.957  0.00  0.00    -0.002 C 
ATOM      4  C   LIG    1       24.574 -13.329   1.812  0.00  0.00    +0.009 C 
ATOM      5  C   LIG    1       23.519 -11.886   3.367  0.00  0.00    +0.004 C 
ATOM      6  C   LIG    1       24.980 -11.453   3.223  0.00  0.00    +0.005 C 
ATOM      7  C   LIG    1       25.669 -12.718   2.679  0.00  0.00    +0.007 C 
ENDROOT
BRANCH   2   8
ATOM      8  C   LIG    1       23.928 -15.646   4.144  0.00  0.00    -0.043 A 
ATOM      9  C   LIG    1       24.770 -16.673   3.674  0.00  0.00    +0.004 A 
ATOM     10  C   LIG    1       24.356 -18.008   3.683  0.00  0.00    +0.000 A 
ATOM     11  C   LIG    1       23.102 -18.350   4.163  0.00  0.00    +0.000 A 
ATOM     12  C   LIG    1       22.254 -17.350   4.645  0.00  0.00    +0.000 A 
ATOM     13  C   LIG    1       22.667 -16.015   4.633  0.00  0.00    +0.004 A 
ENDBRANCH   2   8
BRANCH   1  14
ATOM     14  N   LIG    1       26.703 -14.876   3.470  0.00  0.00    -0.313 NA
ATOM     15  H   LIG    1       26.261 -15.752   3.751  0.00  0.00    +0.122 HD
BRANCH  14  17
ATOM     16  C   LIG    1       28.633 -13.410   3.815  0.00  0.00    +0.020 C 
ATOM     17  C   LIG    1       28.028 -14.779   4.087  0.00  0.00    +0.077 C 
ENDBRANCH  14  17
ENDBRANCH   1  14
TORSDOF 3
ENDMDL
MODEL 9
REMARK VINA RESULT:      -3.0      3.775      6.704
REMARK  Name = *****
REMARK                            x       y       z     vdW  Elec       q    Type
REMARK                         _______ _______ _______ _____ _____    ______ ____
ROOT
ATOM      1  C   LIG    1       25.755 -13.992   3.923  0.00  0.00    +0.064 C 
ATOM      2  C   LIG    1       24.225 -14.359   4.106  0.00  0.00    +0.039 C 
ATOM      3  C   LIG    1       23.540 -13.476   3.021  0.00  0.00    -0.002 C 
ATOM      4  C   LIG    1       24.586 -13.410   1.906  0.00  0.00    +0.009 C 
ATOM      5  C   LIG    1       23.538 -12.015   3.509  0.00  0.00    +0.004 C 
ATOM      6  C   LIG    1       25.017 -11.627   3.426  0.00  0.00    +0.005 C 
ATOM      7  C   LIG    1       25.677 -12.884   2.832  0.00  0.00    +0.007 C 
ENDROOT
BRANCH   2   8
ATOM      8  C   LIG    1       23.800 -15.823   4.093  0.00  0.00    -0.043 A 
ATOM      9  C   LIG    1       22.556 -16.262   4.587  0.00  0.00    +0.004 A 
ATOM     10  C   LIG    1       22.236 -17.622   4.636  0.00  0.00    +0.000 A 
ATOM     11  C   LIG    1       23.143 -18.571   4.191  0.00  0.00    +0.000 A 
ATOM     12  C   LIG    1       24.378 -18.159   3.686  0.00  0.00    +0.000 A 
ATOM     13  C   LIG    1       24.698 -16.799   3.640  0.00  0.00    +0.004 A 
ENDBRANCH   2   8
BRANCH   1  14
ATOM     14  N   LIG    1       26.617 -15.116   3.531  0.00  0.00    -0.313 NA
ATOM     15  H   LIG    1       26.208 -15.982   3.885  0.00  0.00    +0.122 HD
BRANCH  14  17
ATOM     16  C   LIG    1       28.478 -13.559   3.850  0.00  0.00    +0.020 C 
ATOM     17  C   LIG    1       27.991 -14.990   4.019  0.00  0.00    +0.077 C 
ENDBRANCH  14  17
ENDBRANCH   1  14
TORSDOF 3
ENDMDL
