MODEL 1
REMARK VINA RESULT:      -4.8      0.000      0.000
REMARK  Name = *****
REMARK                            x       y       z     vdW  Elec       q    Type
REMARK                         _______ _______ _______ _____ _____    ______ ____
ROOT
ATOM      1  C   LIG    1       27.495 -20.314   5.934  0.00  0.00    -0.008 A 
ATOM      2  S   LIG    1       26.241 -21.186   6.691  0.00  0.00    -0.078 S 
ATOM      3  C   LIG    1       25.045 -20.511   5.676  0.00  0.00    +0.084 A 
ATOM      4  N   LIG    1       23.731 -20.969   5.831  0.00  0.00    -0.267 N 
ATOM      5  C   LIG    1       22.854 -20.942   4.738  0.00  0.00    +0.241 C 
ATOM      6  C   LIG    1       23.439 -20.578   3.378  0.00  0.00    +0.238 C 
ATOM      7  N   LIG    1       23.745 -19.152   3.306  0.00  0.00    -0.273 NA
ATOM      8  C   LIG    1       24.746 -18.687   3.976  0.00  0.00    +0.077 C 
ATOM      9  O   LIG    1       21.673 -21.290   4.824  0.00  0.00    -0.273 OA
ATOM     10  C   LIG    1       23.230 -21.570   7.062  0.00  0.00    +0.139 C 
ATOM     11  C   LIG    1       25.568 -19.548   4.825  0.00  0.00    +0.029 A 
ATOM     12  C   LIG    1       27.003 -19.495   4.939  0.00  0.00    +0.023 A 
ENDROOT
BRANCH   8  13
ATOM     13  C   LIG    1       25.068 -17.230   3.827  0.00  0.00    +0.019 A 
ATOM     14  C   LIG    1       24.184 -16.169   4.078  0.00  0.00    +0.050 A 
ATOM     15 CL   LIG    1       22.524 -16.368   4.515  0.00  0.00    -0.083 Cl
ATOM     16  C   LIG    1       24.611 -14.844   3.895  0.00  0.00    +0.021 A 
ATOM     17  C   LIG    1       25.892 -14.566   3.418  0.00  0.00    +0.002 A 
ATOM     18  C   LIG    1       26.758 -15.611   3.121  0.00  0.00    +0.001 A 
ATOM     19  C   LIG    1       26.352 -16.930   3.327  0.00  0.00    +0.011 A 
ENDBRANCH   8  13
BRANCH   1  21
ATOM     20  C   LIG    1       29.441 -19.199   7.037  0.00  0.00    +0.009 C 
ATOM     21  C   LIG    1       28.912 -20.475   6.395  0.00  0.00    +0.039 C 
ENDBRANCH   1  21
TORSDOF 2
ENDMDL
MODEL 2
REMARK VINA RESULT:      -2.3      1.207      1.590
REMARK  Name = *****
REMARK                            x       y       z     vdW  Elec       q    Type
REMARK                         _______ _______ _______ _____ _____    ______ ____
ROOT
ATOM      1  C   LIG    1       27.407 -20.192   5.933  0.00  0.00    -0.008 A 
ATOM      2  S   LIG    1       26.179 -21.102   6.689  0.00  0.00    -0.078 S 
ATOM      3  C   LIG    1       24.964 -20.456   5.677  0.00  0.00    +0.084 A 
ATOM      4  N   LIG    1       23.663 -20.952   5.832  0.00  0.00    -0.267 N 
ATOM      5  C   LIG    1       22.784 -20.945   4.741  0.00  0.00    +0.241 C 
ATOM      6  C   LIG    1       23.357 -20.559   3.381  0.00  0.00    +0.238 C 
ATOM      7  N   LIG    1       23.623 -19.126   3.315  0.00  0.00    -0.273 NA
ATOM      8  C   LIG    1       24.612 -18.635   3.985  0.00  0.00    +0.077 C 
ATOM      9  O   LIG    1       21.613 -21.326   4.827  0.00  0.00    -0.273 OA
ATOM     10  C   LIG    1       23.181 -21.572   7.062  0.00  0.00    +0.139 C 
ATOM     11  C   LIG    1       25.458 -19.477   4.829  0.00  0.00    +0.029 A 
ATOM     12  C   LIG    1       26.892 -19.383   4.942  0.00  0.00    +0.023 A 
ENDROOT
BRANCH   8  13
ATOM     13  C   LIG    1       24.892 -17.170   3.841  0.00  0.00    +0.019 A 
ATOM     14  C   LIG    1       26.156 -16.598   3.624  0.00  0.00    +0.050 A 
ATOM     15 CL   LIG    1       27.634 -17.493   3.581  0.00  0.00    -0.083 Cl
ATOM     16  C   LIG    1       26.284 -15.205   3.509  0.00  0.00    +0.021 A 
ATOM     17  C   LIG    1       25.176 -14.371   3.658  0.00  0.00    +0.002 A 
ATOM     18  C   LIG    1       23.928 -14.924   3.921  0.00  0.00    +0.001 A 
ATOM     19  C   LIG    1       23.787 -16.310   4.007  0.00  0.00    +0.011 A 
ENDBRANCH   8  13
BRANCH   1  21
ATOM     20  C   LIG    1       29.388 -18.975   6.851  0.00  0.00    +0.009 C 
ATOM     21  C   LIG    1       28.829 -20.316   6.392  0.00  0.00    +0.039 C 
ENDBRANCH   1  21
TORSDOF 2
ENDMDL
