MODEL 1
REMARK VINA RESULT:      -7.0      0.000      0.000
REMARK  Name = *****
REMARK                            x       y       z     vdW  Elec       q    Type
REMARK                         _______ _______ _______ _____ _____    ______ ____
ROOT
ATOM      1  O   LIG    1       24.483 -22.761   7.200  0.00  0.00    -0.454 OA
ENDROOT
BRANCH   1   2
ATOM      2  C   LIG    1       24.540 -21.501   6.471  0.00  0.00    +0.123 C 
ATOM      3  C   LIG    1       23.219 -20.763   6.767  0.00  0.00    +0.057 C 
BRANCH   2   5
ATOM      4  C   LIG    1       24.603 -20.495   4.076  0.00  0.00    +0.008 C 
ATOM      5  C   LIG    1       24.597 -21.763   4.930  0.00  0.00    +0.045 C 
ENDBRANCH   2   5
BRANCH   2   6
ATOM      6  C   LIG    1       25.763 -20.627   6.935  0.00  0.00    +0.131 C 
BRANCH   6   7
ATOM      7  N   LIG    1       27.149 -21.078   6.612  0.00  0.00    -0.305 NA
ATOM      8  C   LIG    1       27.825 -21.535   7.834  0.00  0.00    +0.104 C 
ATOM      9  C   LIG    1       27.967 -20.046   5.974  0.00  0.00    +0.104 C 
ENDBRANCH   6   7
ENDBRANCH   2   6
ENDBRANCH   1   2
BRANCH   1  10
ATOM     10  C   LIG    1       23.686 -23.769   6.776  0.00  0.00    +0.340 C 
ATOM     11  O   LIG    1       22.454 -23.791   6.771  0.00  0.00    -0.245 OA
BRANCH  10  12
ATOM     12  C   LIG    1       24.497 -24.936   6.371  0.00  0.00    +0.059 A 
ATOM     13  C   LIG    1       23.847 -26.025   5.773  0.00  0.00    +0.015 A 
ATOM     14  C   LIG    1       24.569 -27.158   5.403  0.00  0.00    +0.001 A 
ATOM     15  C   LIG    1       25.944 -27.207   5.625  0.00  0.00    +0.000 A 
ATOM     16  C   LIG    1       26.601 -26.123   6.211  0.00  0.00    +0.001 A 
ATOM     17  C   LIG    1       25.881 -24.988   6.584  0.00  0.00    +0.015 A 
ENDBRANCH  10  12
ENDBRANCH   1  10
TORSDOF 6
ENDMDL
MODEL 2
REMARK VINA RESULT:      -6.8      2.096      5.554
REMARK  Name = *****
REMARK                            x       y       z     vdW  Elec       q    Type
REMARK                         _______ _______ _______ _____ _____    ______ ____
ROOT
ATOM      1  O   LIG    1       25.796 -20.300   7.337  0.00  0.00    -0.454 OA
ENDROOT
BRANCH   1   2
ATOM      2  C   LIG    1       24.783 -21.144   6.716  0.00  0.00    +0.123 C 
ATOM      3  C   LIG    1       25.123 -21.202   5.213  0.00  0.00    +0.057 C 
BRANCH   2   5
ATOM      4  C   LIG    1       22.740 -20.070   5.525  0.00  0.00    +0.008 C 
ATOM      5  C   LIG    1       23.370 -20.491   6.853  0.00  0.00    +0.045 C 
ENDBRANCH   2   5
BRANCH   2   6
ATOM      6  C   LIG    1       24.793 -22.592   7.328  0.00  0.00    +0.131 C 
BRANCH   6   7
ATOM      7  N   LIG    1       24.791 -23.773   6.415  0.00  0.00    -0.305 NA
ATOM      8  C   LIG    1       23.526 -24.507   6.545  0.00  0.00    +0.104 C 
ATOM      9  C   LIG    1       25.902 -24.697   6.649  0.00  0.00    +0.104 C 
ENDBRANCH   6   7
ENDBRANCH   2   6
ENDBRANCH   1   2
BRANCH   1  10
ATOM     10  C   LIG    1       26.894 -20.845   7.909  0.00  0.00    +0.340 C 
ATOM     11  O   LIG    1       26.925 -21.666   8.828  0.00  0.00    -0.245 OA
BRANCH  10  12
ATOM     12  C   LIG    1       28.123 -20.258   7.336  0.00  0.00    +0.059 A 
ATOM     13  C   LIG    1       29.331 -20.431   8.027  0.00  0.00    +0.015 A 
ATOM     14  C   LIG    1       30.508 -19.868   7.537  0.00  0.00    +0.001 A 
ATOM     15  C   LIG    1       30.485 -19.134   6.352  0.00  0.00    +0.000 A 
ATOM     16  C   LIG    1       29.289 -18.966   5.653  0.00  0.00    +0.001 A 
ATOM     17  C   LIG    1       28.109 -19.526   6.140  0.00  0.00    +0.015 A 
ENDBRANCH  10  12
ENDBRANCH   1  10
TORSDOF 6
ENDMDL
MODEL 3
REMARK VINA RESULT:      -6.8      2.130      5.461
REMARK  Name = *****
REMARK                            x       y       z     vdW  Elec       q    Type
REMARK                         _______ _______ _______ _____ _____    ______ ____
ROOT
ATOM      1  O   LIG    1       25.182 -20.745   7.271  0.00  0.00    -0.454 OA
ENDROOT
BRANCH   1   2
ATOM      2  C   LIG    1       24.529 -21.835   6.558  0.00  0.00    +0.123 C 
ATOM      3  C   LIG    1       23.290 -22.223   7.390  0.00  0.00    +0.057 C 
BRANCH   2   5
ATOM      4  C   LIG    1       24.729 -24.426   6.546  0.00  0.00    +0.008 C 
ATOM      5  C   LIG    1       25.465 -23.086   6.499  0.00  0.00    +0.045 C 
ENDBRANCH   2   5
BRANCH   2   6
ATOM      6  C   LIG    1       24.094 -21.393   5.113  0.00  0.00    +0.131 C 
BRANCH   6   7
ATOM      7  N   LIG    1       23.943 -19.940   4.807  0.00  0.00    -0.305 NA
ATOM      8  C   LIG    1       22.522 -19.568   4.825  0.00  0.00    +0.104 C 
ATOM      9  C   LIG    1       24.519 -19.550   3.519  0.00  0.00    +0.104 C 
ENDBRANCH   6   7
ENDBRANCH   2   6
ENDBRANCH   1   2
BRANCH   1  10
ATOM     10  C   LIG    1       26.303 -20.966   7.996  0.00  0.00    +0.340 C 
ATOM     11  O   LIG    1       26.391 -21.577   9.062  0.00  0.00    -0.245 OA
BRANCH  10  12
ATOM     12  C   LIG    1       27.462 -20.290   7.377  0.00  0.00    +0.059 A 
ATOM     13  C   LIG    1       28.546 -19.939   8.195  0.00  0.00    +0.015 A 
ATOM     14  C   LIG    1       29.646 -19.274   7.658  0.00  0.00    +0.001 A 
ATOM     15  C   LIG    1       29.672 -18.960   6.301  0.00  0.00    +0.000 A 
ATOM     16  C   LIG    1       28.602 -19.315   5.477  0.00  0.00    +0.001 A 
ATOM     17  C   LIG    1       27.498 -19.979   6.011  0.00  0.00    +0.015 A 
ENDBRANCH  10  12
ENDBRANCH   1  10
TORSDOF 6
ENDMDL
MODEL 4
REMARK VINA RESULT:      -6.7      2.140      5.375
REMARK  Name = *****
REMARK                            x       y       z     vdW  Elec       q    Type
REMARK                         _______ _______ _______ _____ _____    ______ ____
ROOT
ATOM      1  O   LIG    1       25.211 -20.736   7.270  0.00  0.00    -0.454 OA
ENDROOT
BRANCH   1   2
ATOM      2  C   LIG    1       24.536 -21.818   6.566  0.00  0.00    +0.123 C 
ATOM      3  C   LIG    1       23.292 -22.178   7.404  0.00  0.00    +0.057 C 
BRANCH   2   5
ATOM      4  C   LIG    1       24.686 -24.412   6.562  0.00  0.00    +0.008 C 
ATOM      5  C   LIG    1       25.448 -23.087   6.511  0.00  0.00    +0.045 C 
ENDBRANCH   2   5
BRANCH   2   6
ATOM      6  C   LIG    1       24.103 -21.377   5.120  0.00  0.00    +0.131 C 
BRANCH   6   7
ATOM      7  N   LIG    1       23.951 -19.924   4.813  0.00  0.00    -0.305 NA
ATOM      8  C   LIG    1       22.530 -19.552   4.842  0.00  0.00    +0.104 C 
ATOM      9  C   LIG    1       24.517 -19.535   3.521  0.00  0.00    +0.104 C 
ENDBRANCH   6   7
ENDBRANCH   2   6
ENDBRANCH   1   2
BRANCH   1  10
ATOM     10  C   LIG    1       26.316 -20.977   8.011  0.00  0.00    +0.340 C 
ATOM     11  O   LIG    1       26.385 -21.630   9.054  0.00  0.00    -0.245 OA
BRANCH  10  12
ATOM     12  C   LIG    1       27.484 -20.269   7.447  0.00  0.00    +0.059 A 
ATOM     13  C   LIG    1       27.504 -20.007   6.070  0.00  0.00    +0.015 A 
ATOM     14  C   LIG    1       28.599 -19.369   5.491  0.00  0.00    +0.001 A 
ATOM     15  C   LIG    1       29.678 -18.986   6.286  0.00  0.00    +0.000 A 
ATOM     16  C   LIG    1       29.662 -19.234   7.660  0.00  0.00    +0.001 A 
ATOM     17  C   LIG    1       28.569 -19.874   8.242  0.00  0.00    +0.015 A 
ENDBRANCH  10  12
ENDBRANCH   1  10
TORSDOF 6
ENDMDL
MODEL 5
REMARK VINA RESULT:      -6.7      1.895      5.308
REMARK  Name = *****
REMARK                            x       y       z     vdW  Elec       q    Type
REMARK                         _______ _______ _______ _____ _____    ______ ____
ROOT
ATOM      1  O   LIG    1       24.973 -22.389   5.733  0.00  0.00    -0.454 OA
ENDROOT
BRANCH   1   2
ATOM      2  C   LIG    1       25.695 -22.678   6.965  0.00  0.00    +0.123 C 
ATOM      3  C   LIG    1       24.843 -22.107   8.116  0.00  0.00    +0.057 C 
BRANCH   2   5
ATOM      4  C   LIG    1       26.994 -20.491   7.497  0.00  0.00    +0.008 C 
ATOM      5  C   LIG    1       27.068 -21.929   6.981  0.00  0.00    +0.045 C 
ENDBRANCH   2   5
BRANCH   2   6
ATOM      6  C   LIG    1       25.899 -24.225   7.159  0.00  0.00    +0.131 C 
BRANCH   6   7
ATOM      7  N   LIG    1       25.552 -25.154   6.045  0.00  0.00    -0.305 NA
ATOM      8  C   LIG    1       24.177 -25.644   6.210  0.00  0.00    +0.104 C 
ATOM      9  C   LIG    1       26.454 -26.302   5.935  0.00  0.00    +0.104 C 
ENDBRANCH   6   7
ENDBRANCH   2   6
ENDBRANCH   1   2
BRANCH   1  10
ATOM     10  C   LIG    1       23.709 -21.909   5.768  0.00  0.00    +0.340 C 
ATOM     11  O   LIG    1       22.714 -22.467   6.234  0.00  0.00    -0.245 OA
BRANCH  10  12
ATOM     12  C   LIG    1       23.631 -20.603   5.081  0.00  0.00    +0.059 A 
ATOM     13  C   LIG    1       22.474 -19.829   5.247  0.00  0.00    +0.015 A 
ATOM     14  C   LIG    1       22.346 -18.605   4.593  0.00  0.00    +0.001 A 
ATOM     15  C   LIG    1       23.376 -18.147   3.773  0.00  0.00    +0.000 A 
ATOM     16  C   LIG    1       24.536 -18.906   3.610  0.00  0.00    +0.001 A 
ATOM     17  C   LIG    1       24.667 -20.132   4.262  0.00  0.00    +0.015 A 
ENDBRANCH  10  12
ENDBRANCH   1  10
TORSDOF 6
ENDMDL
MODEL 6
REMARK VINA RESULT:      -6.5      1.978      5.083
REMARK  Name = *****
REMARK                            x       y       z     vdW  Elec       q    Type
REMARK                         _______ _______ _______ _____ _____    ______ ____
ROOT
ATOM      1  O   LIG    1       25.533 -20.769   5.743  0.00  0.00    -0.454 OA
ENDROOT
BRANCH   1   2
ATOM      2  C   LIG    1       24.225 -21.336   5.442  0.00  0.00    +0.123 C 
ATOM      3  C   LIG    1       24.063 -21.274   3.910  0.00  0.00    +0.057 C 
BRANCH   2   5
ATOM      4  C   LIG    1       22.493 -19.427   5.114  0.00  0.00    +0.008 C 
ATOM      5  C   LIG    1       23.093 -20.459   6.070  0.00  0.00    +0.045 C 
ENDBRANCH   2   5
BRANCH   2   6
ATOM      6  C   LIG    1       24.120 -22.825   5.937  0.00  0.00    +0.131 C 
BRANCH   6   7
ATOM      7  N   LIG    1       25.301 -23.728   5.797  0.00  0.00    -0.305 NA
ATOM      8  C   LIG    1       24.968 -24.856   4.918  0.00  0.00    +0.104 C 
ATOM      9  C   LIG    1       25.794 -24.249   7.072  0.00  0.00    +0.104 C 
ENDBRANCH   6   7
ENDBRANCH   2   6
ENDBRANCH   1   2
BRANCH   1  10
ATOM     10  C   LIG    1       25.949 -20.631   7.022  0.00  0.00    +0.340 C 
ATOM     11  O   LIG    1       25.245 -20.586   8.033  0.00  0.00    -0.245 OA
BRANCH  10  12
ATOM     12  C   LIG    1       27.416 -20.451   7.075  0.00  0.00    +0.059 A 
ATOM     13  C   LIG    1       28.012 -19.565   6.167  0.00  0.00    +0.015 A 
ATOM     14  C   LIG    1       29.394 -19.388   6.161  0.00  0.00    +0.001 A 
ATOM     15  C   LIG    1       30.187 -20.093   7.066  0.00  0.00    +0.000 A 
ATOM     16  C   LIG    1       29.600 -20.970   7.980  0.00  0.00    +0.001 A 
ATOM     17  C   LIG    1       28.217 -21.150   7.987  0.00  0.00    +0.015 A 
ENDBRANCH  10  12
ENDBRANCH   1  10
TORSDOF 6
ENDMDL
MODEL 7
REMARK VINA RESULT:      -6.5      2.567      6.079
REMARK  Name = *****
REMARK                            x       y       z     vdW  Elec       q    Type
REMARK                         _______ _______ _______ _____ _____    ______ ____
ROOT
ATOM      1  O   LIG    1       27.507 -21.531   6.650  0.00  0.00    -0.454 OA
ENDROOT
BRANCH   1   2
ATOM      2  C   LIG    1       26.101 -21.684   6.999  0.00  0.00    +0.123 C 
ATOM      3  C   LIG    1       25.762 -20.530   7.965  0.00  0.00    +0.057 C 
BRANCH   2   5
ATOM      4  C   LIG    1       25.509 -24.211   6.877  0.00  0.00    +0.008 C 
ATOM      5  C   LIG    1       25.872 -23.024   7.771  0.00  0.00    +0.045 C 
ENDBRANCH   2   5
BRANCH   2   6
ATOM      6  C   LIG    1       25.184 -21.608   5.724  0.00  0.00    +0.131 C 
BRANCH   6   7
ATOM      7  N   LIG    1       24.222 -20.476   5.581  0.00  0.00    -0.305 NA
ATOM      8  C   LIG    1       22.851 -20.949   5.813  0.00  0.00    +0.104 C 
ATOM      9  C   LIG    1       24.282 -19.817   4.275  0.00  0.00    +0.104 C 
ENDBRANCH   6   7
ENDBRANCH   2   6
ENDBRANCH   1   2
BRANCH   1  10
ATOM     10  C   LIG    1       28.010 -20.321   6.317  0.00  0.00    +0.340 C 
ATOM     11  O   LIG    1       27.625 -19.578   5.412  0.00  0.00    -0.245 OA
BRANCH  10  12
ATOM     12  C   LIG    1       29.186 -20.000   7.153  0.00  0.00    +0.059 A 
ATOM     13  C   LIG    1       29.751 -21.021   7.931  0.00  0.00    +0.015 A 
ATOM     14  C   LIG    1       30.841 -20.755   8.756  0.00  0.00    +0.001 A 
ATOM     15  C   LIG    1       31.376 -19.468   8.805  0.00  0.00    +0.000 A 
ATOM     16  C   LIG    1       30.826 -18.448   8.026  0.00  0.00    +0.001 A 
ATOM     17  C   LIG    1       29.734 -18.711   7.200  0.00  0.00    +0.015 A 
ENDBRANCH  10  12
ENDBRANCH   1  10
TORSDOF 6
ENDMDL
MODEL 8
REMARK VINA RESULT:      -6.5      4.011      5.676
REMARK  Name = *****
REMARK                            x       y       z     vdW  Elec       q    Type
REMARK                         _______ _______ _______ _____ _____    ______ ____
ROOT
ATOM      1  O   LIG    1       27.667 -19.691   8.175  0.00  0.00    -0.454 OA
ENDROOT
BRANCH   1   2
ATOM      2  C   LIG    1       29.097 -19.773   7.910  0.00  0.00    +0.123 C 
ATOM      3  C   LIG    1       29.332 -19.081   6.553  0.00  0.00    +0.057 C 
BRANCH   2   5
ATOM      4  C   LIG    1       30.645 -21.694   8.726  0.00  0.00    +0.008 C 
ATOM      5  C   LIG    1       29.540 -21.265   7.760  0.00  0.00    +0.045 C 
ENDBRANCH   2   5
BRANCH   2   6
ATOM      6  C   LIG    1       29.928 -19.053   9.035  0.00  0.00    +0.131 C 
BRANCH   6   7
ATOM      7  N   LIG    1       30.647 -17.785   8.715  0.00  0.00    -0.305 NA
ATOM      8  C   LIG    1       32.082 -18.049   8.547  0.00  0.00    +0.104 C 
ATOM      9  C   LIG    1       30.473 -16.741   9.726  0.00  0.00    +0.104 C 
ENDBRANCH   6   7
ENDBRANCH   2   6
ENDBRANCH   1   2
BRANCH   1  10
ATOM     10  C   LIG    1       26.895 -20.802   8.155  0.00  0.00    +0.340 C 
ATOM     11  O   LIG    1       27.056 -21.832   8.813  0.00  0.00    -0.245 OA
BRANCH  10  12
ATOM     12  C   LIG    1       25.823 -20.671   7.146  0.00  0.00    +0.059 A 
ATOM     13  C   LIG    1       24.491 -20.784   7.569  0.00  0.00    +0.015 A 
ATOM     14  C   LIG    1       23.450 -20.697   6.647  0.00  0.00    +0.001 A 
ATOM     15  C   LIG    1       23.735 -20.492   5.298  0.00  0.00    +0.000 A 
ATOM     16  C   LIG    1       25.058 -20.369   4.869  0.00  0.00    +0.001 A 
ATOM     17  C   LIG    1       26.102 -20.457   5.789  0.00  0.00    +0.015 A 
ENDBRANCH  10  12
ENDBRANCH   1  10
TORSDOF 6
ENDMDL
MODEL 9
REMARK VINA RESULT:      -6.4      2.923      5.158
REMARK  Name = *****
REMARK                            x       y       z     vdW  Elec       q    Type
REMARK                         _______ _______ _______ _____ _____    ______ ____
ROOT
ATOM      1  O   LIG    1       26.495 -21.138   5.606  0.00  0.00    -0.454 OA
ENDROOT
BRANCH   1   2
ATOM      2  C   LIG    1       27.106 -21.242   6.925  0.00  0.00    +0.123 C 
ATOM      3  C   LIG    1       26.875 -22.691   7.400  0.00  0.00    +0.057 C 
BRANCH   2   5
ATOM      4  C   LIG    1       25.565 -21.023   9.005  0.00  0.00    +0.008 C 
ATOM      5  C   LIG    1       26.383 -20.295   7.937  0.00  0.00    +0.045 C 
ENDBRANCH   2   5
BRANCH   2   6
ATOM      6  C   LIG    1       28.646 -20.931   6.868  0.00  0.00    +0.131 C 
BRANCH   6   7
ATOM      7  N   LIG    1       29.337 -20.429   8.092  0.00  0.00    -0.305 NA
ATOM      8  C   LIG    1       29.873 -19.083   7.850  0.00  0.00    +0.104 C 
ATOM      9  C   LIG    1       30.423 -21.297   8.549  0.00  0.00    +0.104 C 
ENDBRANCH   6   7
ENDBRANCH   2   6
ENDBRANCH   1   2
BRANCH   1  10
ATOM     10  C   LIG    1       25.238 -21.588   5.388  0.00  0.00    +0.340 C 
ATOM     11  O   LIG    1       24.844 -22.754   5.449  0.00  0.00    -0.245 OA
BRANCH  10  12
ATOM     12  C   LIG    1       24.355 -20.479   4.971  0.00  0.00    +0.059 A 
ATOM     13  C   LIG    1       23.126 -20.321   5.627  0.00  0.00    +0.015 A 
ATOM     14  C   LIG    1       22.250 -19.307   5.245  0.00  0.00    +0.001 A 
ATOM     15  C   LIG    1       22.599 -18.443   4.208  0.00  0.00    +0.000 A 
ATOM     16  C   LIG    1       23.825 -18.587   3.556  0.00  0.00    +0.001 A 
ATOM     17  C   LIG    1       24.704 -19.602   3.935  0.00  0.00    +0.015 A 
ENDBRANCH  10  12
ENDBRANCH   1  10
TORSDOF 6
ENDMDL
