MODEL 1
REMARK VINA RESULT:     -10.3      0.000      0.000
REMARK  Name = *****
REMARK                            x       y       z     vdW  Elec       q    Type
REMARK                         _______ _______ _______ _____ _____    ______ ____
ROOT
ATOM      1  C   LIG    1       26.000 -20.588   6.703  0.00  0.00    +0.087 C 
ATOM      2  C   LIG    1       26.204 -20.653   8.187  0.00  0.00    +0.345 C 
ATOM      3  O   LIG    1       25.418 -21.215   8.931  0.00  0.00    -0.245 OA
ATOM      4  O   LIG    1       27.337 -20.069   8.726  0.00  0.00    -0.422 OA
ATOM      5  C   LIG    1       28.421 -19.730   7.917  0.00  0.00    +0.143 A 
ATOM      6  C   LIG    1       28.324 -19.790   6.535  0.00  0.00    +0.059 A 
ATOM      7  C   LIG    1       29.458 -19.431   5.794  0.00  0.00    +0.015 A 
ATOM      8  C   LIG    1       30.650 -19.065   6.437  0.00  0.00    +0.001 A 
ATOM      9  C   LIG    1       30.722 -19.040   7.828  0.00  0.00    +0.004 A 
ATOM     10  C   LIG    1       29.597 -19.364   8.577  0.00  0.00    +0.047 A 
ATOM     11  C   LIG    1       27.053 -20.223   5.936  0.00  0.00    +0.138 C 
ENDROOT
BRANCH  11  12
ATOM     12  O   LIG    1       27.056 -20.214   4.556  0.00  0.00    -0.505 OA
ATOM     13  H   LIG    1       27.900 -20.541   4.209  0.00  0.00    +0.292 HD
ENDBRANCH  11  12
BRANCH   1  14
ATOM     14  C   LIG    1       24.592 -20.948   6.182  0.00  0.00    +0.067 C 
BRANCH  14  15
ATOM     15  C   LIG    1       24.377 -22.465   6.100  0.00  0.00    -0.039 A 
ATOM     16  C   LIG    1       25.210 -23.295   5.333  0.00  0.00    +0.004 A 
ATOM     17  C   LIG    1       25.049 -24.679   5.319  0.00  0.00    +0.000 A 
ATOM     18  C   LIG    1       24.014 -25.262   6.036  0.00  0.00    +0.000 A 
ATOM     19  C   LIG    1       23.144 -24.459   6.768  0.00  0.00    +0.000 A 
ATOM     20  C   LIG    1       23.325 -23.071   6.807  0.00  0.00    +0.004 A 
ENDBRANCH  14  15
BRANCH  14  21
ATOM     21  C   LIG    1       24.185 -20.218   4.883  0.00  0.00    +0.087 C 
BRANCH  21  23
ATOM     22  C   LIG    1       22.280 -18.484   4.676  0.00  0.00    +0.086 C 
ATOM     23  C   LIG    1       22.696 -19.926   4.840  0.00  0.00    +0.131 C 
ATOM     24  O   LIG    1       21.865 -20.826   4.974  0.00  0.00    -0.298 OA
ENDBRANCH  21  23
ENDBRANCH  14  21
ENDBRANCH   1  14
TORSDOF 5
ENDMDL
MODEL 2
REMARK VINA RESULT:      -9.5      1.203      3.269
REMARK  Name = *****
REMARK                            x       y       z     vdW  Elec       q    Type
REMARK                         _______ _______ _______ _____ _____    ______ ____
ROOT
ATOM      1  C   LIG    1       26.376 -20.899   6.791  0.00  0.00    +0.087 C 
ATOM      2  C   LIG    1       26.442 -20.857   8.289  0.00  0.00    +0.345 C 
ATOM      3  O   LIG    1       25.695 -21.511   8.995  0.00  0.00    -0.245 OA
ATOM      4  O   LIG    1       27.402 -20.058   8.886  0.00  0.00    -0.422 OA
ATOM      5  C   LIG    1       28.486 -19.574   8.156  0.00  0.00    +0.143 A 
ATOM      6  C   LIG    1       28.536 -19.717   6.777  0.00  0.00    +0.059 A 
ATOM      7  C   LIG    1       29.660 -19.201   6.117  0.00  0.00    +0.015 A 
ATOM      8  C   LIG    1       30.703 -18.601   6.837  0.00  0.00    +0.001 A 
ATOM      9  C   LIG    1       30.634 -18.497   8.224  0.00  0.00    +0.004 A 
ATOM     10  C   LIG    1       29.513 -18.976   8.890  0.00  0.00    +0.047 A 
ATOM     11  C   LIG    1       27.421 -20.394   6.098  0.00  0.00    +0.138 C 
ENDROOT
BRANCH  11  12
ATOM     12  O   LIG    1       27.558 -20.450   4.726  0.00  0.00    -0.505 OA
ATOM     13  H   LIG    1       27.727 -21.358   4.431  0.00  0.00    +0.292 HD
ENDBRANCH  11  12
BRANCH   1  14
ATOM     14  C   LIG    1       25.108 -21.525   6.173  0.00  0.00    +0.067 C 
BRANCH  14  15
ATOM     15  C   LIG    1       24.259 -20.489   5.424  0.00  0.00    -0.039 A 
ATOM     16  C   LIG    1       24.685 -19.909   4.218  0.00  0.00    +0.004 A 
ATOM     17  C   LIG    1       23.877 -19.021   3.510  0.00  0.00    +0.000 A 
ATOM     18  C   LIG    1       22.640 -18.655   4.019  0.00  0.00    +0.000 A 
ATOM     19  C   LIG    1       22.212 -19.179   5.236  0.00  0.00    +0.000 A 
ATOM     20  C   LIG    1       23.010 -20.095   5.931  0.00  0.00    +0.004 A 
ENDBRANCH  14  15
BRANCH  14  21
ATOM     21  C   LIG    1       24.274 -22.381   7.152  0.00  0.00    +0.087 C 
BRANCH  21  23
ATOM     22  C   LIG    1       25.534 -24.492   6.354  0.00  0.00    +0.086 C 
ATOM     23  C   LIG    1       24.226 -23.839   6.730  0.00  0.00    +0.131 C 
ATOM     24  O   LIG    1       23.157 -24.448   6.661  0.00  0.00    -0.298 OA
ENDBRANCH  21  23
ENDBRANCH  14  21
ENDBRANCH   1  14
TORSDOF 5
ENDMDL
MODEL 3
REMARK VINA RESULT:      -9.1      1.684      5.773
REMARK  Name = *****
REMARK                            x       y       z     vdW  Elec       q    Type
REMARK                         _______ _______ _______ _____ _____    ______ ____
ROOT
ATOM      1  C   LIG    1       25.560 -22.370   6.498  0.00  0.00    +0.087 C 
ATOM      2  C   LIG    1       25.880 -22.991   7.826  0.00  0.00    +0.345 C 
ATOM      3  O   LIG    1       25.949 -22.339   8.853  0.00  0.00    -0.245 OA
ATOM      4  O   LIG    1       26.085 -24.358   7.884  0.00  0.00    -0.422 OA
ATOM      5  C   LIG    1       25.684 -25.188   6.837  0.00  0.00    +0.143 A 
ATOM      6  C   LIG    1       25.244 -24.654   5.635  0.00  0.00    +0.059 A 
ATOM      7  C   LIG    1       24.860 -25.556   4.633  0.00  0.00    +0.015 A 
ATOM      8  C   LIG    1       24.887 -26.939   4.862  0.00  0.00    +0.001 A 
ATOM      9  C   LIG    1       25.309 -27.442   6.092  0.00  0.00    +0.004 A 
ATOM     10  C   LIG    1       25.722 -26.562   7.084  0.00  0.00    +0.047 A 
ATOM     11  C   LIG    1       25.206 -23.192   5.485  0.00  0.00    +0.138 C 
ENDROOT
BRANCH  11  12
ATOM     12  O   LIG    1       24.786 -22.771   4.239  0.00  0.00    -0.505 OA
ATOM     13  H   LIG    1       25.536 -22.685   3.631  0.00  0.00    +0.292 HD
ENDBRANCH  11  12
BRANCH   1  14
ATOM     14  C   LIG    1       25.665 -20.832   6.412  0.00  0.00    +0.067 C 
BRANCH  14  15
ATOM     15  C   LIG    1       24.533 -20.222   5.575  0.00  0.00    -0.039 A 
ATOM     16  C   LIG    1       23.194 -20.256   5.996  0.00  0.00    +0.004 A 
ATOM     17  C   LIG    1       22.182 -19.639   5.263  0.00  0.00    +0.000 A 
ATOM     18  C   LIG    1       22.481 -19.013   4.062  0.00  0.00    +0.000 A 
ATOM     19  C   LIG    1       23.793 -19.004   3.597  0.00  0.00    +0.000 A 
ATOM     20  C   LIG    1       24.814 -19.597   4.349  0.00  0.00    +0.004 A 
ENDBRANCH  14  15
BRANCH  14  21
ATOM     21  C   LIG    1       27.058 -20.308   5.999  0.00  0.00    +0.087 C 
BRANCH  21  23
ATOM     22  C   LIG    1       29.448 -20.600   6.940  0.00  0.00    +0.086 C 
ATOM     23  C   LIG    1       28.006 -20.226   7.183  0.00  0.00    +0.131 C 
ATOM     24  O   LIG    1       27.603 -19.904   8.302  0.00  0.00    -0.298 OA
ENDBRANCH  21  23
ENDBRANCH  14  21
ENDBRANCH   1  14
TORSDOF 5
ENDMDL
MODEL 4
REMARK VINA RESULT:      -9.1      1.746      4.950
REMARK  Name = *****
REMARK                            x       y       z     vdW  Elec       q    Type
REMARK                         _______ _______ _______ _____ _____    ______ ____
ROOT
ATOM      1  C   LIG    1       24.952 -21.915   6.111  0.00  0.00    +0.087 C 
ATOM      2  C   LIG    1       23.548 -22.075   6.612  0.00  0.00    +0.345 C 
ATOM      3  O   LIG    1       23.271 -22.776   7.570  0.00  0.00    -0.245 OA
ATOM      4  O   LIG    1       22.534 -21.385   5.971  0.00  0.00    -0.422 OA
ATOM      5  C   LIG    1       22.822 -20.321   5.116  0.00  0.00    +0.143 A 
ATOM      6  C   LIG    1       24.127 -20.046   4.737  0.00  0.00    +0.059 A 
ATOM      7  C   LIG    1       24.331 -18.961   3.874  0.00  0.00    +0.015 A 
ATOM      8  C   LIG    1       23.255 -18.167   3.450  0.00  0.00    +0.001 A 
ATOM      9  C   LIG    1       21.958 -18.455   3.872  0.00  0.00    +0.004 A 
ATOM     10  C   LIG    1       21.736 -19.546   4.703  0.00  0.00    +0.047 A 
ATOM     11  C   LIG    1       25.206 -20.899   5.256  0.00  0.00    +0.138 C 
ENDROOT
BRANCH  11  12
ATOM     12  O   LIG    1       26.459 -20.558   4.787  0.00  0.00    -0.505 OA
ATOM     13  H   LIG    1       27.049 -21.327   4.785  0.00  0.00    +0.292 HD
ENDBRANCH  11  12
BRANCH   1  14
ATOM     14  C   LIG    1       25.990 -22.936   6.625  0.00  0.00    +0.067 C 
BRANCH  14  15
ATOM     15  C   LIG    1       25.630 -24.375   6.230  0.00  0.00    -0.039 A 
ATOM     16  C   LIG    1       25.084 -24.689   4.975  0.00  0.00    +0.004 A 
ATOM     17  C   LIG    1       24.824 -26.006   4.601  0.00  0.00    +0.000 A 
ATOM     18  C   LIG    1       25.060 -27.039   5.496  0.00  0.00    +0.000 A 
ATOM     19  C   LIG    1       25.557 -26.752   6.765  0.00  0.00    +0.000 A 
ATOM     20  C   LIG    1       25.847 -25.432   7.129  0.00  0.00    +0.004 A 
ENDBRANCH  14  15
BRANCH  14  21
ATOM     21  C   LIG    1       26.334 -22.799   8.124  0.00  0.00    +0.087 C 
BRANCH  21  23
ATOM     22  C   LIG    1       27.864 -20.727   7.907  0.00  0.00    +0.086 C 
ATOM     23  C   LIG    1       26.632 -21.360   8.508  0.00  0.00    +0.131 C 
ATOM     24  O   LIG    1       25.918 -20.752   9.307  0.00  0.00    -0.298 OA
ENDBRANCH  21  23
ENDBRANCH  14  21
ENDBRANCH   1  14
TORSDOF 5
ENDMDL
MODEL 5
REMARK VINA RESULT:      -9.0      1.310      2.524
REMARK  Name = *****
REMARK                            x       y       z     vdW  Elec       q    Type
REMARK                         _______ _______ _______ _____ _____    ______ ____
ROOT
ATOM      1  C   LIG    1       25.987 -21.338   6.536  0.00  0.00    +0.087 C 
ATOM      2  C   LIG    1       26.258 -20.678   5.217  0.00  0.00    +0.345 C 
ATOM      3  O   LIG    1       25.444 -20.669   4.310  0.00  0.00    -0.245 OA
ATOM      4  O   LIG    1       27.473 -20.041   5.034  0.00  0.00    -0.422 OA
ATOM      5  C   LIG    1       28.284 -19.719   6.122  0.00  0.00    +0.143 A 
ATOM      6  C   LIG    1       27.990 -20.192   7.393  0.00  0.00    +0.059 A 
ATOM      7  C   LIG    1       28.856 -19.824   8.432  0.00  0.00    +0.015 A 
ATOM      8  C   LIG    1       29.949 -18.979   8.192  0.00  0.00    +0.001 A 
ATOM      9  C   LIG    1       30.200 -18.499   6.908  0.00  0.00    +0.004 A 
ATOM     10  C   LIG    1       29.369 -18.880   5.861  0.00  0.00    +0.047 A 
ATOM     11  C   LIG    1       26.803 -21.041   7.572  0.00  0.00    +0.138 C 
ENDROOT
BRANCH  11  12
ATOM     12  O   LIG    1       26.626 -21.483   8.867  0.00  0.00    -0.505 OA
ATOM     13  H   LIG    1       26.503 -22.445   8.891  0.00  0.00    +0.292 HD
ENDBRANCH  11  12
BRANCH   1  14
ATOM     14  C   LIG    1       24.785 -22.305   6.590  0.00  0.00    +0.067 C 
BRANCH  14  15
ATOM     15  C   LIG    1       25.172 -23.733   6.180  0.00  0.00    -0.039 A 
ATOM     16  C   LIG    1       25.842 -24.603   7.055  0.00  0.00    +0.004 A 
ATOM     17  C   LIG    1       26.129 -25.919   6.698  0.00  0.00    +0.000 A 
ATOM     18  C   LIG    1       25.794 -26.381   5.433  0.00  0.00    +0.000 A 
ATOM     19  C   LIG    1       25.171 -25.526   4.528  0.00  0.00    +0.000 A 
ATOM     20  C   LIG    1       24.856 -24.213   4.899  0.00  0.00    +0.004 A 
ENDBRANCH  14  15
BRANCH  14  21
ATOM     21  C   LIG    1       23.523 -21.799   5.858  0.00  0.00    +0.087 C 
BRANCH  21  23
ATOM     22  C   LIG    1       22.502 -19.460   5.448  0.00  0.00    +0.086 C 
ATOM     23  C   LIG    1       23.028 -20.481   6.427  0.00  0.00    +0.131 C 
ATOM     24  O   LIG    1       23.092 -20.243   7.635  0.00  0.00    -0.298 OA
ENDBRANCH  21  23
ENDBRANCH  14  21
ENDBRANCH   1  14
TORSDOF 5
ENDMDL
MODEL 6
REMARK VINA RESULT:      -8.5      2.352      6.266
REMARK  Name = *****
REMARK                            x       y       z     vdW  Elec       q    Type
REMARK                         _______ _______ _______ _____ _____    ______ ____
ROOT
ATOM      1  C   LIG    1       24.849 -23.957   6.721  0.00  0.00    +0.087 C 
ATOM      2  C   LIG    1       23.459 -24.519   6.677  0.00  0.00    +0.345 C 
ATOM      3  O   LIG    1       22.468 -23.823   6.813  0.00  0.00    -0.245 OA
ATOM      4  O   LIG    1       23.301 -25.876   6.456  0.00  0.00    -0.422 OA
ATOM      5  C   LIG    1       24.350 -26.646   5.954  0.00  0.00    +0.143 A 
ATOM      6  C   LIG    1       25.628 -26.121   5.842  0.00  0.00    +0.059 A 
ATOM      7  C   LIG    1       26.626 -26.961   5.330  0.00  0.00    +0.015 A 
ATOM      8  C   LIG    1       26.323 -28.266   4.914  0.00  0.00    +0.001 A 
ATOM      9  C   LIG    1       25.022 -28.754   5.015  0.00  0.00    +0.004 A 
ATOM     10  C   LIG    1       24.028 -27.944   5.549  0.00  0.00    +0.047 A 
ATOM     11  C   LIG    1       25.858 -24.731   6.262  0.00  0.00    +0.138 C 
ENDROOT
BRANCH  11  12
ATOM     12  O   LIG    1       27.171 -24.323   6.141  0.00  0.00    -0.505 OA
ATOM     13  H   LIG    1       27.241 -23.358   6.194  0.00  0.00    +0.292 HD
ENDBRANCH  11  12
BRANCH   1  14
ATOM     14  C   LIG    1       25.000 -22.530   7.290  0.00  0.00    +0.067 C 
BRANCH  14  15
ATOM     15  C   LIG    1       24.515 -21.459   6.303  0.00  0.00    -0.039 A 
ATOM     16  C   LIG    1       25.213 -21.166   5.121  0.00  0.00    +0.004 A 
ATOM     17  C   LIG    1       24.729 -20.240   4.198  0.00  0.00    +0.000 A 
ATOM     18  C   LIG    1       23.555 -19.549   4.462  0.00  0.00    +0.000 A 
ATOM     19  C   LIG    1       22.867 -19.787   5.649  0.00  0.00    +0.000 A 
ATOM     20  C   LIG    1       23.337 -20.739   6.561  0.00  0.00    +0.004 A 
ENDBRANCH  14  15
BRANCH  14  21
ATOM     21  C   LIG    1       26.397 -22.217   7.868  0.00  0.00    +0.087 C 
BRANCH  21  23
ATOM     22  C   LIG    1       27.497 -19.878   7.817  0.00  0.00    +0.086 C 
ATOM     23  C   LIG    1       26.476 -20.807   8.428  0.00  0.00    +0.131 C 
ATOM     24  O   LIG    1       25.761 -20.453   9.367  0.00  0.00    -0.298 OA
ENDBRANCH  21  23
ENDBRANCH  14  21
ENDBRANCH   1  14
TORSDOF 5
ENDMDL
MODEL 7
REMARK VINA RESULT:      -8.2      1.766      5.570
REMARK  Name = *****
REMARK                            x       y       z     vdW  Elec       q    Type
REMARK                         _______ _______ _______ _____ _____    ______ ____
ROOT
ATOM      1  C   LIG    1       25.309 -22.709   6.187  0.00  0.00    +0.087 C 
ATOM      2  C   LIG    1       25.631 -23.196   7.569  0.00  0.00    +0.345 C 
ATOM      3  O   LIG    1       25.585 -22.468   8.546  0.00  0.00    -0.245 OA
ATOM      4  O   LIG    1       25.974 -24.525   7.738  0.00  0.00    -0.422 OA
ATOM      5  C   LIG    1       25.709 -25.466   6.744  0.00  0.00    +0.143 A 
ATOM      6  C   LIG    1       25.271 -25.070   5.489  0.00  0.00    +0.059 A 
ATOM      7  C   LIG    1       25.028 -26.077   4.545  0.00  0.00    +0.015 A 
ATOM      8  C   LIG    1       25.189 -27.430   4.879  0.00  0.00    +0.001 A 
ATOM      9  C   LIG    1       25.605 -27.795   6.158  0.00  0.00    +0.004 A 
ATOM     10  C   LIG    1       25.878 -26.807   7.096  0.00  0.00    +0.047 A 
ATOM     11  C   LIG    1       25.088 -23.635   5.226  0.00  0.00    +0.138 C 
ENDROOT
BRANCH  11  12
ATOM     12  O   LIG    1       24.684 -23.352   3.938  0.00  0.00    -0.505 OA
ATOM     13  H   LIG    1       24.454 -22.415   3.844  0.00  0.00    +0.292 HD
ENDBRANCH  11  12
BRANCH   1  14
ATOM     14  C   LIG    1       25.257 -21.179   5.988  0.00  0.00    +0.067 C 
BRANCH  14  15
ATOM     15  C   LIG    1       26.584 -20.503   6.356  0.00  0.00    -0.039 A 
ATOM     16  C   LIG    1       27.012 -20.376   7.687  0.00  0.00    +0.004 A 
ATOM     17  C   LIG    1       28.250 -19.822   8.007  0.00  0.00    +0.000 A 
ATOM     18  C   LIG    1       29.070 -19.335   7.000  0.00  0.00    +0.000 A 
ATOM     19  C   LIG    1       28.651 -19.405   5.674  0.00  0.00    +0.000 A 
ATOM     20  C   LIG    1       27.421 -19.990   5.351  0.00  0.00    +0.004 A 
ENDBRANCH  14  15
BRANCH  14  21
ATOM     21  C   LIG    1       24.038 -20.490   6.640  0.00  0.00    +0.087 C 
BRANCH  21  23
ATOM     22  C   LIG    1       22.517 -19.124   5.059  0.00  0.00    +0.086 C 
ATOM     23  C   LIG    1       22.843 -20.449   5.704  0.00  0.00    +0.131 C 
ATOM     24  O   LIG    1       22.147 -21.448   5.513  0.00  0.00    -0.298 OA
ENDBRANCH  21  23
ENDBRANCH  14  21
ENDBRANCH   1  14
TORSDOF 5
ENDMDL
MODEL 8
REMARK VINA RESULT:      -8.1      2.162      6.243
REMARK  Name = *****
REMARK                            x       y       z     vdW  Elec       q    Type
REMARK                         _______ _______ _______ _____ _____    ______ ____
ROOT
ATOM      1  C   LIG    1       24.857 -23.555   6.630  0.00  0.00    +0.087 C 
ATOM      2  C   LIG    1       23.457 -24.088   6.678  0.00  0.00    +0.345 C 
ATOM      3  O   LIG    1       22.481 -23.360   6.740  0.00  0.00    -0.245 OA
ATOM      4  O   LIG    1       23.269 -25.458   6.632  0.00  0.00    -0.422 OA
ATOM      5  C   LIG    1       24.294 -26.308   6.215  0.00  0.00    +0.143 A 
ATOM      6  C   LIG    1       25.580 -25.828   6.020  0.00  0.00    +0.059 A 
ATOM      7  C   LIG    1       26.553 -26.746   5.603  0.00  0.00    +0.015 A 
ATOM      8  C   LIG    1       26.219 -28.087   5.359  0.00  0.00    +0.001 A 
ATOM      9  C   LIG    1       24.910 -28.530   5.540  0.00  0.00    +0.004 A 
ATOM     10  C   LIG    1       23.941 -27.639   5.982  0.00  0.00    +0.047 A 
ATOM     11  C   LIG    1       25.844 -24.401   6.257  0.00  0.00    +0.138 C 
ENDROOT
BRANCH  11  12
ATOM     12  O   LIG    1       27.162 -24.039   6.066  0.00  0.00    -0.505 OA
ATOM     13  H   LIG    1       27.533 -24.481   5.288  0.00  0.00    +0.292 HD
ENDBRANCH  11  12
BRANCH   1  14
ATOM     14  C   LIG    1       25.045 -22.071   7.013  0.00  0.00    +0.067 C 
BRANCH  14  15
ATOM     15  C   LIG    1       24.332 -21.127   6.035  0.00  0.00    -0.039 A 
ATOM     16  C   LIG    1       23.181 -20.410   6.398  0.00  0.00    +0.004 A 
ATOM     17  C   LIG    1       22.580 -19.503   5.527  0.00  0.00    +0.000 A 
ATOM     18  C   LIG    1       23.092 -19.329   4.249  0.00  0.00    +0.000 A 
ATOM     19  C   LIG    1       24.206 -20.061   3.847  0.00  0.00    +0.000 A 
ATOM     20  C   LIG    1       24.827 -20.949   4.733  0.00  0.00    +0.004 A 
ENDBRANCH  14  15
BRANCH  14  21
ATOM     21  C   LIG    1       26.510 -21.659   7.276  0.00  0.00    +0.087 C 
BRANCH  21  23
ATOM     22  C   LIG    1       27.850 -19.793   8.462  0.00  0.00    +0.086 C 
ATOM     23  C   LIG    1       26.623 -20.672   8.425  0.00  0.00    +0.131 C 
ATOM     24  O   LIG    1       25.767 -20.623   9.310  0.00  0.00    -0.298 OA
ENDBRANCH  21  23
ENDBRANCH  14  21
ENDBRANCH   1  14
TORSDOF 5
ENDMDL
MODEL 9
REMARK VINA RESULT:      -7.8      2.617      7.684
REMARK  Name = *****
REMARK                            x       y       z     vdW  Elec       q    Type
REMARK                         _______ _______ _______ _____ _____    ______ ____
ROOT
ATOM      1  C   LIG    1       29.259 -20.019   7.583  0.00  0.00    +0.087 C 
ATOM      2  C   LIG    1       29.585 -19.284   6.317  0.00  0.00    +0.345 C 
ATOM      3  O   LIG    1       30.720 -18.943   6.032  0.00  0.00    -0.245 OA
ATOM      4  O   LIG    1       28.559 -19.002   5.433  0.00  0.00    -0.422 OA
ATOM      5  C   LIG    1       27.331 -19.657   5.528  0.00  0.00    +0.143 A 
ATOM      6  C   LIG    1       27.038 -20.464   6.617  0.00  0.00    +0.059 A 
ATOM      7  C   LIG    1       25.782 -21.085   6.638  0.00  0.00    +0.015 A 
ATOM      8  C   LIG    1       24.881 -20.920   5.575  0.00  0.00    +0.001 A 
ATOM      9  C   LIG    1       25.218 -20.123   4.483  0.00  0.00    +0.004 A 
ATOM     10  C   LIG    1       26.447 -19.476   4.462  0.00  0.00    +0.047 A 
ATOM     11  C   LIG    1       28.051 -20.619   7.672  0.00  0.00    +0.138 C 
ENDROOT
BRANCH  11  12
ATOM     12  O   LIG    1       27.642 -21.415   8.723  0.00  0.00    -0.505 OA
ATOM     13  H   LIG    1       28.259 -21.350   9.467  0.00  0.00    +0.292 HD
ENDBRANCH  11  12
BRANCH   1  14
ATOM     14  C   LIG    1       30.346 -20.023   8.679  0.00  0.00    +0.067 C 
BRANCH  14  15
ATOM     15  C   LIG    1       30.746 -18.603   9.103  0.00  0.00    -0.039 A 
ATOM     16  C   LIG    1       29.900 -17.792   9.876  0.00  0.00    +0.004 A 
ATOM     17  C   LIG    1       30.299 -16.530  10.314  0.00  0.00    +0.000 A 
ATOM     18  C   LIG    1       31.540 -16.031   9.945  0.00  0.00    +0.000 A 
ATOM     19  C   LIG    1       32.380 -16.795   9.140  0.00  0.00    +0.000 A 
ATOM     20  C   LIG    1       31.991 -18.075   8.727  0.00  0.00    +0.004 A 
ENDBRANCH  14  15
BRANCH  14  21
ATOM     21  C   LIG    1       31.567 -20.916   8.365  0.00  0.00    +0.087 C 
BRANCH  21  23
ATOM     22  C   LIG    1       32.082 -23.448   8.321  0.00  0.00    +0.086 C 
ATOM     23  C   LIG    1       31.464 -22.273   9.039  0.00  0.00    +0.131 C 
ATOM     24  O   LIG    1       30.867 -22.412  10.107  0.00  0.00    -0.298 OA
ENDBRANCH  21  23
ENDBRANCH  14  21
ENDBRANCH   1  14
TORSDOF 5
ENDMDL
