MODEL 1
REMARK VINA RESULT:      -9.2      0.000      0.000
REMARK  Name = *****
REMARK                            x       y       z     vdW  Elec       q    Type
REMARK                         _______ _______ _______ _____ _____    ______ ____
ROOT
ATOM      1  C   LIG    1       28.886 -21.552   7.282  0.00  0.00    +0.044 C 
ATOM      2  C   LIG    1       28.651 -20.209   6.635  0.00  0.00    -0.050 C 
ATOM      3  C   LIG    1       29.621 -19.286   6.460  0.00  0.00    +0.003 C 
ENDROOT
BRANCH   3   4
ATOM      4  C   LIG    1       30.988 -19.357   6.946  0.00  0.00    +0.001 C 
ATOM      5  C   LIG    1       31.445 -18.891   8.119  0.00  0.00    +0.003 C 
BRANCH   5   6
ATOM      6  C   LIG    1       30.672 -18.202   9.136  0.00  0.00    -0.044 C 
ATOM      7  C   LIG    1       31.108 -17.161   9.868  0.00  0.00    +0.094 C 
ATOM      8  C   LIG    1       29.298 -18.763   9.422  0.00  0.00    +0.044 C 
BRANCH   7   9
ATOM      9  C   LIG    1       32.385 -16.421   9.883  0.00  0.00    +0.330 C 
ATOM     10  O   LIG    1       33.025 -16.292  10.927  0.00  0.00    -0.246 OA
BRANCH   9  11
ATOM     11  O   LIG    1       32.775 -15.875   8.725  0.00  0.00    -0.477 OA
ATOM     12  H   LIG    1       32.933 -16.514   8.015  0.00  0.00    +0.295 HD
ENDBRANCH   9  11
ENDBRANCH   7   9
ENDBRANCH   5   6
ENDBRANCH   3   4
BRANCH   2  13
ATOM     13  C   LIG    1       27.281 -19.874   6.217  0.00  0.00    +0.003 C 
ATOM     14  C   LIG    1       26.458 -20.638   5.476  0.00  0.00    +0.004 C 
BRANCH  14  15
ATOM     15  C   LIG    1       25.062 -20.319   5.155  0.00  0.00    -0.043 C 
ATOM     16  C   LIG    1       23.997 -21.157   5.925  0.00  0.00    -0.010 C 
ATOM     17  C   LIG    1       24.316 -22.670   6.011  0.00  0.00    +0.016 C 
ATOM     18  C   LIG    1       23.892 -20.607   7.367  0.00  0.00    +0.016 C 
ATOM     19  C   LIG    1       22.605 -21.070   5.244  0.00  0.00    +0.011 C 
ATOM     20  C   LIG    1       22.239 -19.651   4.863  0.00  0.00    +0.005 C 
ATOM     21  C   LIG    1       23.256 -19.106   3.875  0.00  0.00    +0.031 C 
ATOM     22  C   LIG    1       24.705 -19.392   4.227  0.00  0.00    -0.069 C 
ATOM     23  C   LIG    1       25.644 -18.547   3.394  0.00  0.00    +0.039 C 
ENDBRANCH  14  15
ENDBRANCH   2  13
TORSDOF 6
ENDMDL
MODEL 2
REMARK VINA RESULT:      -9.0      2.073      2.370
REMARK  Name = *****
REMARK                            x       y       z     vdW  Elec       q    Type
REMARK                         _______ _______ _______ _____ _____    ______ ____
ROOT
ATOM      1  C   LIG    1       29.070 -21.458   6.907  0.00  0.00    +0.044 C 
ATOM      2  C   LIG    1       28.640 -20.121   6.355  0.00  0.00    -0.050 C 
ATOM      3  C   LIG    1       29.499 -19.114   6.088  0.00  0.00    +0.003 C 
ENDROOT
BRANCH   3   4
ATOM      4  C   LIG    1       30.922 -19.083   6.378  0.00  0.00    +0.001 C 
ATOM      5  C   LIG    1       31.490 -19.059   7.594  0.00  0.00    +0.003 C 
BRANCH   5   6
ATOM      6  C   LIG    1       30.800 -19.040   8.871  0.00  0.00    -0.044 C 
ATOM      7  C   LIG    1       30.712 -20.080   9.718  0.00  0.00    +0.094 C 
ATOM      8  C   LIG    1       30.076 -17.760   9.217  0.00  0.00    +0.044 C 
BRANCH   7   9
ATOM      9  C   LIG    1       31.241 -21.458   9.663  0.00  0.00    +0.330 C 
ATOM     10  O   LIG    1       32.357 -21.684   9.198  0.00  0.00    -0.246 OA
BRANCH   9  11
ATOM     11  O   LIG    1       30.431 -22.428  10.104  0.00  0.00    -0.477 OA
ATOM     12  H   LIG    1       29.961 -22.214  10.923  0.00  0.00    +0.295 HD
ENDBRANCH   9  11
ENDBRANCH   7   9
ENDBRANCH   5   6
ENDBRANCH   3   4
BRANCH   2  13
ATOM     13  C   LIG    1       27.203 -19.892   6.144  0.00  0.00    +0.003 C 
ATOM     14  C   LIG    1       26.480 -20.256   5.070  0.00  0.00    +0.004 C 
BRANCH  14  15
ATOM     15  C   LIG    1       25.028 -20.098   4.928  0.00  0.00    -0.043 C 
ATOM     16  C   LIG    1       24.170 -21.138   5.711  0.00  0.00    -0.010 C 
ATOM     17  C   LIG    1       24.680 -22.596   5.604  0.00  0.00    +0.016 C 
ATOM     18  C   LIG    1       24.165 -20.742   7.206  0.00  0.00    +0.016 C 
ATOM     19  C   LIG    1       22.709 -21.177   5.189  0.00  0.00    +0.011 C 
ATOM     20  C   LIG    1       22.130 -19.790   5.000  0.00  0.00    +0.005 C 
ATOM     21  C   LIG    1       22.951 -19.026   3.976  0.00  0.00    +0.031 C 
ATOM     22  C   LIG    1       24.455 -19.147   4.145  0.00  0.00    -0.069 C 
ATOM     23  C   LIG    1       25.181 -18.111   3.314  0.00  0.00    +0.039 C 
ENDBRANCH  14  15
ENDBRANCH   2  13
TORSDOF 6
ENDMDL
MODEL 3
REMARK VINA RESULT:      -8.9      2.092      3.141
REMARK  Name = *****
REMARK                            x       y       z     vdW  Elec       q    Type
REMARK                         _______ _______ _______ _____ _____    ______ ____
ROOT
ATOM      1  C   LIG    1       29.191 -21.500   6.937  0.00  0.00    +0.044 C 
ATOM      2  C   LIG    1       28.692 -20.155   6.470  0.00  0.00    -0.050 C 
ATOM      3  C   LIG    1       29.503 -19.109   6.208  0.00  0.00    +0.003 C 
ENDROOT
BRANCH   3   4
ATOM      4  C   LIG    1       30.938 -19.043   6.427  0.00  0.00    +0.001 C 
ATOM      5  C   LIG    1       31.563 -18.973   7.613  0.00  0.00    +0.003 C 
BRANCH   5   6
ATOM      6  C   LIG    1       30.935 -18.930   8.921  0.00  0.00    -0.044 C 
ATOM      7  C   LIG    1       30.851 -19.966   9.774  0.00  0.00    +0.094 C 
ATOM      8  C   LIG    1       30.271 -17.626   9.298  0.00  0.00    +0.044 C 
BRANCH   7   9
ATOM      9  C   LIG    1       31.331 -21.360   9.697  0.00  0.00    +0.330 C 
ATOM     10  O   LIG    1       32.397 -21.629   9.145  0.00  0.00    -0.246 OA
BRANCH   9  11
ATOM     11  O   LIG    1       30.531 -22.298  10.218  0.00  0.00    -0.477 OA
ATOM     12  H   LIG    1       30.997 -23.076  10.559  0.00  0.00    +0.295 HD
ENDBRANCH   9  11
ENDBRANCH   7   9
ENDBRANCH   5   6
ENDBRANCH   3   4
BRANCH   2  13
ATOM     13  C   LIG    1       27.238 -19.965   6.342  0.00  0.00    +0.003 C 
ATOM     14  C   LIG    1       26.466 -20.349   5.310  0.00  0.00    +0.004 C 
BRANCH  14  15
ATOM     15  C   LIG    1       25.004 -20.231   5.253  0.00  0.00    -0.043 C 
ATOM     16  C   LIG    1       24.445 -19.551   3.968  0.00  0.00    -0.010 C 
ATOM     17  C   LIG    1       25.218 -18.283   3.529  0.00  0.00    +0.016 C 
ATOM     18  C   LIG    1       24.504 -20.572   2.808  0.00  0.00    +0.016 C 
ATOM     19  C   LIG    1       22.976 -19.087   4.164  0.00  0.00    +0.011 C 
ATOM     20  C   LIG    1       22.122 -20.150   4.823  0.00  0.00    +0.005 C 
ATOM     21  C   LIG    1       22.677 -20.473   6.199  0.00  0.00    +0.031 C 
ATOM     22  C   LIG    1       24.184 -20.643   6.256  0.00  0.00    -0.069 C 
ATOM     23  C   LIG    1       24.610 -21.281   7.560  0.00  0.00    +0.039 C 
ENDBRANCH  14  15
ENDBRANCH   2  13
TORSDOF 6
ENDMDL
MODEL 4
REMARK VINA RESULT:      -8.6      0.632      2.135
REMARK  Name = *****
REMARK                            x       y       z     vdW  Elec       q    Type
REMARK                         _______ _______ _______ _____ _____    ______ ____
ROOT
ATOM      1  C   LIG    1       29.259 -21.501   7.172  0.00  0.00    +0.044 C 
ATOM      2  C   LIG    1       28.756 -20.142   6.751  0.00  0.00    -0.050 C 
ATOM      3  C   LIG    1       29.556 -19.067   6.594  0.00  0.00    +0.003 C 
ENDROOT
BRANCH   3   4
ATOM      4  C   LIG    1       30.974 -18.984   6.899  0.00  0.00    +0.001 C 
ATOM      5  C   LIG    1       31.521 -18.545   8.045  0.00  0.00    +0.003 C 
BRANCH   5   6
ATOM      6  C   LIG    1       30.809 -18.044   9.206  0.00  0.00    -0.044 C 
ATOM      7  C   LIG    1       31.229 -17.040   9.996  0.00  0.00    +0.094 C 
ATOM      8  C   LIG    1       29.536 -18.770   9.572  0.00  0.00    +0.044 C 
BRANCH   7   9
ATOM      9  C   LIG    1       32.425 -16.176   9.959  0.00  0.00    +0.330 C 
ATOM     10  O   LIG    1       32.971 -15.812  11.000  0.00  0.00    -0.246 OA
BRANCH   9  11
ATOM     11  O   LIG    1       32.845 -15.786   8.749  0.00  0.00    -0.477 OA
ATOM     12  H   LIG    1       33.695 -15.323   8.752  0.00  0.00    +0.295 HD
ENDBRANCH   9  11
ENDBRANCH   7   9
ENDBRANCH   5   6
ENDBRANCH   3   4
BRANCH   2  13
ATOM     13  C   LIG    1       27.308 -19.974   6.549  0.00  0.00    +0.003 C 
ATOM     14  C   LIG    1       26.605 -20.317   5.455  0.00  0.00    +0.004 C 
BRANCH  14  15
ATOM     15  C   LIG    1       25.146 -20.225   5.318  0.00  0.00    -0.043 C 
ATOM     16  C   LIG    1       24.645 -19.584   3.990  0.00  0.00    -0.010 C 
ATOM     17  C   LIG    1       25.419 -18.313   3.563  0.00  0.00    +0.016 C 
ATOM     18  C   LIG    1       24.781 -20.630   2.859  0.00  0.00    +0.016 C 
ATOM     19  C   LIG    1       23.161 -19.140   4.098  0.00  0.00    +0.011 C 
ATOM     20  C   LIG    1       22.290 -20.202   4.737  0.00  0.00    +0.005 C 
ATOM     21  C   LIG    1       22.777 -20.485   6.148  0.00  0.00    +0.031 C 
ATOM     22  C   LIG    1       24.282 -20.628   6.287  0.00  0.00    -0.069 C 
ATOM     23  C   LIG    1       24.649 -21.229   7.626  0.00  0.00    +0.039 C 
ENDBRANCH  14  15
ENDBRANCH   2  13
TORSDOF 6
ENDMDL
MODEL 5
REMARK VINA RESULT:      -8.3      1.370      2.257
REMARK  Name = *****
REMARK                            x       y       z     vdW  Elec       q    Type
REMARK                         _______ _______ _______ _____ _____    ______ ____
ROOT
ATOM      1  C   LIG    1       28.049 -18.651   4.899  0.00  0.00    +0.044 C 
ATOM      2  C   LIG    1       28.084 -19.624   6.052  0.00  0.00    -0.050 C 
ATOM      3  C   LIG    1       29.203 -19.912   6.750  0.00  0.00    +0.003 C 
ENDROOT
BRANCH   3   4
ATOM      4  C   LIG    1       30.551 -19.451   6.464  0.00  0.00    +0.001 C 
ATOM      5  C   LIG    1       31.526 -19.227   7.360  0.00  0.00    +0.003 C 
BRANCH   5   6
ATOM      6  C   LIG    1       31.429 -19.380   8.800  0.00  0.00    -0.044 C 
ATOM      7  C   LIG    1       31.373 -18.367   9.684  0.00  0.00    +0.094 C 
ATOM      8  C   LIG    1       31.464 -20.797   9.324  0.00  0.00    +0.044 C 
BRANCH   7   9
ATOM      9  C   LIG    1       31.376 -16.900   9.519  0.00  0.00    +0.330 C 
ATOM     10  O   LIG    1       30.432 -16.221   9.919  0.00  0.00    -0.246 OA
BRANCH   9  11
ATOM     11  O   LIG    1       32.429 -16.371   8.885  0.00  0.00    -0.477 OA
ATOM     12  H   LIG    1       32.540 -16.676   7.972  0.00  0.00    +0.295 HD
ENDBRANCH   9  11
ENDBRANCH   7   9
ENDBRANCH   5   6
ENDBRANCH   3   4
BRANCH   2  13
ATOM     13  C   LIG    1       26.840 -20.330   6.398  0.00  0.00    +0.003 C 
ATOM     14  C   LIG    1       25.850 -20.673   5.554  0.00  0.00    +0.004 C 
BRANCH  14  15
ATOM     15  C   LIG    1       24.664 -21.461   5.912  0.00  0.00    -0.043 C 
ATOM     16  C   LIG    1       24.942 -22.707   6.804  0.00  0.00    -0.010 C 
ATOM     17  C   LIG    1       26.171 -23.543   6.369  0.00  0.00    +0.016 C 
ATOM     18  C   LIG    1       25.180 -22.228   8.255  0.00  0.00    +0.016 C 
ATOM     19  C   LIG    1       23.747 -23.698   6.784  0.00  0.00    +0.011 C 
ATOM     20  C   LIG    1       22.416 -22.995   6.955  0.00  0.00    +0.005 C 
ATOM     21  C   LIG    1       22.204 -22.014   5.816  0.00  0.00    +0.031 C 
ATOM     22  C   LIG    1       23.413 -21.162   5.472  0.00  0.00    -0.069 C 
ATOM     23  C   LIG    1       23.027 -20.006   4.577  0.00  0.00    +0.039 C 
ENDBRANCH  14  15
ENDBRANCH   2  13
TORSDOF 6
ENDMDL
MODEL 6
REMARK VINA RESULT:      -8.3      1.833      3.167
REMARK  Name = *****
REMARK                            x       y       z     vdW  Elec       q    Type
REMARK                         _______ _______ _______ _____ _____    ______ ____
ROOT
ATOM      1  C   LIG    1       29.028 -20.482   5.990  0.00  0.00    +0.044 C 
ATOM      2  C   LIG    1       28.637 -21.084   7.318  0.00  0.00    -0.050 C 
ATOM      3  C   LIG    1       29.453 -21.109   8.393  0.00  0.00    +0.003 C 
ENDROOT
BRANCH   3   4
ATOM      4  C   LIG    1       30.842 -20.687   8.444  0.00  0.00    +0.001 C 
ATOM      5  C   LIG    1       31.294 -19.423   8.441  0.00  0.00    +0.003 C 
BRANCH   5   6
ATOM      6  C   LIG    1       30.490 -18.217   8.367  0.00  0.00    -0.044 C 
ATOM      7  C   LIG    1       30.184 -17.425   9.410  0.00  0.00    +0.094 C 
ATOM      8  C   LIG    1       29.906 -17.888   7.012  0.00  0.00    +0.044 C 
BRANCH   7   9
ATOM      9  C   LIG    1       30.534 -17.487  10.843  0.00  0.00    +0.330 C 
ATOM     10  O   LIG    1       30.758 -16.458  11.480  0.00  0.00    -0.246 OA
BRANCH   9  11
ATOM     11  O   LIG    1       30.631 -18.707  11.384  0.00  0.00    -0.477 OA
ATOM     12  H   LIG    1       29.780 -19.141  11.543  0.00  0.00    +0.295 HD
ENDBRANCH   9  11
ENDBRANCH   7   9
ENDBRANCH   5   6
ENDBRANCH   3   4
BRANCH   2  13
ATOM     13  C   LIG    1       27.314 -21.718   7.425  0.00  0.00    +0.003 C 
ATOM     14  C   LIG    1       26.382 -21.801   6.459  0.00  0.00    +0.004 C 
BRANCH  14  15
ATOM     15  C   LIG    1       25.109 -22.523   6.566  0.00  0.00    -0.043 C 
ATOM     16  C   LIG    1       23.853 -21.623   6.770  0.00  0.00    -0.010 C 
ATOM     17  C   LIG    1       24.045 -20.485   7.802  0.00  0.00    +0.016 C 
ATOM     18  C   LIG    1       23.485 -20.981   5.412  0.00  0.00    +0.016 C 
ATOM     19  C   LIG    1       22.643 -22.446   7.289  0.00  0.00    +0.011 C 
ATOM     20  C   LIG    1       22.461 -23.742   6.527  0.00  0.00    +0.005 C 
ATOM     21  C   LIG    1       23.696 -24.611   6.689  0.00  0.00    +0.031 C 
ATOM     22  C   LIG    1       25.017 -23.879   6.532  0.00  0.00    -0.069 C 
ATOM     23  C   LIG    1       26.163 -24.854   6.376  0.00  0.00    +0.039 C 
ENDBRANCH  14  15
ENDBRANCH   2  13
TORSDOF 6
ENDMDL
MODEL 7
REMARK VINA RESULT:      -8.3      1.421      2.745
REMARK  Name = *****
REMARK                            x       y       z     vdW  Elec       q    Type
REMARK                         _______ _______ _______ _____ _____    ______ ____
ROOT
ATOM      1  C   LIG    1       28.235 -18.443   4.847  0.00  0.00    +0.044 C 
ATOM      2  C   LIG    1       28.278 -19.565   5.855  0.00  0.00    -0.050 C 
ATOM      3  C   LIG    1       29.363 -19.849   6.607  0.00  0.00    +0.003 C 
ENDROOT
BRANCH   3   4
ATOM      4  C   LIG    1       30.675 -19.233   6.512  0.00  0.00    +0.001 C 
ATOM      5  C   LIG    1       31.540 -19.035   7.519  0.00  0.00    +0.003 C 
BRANCH   5   6
ATOM      6  C   LIG    1       31.336 -19.376   8.915  0.00  0.00    -0.044 C 
ATOM      7  C   LIG    1       31.182 -18.490   9.914  0.00  0.00    +0.094 C 
ATOM      8  C   LIG    1       31.371 -20.849   9.252  0.00  0.00    +0.044 C 
BRANCH   7   9
ATOM      9  C   LIG    1       31.156 -17.014   9.940  0.00  0.00    +0.330 C 
ATOM     10  O   LIG    1       32.035 -16.359   9.382  0.00  0.00    -0.246 OA
BRANCH   9  11
ATOM     11  O   LIG    1       30.159 -16.445  10.629  0.00  0.00    -0.477 OA
ATOM     12  H   LIG    1       30.241 -15.485  10.730  0.00  0.00    +0.295 HD
ENDBRANCH   9  11
ENDBRANCH   7   9
ENDBRANCH   5   6
ENDBRANCH   3   4
BRANCH   2  13
ATOM     13  C   LIG    1       27.089 -20.421   5.987  0.00  0.00    +0.003 C 
ATOM     14  C   LIG    1       25.819 -20.011   6.159  0.00  0.00    +0.004 C 
BRANCH  14  15
ATOM     15  C   LIG    1       24.641 -20.886   6.192  0.00  0.00    -0.043 C 
ATOM     16  C   LIG    1       23.627 -20.674   5.028  0.00  0.00    -0.010 C 
ATOM     17  C   LIG    1       23.326 -19.189   4.706  0.00  0.00    +0.016 C 
ATOM     18  C   LIG    1       24.200 -21.333   3.753  0.00  0.00    +0.016 C 
ATOM     19  C   LIG    1       22.248 -21.308   5.354  0.00  0.00    +0.011 C 
ATOM     20  C   LIG    1       22.379 -22.705   5.924  0.00  0.00    +0.005 C 
ATOM     21  C   LIG    1       23.169 -22.659   7.221  0.00  0.00    +0.031 C 
ATOM     22  C   LIG    1       24.415 -21.793   7.179  0.00  0.00    -0.069 C 
ATOM     23  C   LIG    1       25.304 -22.062   8.373  0.00  0.00    +0.039 C 
ENDBRANCH  14  15
ENDBRANCH   2  13
TORSDOF 6
ENDMDL
MODEL 8
REMARK VINA RESULT:      -8.1      2.334      3.072
REMARK  Name = *****
REMARK                            x       y       z     vdW  Elec       q    Type
REMARK                         _______ _______ _______ _____ _____    ______ ____
ROOT
ATOM      1  C   LIG    1       28.191 -18.269   4.704  0.00  0.00    +0.044 C 
ATOM      2  C   LIG    1       28.116 -19.310   5.794  0.00  0.00    -0.050 C 
ATOM      3  C   LIG    1       29.194 -19.760   6.470  0.00  0.00    +0.003 C 
ENDROOT
BRANCH   3   4
ATOM      4  C   LIG    1       30.585 -19.432   6.209  0.00  0.00    +0.001 C 
ATOM      5  C   LIG    1       31.496 -19.037   7.113  0.00  0.00    +0.003 C 
BRANCH   5   6
ATOM      6  C   LIG    1       31.275 -18.838   8.534  0.00  0.00    -0.044 C 
ATOM      7  C   LIG    1       31.135 -19.821   9.440  0.00  0.00    +0.094 C 
ATOM      8  C   LIG    1       31.126 -17.405   8.990  0.00  0.00    +0.044 C 
BRANCH   7   9
ATOM      9  C   LIG    1       31.168 -21.292   9.327  0.00  0.00    +0.330 C 
ATOM     10  O   LIG    1       32.233 -21.905   9.398  0.00  0.00    -0.246 OA
BRANCH   9  11
ATOM     11  O   LIG    1       29.997 -21.903   9.107  0.00  0.00    -0.477 OA
ATOM     12  H   LIG    1       29.453 -22.021   9.899  0.00  0.00    +0.295 HD
ENDBRANCH   9  11
ENDBRANCH   7   9
ENDBRANCH   5   6
ENDBRANCH   3   4
BRANCH   2  13
ATOM     13  C   LIG    1       26.802 -19.896   6.099  0.00  0.00    +0.003 C 
ATOM     14  C   LIG    1       26.229 -20.948   5.486  0.00  0.00    +0.004 C 
BRANCH  14  15
ATOM     15  C   LIG    1       24.958 -21.570   5.876  0.00  0.00    -0.043 C 
ATOM     16  C   LIG    1       25.085 -22.789   6.838  0.00  0.00    -0.010 C 
ATOM     17  C   LIG    1       26.209 -23.785   6.460  0.00  0.00    +0.016 C 
ATOM     18  C   LIG    1       25.373 -22.260   8.262  0.00  0.00    +0.016 C 
ATOM     19  C   LIG    1       23.782 -23.632   6.861  0.00  0.00    +0.011 C 
ATOM     20  C   LIG    1       22.542 -22.770   6.981  0.00  0.00    +0.005 C 
ATOM     21  C   LIG    1       22.450 -21.836   5.788  0.00  0.00    +0.031 C 
ATOM     22  C   LIG    1       23.751 -21.152   5.409  0.00  0.00    -0.069 C 
ATOM     23  C   LIG    1       23.506 -20.010   4.448  0.00  0.00    +0.039 C 
ENDBRANCH  14  15
ENDBRANCH   2  13
TORSDOF 6
ENDMDL
MODEL 9
REMARK VINA RESULT:      -8.0      2.407      3.653
REMARK  Name = *****
REMARK                            x       y       z     vdW  Elec       q    Type
REMARK                         _______ _______ _______ _____ _____    ______ ____
ROOT
ATOM      1  C   LIG    1       27.729 -19.002   4.962  0.00  0.00    +0.044 C 
ATOM      2  C   LIG    1       27.911 -19.956   6.117  0.00  0.00    -0.050 C 
ATOM      3  C   LIG    1       29.083 -20.127   6.764  0.00  0.00    +0.003 C 
ENDROOT
BRANCH   3   4
ATOM      4  C   LIG    1       30.366 -19.541   6.414  0.00  0.00    +0.001 C 
ATOM      5  C   LIG    1       31.290 -19.072   7.267  0.00  0.00    +0.003 C 
BRANCH   5   6
ATOM      6  C   LIG    1       31.192 -19.036   8.715  0.00  0.00    -0.044 C 
ATOM      7  C   LIG    1       31.126 -20.115   9.513  0.00  0.00    +0.094 C 
ATOM      8  C   LIG    1       31.089 -17.664   9.341  0.00  0.00    +0.044 C 
BRANCH   7   9
ATOM      9  C   LIG    1       31.143 -21.565   9.232  0.00  0.00    +0.330 C 
ATOM     10  O   LIG    1       30.153 -22.261   9.457  0.00  0.00    -0.246 OA
BRANCH   9  11
ATOM     11  O   LIG    1       32.291 -22.071   8.766  0.00  0.00    -0.477 OA
ATOM     12  H   LIG    1       32.639 -21.616   7.985  0.00  0.00    +0.295 HD
ENDBRANCH   9  11
ENDBRANCH   7   9
ENDBRANCH   5   6
ENDBRANCH   3   4
BRANCH   2  13
ATOM     13  C   LIG    1       26.759 -20.774   6.525  0.00  0.00    +0.003 C 
ATOM     14  C   LIG    1       25.831 -21.315   5.715  0.00  0.00    +0.004 C 
BRANCH  14  15
ATOM     15  C   LIG    1       24.745 -22.206   6.142  0.00  0.00    -0.043 C 
ATOM     16  C   LIG    1       23.393 -21.499   6.456  0.00  0.00    -0.010 C 
ATOM     17  C   LIG    1       23.531 -20.198   7.285  0.00  0.00    +0.016 C 
ATOM     18  C   LIG    1       22.704 -21.143   5.118  0.00  0.00    +0.016 C 
ATOM     19  C   LIG    1       22.453 -22.415   7.286  0.00  0.00    +0.011 C 
ATOM     20  C   LIG    1       22.396 -23.826   6.738  0.00  0.00    +0.005 C 
ATOM     21  C   LIG    1       23.780 -24.449   6.781  0.00  0.00    +0.031 C 
ATOM     22  C   LIG    1       24.902 -23.548   6.296  0.00  0.00    -0.069 C 
ATOM     23  C   LIG    1       26.170 -24.338   6.058  0.00  0.00    +0.039 C 
ENDBRANCH  14  15
ENDBRANCH   2  13
TORSDOF 6
ENDMDL
