MODEL 1
REMARK VINA RESULT:      -3.5      0.000      0.000
REMARK  Name = *****
REMARK                            x       y       z     vdW  Elec       q    Type
REMARK                         _______ _______ _______ _____ _____    ______ ____
ROOT
ATOM      1  C   LIG    1       22.550 -19.074   4.801  0.00  0.00    +0.047 C 
ATOM      2  C   LIG    1       23.835 -19.302   5.610  0.00  0.00    +0.046 C 
ATOM      3  C   LIG    1       24.937 -19.319   4.559  0.00  0.00    +0.179 C 
ATOM      4  O   LIG    1       25.963 -20.214   4.985  0.00  0.00    -0.493 OA
ATOM      5  C   LIG    1       25.462 -20.867   6.098  0.00  0.00    +0.095 C 
ATOM      6  C   LIG    1       26.284 -21.501   6.945  0.00  0.00    +0.014 C 
ATOM      7  C   LIG    1       24.307 -19.784   3.243  0.00  0.00    +0.076 C 
ATOM      8  C   LIG    1       23.999 -20.648   6.298  0.00  0.00    +0.081 C 
ATOM      9  C   LIG    1       22.802 -19.899   3.517  0.00  0.00    +0.125 C 
ENDROOT
BRANCH   1  11
ATOM     10  C   LIG    1       23.324 -16.661   4.464  0.00  0.00    -0.000 C 
ATOM     11  C   LIG    1       22.343 -17.577   4.550  0.00  0.00    -0.022 C 
BRANCH  10  12
ATOM     12  C   LIG    1       23.195 -15.180   4.274  0.00  0.00    +0.137 C 
BRANCH  12  13
ATOM     13  O   LIG    1       23.088 -14.601   5.582  0.00  0.00    -0.388 OA
ATOM     14  H   LIG    1       23.969 -14.573   5.992  0.00  0.00    +0.210 HD
ENDBRANCH  12  13
BRANCH  12  15
ATOM     15  C   LIG    1       24.424 -14.550   3.587  0.00  0.00    +0.035 C 
BRANCH  15  16
ATOM     16  C   LIG    1       25.563 -15.535   3.261  0.00  0.00    +0.003 C 
BRANCH  16  17
ATOM     17  C   LIG    1       26.930 -14.832   3.162  0.00  0.00    -0.000 C 
BRANCH  17  19
ATOM     18  C   LIG    1       27.944 -12.835   4.332  0.00  0.00    +0.004 C 
ATOM     19  C   LIG    1       27.433 -14.265   4.499  0.00  0.00    -0.003 C 
ENDBRANCH  17  19
ENDBRANCH  16  17
ENDBRANCH  15  16
ENDBRANCH  12  15
ENDBRANCH  10  12
ENDBRANCH   1  11
BRANCH   9  20
ATOM     20  O   LIG    1       22.430 -21.260   3.704  0.00  0.00    -0.391 OA
ATOM     21  H   LIG    1       21.625 -21.411   3.177  0.00  0.00    +0.210 HD
ENDBRANCH   9  20
BRANCH   6  22
ATOM     22  C   LIG    1       27.772 -21.572   6.747  0.00  0.00    +0.031 C 
BRANCH  22  23
ATOM     23  C   LIG    1       28.470 -20.241   7.062  0.00  0.00    +0.015 C 
BRANCH  23  24
ATOM     24  C   LIG    1       29.443 -19.772   5.975  0.00  0.00    +0.121 C 
BRANCH  24  25
ATOM     25  C   LIG    1       29.184 -18.348   5.570  0.00  0.00    +0.305 C 
ATOM     26  O   LIG    1       29.397 -17.375   6.307  0.00  0.00    -0.251 OA
BRANCH  25  27
ATOM     27  O   LIG    1       28.736 -18.200   4.318  0.00  0.00    -0.481 OA
ATOM     28  H   LIG    1       29.092 -17.404   3.861  0.00  0.00    +0.295 HD
ENDBRANCH  25  27
ENDBRANCH  24  25
ENDBRANCH  23  24
ENDBRANCH  22  23
ENDBRANCH   6  22
TORSDOF 13
ENDMDL
MODEL 2
REMARK VINA RESULT:      -1.0      1.920      4.925
REMARK  Name = *****
REMARK                            x       y       z     vdW  Elec       q    Type
REMARK                         _______ _______ _______ _____ _____    ______ ____
ROOT
ATOM      1  C   LIG    1       28.380 -18.703   4.773  0.00  0.00    +0.047 C 
ATOM      2  C   LIG    1       26.884 -19.032   4.670  0.00  0.00    +0.046 C 
ATOM      3  C   LIG    1       26.416 -19.089   6.118  0.00  0.00    +0.179 C 
ATOM      4  O   LIG    1       25.374 -20.057   6.225  0.00  0.00    -0.493 OA
ATOM      5  C   LIG    1       25.329 -20.708   5.004  0.00  0.00    +0.095 C 
ATOM      6  C   LIG    1       24.249 -21.414   4.645  0.00  0.00    +0.014 C 
ATOM      7  C   LIG    1       27.624 -19.479   6.974  0.00  0.00    +0.076 C 
ATOM      8  C   LIG    1       26.504 -20.404   4.134  0.00  0.00    +0.081 C 
ATOM      9  C   LIG    1       28.824 -19.507   6.018  0.00  0.00    +0.125 C 
ENDROOT
BRANCH   1  11
ATOM     10  C   LIG    1       27.834 -16.252   4.292  0.00  0.00    -0.000 C 
ATOM     11  C   LIG    1       28.579 -17.190   4.904  0.00  0.00    -0.022 C 
BRANCH  10  12
ATOM     12  C   LIG    1       28.003 -14.763   4.332  0.00  0.00    +0.137 C 
BRANCH  12  13
ATOM     13  O   LIG    1       27.717 -14.277   3.013  0.00  0.00    -0.388 OA
ATOM     14  H   LIG    1       27.105 -14.891   2.572  0.00  0.00    +0.210 HD
ENDBRANCH  12  13
BRANCH  12  15
ATOM     15  C   LIG    1       27.025 -14.071   5.303  0.00  0.00    +0.035 C 
BRANCH  15  16
ATOM     16  C   LIG    1       25.926 -13.226   4.629  0.00  0.00    +0.003 C 
BRANCH  16  17
ATOM     17  C   LIG    1       24.618 -14.017   4.439  0.00  0.00    -0.000 C 
BRANCH  17  19
ATOM     18  C   LIG    1       24.690 -12.753   2.252  0.00  0.00    +0.004 C 
ATOM     19  C   LIG    1       23.844 -13.638   3.166  0.00  0.00    -0.003 C 
ENDBRANCH  17  19
ENDBRANCH  16  17
ENDBRANCH  15  16
ENDBRANCH  12  15
ENDBRANCH  10  12
ENDBRANCH   1  11
BRANCH   9  20
ATOM     20  O   LIG    1       29.153 -20.847   5.669  0.00  0.00    -0.391 OA
ATOM     21  H   LIG    1       30.125 -20.909   5.660  0.00  0.00    +0.210 HD
ENDBRANCH   9  20
BRANCH   6  22
ATOM     22  C   LIG    1       23.042 -21.572   5.525  0.00  0.00    +0.031 C 
BRANCH  22  23
ATOM     23  C   LIG    1       22.300 -20.246   5.748  0.00  0.00    +0.015 C 
BRANCH  23  24
ATOM     24  C   LIG    1       21.892 -19.531   4.456  0.00  0.00    +0.121 C 
BRANCH  24  25
ATOM     25  C   LIG    1       22.529 -18.175   4.342  0.00  0.00    +0.305 C 
ATOM     26  O   LIG    1       22.045 -17.146   4.834  0.00  0.00    -0.251 OA
BRANCH  25  27
ATOM     27  O   LIG    1       23.700 -18.164   3.695  0.00  0.00    -0.481 OA
ATOM     28  H   LIG    1       24.374 -17.575   4.104  0.00  0.00    +0.295 HD
ENDBRANCH  25  27
ENDBRANCH  24  25
ENDBRANCH  23  24
ENDBRANCH  22  23
ENDBRANCH   6  22
TORSDOF 13
ENDMDL
