MODEL 1
REMARK VINA RESULT:      -7.5      0.000      0.000
REMARK  Name = *****
REMARK                            x       y       z     vdW  Elec       q    Type
REMARK                         _______ _______ _______ _____ _____    ______ ____
ROOT
ATOM      1  C   LIG    1       24.786 -20.598   6.272  0.00  0.00    +0.144 C 
ENDROOT
BRANCH   1   2
ATOM      2  C   LIG    1       24.449 -20.758   4.754  0.00  0.00    +0.072 C 
ATOM      3  N   LIG    1       23.191 -21.482   4.456  0.00  0.00    -0.312 NA
ATOM      4  H   LIG    1       23.181 -21.696   3.457  0.00  0.00    +0.122 HD
ATOM      5  C   LIG    1       21.975 -20.738   4.783  0.00  0.00    +0.081 C 
ATOM      6  C   LIG    1       21.912 -19.339   4.176  0.00  0.00    +0.015 C 
ATOM      7  C   LIG    1       23.213 -18.559   4.326  0.00  0.00    +0.003 C 
ATOM      8  C   LIG    1       24.424 -19.422   3.981  0.00  0.00    +0.020 C 
ENDBRANCH   1   2
BRANCH   1   9
ATOM      9  C   LIG    1       26.285 -20.419   6.516  0.00  0.00    -0.032 A 
ATOM     10  C   LIG    1       26.782 -20.472   7.829  0.00  0.00    +0.004 A 
ATOM     11  C   LIG    1       28.129 -20.221   8.095  0.00  0.00    +0.000 A 
ATOM     12  C   LIG    1       29.003 -19.925   7.053  0.00  0.00    +0.000 A 
ATOM     13  C   LIG    1       28.531 -19.884   5.742  0.00  0.00    +0.000 A 
ATOM     14  C   LIG    1       27.181 -20.129   5.474  0.00  0.00    +0.004 A 
ENDBRANCH   1   9
BRANCH   1  15
ATOM     15  C   LIG    1       24.229 -21.773   7.084  0.00  0.00    +0.316 C 
ATOM     16  O   LIG    1       23.489 -21.685   8.049  0.00  0.00    -0.250 OA
BRANCH  15  18
ATOM     17  C   LIG    1       23.830 -24.073   6.674  0.00  0.00    +0.280 C 
ATOM     18  O   LIG    1       24.704 -22.948   6.561  0.00  0.00    -0.468 OA
ENDBRANCH  15  18
ENDBRANCH   1  15
TORSDOF 4
ENDMDL
MODEL 2
REMARK VINA RESULT:      -7.1      1.569      3.678
REMARK  Name = *****
REMARK                            x       y       z     vdW  Elec       q    Type
REMARK                         _______ _______ _______ _____ _____    ______ ____
ROOT
ATOM      1  C   LIG    1       25.448 -21.550   6.145  0.00  0.00    +0.144 C 
ENDROOT
BRANCH   1   2
ATOM      2  C   LIG    1       25.050 -22.460   7.353  0.00  0.00    +0.072 C 
ATOM      3  N   LIG    1       23.607 -22.780   7.458  0.00  0.00    -0.312 NA
ATOM      4  H   LIG    1       23.445 -23.200   8.375  0.00  0.00    +0.122 HD
ATOM      5  C   LIG    1       23.118 -23.701   6.432  0.00  0.00    +0.081 C 
ATOM      6  C   LIG    1       23.919 -24.995   6.317  0.00  0.00    +0.015 C 
ATOM      7  C   LIG    1       25.426 -24.774   6.327  0.00  0.00    +0.003 C 
ATOM      8  C   LIG    1       25.838 -23.786   7.416  0.00  0.00    +0.020 C 
ENDBRANCH   1   2
BRANCH   1   9
ATOM      9  C   LIG    1       26.686 -20.702   6.443  0.00  0.00    -0.032 A 
ATOM     10  C   LIG    1       27.346 -20.051   5.388  0.00  0.00    +0.004 A 
ATOM     11  C   LIG    1       28.530 -19.345   5.612  0.00  0.00    +0.000 A 
ATOM     12  C   LIG    1       29.066 -19.270   6.894  0.00  0.00    +0.000 A 
ATOM     13  C   LIG    1       28.415 -19.896   7.955  0.00  0.00    +0.000 A 
ATOM     14  C   LIG    1       27.233 -20.609   7.733  0.00  0.00    +0.004 A 
ENDBRANCH   1   9
BRANCH   1  15
ATOM     15  C   LIG    1       24.269 -20.676   5.705  0.00  0.00    +0.316 C 
ATOM     16  O   LIG    1       23.465 -20.138   6.446  0.00  0.00    -0.250 OA
BRANCH  15  18
ATOM     17  C   LIG    1       23.835 -19.344   3.792  0.00  0.00    +0.280 C 
ATOM     18  O   LIG    1       24.252 -20.598   4.336  0.00  0.00    -0.468 OA
ENDBRANCH  15  18
ENDBRANCH   1  15
TORSDOF 4
ENDMDL
MODEL 3
REMARK VINA RESULT:      -7.1      1.703      4.744
REMARK  Name = *****
REMARK                            x       y       z     vdW  Elec       q    Type
REMARK                         _______ _______ _______ _____ _____    ______ ____
ROOT
ATOM      1  C   LIG    1       25.729 -21.223   6.432  0.00  0.00    +0.144 C 
ENDROOT
BRANCH   1   2
ATOM      2  C   LIG    1       26.600 -20.221   7.257  0.00  0.00    +0.072 C 
ATOM      3  N   LIG    1       27.172 -20.761   8.512  0.00  0.00    -0.312 NA
ATOM      4  H   LIG    1       27.543 -19.976   9.052  0.00  0.00    +0.122 HD
ATOM      5  C   LIG    1       28.244 -21.737   8.315  0.00  0.00    +0.081 C 
ATOM      6  C   LIG    1       29.373 -21.254   7.408  0.00  0.00    +0.015 C 
ATOM      7  C   LIG    1       28.877 -20.568   6.141  0.00  0.00    +0.003 C 
ATOM      8  C   LIG    1       27.749 -19.584   6.445  0.00  0.00    +0.020 C 
ENDBRANCH   1   2
BRANCH   1   9
ATOM      9  C   LIG    1       24.702 -20.508   5.552  0.00  0.00    -0.032 A 
ATOM     10  C   LIG    1       25.106 -19.966   4.321  0.00  0.00    +0.004 A 
ATOM     11  C   LIG    1       24.217 -19.228   3.537  0.00  0.00    +0.000 A 
ATOM     12  C   LIG    1       22.908 -19.030   3.965  0.00  0.00    +0.000 A 
ATOM     13  C   LIG    1       22.485 -19.574   5.176  0.00  0.00    +0.000 A 
ATOM     14  C   LIG    1       23.375 -20.308   5.967  0.00  0.00    +0.004 A 
ENDBRANCH   1   9
BRANCH   1  15
ATOM     15  C   LIG    1       25.054 -22.248   7.350  0.00  0.00    +0.316 C 
ATOM     16  O   LIG    1       24.676 -22.043   8.490  0.00  0.00    -0.250 OA
BRANCH  15  18
ATOM     17  C   LIG    1       23.648 -24.034   6.678  0.00  0.00    +0.280 C 
ATOM     18  O   LIG    1       24.950 -23.445   6.689  0.00  0.00    -0.468 OA
ENDBRANCH  15  18
ENDBRANCH   1  15
TORSDOF 4
ENDMDL
MODEL 4
REMARK VINA RESULT:      -7.0      1.983      3.759
REMARK  Name = *****
REMARK                            x       y       z     vdW  Elec       q    Type
REMARK                         _______ _______ _______ _____ _____    ______ ____
ROOT
ATOM      1  C   LIG    1       24.678 -21.993   5.758  0.00  0.00    +0.144 C 
ENDROOT
BRANCH   1   2
ATOM      2  C   LIG    1       23.597 -21.759   4.653  0.00  0.00    +0.072 C 
ATOM      3  N   LIG    1       22.377 -21.046   5.099  0.00  0.00    -0.312 NA
ATOM      4  H   LIG    1       21.677 -21.130   4.360  0.00  0.00    +0.122 HD
ATOM      5  C   LIG    1       22.581 -19.626   5.387  0.00  0.00    +0.081 C 
ATOM      6  C   LIG    1       23.242 -18.844   4.255  0.00  0.00    +0.015 C 
ATOM      7  C   LIG    1       24.439 -19.563   3.645  0.00  0.00    +0.003 C 
ATOM      8  C   LIG    1       24.138 -21.039   3.399  0.00  0.00    +0.020 C 
ENDBRANCH   1   2
BRANCH   1   9
ATOM      9  C   LIG    1       25.093 -23.461   5.860  0.00  0.00    -0.032 A 
ATOM     10  C   LIG    1       24.842 -24.325   4.782  0.00  0.00    +0.004 A 
ATOM     11  C   LIG    1       25.124 -25.690   4.877  0.00  0.00    +0.000 A 
ATOM     12  C   LIG    1       25.671 -26.210   6.046  0.00  0.00    +0.000 A 
ATOM     13  C   LIG    1       25.941 -25.364   7.121  0.00  0.00    +0.000 A 
ATOM     14  C   LIG    1       25.654 -23.998   7.030  0.00  0.00    +0.004 A 
ENDBRANCH   1   9
BRANCH   1  15
ATOM     15  C   LIG    1       24.203 -21.456   7.113  0.00  0.00    +0.316 C 
ATOM     16  O   LIG    1       23.236 -21.855   7.738  0.00  0.00    -0.250 OA
BRANCH  15  18
ATOM     17  C   LIG    1       25.893 -20.741   8.614  0.00  0.00    +0.280 C 
ATOM     18  O   LIG    1       25.035 -20.441   7.512  0.00  0.00    -0.468 OA
ENDBRANCH  15  18
ENDBRANCH   1  15
TORSDOF 4
ENDMDL
MODEL 5
REMARK VINA RESULT:      -6.9      1.810      4.539
REMARK  Name = *****
REMARK                            x       y       z     vdW  Elec       q    Type
REMARK                         _______ _______ _______ _____ _____    ______ ____
ROOT
ATOM      1  C   LIG    1       24.476 -22.438   6.298  0.00  0.00    +0.144 C 
ENDROOT
BRANCH   1   2
ATOM      2  C   LIG    1       25.021 -21.966   7.685  0.00  0.00    +0.072 C 
ATOM      3  N   LIG    1       26.132 -22.774   8.240  0.00  0.00    -0.312 NA
ATOM      4  H   LIG    1       26.264 -22.500   9.215  0.00  0.00    +0.122 HD
ATOM      5  C   LIG    1       27.404 -22.612   7.537  0.00  0.00    +0.081 C 
ATOM      6  C   LIG    1       27.857 -21.162   7.384  0.00  0.00    +0.015 C 
ATOM      7  C   LIG    1       26.741 -20.227   6.934  0.00  0.00    +0.003 C 
ATOM      8  C   LIG    1       25.452 -20.483   7.710  0.00  0.00    +0.020 C 
ENDBRANCH   1   2
BRANCH   1   9
ATOM      9  C   LIG    1       23.911 -21.280   5.474  0.00  0.00    -0.032 A 
ATOM     10  C   LIG    1       24.506 -20.953   4.244  0.00  0.00    +0.004 A 
ATOM     11  C   LIG    1       24.075 -19.846   3.512  0.00  0.00    +0.000 A 
ATOM     12  C   LIG    1       23.035 -19.054   3.991  0.00  0.00    +0.000 A 
ATOM     13  C   LIG    1       22.422 -19.372   5.201  0.00  0.00    +0.000 A 
ATOM     14  C   LIG    1       22.857 -20.477   5.940  0.00  0.00    +0.004 A 
ENDBRANCH   1   9
BRANCH   1  15
ATOM     15  C   LIG    1       23.441 -23.555   6.466  0.00  0.00    +0.316 C 
ATOM     16  O   LIG    1       22.274 -23.404   6.782  0.00  0.00    -0.250 OA
BRANCH  15  18
ATOM     17  C   LIG    1       25.112 -24.740   5.272  0.00  0.00    +0.280 C 
ATOM     18  O   LIG    1       24.038 -24.764   6.214  0.00  0.00    -0.468 OA
ENDBRANCH  15  18
ENDBRANCH   1  15
TORSDOF 4
ENDMDL
MODEL 6
REMARK VINA RESULT:      -6.9      0.617      1.504
REMARK  Name = *****
REMARK                            x       y       z     vdW  Elec       q    Type
REMARK                         _______ _______ _______ _____ _____    ______ ____
ROOT
ATOM      1  C   LIG    1       24.990 -21.077   6.129  0.00  0.00    +0.144 C 
ENDROOT
BRANCH   1   2
ATOM      2  C   LIG    1       24.610 -20.935   4.620  0.00  0.00    +0.072 C 
ATOM      3  N   LIG    1       23.340 -21.588   4.221  0.00  0.00    -0.312 NA
ATOM      4  H   LIG    1       23.301 -21.600   3.200  0.00  0.00    +0.122 HD
ATOM      5  C   LIG    1       22.137 -20.924   4.723  0.00  0.00    +0.081 C 
ATOM      6  C   LIG    1       22.064 -19.432   4.405  0.00  0.00    +0.015 C 
ATOM      7  C   LIG    1       23.372 -18.695   4.668  0.00  0.00    +0.003 C 
ATOM      8  C   LIG    1       24.569 -19.472   4.126  0.00  0.00    +0.020 C 
ENDBRANCH   1   2
BRANCH   1   9
ATOM      9  C   LIG    1       26.368 -20.489   6.436  0.00  0.00    -0.032 A 
ATOM     10  C   LIG    1       27.175 -20.035   5.380  0.00  0.00    +0.004 A 
ATOM     11  C   LIG    1       28.473 -19.579   5.616  0.00  0.00    +0.000 A 
ATOM     12  C   LIG    1       28.982 -19.559   6.912  0.00  0.00    +0.000 A 
ATOM     13  C   LIG    1       28.189 -19.991   7.974  0.00  0.00    +0.000 A 
ATOM     14  C   LIG    1       26.891 -20.454   7.740  0.00  0.00    +0.004 A 
ENDBRANCH   1   9
BRANCH   1  15
ATOM     15  C   LIG    1       24.896 -22.538   6.584  0.00  0.00    +0.316 C 
ATOM     16  O   LIG    1       25.765 -23.382   6.453  0.00  0.00    -0.250 OA
BRANCH  15  18
ATOM     17  C   LIG    1       23.013 -23.965   6.774  0.00  0.00    +0.280 C 
ATOM     18  O   LIG    1       23.669 -22.754   7.156  0.00  0.00    -0.468 OA
ENDBRANCH  15  18
ENDBRANCH   1  15
TORSDOF 4
ENDMDL
MODEL 7
REMARK VINA RESULT:      -6.8      2.378      4.672
REMARK  Name = *****
REMARK                            x       y       z     vdW  Elec       q    Type
REMARK                         _______ _______ _______ _____ _____    ______ ____
ROOT
ATOM      1  C   LIG    1       25.204 -22.915   6.658  0.00  0.00    +0.144 C 
ENDROOT
BRANCH   1   2
ATOM      2  C   LIG    1       23.752 -22.650   7.173  0.00  0.00    +0.072 C 
ATOM      3  N   LIG    1       23.573 -21.402   7.953  0.00  0.00    -0.312 NA
ATOM      4  H   LIG    1       22.653 -21.438   8.396  0.00  0.00    +0.122 HD
ATOM      5  C   LIG    1       23.657 -20.177   7.158  0.00  0.00    +0.081 C 
ATOM      6  C   LIG    1       22.735 -20.154   5.941  0.00  0.00    +0.015 C 
ATOM      7  C   LIG    1       22.758 -21.451   5.143  0.00  0.00    +0.003 C 
ATOM      8  C   LIG    1       22.685 -22.671   6.057  0.00  0.00    +0.020 C 
ENDBRANCH   1   2
BRANCH   1   9
ATOM      9  C   LIG    1       25.426 -24.381   6.283  0.00  0.00    -0.032 A 
ATOM     10  C   LIG    1       25.170 -24.803   4.968  0.00  0.00    +0.004 A 
ATOM     11  C   LIG    1       25.273 -26.150   4.615  0.00  0.00    +0.000 A 
ATOM     12  C   LIG    1       25.644 -27.095   5.568  0.00  0.00    +0.000 A 
ATOM     13  C   LIG    1       25.917 -26.692   6.873  0.00  0.00    +0.000 A 
ATOM     14  C   LIG    1       25.808 -25.345   7.231  0.00  0.00    +0.004 A 
ENDBRANCH   1   9
BRANCH   1  15
ATOM     15  C   LIG    1       26.244 -22.442   7.680  0.00  0.00    +0.316 C 
ATOM     16  O   LIG    1       26.056 -22.304   8.876  0.00  0.00    -0.250 OA
BRANCH  15  18
ATOM     17  C   LIG    1       28.364 -21.383   7.756  0.00  0.00    +0.280 C 
ATOM     18  O   LIG    1       27.425 -22.183   7.033  0.00  0.00    -0.468 OA
ENDBRANCH  15  18
ENDBRANCH   1  15
TORSDOF 4
ENDMDL
MODEL 8
REMARK VINA RESULT:      -6.8      1.957      4.889
REMARK  Name = *****
REMARK                            x       y       z     vdW  Elec       q    Type
REMARK                         _______ _______ _______ _____ _____    ______ ____
ROOT
ATOM      1  C   LIG    1       24.666 -22.502   6.438  0.00  0.00    +0.144 C 
ENDROOT
BRANCH   1   2
ATOM      2  C   LIG    1       25.498 -23.510   5.581  0.00  0.00    +0.072 C 
ATOM      3  N   LIG    1       26.469 -24.337   6.337  0.00  0.00    -0.312 NA
ATOM      4  H   LIG    1       27.080 -24.799   5.661  0.00  0.00    +0.122 HD
ATOM      5  C   LIG    1       25.858 -25.359   7.186  0.00  0.00    +0.081 C 
ATOM      6  C   LIG    1       24.871 -26.270   6.460  0.00  0.00    +0.015 C 
ATOM      7  C   LIG    1       23.906 -25.514   5.555  0.00  0.00    +0.003 C 
ATOM      8  C   LIG    1       24.631 -24.459   4.724  0.00  0.00    +0.020 C 
ENDBRANCH   1   2
BRANCH   1   9
ATOM      9  C   LIG    1       24.105 -21.354   5.598  0.00  0.00    -0.032 A 
ATOM     10  C   LIG    1       24.813 -20.917   4.467  0.00  0.00    +0.004 A 
ATOM     11  C   LIG    1       24.378 -19.813   3.732  0.00  0.00    +0.000 A 
ATOM     12  C   LIG    1       23.222 -19.135   4.109  0.00  0.00    +0.000 A 
ATOM     13  C   LIG    1       22.497 -19.565   5.219  0.00  0.00    +0.000 A 
ATOM     14  C   LIG    1       22.935 -20.667   5.960  0.00  0.00    +0.004 A 
ENDBRANCH   1   9
BRANCH   1  15
ATOM     15  C   LIG    1       25.489 -21.975   7.618  0.00  0.00    +0.316 C 
ATOM     16  O   LIG    1       25.087 -21.827   8.759  0.00  0.00    -0.250 OA
BRANCH  15  18
ATOM     17  C   LIG    1       27.212 -20.354   7.458  0.00  0.00    +0.280 C 
ATOM     18  O   LIG    1       26.758 -21.681   7.187  0.00  0.00    -0.468 OA
ENDBRANCH  15  18
ENDBRANCH   1  15
TORSDOF 4
ENDMDL
MODEL 9
REMARK VINA RESULT:      -6.6      1.977      4.174
REMARK  Name = *****
REMARK                            x       y       z     vdW  Elec       q    Type
REMARK                         _______ _______ _______ _____ _____    ______ ____
ROOT
ATOM      1  C   LIG    1       24.870 -22.558   5.943  0.00  0.00    +0.144 C 
ENDROOT
BRANCH   1   2
ATOM      2  C   LIG    1       24.434 -23.780   6.814  0.00  0.00    +0.072 C 
ATOM      3  N   LIG    1       23.472 -24.707   6.171  0.00  0.00    -0.312 NA
ATOM      4  H   LIG    1       23.115 -25.338   6.891  0.00  0.00    +0.122 HD
ATOM      5  C   LIG    1       24.042 -25.511   5.089  0.00  0.00    +0.081 C 
ATOM      6  C   LIG    1       25.306 -26.276   5.474  0.00  0.00    +0.015 C 
ATOM      7  C   LIG    1       26.307 -25.432   6.253  0.00  0.00    +0.003 C 
ATOM      8  C   LIG    1       25.618 -24.617   7.345  0.00  0.00    +0.020 C 
ENDBRANCH   1   2
BRANCH   1   9
ATOM      9  C   LIG    1       25.779 -21.596   6.710  0.00  0.00    -0.032 A 
ATOM     10  C   LIG    1       26.926 -21.082   6.083  0.00  0.00    +0.004 A 
ATOM     11  C   LIG    1       27.825 -20.277   6.785  0.00  0.00    +0.000 A 
ATOM     12  C   LIG    1       27.586 -19.962   8.119  0.00  0.00    +0.000 A 
ATOM     13  C   LIG    1       26.445 -20.450   8.753  0.00  0.00    +0.000 A 
ATOM     14  C   LIG    1       25.546 -21.262   8.055  0.00  0.00    +0.004 A 
ENDBRANCH   1   9
BRANCH   1  15
ATOM     15  C   LIG    1       23.649 -21.829   5.371  0.00  0.00    +0.316 C 
ATOM     16  O   LIG    1       22.568 -21.710   5.919  0.00  0.00    -0.250 OA
BRANCH  15  18
ATOM     17  C   LIG    1       23.859 -19.916   3.985  0.00  0.00    +0.280 C 
ATOM     18  O   LIG    1       23.960 -21.334   4.130  0.00  0.00    -0.468 OA
ENDBRANCH  15  18
ENDBRANCH   1  15
TORSDOF 4
ENDMDL
