MODEL 1
REMARK VINA RESULT:      -3.0      0.000      0.000
REMARK  Name = *****
REMARK                            x       y       z     vdW  Elec       q    Type
REMARK                         _______ _______ _______ _____ _____    ______ ____
ROOT
ATOM      1  C   LIG    1       24.776 -17.286   3.787  0.00  0.00    +0.096 A 
ATOM      2  C   LIG    1       24.162 -16.048   4.033  0.00  0.00    +0.284 A 
ATOM      3  C   LIG    1       24.867 -14.833   3.924  0.00  0.00    +0.097 A 
ATOM      4  C   LIG    1       26.219 -14.837   3.556  0.00  0.00    +0.061 A 
ATOM      5  C   LIG    1       26.836 -16.071   3.299  0.00  0.00    +0.013 A 
ATOM      6  C   LIG    1       26.125 -17.276   3.403  0.00  0.00    +0.019 A 
ENDROOT
BRANCH   4   7
ATOM      7  C   LIG    1       26.982 -13.536   3.438  0.00  0.00    +0.418 C 
ATOM      8  F   LIG    1       28.248 -13.722   2.975  0.00  0.00    -0.166 F 
ATOM      9  F   LIG    1       27.106 -12.900   4.634  0.00  0.00    -0.166 F 
ATOM     10  F   LIG    1       26.399 -12.642   2.594  0.00  0.00    -0.166 F 
ENDBRANCH   4   7
BRANCH   2  11
ATOM     11  N   LIG    1       22.778 -15.958   4.464  0.00  0.00    +0.080 N 
ATOM     12  O   LIG    1       21.910 -16.076   3.589  0.00  0.00    -0.576 OA
ATOM     13  O   LIG    1       22.583 -15.663   5.651  0.00  0.00    +0.042 OA
ENDBRANCH   2  11
BRANCH   1  15
ATOM     14  O   LIG    1       22.789 -18.527   3.736  0.00  0.00    -0.291 OA
ATOM     15  C   LIG    1       24.014 -18.570   3.824  0.00  0.00    +0.187 C 
BRANCH  15  16
ATOM     16  C   LIG    1       24.737 -19.896   3.927  0.00  0.00    +0.192 C 
ATOM     17  C   LIG    1       25.568 -19.974   5.180  0.00  0.00    +0.151 C 
ATOM     18  O   LIG    1       26.768 -19.691   5.160  0.00  0.00    -0.296 OA
ATOM     19  C   LIG    1       24.859 -20.317   6.470  0.00  0.00    +0.076 C 
ATOM     20  C   LIG    1       24.017 -21.571   6.282  0.00  0.00    +0.015 C 
ATOM     21  C   LIG    1       23.032 -21.427   5.130  0.00  0.00    +0.076 C 
ATOM     22  C   LIG    1       23.759 -21.045   3.856  0.00  0.00    +0.151 C 
ATOM     23  O   LIG    1       23.486 -21.571   2.777  0.00  0.00    -0.296 OA
ENDBRANCH  15  16
ENDBRANCH   1  15
TORSDOF 4
ENDMDL
MODEL 2
REMARK VINA RESULT:      -2.7      4.024      6.490
REMARK  Name = *****
REMARK                            x       y       z     vdW  Elec       q    Type
REMARK                         _______ _______ _______ _____ _____    ______ ____
ROOT
ATOM      1  C   LIG    1       25.276 -16.211   3.555  0.00  0.00    +0.096 A 
ATOM      2  C   LIG    1       23.985 -15.931   4.031  0.00  0.00    +0.284 A 
ATOM      3  C   LIG    1       23.072 -16.955   4.351  0.00  0.00    +0.097 A 
ATOM      4  C   LIG    1       23.443 -18.298   4.202  0.00  0.00    +0.061 A 
ATOM      5  C   LIG    1       24.735 -18.584   3.737  0.00  0.00    +0.013 A 
ATOM      6  C   LIG    1       25.641 -17.559   3.427  0.00  0.00    +0.019 A 
ENDROOT
BRANCH   4   7
ATOM      7  C   LIG    1       22.466 -19.402   4.543  0.00  0.00    +0.418 C 
ATOM      8  F   LIG    1       21.217 -19.150   4.067  0.00  0.00    -0.166 F 
ATOM      9  F   LIG    1       22.332 -19.577   5.885  0.00  0.00    -0.166 F 
ATOM     10  F   LIG    1       22.824 -20.614   4.039  0.00  0.00    -0.166 F 
ENDBRANCH   4   7
BRANCH   2  11
ATOM     11  N   LIG    1       23.504 -14.568   4.170  0.00  0.00    +0.080 N 
ATOM     12  O   LIG    1       23.246 -14.179   5.317  0.00  0.00    -0.576 OA
ATOM     13  O   LIG    1       23.291 -13.943   3.122  0.00  0.00    +0.042 OA
ENDBRANCH   2  11
BRANCH   1  15
ATOM     14  O   LIG    1       27.218 -15.377   2.545  0.00  0.00    -0.291 OA
ATOM     15  C   LIG    1       26.274 -15.132   3.291  0.00  0.00    +0.187 C 
BRANCH  15  16
ATOM     16  C   LIG    1       26.103 -13.756   3.898  0.00  0.00    +0.192 C 
ATOM     17  C   LIG    1       26.799 -13.650   5.229  0.00  0.00    +0.151 C 
ATOM     18  O   LIG    1       26.181 -13.834   6.280  0.00  0.00    -0.296 OA
ATOM     19  C   LIG    1       28.290 -13.406   5.221  0.00  0.00    +0.076 C 
ATOM     20  C   LIG    1       28.618 -12.220   4.326  0.00  0.00    +0.015 C 
ATOM     21  C   LIG    1       28.081 -12.406   2.915  0.00  0.00    +0.076 C 
ATOM     22  C   LIG    1       26.592 -12.688   2.948  0.00  0.00    +0.151 C 
ATOM     23  O   LIG    1       25.818 -12.152   2.154  0.00  0.00    -0.296 OA
ENDBRANCH  15  16
ENDBRANCH   1  15
TORSDOF 4
ENDMDL
MODEL 3
REMARK VINA RESULT:      -2.7      1.820      3.354
REMARK  Name = *****
REMARK                            x       y       z     vdW  Elec       q    Type
REMARK                         _______ _______ _______ _____ _____    ______ ____
ROOT
ATOM      1  C   LIG    1       25.815 -17.484   3.775  0.00  0.00    +0.096 A 
ATOM      2  C   LIG    1       27.138 -17.315   4.215  0.00  0.00    +0.284 A 
ATOM      3  C   LIG    1       27.782 -16.064   4.169  0.00  0.00    +0.097 A 
ATOM      4  C   LIG    1       27.101 -14.941   3.680  0.00  0.00    +0.061 A 
ATOM      5  C   LIG    1       25.776 -15.101   3.249  0.00  0.00    +0.013 A 
ATOM      6  C   LIG    1       25.138 -16.350   3.304  0.00  0.00    +0.019 A 
ENDROOT
BRANCH   4   7
ATOM      7  C   LIG    1       27.789 -13.594   3.628  0.00  0.00    +0.418 C 
ATOM      8  F   LIG    1       27.736 -12.942   4.821  0.00  0.00    -0.166 F 
ATOM      9  F   LIG    1       27.222 -12.760   2.714  0.00  0.00    -0.166 F 
ATOM     10  F   LIG    1       29.107 -13.673   3.300  0.00  0.00    -0.166 F 
ENDBRANCH   4   7
BRANCH   2  11
ATOM     11  N   LIG    1       27.930 -18.435   4.692  0.00  0.00    +0.080 N 
ATOM     12  O   LIG    1       27.346 -19.521   4.816  0.00  0.00    -0.576 OA
ATOM     13  O   LIG    1       29.094 -18.187   5.036  0.00  0.00    +0.042 OA
ENDBRANCH   2  11
BRANCH   1  15
ATOM     14  O   LIG    1       25.339 -19.666   3.067  0.00  0.00    -0.291 OA
ATOM     15  C   LIG    1       25.101 -18.791   3.895  0.00  0.00    +0.187 C 
BRANCH  15  16
ATOM     16  C   LIG    1       24.136 -19.042   5.035  0.00  0.00    +0.192 C 
ATOM     17  C   LIG    1       22.711 -18.803   4.613  0.00  0.00    +0.151 C 
ATOM     18  O   LIG    1       22.165 -17.717   4.821  0.00  0.00    -0.296 OA
ATOM     19  C   LIG    1       22.014 -19.903   3.846  0.00  0.00    +0.076 C 
ATOM     20  C   LIG    1       22.160 -21.225   4.585  0.00  0.00    +0.015 C 
ATOM     21  C   LIG    1       23.619 -21.572   4.847  0.00  0.00    +0.076 C 
ATOM     22  C   LIG    1       24.308 -20.440   5.582  0.00  0.00    +0.151 C 
ATOM     23  O   LIG    1       25.074 -20.655   6.523  0.00  0.00    -0.296 OA
ENDBRANCH  15  16
ENDBRANCH   1  15
TORSDOF 4
ENDMDL
MODEL 4
REMARK VINA RESULT:      -2.4      3.926      6.369
REMARK  Name = *****
REMARK                            x       y       z     vdW  Elec       q    Type
REMARK                         _______ _______ _______ _____ _____    ______ ____
ROOT
ATOM      1  C   LIG    1       24.962 -16.657   3.507  0.00  0.00    +0.096 A 
ATOM      2  C   LIG    1       23.700 -16.736   4.119  0.00  0.00    +0.284 A 
ATOM      3  C   LIG    1       23.112 -17.971   4.451  0.00  0.00    +0.097 A 
ATOM      4  C   LIG    1       23.788 -19.168   4.177  0.00  0.00    +0.061 A 
ATOM      5  C   LIG    1       25.053 -19.095   3.575  0.00  0.00    +0.013 A 
ATOM      6  C   LIG    1       25.636 -17.860   3.253  0.00  0.00    +0.019 A 
ENDROOT
BRANCH   4   7
ATOM      7  C   LIG    1       23.160 -20.499   4.531  0.00  0.00    +0.418 C 
ATOM      8  F   LIG    1       23.614 -20.982   5.718  0.00  0.00    -0.166 F 
ATOM      9  F   LIG    1       23.427 -21.458   3.604  0.00  0.00    -0.166 F 
ATOM     10  F   LIG    1       21.805 -20.445   4.638  0.00  0.00    -0.166 F 
ENDBRANCH   4   7
BRANCH   2  11
ATOM     11  N   LIG    1       22.913 -15.548   4.394  0.00  0.00    +0.080 N 
ATOM     12  O   LIG    1       22.342 -15.496   5.492  0.00  0.00    -0.576 OA
ATOM     13  O   LIG    1       22.790 -14.734   3.468  0.00  0.00    +0.042 OA
ENDBRANCH   2  11
BRANCH   1  15
ATOM     14  O   LIG    1       25.645 -14.939   2.067  0.00  0.00    -0.291 OA
ATOM     15  C   LIG    1       25.625 -15.348   3.225  0.00  0.00    +0.187 C 
BRANCH  15  16
ATOM     16  C   LIG    1       26.224 -14.528   4.348  0.00  0.00    +0.192 C 
ATOM     17  C   LIG    1       27.724 -14.649   4.381  0.00  0.00    +0.151 C 
ATOM     18  O   LIG    1       28.275 -15.467   5.121  0.00  0.00    -0.296 OA
ATOM     19  C   LIG    1       28.515 -13.805   3.409  0.00  0.00    +0.076 C 
ATOM     20  C   LIG    1       28.073 -12.351   3.503  0.00  0.00    +0.015 C 
ATOM     21  C   LIG    1       26.575 -12.197   3.278  0.00  0.00    +0.076 C 
ATOM     22  C   LIG    1       25.802 -13.081   4.236  0.00  0.00    +0.151 C 
ATOM     23  O   LIG    1       24.797 -12.674   4.819  0.00  0.00    -0.296 OA
ENDBRANCH  15  16
ENDBRANCH   1  15
TORSDOF 4
ENDMDL
MODEL 5
REMARK VINA RESULT:      -2.0      1.086      1.586
REMARK  Name = *****
REMARK                            x       y       z     vdW  Elec       q    Type
REMARK                         _______ _______ _______ _____ _____    ______ ____
ROOT
ATOM      1  C   LIG    1       24.085 -17.608   3.983  0.00  0.00    +0.096 A 
ATOM      2  C   LIG    1       23.747 -16.270   4.242  0.00  0.00    +0.284 A 
ATOM      3  C   LIG    1       24.639 -15.213   3.977  0.00  0.00    +0.097 A 
ATOM      4  C   LIG    1       25.904 -15.480   3.436  0.00  0.00    +0.061 A 
ATOM      5  C   LIG    1       26.244 -16.815   3.166  0.00  0.00    +0.013 A 
ATOM      6  C   LIG    1       25.347 -17.862   3.426  0.00  0.00    +0.019 A 
ENDROOT
BRANCH   4   7
ATOM      7  C   LIG    1       26.867 -14.349   3.150  0.00  0.00    +0.418 C 
ATOM      8  F   LIG    1       26.380 -13.144   3.553  0.00  0.00    -0.166 F 
ATOM      9  F   LIG    1       27.139 -14.225   1.823  0.00  0.00    -0.166 F 
ATOM     10  F   LIG    1       28.070 -14.495   3.769  0.00  0.00    -0.166 F 
ENDBRANCH   4   7
BRANCH   2  11
ATOM     11  N   LIG    1       22.476 -15.910   4.845  0.00  0.00    +0.080 N 
ATOM     12  O   LIG    1       22.520 -15.296   5.920  0.00  0.00    -0.576 OA
ATOM     13  O   LIG    1       21.455 -16.339   4.290  0.00  0.00    +0.042 OA
ENDBRANCH   2  11
BRANCH   1  15
ATOM     14  O   LIG    1       21.916 -18.457   4.238  0.00  0.00    -0.291 OA
ATOM     15  C   LIG    1       23.114 -18.724   4.187  0.00  0.00    +0.187 C 
BRANCH  15  16
ATOM     16  C   LIG    1       23.594 -20.157   4.291  0.00  0.00    +0.192 C 
ATOM     17  C   LIG    1       25.048 -20.225   4.676  0.00  0.00    +0.151 C 
ATOM     18  O   LIG    1       25.924 -20.335   3.816  0.00  0.00    -0.296 OA
ATOM     19  C   LIG    1       25.393 -20.056   6.137  0.00  0.00    +0.076 C 
ATOM     20  C   LIG    1       24.549 -20.999   6.983  0.00  0.00    +0.015 C 
ATOM     21  C   LIG    1       23.060 -20.802   6.740  0.00  0.00    +0.076 C 
ATOM     22  C   LIG    1       22.742 -20.937   5.264  0.00  0.00    +0.151 C 
ATOM     23  O   LIG    1       21.758 -21.565   4.873  0.00  0.00    -0.296 OA
ENDBRANCH  15  16
ENDBRANCH   1  15
TORSDOF 4
ENDMDL
MODEL 6
REMARK VINA RESULT:      -2.0      2.449      3.432
REMARK  Name = *****
REMARK                            x       y       z     vdW  Elec       q    Type
REMARK                         _______ _______ _______ _____ _____    ______ ____
ROOT
ATOM      1  C   LIG    1       24.572 -16.336   3.931  0.00  0.00    +0.096 A 
ATOM      2  C   LIG    1       25.569 -15.353   3.817  0.00  0.00    +0.284 A 
ATOM      3  C   LIG    1       25.311 -13.997   4.100  0.00  0.00    +0.097 A 
ATOM      4  C   LIG    1       24.033 -13.596   4.512  0.00  0.00    +0.061 A 
ATOM      5  C   LIG    1       23.036 -14.575   4.636  0.00  0.00    +0.013 A 
ATOM      6  C   LIG    1       23.302 -15.925   4.360  0.00  0.00    +0.019 A 
ENDROOT
BRANCH   4   7
ATOM      7  C   LIG    1       23.750 -12.141   4.815  0.00  0.00    +0.418 C 
ATOM      8  F   LIG    1       23.378 -11.447   3.706  0.00  0.00    -0.166 F 
ATOM      9  F   LIG    1       24.838 -11.498   5.318  0.00  0.00    -0.166 F 
ATOM     10  F   LIG    1       22.753 -11.963   5.724  0.00  0.00    -0.166 F 
ENDBRANCH   4   7
BRANCH   2  11
ATOM     11  N   LIG    1       26.906 -15.676   3.352  0.00  0.00    +0.080 N 
ATOM     12  O   LIG    1       27.586 -16.417   4.075  0.00  0.00    -0.576 OA
ATOM     13  O   LIG    1       27.293 -15.098   2.327  0.00  0.00    +0.042 OA
ENDBRANCH   2  11
BRANCH   1  15
ATOM     14  O   LIG    1       26.023 -18.170   3.789  0.00  0.00    -0.291 OA
ATOM     15  C   LIG    1       24.860 -17.785   3.709  0.00  0.00    +0.187 C 
BRANCH  15  16
ATOM     16  C   LIG    1       23.737 -18.761   3.431  0.00  0.00    +0.192 C 
ATOM     17  C   LIG    1       24.245 -20.176   3.342  0.00  0.00    +0.151 C 
ATOM     18  O   LIG    1       24.518 -20.680   2.251  0.00  0.00    -0.296 OA
ATOM     19  C   LIG    1       24.497 -20.911   4.637  0.00  0.00    +0.076 C 
ATOM     20  C   LIG    1       23.272 -20.817   5.536  0.00  0.00    +0.015 C 
ATOM     21  C   LIG    1       22.863 -19.373   5.789  0.00  0.00    +0.076 C 
ATOM     22  C   LIG    1       22.654 -18.643   4.477  0.00  0.00    +0.151 C 
ATOM     23  O   LIG    1       21.695 -17.889   4.306  0.00  0.00    -0.296 OA
ENDBRANCH  15  16
ENDBRANCH   1  15
TORSDOF 4
ENDMDL
MODEL 7
REMARK VINA RESULT:      -1.9      3.709      6.247
REMARK  Name = *****
REMARK                            x       y       z     vdW  Elec       q    Type
REMARK                         _______ _______ _______ _____ _____    ______ ____
ROOT
ATOM      1  C   LIG    1       26.857 -17.031   3.965  0.00  0.00    +0.096 A 
ATOM      2  C   LIG    1       26.152 -18.235   4.127  0.00  0.00    +0.284 A 
ATOM      3  C   LIG    1       26.707 -19.336   4.809  0.00  0.00    +0.097 A 
ATOM      4  C   LIG    1       27.995 -19.247   5.354  0.00  0.00    +0.061 A 
ATOM      5  C   LIG    1       28.700 -18.043   5.205  0.00  0.00    +0.013 A 
ATOM      6  C   LIG    1       28.138 -16.949   4.530  0.00  0.00    +0.019 A 
ENDROOT
BRANCH   4   7
ATOM      7  C   LIG    1       28.597 -20.426   6.087  0.00  0.00    +0.418 C 
ATOM      8  F   LIG    1       29.279 -21.257   5.253  0.00  0.00    -0.166 F 
ATOM      9  F   LIG    1       27.652 -21.192   6.696  0.00  0.00    -0.166 F 
ATOM     10  F   LIG    1       29.475 -20.065   7.062  0.00  0.00    -0.166 F 
ENDBRANCH   4   7
BRANCH   2  11
ATOM     11  N   LIG    1       24.833 -18.427   3.552  0.00  0.00    +0.080 N 
ATOM     12  O   LIG    1       23.899 -17.802   4.074  0.00  0.00    -0.576 OA
ATOM     13  O   LIG    1       24.732 -19.280   2.659  0.00  0.00    +0.042 OA
ENDBRANCH   2  11
BRANCH   1  15
ATOM     14  O   LIG    1       26.073 -15.856   2.096  0.00  0.00    -0.291 OA
ATOM     15  C   LIG    1       26.244 -15.836   3.313  0.00  0.00    +0.187 C 
BRANCH  15  16
ATOM     16  C   LIG    1       25.808 -14.644   4.138  0.00  0.00    +0.192 C 
ATOM     17  C   LIG    1       26.710 -13.459   3.916  0.00  0.00    +0.151 C 
ATOM     18  O   LIG    1       27.651 -13.232   4.679  0.00  0.00    -0.296 OA
ATOM     19  C   LIG    1       26.477 -12.625   2.678  0.00  0.00    +0.076 C 
ATOM     20  C   LIG    1       25.010 -12.230   2.585  0.00  0.00    +0.015 C 
ATOM     21  C   LIG    1       24.092 -13.445   2.615  0.00  0.00    +0.076 C 
ATOM     22  C   LIG    1       24.369 -14.288   3.843  0.00  0.00    +0.151 C 
ATOM     23  O   LIG    1       23.455 -14.764   4.517  0.00  0.00    -0.296 OA
ENDBRANCH  15  16
ENDBRANCH   1  15
TORSDOF 4
ENDMDL
MODEL 8
REMARK VINA RESULT:      -1.8      1.432      2.453
REMARK  Name = *****
REMARK                            x       y       z     vdW  Elec       q    Type
REMARK                         _______ _______ _______ _____ _____    ______ ____
ROOT
ATOM      1  C   LIG    1       24.111 -17.103   4.039  0.00  0.00    +0.096 A 
ATOM      2  C   LIG    1       25.437 -17.176   3.582  0.00  0.00    +0.284 A 
ATOM      3  C   LIG    1       26.208 -16.020   3.352  0.00  0.00    +0.097 A 
ATOM      4  C   LIG    1       25.659 -14.752   3.584  0.00  0.00    +0.061 A 
ATOM      5  C   LIG    1       24.338 -14.673   4.051  0.00  0.00    +0.013 A 
ATOM      6  C   LIG    1       23.578 -15.830   4.284  0.00  0.00    +0.019 A 
ENDROOT
BRANCH   4   7
ATOM      7  C   LIG    1       26.482 -13.506   3.338  0.00  0.00    +0.418 C 
ATOM      8  F   LIG    1       26.834 -12.884   4.496  0.00  0.00    -0.166 F 
ATOM      9  F   LIG    1       25.811 -12.581   2.600  0.00  0.00    -0.166 F 
ATOM     10  F   LIG    1       27.643 -13.749   2.672  0.00  0.00    -0.166 F 
ENDBRANCH   4   7
BRANCH   2  11
ATOM     11  N   LIG    1       26.067 -18.447   3.272  0.00  0.00    +0.080 N 
ATOM     12  O   LIG    1       26.968 -18.825   4.032  0.00  0.00    -0.576 OA
ATOM     13  O   LIG    1       25.724 -18.995   2.215  0.00  0.00    +0.042 OA
ENDBRANCH   2  11
BRANCH   1  15
ATOM     14  O   LIG    1       22.095 -18.228   4.437  0.00  0.00    -0.291 OA
ATOM     15  C   LIG    1       23.316 -18.327   4.360  0.00  0.00    +0.187 C 
BRANCH  15  16
ATOM     16  C   LIG    1       24.000 -19.665   4.548  0.00  0.00    +0.192 C 
ATOM     17  C   LIG    1       24.395 -19.886   5.984  0.00  0.00    +0.151 C 
ATOM     18  O   LIG    1       25.533 -19.616   6.373  0.00  0.00    -0.296 OA
ATOM     19  C   LIG    1       23.323 -20.355   6.940  0.00  0.00    +0.076 C 
ATOM     20  C   LIG    1       22.611 -21.572   6.366  0.00  0.00    +0.015 C 
ATOM     21  C   LIG    1       22.037 -21.294   4.984  0.00  0.00    +0.076 C 
ATOM     22  C   LIG    1       23.120 -20.788   4.052  0.00  0.00    +0.151 C 
ATOM     23  O   LIG    1       23.212 -21.193   2.893  0.00  0.00    -0.296 OA
ENDBRANCH  15  16
ENDBRANCH   1  15
TORSDOF 4
ENDMDL
MODEL 9
REMARK VINA RESULT:      -1.8      4.120      6.805
REMARK  Name = *****
REMARK                            x       y       z     vdW  Elec       q    Type
REMARK                         _______ _______ _______ _____ _____    ______ ____
ROOT
ATOM      1  C   LIG    1       24.499 -17.029   3.839  0.00  0.00    +0.096 A 
ATOM      2  C   LIG    1       24.989 -18.345   3.788  0.00  0.00    +0.284 A 
ATOM      3  C   LIG    1       24.179 -19.452   4.106  0.00  0.00    +0.097 A 
ATOM      4  C   LIG    1       22.843 -19.260   4.482  0.00  0.00    +0.061 A 
ATOM      5  C   LIG    1       22.345 -17.949   4.526  0.00  0.00    +0.013 A 
ATOM      6  C   LIG    1       23.156 -16.851   4.201  0.00  0.00    +0.019 A 
ENDROOT
BRANCH   4   7
ATOM      7  C   LIG    1       21.968 -20.446   4.826  0.00  0.00    +0.418 C 
ATOM      8  F   LIG    1       20.652 -20.201   4.587  0.00  0.00    -0.166 F 
ATOM      9  F   LIG    1       22.058 -20.790   6.139  0.00  0.00    -0.166 F 
ATOM     10  F   LIG    1       22.277 -21.568   4.121  0.00  0.00    -0.166 F 
ENDBRANCH   4   7
BRANCH   2  11
ATOM     11  N   LIG    1       26.373 -18.628   3.453  0.00  0.00    +0.080 N 
ATOM     12  O   LIG    1       27.217 -18.413   4.334  0.00  0.00    -0.576 OA
ATOM     13  O   LIG    1       26.606 -18.960   2.283  0.00  0.00    +0.042 OA
ENDBRANCH   2  11
BRANCH   1  15
ATOM     14  O   LIG    1       26.172 -16.019   2.548  0.00  0.00    -0.291 OA
ATOM     15  C   LIG    1       25.330 -15.858   3.427  0.00  0.00    +0.187 C 
BRANCH  15  16
ATOM     16  C   LIG    1       25.110 -14.497   4.052  0.00  0.00    +0.192 C 
ATOM     17  C   LIG    1       26.416 -13.823   4.379  0.00  0.00    +0.151 C 
ATOM     18  O   LIG    1       26.900 -13.903   5.510  0.00  0.00    -0.296 OA
ATOM     19  C   LIG    1       27.149 -13.132   3.253  0.00  0.00    +0.076 C 
ATOM     20  C   LIG    1       26.205 -12.189   2.520  0.00  0.00    +0.015 C 
ATOM     21  C   LIG    1       24.962 -12.909   2.013  0.00  0.00    +0.076 C 
ATOM     22  C   LIG    1       24.265 -13.626   3.152  0.00  0.00    +0.151 C 
ATOM     23  O   LIG    1       23.040 -13.597   3.276  0.00  0.00    -0.296 OA
ENDBRANCH  15  16
ENDBRANCH   1  15
TORSDOF 4
ENDMDL
