MODEL 1
REMARK VINA RESULT:      -7.6      0.000      0.000
REMARK  Name = *****
REMARK                            x       y       z     vdW  Elec       q    Type
REMARK                         _______ _______ _______ _____ _____    ______ ____
ROOT
ATOM      1  C   LIG    1       25.985 -19.776   4.328  0.00  0.00    +0.064 C 
ATOM      2  C   LIG    1       26.988 -19.961   5.436  0.00  0.00    +0.024 C 
ATOM      3  C   LIG    1       26.834 -20.737   6.535  0.00  0.00    +0.003 C 
ATOM      4  C   LIG    1       27.911 -20.773   7.521  0.00  0.00    +0.034 C 
ATOM      5  C   LIG    1       29.048 -20.070   7.377  0.00  0.00    +0.117 C 
ATOM      6  C   LIG    1       29.211 -19.234   6.161  0.00  0.00    +0.266 C 
ATOM      7  O   LIG    1       30.215 -18.565   5.943  0.00  0.00    -0.267 OA
ATOM      8  N   LIG    1       28.159 -19.243   5.277  0.00  0.00    -0.325 N 
ATOM      9  H   LIG    1       28.285 -18.661   4.457  0.00  0.00    +0.169 HD
ENDROOT
BRANCH   3  10
ATOM     10  C   LIG    1       25.606 -21.527   6.746  0.00  0.00    -0.013 A 
ATOM     11  C   LIG    1       24.436 -20.915   7.198  0.00  0.00    +0.028 A 
ATOM     12  C   LIG    1       23.309 -21.700   7.365  0.00  0.00    +0.111 A 
ATOM     13  N   LIG    1       23.273 -23.025   7.110  0.00  0.00    -0.263 NA
ATOM     14  C   LIG    1       24.414 -23.593   6.663  0.00  0.00    +0.111 A 
ATOM     15  C   LIG    1       25.594 -22.895   6.466  0.00  0.00    +0.028 A 
ENDBRANCH   3  10
BRANCH   5  16
ATOM     16  C   LIG    1       30.061 -20.097   8.352  0.00  0.00    +0.105 C 
ATOM     17  N   LIG    1       30.890 -20.118   9.150  0.00  0.00    -0.191 NA
ENDBRANCH   5  16
TORSDOF 2
ENDMDL
MODEL 2
REMARK VINA RESULT:      -7.6      1.000      1.601
REMARK  Name = *****
REMARK                            x       y       z     vdW  Elec       q    Type
REMARK                         _______ _______ _______ _____ _____    ______ ____
ROOT
ATOM      1  C   LIG    1       25.169 -20.336   4.309  0.00  0.00    +0.064 C 
ATOM      2  C   LIG    1       26.255 -20.605   5.317  0.00  0.00    +0.024 C 
ATOM      3  C   LIG    1       26.234 -21.552   6.284  0.00  0.00    +0.003 C 
ATOM      4  C   LIG    1       27.374 -21.650   7.191  0.00  0.00    +0.034 C 
ATOM      5  C   LIG    1       28.443 -20.838   7.101  0.00  0.00    +0.117 C 
ATOM      6  C   LIG    1       28.460 -19.812   6.027  0.00  0.00    +0.266 C 
ATOM      7  O   LIG    1       29.394 -19.034   5.866  0.00  0.00    -0.267 OA
ATOM      8  N   LIG    1       27.355 -19.774   5.212  0.00  0.00    -0.325 N 
ATOM      9  H   LIG    1       27.381 -19.062   4.490  0.00  0.00    +0.169 HD
ENDROOT
BRANCH   3  10
ATOM     10  C   LIG    1       25.086 -22.468   6.431  0.00  0.00    -0.013 A 
ATOM     11  C   LIG    1       25.220 -23.826   6.139  0.00  0.00    +0.028 A 
ATOM     12  C   LIG    1       24.117 -24.644   6.308  0.00  0.00    +0.111 A 
ATOM     13  N   LIG    1       22.918 -24.204   6.747  0.00  0.00    -0.263 NA
ATOM     14  C   LIG    1       22.817 -22.889   7.034  0.00  0.00    +0.111 A 
ATOM     15  C   LIG    1       23.860 -21.989   6.895  0.00  0.00    +0.028 A 
ENDBRANCH   3  10
BRANCH   5  16
ATOM     16  C   LIG    1       29.518 -20.929   8.002  0.00  0.00    +0.105 C 
ATOM     17  N   LIG    1       30.398 -21.004   8.739  0.00  0.00    -0.191 NA
ENDBRANCH   5  16
TORSDOF 2
ENDMDL
MODEL 3
REMARK VINA RESULT:      -7.4      1.873      5.522
REMARK  Name = *****
REMARK                            x       y       z     vdW  Elec       q    Type
REMARK                         _______ _______ _______ _____ _____    ______ ____
ROOT
ATOM      1  C   LIG    1       29.469 -18.942   5.062  0.00  0.00    +0.064 C 
ATOM      2  C   LIG    1       28.308 -19.561   5.794  0.00  0.00    +0.024 C 
ATOM      3  C   LIG    1       28.311 -20.004   7.074  0.00  0.00    +0.003 C 
ATOM      4  C   LIG    1       27.091 -20.602   7.609  0.00  0.00    +0.034 C 
ATOM      5  C   LIG    1       25.966 -20.725   6.883  0.00  0.00    +0.117 C 
ATOM      6  C   LIG    1       25.971 -20.223   5.485  0.00  0.00    +0.266 C 
ATOM      7  O   LIG    1       24.990 -20.288   4.752  0.00  0.00    -0.267 OA
ATOM      8  N   LIG    1       27.152 -19.676   5.045  0.00  0.00    -0.325 N 
ATOM      9  H   LIG    1       27.138 -19.345   4.086  0.00  0.00    +0.169 HD
ENDROOT
BRANCH   3  10
ATOM     10  C   LIG    1       29.518 -19.897   7.916  0.00  0.00    -0.013 A 
ATOM     11  C   LIG    1       30.313 -21.017   8.164  0.00  0.00    +0.028 A 
ATOM     12  C   LIG    1       31.441 -20.858   8.948  0.00  0.00    +0.111 A 
ATOM     13  N   LIG    1       31.822 -19.679   9.484  0.00  0.00    -0.263 NA
ATOM     14  C   LIG    1       31.044 -18.608   9.221  0.00  0.00    +0.111 A 
ATOM     15  C   LIG    1       29.894 -18.664   8.450  0.00  0.00    +0.028 A 
ENDBRANCH   3  10
BRANCH   5  16
ATOM     16  C   LIG    1       24.811 -21.330   7.408  0.00  0.00    +0.105 C 
ATOM     17  N   LIG    1       23.864 -21.824   7.837  0.00  0.00    -0.191 NA
ENDBRANCH   5  16
TORSDOF 2
ENDMDL
MODEL 4
REMARK VINA RESULT:      -7.3      1.694      2.188
REMARK  Name = *****
REMARK                            x       y       z     vdW  Elec       q    Type
REMARK                         _______ _______ _______ _____ _____    ______ ____
ROOT
ATOM      1  C   LIG    1       28.277 -18.281   4.958  0.00  0.00    +0.064 C 
ATOM      2  C   LIG    1       28.777 -19.233   6.012  0.00  0.00    +0.024 C 
ATOM      3  C   LIG    1       28.047 -20.182   6.645  0.00  0.00    +0.003 C 
ATOM      4  C   LIG    1       28.699 -21.001   7.663  0.00  0.00    +0.034 C 
ATOM      5  C   LIG    1       29.994 -20.852   7.992  0.00  0.00    +0.117 C 
ATOM      6  C   LIG    1       30.788 -19.817   7.281  0.00  0.00    +0.266 C 
ATOM      7  O   LIG    1       31.975 -19.615   7.511  0.00  0.00    -0.267 OA
ATOM      8  N   LIG    1       30.111 -19.081   6.338  0.00  0.00    -0.325 N 
ATOM      9  H   LIG    1       30.667 -18.374   5.869  0.00  0.00    +0.169 HD
ENDROOT
BRANCH   3  10
ATOM     10  C   LIG    1       26.621 -20.388   6.327  0.00  0.00    -0.013 A 
ATOM     11  C   LIG    1       25.696 -20.638   7.341  0.00  0.00    +0.028 A 
ATOM     12  C   LIG    1       24.369 -20.810   6.989  0.00  0.00    +0.111 A 
ATOM     13  N   LIG    1       23.916 -20.744   5.719  0.00  0.00    -0.263 NA
ATOM     14  C   LIG    1       24.828 -20.490   4.757  0.00  0.00    +0.111 A 
ATOM     15  C   LIG    1       26.177 -20.306   5.006  0.00  0.00    +0.028 A 
ENDBRANCH   3  10
BRANCH   5  16
ATOM     16  C   LIG    1       30.597 -21.631   8.995  0.00  0.00    +0.105 C 
ATOM     17  N   LIG    1       31.090 -22.269   9.817  0.00  0.00    -0.191 NA
ENDBRANCH   5  16
TORSDOF 2
ENDMDL
MODEL 5
REMARK VINA RESULT:      -7.1      2.147      2.907
REMARK  Name = *****
REMARK                            x       y       z     vdW  Elec       q    Type
REMARK                         _______ _______ _______ _____ _____    ______ ____
ROOT
ATOM      1  C   LIG    1       25.583 -22.964   7.585  0.00  0.00    +0.064 C 
ATOM      2  C   LIG    1       26.598 -21.886   7.307  0.00  0.00    +0.024 C 
ATOM      3  C   LIG    1       26.435 -20.826   6.481  0.00  0.00    +0.003 C 
ATOM      4  C   LIG    1       27.546 -19.892   6.315  0.00  0.00    +0.034 C 
ATOM      5  C   LIG    1       28.720 -20.043   6.954  0.00  0.00    +0.117 C 
ATOM      6  C   LIG    1       28.882 -21.203   7.868  0.00  0.00    +0.266 C 
ATOM      7  O   LIG    1       29.913 -21.416   8.495  0.00  0.00    -0.267 OA
ATOM      8  N   LIG    1       27.799 -22.042   7.974  0.00  0.00    -0.325 N 
ATOM      9  H   LIG    1       27.931 -22.832   8.596  0.00  0.00    +0.169 HD
ENDROOT
BRANCH   3  10
ATOM     10  C   LIG    1       25.170 -20.612   5.753  0.00  0.00    -0.013 A 
ATOM     11  C   LIG    1       23.959 -20.533   6.443  0.00  0.00    +0.028 A 
ATOM     12  C   LIG    1       22.803 -20.317   5.713  0.00  0.00    +0.111 A 
ATOM     13  N   LIG    1       22.779 -20.171   4.372  0.00  0.00    -0.263 NA
ATOM     14  C   LIG    1       23.964 -20.241   3.728  0.00  0.00    +0.111 A 
ATOM     15  C   LIG    1       25.174 -20.456   4.366  0.00  0.00    +0.028 A 
ENDBRANCH   3  10
BRANCH   5  16
ATOM     16  C   LIG    1       29.786 -19.149   6.759  0.00  0.00    +0.105 C 
ATOM     17  N   LIG    1       30.661 -18.417   6.600  0.00  0.00    -0.191 NA
ENDBRANCH   5  16
TORSDOF 2
ENDMDL
MODEL 6
REMARK VINA RESULT:      -6.8      2.924      4.495
REMARK  Name = *****
REMARK                            x       y       z     vdW  Elec       q    Type
REMARK                         _______ _______ _______ _____ _____    ______ ____
ROOT
ATOM      1  C   LIG    1       22.764 -23.831   6.786  0.00  0.00    +0.064 C 
ATOM      2  C   LIG    1       24.133 -23.264   7.051  0.00  0.00    +0.024 C 
ATOM      3  C   LIG    1       25.316 -23.874   6.799  0.00  0.00    +0.003 C 
ATOM      4  C   LIG    1       26.550 -23.176   7.147  0.00  0.00    +0.034 C 
ATOM      5  C   LIG    1       26.557 -21.952   7.704  0.00  0.00    +0.117 C 
ATOM      6  C   LIG    1       25.254 -21.287   7.963  0.00  0.00    +0.266 C 
ATOM      7  O   LIG    1       25.165 -20.170   8.461  0.00  0.00    -0.267 OA
ATOM      8  N   LIG    1       24.134 -22.002   7.614  0.00  0.00    -0.325 N 
ATOM      9  H   LIG    1       23.253 -21.535   7.805  0.00  0.00    +0.169 HD
ENDROOT
BRANCH   3  10
ATOM     10  C   LIG    1       25.368 -25.218   6.192  0.00  0.00    -0.013 A 
ATOM     11  C   LIG    1       25.231 -25.379   4.812  0.00  0.00    +0.028 A 
ATOM     12  C   LIG    1       25.302 -26.660   4.293  0.00  0.00    +0.111 A 
ATOM     13  N   LIG    1       25.503 -27.763   5.044  0.00  0.00    -0.263 NA
ATOM     14  C   LIG    1       25.644 -27.580   6.374  0.00  0.00    +0.111 A 
ATOM     15  C   LIG    1       25.585 -26.342   6.990  0.00  0.00    +0.028 A 
ENDBRANCH   3  10
BRANCH   5  16
ATOM     16  C   LIG    1       27.756 -21.308   8.058  0.00  0.00    +0.105 C 
ATOM     17  N   LIG    1       28.737 -20.781   8.348  0.00  0.00    -0.191 NA
ENDBRANCH   5  16
TORSDOF 2
ENDMDL
MODEL 7
REMARK VINA RESULT:      -6.7      2.884      5.658
REMARK  Name = *****
REMARK                            x       y       z     vdW  Elec       q    Type
REMARK                         _______ _______ _______ _____ _____    ______ ____
ROOT
ATOM      1  C   LIG    1       24.095 -20.339   6.401  0.00  0.00    +0.064 C 
ATOM      2  C   LIG    1       24.635 -21.737   6.550  0.00  0.00    +0.024 C 
ATOM      3  C   LIG    1       25.937 -22.083   6.684  0.00  0.00    +0.003 C 
ATOM      4  C   LIG    1       26.276 -23.500   6.792  0.00  0.00    +0.034 C 
ATOM      5  C   LIG    1       25.346 -24.470   6.766  0.00  0.00    +0.117 C 
ATOM      6  C   LIG    1       23.920 -24.078   6.632  0.00  0.00    +0.266 C 
ATOM      7  O   LIG    1       23.005 -24.894   6.605  0.00  0.00    -0.267 OA
ATOM      8  N   LIG    1       23.673 -22.730   6.532  0.00  0.00    -0.325 N 
ATOM      9  H   LIG    1       22.694 -22.481   6.434  0.00  0.00    +0.169 HD
ENDROOT
BRANCH   3  10
ATOM     10  C   LIG    1       27.000 -21.060   6.716  0.00  0.00    -0.013 A 
ATOM     11  C   LIG    1       27.753 -20.855   7.874  0.00  0.00    +0.028 A 
ATOM     12  C   LIG    1       28.747 -19.893   7.845  0.00  0.00    +0.111 A 
ATOM     13  N   LIG    1       29.036 -19.145   6.760  0.00  0.00    -0.263 NA
ATOM     14  C   LIG    1       28.302 -19.370   5.649  0.00  0.00    +0.111 A 
ATOM     15  C   LIG    1       27.284 -20.306   5.577  0.00  0.00    +0.028 A 
ENDBRANCH   3  10
BRANCH   5  16
ATOM     16  C   LIG    1       25.695 -25.830   6.842  0.00  0.00    +0.105 C 
ATOM     17  N   LIG    1       25.981 -26.944   6.905  0.00  0.00    -0.191 NA
ENDBRANCH   5  16
TORSDOF 2
ENDMDL
MODEL 8
REMARK VINA RESULT:      -6.5      4.159      5.222
REMARK  Name = *****
REMARK                            x       y       z     vdW  Elec       q    Type
REMARK                         _______ _______ _______ _____ _____    ______ ____
ROOT
ATOM      1  C   LIG    1       22.255 -23.219   6.854  0.00  0.00    +0.064 C 
ATOM      2  C   LIG    1       23.076 -22.260   6.032  0.00  0.00    +0.024 C 
ATOM      3  C   LIG    1       24.289 -22.509   5.484  0.00  0.00    +0.003 C 
ATOM      4  C   LIG    1       24.950 -21.444   4.736  0.00  0.00    +0.034 C 
ATOM      5  C   LIG    1       24.400 -20.228   4.569  0.00  0.00    +0.117 C 
ATOM      6  C   LIG    1       23.063 -19.971   5.164  0.00  0.00    +0.266 C 
ATOM      7  O   LIG    1       22.483 -18.895   5.057  0.00  0.00    -0.267 OA
ATOM      8  N   LIG    1       22.500 -21.016   5.856  0.00  0.00    -0.325 N 
ATOM      9  H   LIG    1       21.591 -20.819   6.261  0.00  0.00    +0.169 HD
ENDROOT
BRANCH   3  10
ATOM     10  C   LIG    1       24.941 -23.824   5.638  0.00  0.00    -0.013 A 
ATOM     11  C   LIG    1       25.618 -24.147   6.815  0.00  0.00    +0.028 A 
ATOM     12  C   LIG    1       26.199 -25.399   6.913  0.00  0.00    +0.111 A 
ATOM     13  N   LIG    1       26.144 -26.330   5.937  0.00  0.00    -0.263 NA
ATOM     14  C   LIG    1       25.473 -25.998   4.813  0.00  0.00    +0.111 A 
ATOM     15  C   LIG    1       24.860 -24.772   4.617  0.00  0.00    +0.028 A 
ENDBRANCH   3  10
BRANCH   5  16
ATOM     16  C   LIG    1       25.065 -19.206   3.870  0.00  0.00    +0.105 C 
ATOM     17  N   LIG    1       25.610 -18.369   3.297  0.00  0.00    -0.191 NA
ENDBRANCH   5  16
TORSDOF 2
ENDMDL
MODEL 9
REMARK VINA RESULT:      -6.5      3.632      5.936
REMARK  Name = *****
REMARK                            x       y       z     vdW  Elec       q    Type
REMARK                         _______ _______ _______ _____ _____    ______ ____
ROOT
ATOM      1  C   LIG    1       24.612 -22.104   4.847  0.00  0.00    +0.064 C 
ATOM      2  C   LIG    1       24.945 -23.389   5.558  0.00  0.00    +0.024 C 
ATOM      3  C   LIG    1       25.683 -23.513   6.686  0.00  0.00    +0.003 C 
ATOM      4  C   LIG    1       25.924 -24.851   7.220  0.00  0.00    +0.034 C 
ATOM      5  C   LIG    1       25.438 -25.961   6.638  0.00  0.00    +0.117 C 
ATOM      6  C   LIG    1       24.618 -25.811   5.408  0.00  0.00    +0.266 C 
ATOM      7  O   LIG    1       24.129 -26.766   4.814  0.00  0.00    -0.267 OA
ATOM      8  N   LIG    1       24.434 -24.525   4.959  0.00  0.00    -0.325 N 
ATOM      9  H   LIG    1       23.878 -24.443   4.115  0.00  0.00    +0.169 HD
ENDROOT
BRANCH   3  10
ATOM     10  C   LIG    1       26.244 -22.329   7.366  0.00  0.00    -0.013 A 
ATOM     11  C   LIG    1       27.542 -21.899   7.088  0.00  0.00    +0.028 A 
ATOM     12  C   LIG    1       28.013 -20.775   7.743  0.00  0.00    +0.111 A 
ATOM     13  N   LIG    1       27.287 -20.066   8.632  0.00  0.00    -0.263 NA
ATOM     14  C   LIG    1       26.030 -20.495   8.876  0.00  0.00    +0.111 A 
ATOM     15  C   LIG    1       25.468 -21.608   8.275  0.00  0.00    +0.028 A 
ENDBRANCH   3  10
BRANCH   5  16
ATOM     16  C   LIG    1       25.704 -27.242   7.151  0.00  0.00    +0.105 C 
ATOM     17  N   LIG    1       25.922 -28.291   7.572  0.00  0.00    -0.191 NA
ENDBRANCH   5  16
TORSDOF 2
ENDMDL
