MODEL 1
REMARK VINA RESULT:      -5.3      0.000      0.000
REMARK  Name = *****
REMARK                            x       y       z     vdW  Elec       q    Type
REMARK                         _______ _______ _______ _____ _____    ______ ____
ROOT
ATOM      1  C   LIG    1       24.543 -29.359  13.125  0.00  0.00    +0.064 A 
ATOM      2  C   LIG    1       24.409 -29.481  11.708  0.00  0.00    +0.049 A 
ATOM      3  I   LIG    1       26.761 -29.843  11.083  0.00  0.00    -0.041 I 
ATOM      4  C   LIG    1       23.732 -30.543  11.127  0.00  0.00    +0.065 A 
ATOM      5  C   LIG    1       23.304 -31.584  12.001  0.00  0.00    +0.040 A 
ATOM      6  I   LIG    1       25.072 -33.292  11.377  0.00  0.00    -0.042 I 
ATOM      7  C   LIG    1       23.291 -31.476  13.404  0.00  0.00    +0.065 A 
ATOM      8  C   LIG    1       24.087 -30.448  13.931  0.00  0.00    +0.049 A 
ATOM      9  I   LIG    1       25.873 -31.798  14.872  0.00  0.00    -0.041 I 
ENDROOT
BRANCH   4  10
ATOM     10  C   LIG    1       22.923 -30.518   9.857  0.00  0.00    +0.246 C 
ATOM     11  N   LIG    1       23.553 -30.566   8.619  0.00  0.00    -0.309 N 
ATOM     12  H   LIG    1       22.839 -30.521   7.904  0.00  0.00    +0.149 HD
ATOM     13  O   LIG    1       21.726 -30.450   9.882  0.00  0.00    -0.270 OA
BRANCH  11  14
ATOM     14  C   LIG    1       24.933 -30.773   8.205  0.00  0.00    +0.138 C 
BRANCH  14  15
ATOM     15  C   LIG    1       25.085 -31.021   6.699  0.00  0.00    +0.157 C 
BRANCH  15  16
ATOM     16  O   LIG    1       26.488 -31.238   6.463  0.00  0.00    -0.388 OA
ATOM     17  H   LIG    1       26.645 -31.153   5.506  0.00  0.00    +0.210 HD
ENDBRANCH  15  16
BRANCH  15  18
ATOM     18  C   LIG    1       24.613 -29.844   5.818  0.00  0.00    +0.188 C 
BRANCH  18  19
ATOM     19  O   LIG    1       23.227 -29.643   5.572  0.00  0.00    -0.392 OA
ATOM     20  H   LIG    1       22.846 -28.896   6.055  0.00  0.00    +0.209 HD
ENDBRANCH  18  19
ENDBRANCH  15  18
ENDBRANCH  14  15
ENDBRANCH  11  14
ENDBRANCH   4  10
BRANCH   1  23
ATOM     21  C   LIG    1       23.960 -25.642  13.696  0.00  0.00    +0.110 C 
ATOM     22  C   LIG    1       23.747 -27.105  13.517  0.00  0.00    +0.217 C 
ATOM     23  N   LIG    1       24.751 -28.054  13.757  0.00  0.00    -0.267 N 
ATOM     24  O   LIG    1       22.612 -27.438  13.187  0.00  0.00    -0.276 OA
BRANCH  23  25
ATOM     25  C   LIG    1       26.024 -27.866  14.573  0.00  0.00    +0.147 C 
BRANCH  25  26
ATOM     26  C   LIG    1       27.175 -27.078  13.912  0.00  0.00    +0.158 C 
BRANCH  26  27
ATOM     27  O   LIG    1       28.377 -27.859  13.943  0.00  0.00    -0.388 OA
ATOM     28  H   LIG    1       28.615 -27.921  14.893  0.00  0.00    +0.210 HD
ENDBRANCH  26  27
BRANCH  26  29
ATOM     29  C   LIG    1       27.585 -25.730  14.480  0.00  0.00    +0.188 C 
BRANCH  29  30
ATOM     30  O   LIG    1       27.889 -24.910  13.333  0.00  0.00    -0.392 OA
ATOM     31  H   LIG    1       27.998 -23.993  13.637  0.00  0.00    +0.209 HD
ENDBRANCH  29  30
ENDBRANCH  26  29
ENDBRANCH  25  26
ENDBRANCH  23  25
ENDBRANCH   1  23
BRANCH   7  32
ATOM     32  C   LIG    1       22.341 -32.085  14.418  0.00  0.00    +0.246 C 
ATOM     33  N   LIG    1       21.149 -31.513  14.829  0.00  0.00    -0.309 N 
ATOM     34  H   LIG    1       20.630 -32.159  15.420  0.00  0.00    +0.149 HD
ATOM     35  O   LIG    1       22.641 -33.151  14.943  0.00  0.00    -0.270 OA
BRANCH  33  36
ATOM     36  C   LIG    1       20.553 -30.195  14.674  0.00  0.00    +0.138 C 
BRANCH  36  37
ATOM     37  C   LIG    1       19.784 -30.036  13.390  0.00  0.00    +0.157 C 
BRANCH  37  38
ATOM     38  O   LIG    1       20.540 -29.331  12.414  0.00  0.00    -0.388 OA
ATOM     39  H   LIG    1       20.906 -28.551  12.872  0.00  0.00    +0.210 HD
ENDBRANCH  37  38
BRANCH  37  40
ATOM     40  C   LIG    1       19.107 -31.271  12.840  0.00  0.00    +0.188 C 
BRANCH  40  41
ATOM     41  O   LIG    1       19.913 -31.887  11.830  0.00  0.00    -0.392 OA
ATOM     42  H   LIG    1       20.218 -31.170  11.244  0.00  0.00    +0.209 HD
ENDBRANCH  40  41
ENDBRANCH  37  40
ENDBRANCH  36  37
ENDBRANCH  33  36
ENDBRANCH   7  32
TORSDOF 18
ENDMDL
MODEL 2
REMARK VINA RESULT:      -5.3      2.647      7.268
REMARK  Name = *****
REMARK                            x       y       z     vdW  Elec       q    Type
REMARK                         _______ _______ _______ _____ _____    ______ ____
ROOT
ATOM      1  C   LIG    1       23.878 -30.471  10.950  0.00  0.00    +0.064 A 
ATOM      2  C   LIG    1       25.192 -30.432  11.510  0.00  0.00    +0.049 A 
ATOM      3  I   LIG    1       25.386 -32.749  12.313  0.00  0.00    -0.041 I 
ATOM      4  C   LIG    1       26.317 -30.247  10.719  0.00  0.00    +0.065 A 
ATOM      5  C   LIG    1       26.115 -30.246   9.309  0.00  0.00    +0.040 A 
ATOM      6  I   LIG    1       27.035 -32.562   8.838  0.00  0.00    -0.042 I 
ATOM      7  C   LIG    1       24.852 -30.155   8.697  0.00  0.00    +0.065 A 
ATOM      8  C   LIG    1       23.763 -30.465   9.526  0.00  0.00    +0.049 A 
ATOM      9  I   LIG    1       23.161 -32.616   8.573  0.00  0.00    -0.041 I 
ENDROOT
BRANCH   4  10
ATOM     10  C   LIG    1       27.584 -29.527  11.098  0.00  0.00    +0.246 C 
ATOM     11  N   LIG    1       27.544 -28.201  11.513  0.00  0.00    -0.309 N 
ATOM     12  H   LIG    1       28.493 -27.905  11.700  0.00  0.00    +0.149 HD
ATOM     13  O   LIG    1       28.650 -30.074  11.045  0.00  0.00    -0.270 OA
BRANCH  11  14
ATOM     14  C   LIG    1       26.460 -27.278  11.814  0.00  0.00    +0.138 C 
BRANCH  14  15
ATOM     15  C   LIG    1       26.478 -26.770  13.261  0.00  0.00    +0.157 C 
BRANCH  15  16
ATOM     16  O   LIG    1       25.953 -27.836  14.072  0.00  0.00    -0.388 OA
ATOM     17  H   LIG    1       25.104 -27.538  14.442  0.00  0.00    +0.210 HD
ENDBRANCH  15  16
BRANCH  15  18
ATOM     18  C   LIG    1       25.623 -25.505  13.493  0.00  0.00    +0.188 C 
BRANCH  18  19
ATOM     19  O   LIG    1       24.211 -25.609  13.627  0.00  0.00    -0.392 OA
ATOM     20  H   LIG    1       23.716 -25.051  13.010  0.00  0.00    +0.209 HD
ENDBRANCH  18  19
ENDBRANCH  15  18
ENDBRANCH  14  15
ENDBRANCH  11  14
ENDBRANCH   4  10
BRANCH   1  23
ATOM     21  C   LIG    1       21.942 -28.656  13.679  0.00  0.00    +0.110 C 
ATOM     22  C   LIG    1       22.814 -28.951  12.507  0.00  0.00    +0.217 C 
ATOM     23  N   LIG    1       22.702 -30.128  11.754  0.00  0.00    -0.267 N 
ATOM     24  O   LIG    1       23.616 -28.069  12.211  0.00  0.00    -0.276 OA
BRANCH  23  25
ATOM     25  C   LIG    1       21.515 -31.082  11.701  0.00  0.00    +0.147 C 
BRANCH  25  26
ATOM     26  C   LIG    1       20.197 -30.535  11.114  0.00  0.00    +0.158 C 
BRANCH  26  27
ATOM     27  O   LIG    1       19.318 -30.145  12.178  0.00  0.00    -0.388 OA
ATOM     28  H   LIG    1       18.495 -29.852  11.733  0.00  0.00    +0.210 HD
ENDBRANCH  26  27
BRANCH  26  29
ATOM     29  C   LIG    1       19.344 -31.425  10.226  0.00  0.00    +0.188 C 
BRANCH  29  30
ATOM     30  O   LIG    1       18.338 -30.555   9.667  0.00  0.00    -0.392 OA
ATOM     31  H   LIG    1       17.644 -30.427  10.335  0.00  0.00    +0.209 HD
ENDBRANCH  29  30
ENDBRANCH  26  29
ENDBRANCH  25  26
ENDBRANCH  23  25
ENDBRANCH   1  23
BRANCH   7  32
ATOM     32  C   LIG    1       24.448 -29.501   7.388  0.00  0.00    +0.246 C 
ATOM     33  N   LIG    1       25.008 -28.342   6.878  0.00  0.00    -0.309 N 
ATOM     34  H   LIG    1       24.663 -28.164   5.937  0.00  0.00    +0.149 HD
ATOM     35  O   LIG    1       23.547 -30.005   6.729  0.00  0.00    -0.270 OA
BRANCH  33  36
ATOM     36  C   LIG    1       25.882 -27.315   7.425  0.00  0.00    +0.138 C 
BRANCH  36  37
ATOM     37  C   LIG    1       26.315 -26.296   6.404  0.00  0.00    +0.157 C 
BRANCH  37  38
ATOM     38  O   LIG    1       26.977 -26.908   5.306  0.00  0.00    -0.388 OA
ATOM     39  H   LIG    1       26.391 -27.631   5.009  0.00  0.00    +0.210 HD
ENDBRANCH  37  38
BRANCH  37  40
ATOM     40  C   LIG    1       25.288 -25.270   5.982  0.00  0.00    +0.188 C 
BRANCH  40  41
ATOM     41  O   LIG    1       24.178 -25.898   5.331  0.00  0.00    -0.392 OA
ATOM     42  H   LIG    1       24.464 -26.803   5.108  0.00  0.00    +0.209 HD
ENDBRANCH  40  41
ENDBRANCH  37  40
ENDBRANCH  36  37
ENDBRANCH  33  36
ENDBRANCH   7  32
TORSDOF 18
ENDMDL
MODEL 3
REMARK VINA RESULT:      -5.2      2.616      7.295
REMARK  Name = *****
REMARK                            x       y       z     vdW  Elec       q    Type
REMARK                         _______ _______ _______ _____ _____    ______ ____
ROOT
ATOM      1  C   LIG    1       23.375 -31.373   9.800  0.00  0.00    +0.064 A 
ATOM      2  C   LIG    1       24.581 -31.253  10.556  0.00  0.00    +0.049 A 
ATOM      3  I   LIG    1       25.067 -33.629  10.970  0.00  0.00    -0.041 I 
ATOM      4  C   LIG    1       25.748 -30.757   9.995  0.00  0.00    +0.065 A 
ATOM      5  C   LIG    1       25.729 -30.510   8.591  0.00  0.00    +0.040 A 
ATOM      6  I   LIG    1       27.085 -32.532   7.879  0.00  0.00    -0.042 I 
ATOM      7  C   LIG    1       24.556 -30.487   7.814  0.00  0.00    +0.065 A 
ATOM      8  C   LIG    1       23.441 -31.107   8.398  0.00  0.00    +0.049 A 
ATOM      9  I   LIG    1       23.342 -33.095   7.007  0.00  0.00    -0.041 I 
ENDROOT
BRANCH   4  10
ATOM     10  C   LIG    1       26.815 -29.948  10.684  0.00  0.00    +0.246 C 
ATOM     11  N   LIG    1       26.469 -28.936  11.572  0.00  0.00    -0.309 N 
ATOM     12  H   LIG    1       27.322 -28.510  11.907  0.00  0.00    +0.149 HD
ATOM     13  O   LIG    1       27.980 -30.150  10.481  0.00  0.00    -0.270 OA
BRANCH  11  14
ATOM     14  C   LIG    1       25.206 -28.497  12.148  0.00  0.00    +0.138 C 
BRANCH  14  15
ATOM     15  C   LIG    1       25.376 -27.666  13.426  0.00  0.00    +0.157 C 
BRANCH  15  16
ATOM     16  O   LIG    1       24.050 -27.382  13.906  0.00  0.00    -0.388 OA
ATOM     17  H   LIG    1       23.591 -28.230  14.033  0.00  0.00    +0.210 HD
ENDBRANCH  15  16
BRANCH  15  18
ATOM     18  C   LIG    1       26.121 -26.331  13.212  0.00  0.00    +0.188 C 
BRANCH  18  19
ATOM     19  O   LIG    1       27.490 -26.327  12.832  0.00  0.00    -0.392 OA
ATOM     20  H   LIG    1       28.095 -26.603  13.536  0.00  0.00    +0.209 HD
ENDBRANCH  18  19
ENDBRANCH  15  18
ENDBRANCH  14  15
ENDBRANCH  11  14
ENDBRANCH   4  10
BRANCH   1  23
ATOM     21  C   LIG    1       19.831 -32.573  10.498  0.00  0.00    +0.110 C 
ATOM     22  C   LIG    1       21.305 -32.533  10.290  0.00  0.00    +0.217 C 
ATOM     23  N   LIG    1       22.065 -31.367  10.457  0.00  0.00    -0.267 N 
ATOM     24  O   LIG    1       21.828 -33.607  10.003  0.00  0.00    -0.276 OA
BRANCH  23  25
ATOM     25  C   LIG    1       21.670 -30.107  11.218  0.00  0.00    +0.147 C 
BRANCH  25  26
ATOM     26  C   LIG    1       21.578 -30.212  12.755  0.00  0.00    +0.158 C 
BRANCH  26  27
ATOM     27  O   LIG    1       21.627 -28.901  13.333  0.00  0.00    -0.388 OA
ATOM     28  H   LIG    1       20.709 -28.719  13.628  0.00  0.00    +0.210 HD
ENDBRANCH  26  27
BRANCH  26  29
ATOM     29  C   LIG    1       22.629 -31.001  13.518  0.00  0.00    +0.188 C 
BRANCH  29  30
ATOM     30  O   LIG    1       23.063 -30.129  14.582  0.00  0.00    -0.392 OA
ATOM     31  H   LIG    1       22.647 -30.429  15.407  0.00  0.00    +0.209 HD
ENDBRANCH  29  30
ENDBRANCH  26  29
ENDBRANCH  25  26
ENDBRANCH  23  25
ENDBRANCH   1  23
BRANCH   7  32
ATOM     32  C   LIG    1       24.215 -29.656   6.591  0.00  0.00    +0.246 C 
ATOM     33  N   LIG    1       24.797 -28.440   6.274  0.00  0.00    -0.309 N 
ATOM     34  H   LIG    1       24.497 -28.132   5.351  0.00  0.00    +0.149 HD
ATOM     35  O   LIG    1       23.348 -30.060   5.825  0.00  0.00    -0.270 OA
BRANCH  33  36
ATOM     36  C   LIG    1       25.640 -27.501   6.999  0.00  0.00    +0.138 C 
BRANCH  36  37
ATOM     37  C   LIG    1       26.313 -26.493   6.107  0.00  0.00    +0.157 C 
BRANCH  37  38
ATOM     38  O   LIG    1       27.132 -27.124   5.132  0.00  0.00    -0.388 OA
ATOM     39  H   LIG    1       27.920 -27.444   5.612  0.00  0.00    +0.210 HD
ENDBRANCH  37  38
BRANCH  37  40
ATOM     40  C   LIG    1       25.443 -25.398   5.533  0.00  0.00    +0.188 C 
BRANCH  40  41
ATOM     41  O   LIG    1       24.108 -25.866   5.320  0.00  0.00    -0.392 OA
ATOM     42  H   LIG    1       23.532 -25.331   5.896  0.00  0.00    +0.209 HD
ENDBRANCH  40  41
ENDBRANCH  37  40
ENDBRANCH  36  37
ENDBRANCH  33  36
ENDBRANCH   7  32
TORSDOF 18
ENDMDL
MODEL 4
REMARK VINA RESULT:      -5.1      2.630      7.179
REMARK  Name = *****
REMARK                            x       y       z     vdW  Elec       q    Type
REMARK                         _______ _______ _______ _____ _____    ______ ____
ROOT
ATOM      1  C   LIG    1       23.191 -31.013  10.701  0.00  0.00    +0.064 A 
ATOM      2  C   LIG    1       22.269 -30.057  11.227  0.00  0.00    +0.049 A 
ATOM      3  I   LIG    1       20.235 -31.436  11.337  0.00  0.00    -0.041 I 
ATOM      4  C   LIG    1       22.404 -29.541  12.507  0.00  0.00    +0.065 A 
ATOM      5  C   LIG    1       23.417 -30.117  13.326  0.00  0.00    +0.040 A 
ATOM      6  I   LIG    1       21.898 -31.504  14.810  0.00  0.00    -0.042 I 
ATOM      7  C   LIG    1       24.431 -30.964  12.842  0.00  0.00    +0.065 A 
ATOM      8  C   LIG    1       24.178 -31.542  11.589  0.00  0.00    +0.049 A 
ATOM      9  I   LIG    1       23.747 -33.823  12.302  0.00  0.00    -0.041 I 
ENDROOT
BRANCH   4  10
ATOM     10  C   LIG    1       22.039 -28.155  12.970  0.00  0.00    +0.246 C 
ATOM     11  N   LIG    1       20.759 -27.882  13.438  0.00  0.00    -0.309 N 
ATOM     12  H   LIG    1       20.717 -26.901  13.679  0.00  0.00    +0.149 HD
ATOM     13  O   LIG    1       22.835 -27.258  12.940  0.00  0.00    -0.270 OA
BRANCH  11  14
ATOM     14  C   LIG    1       19.601 -28.715  13.731  0.00  0.00    +0.138 C 
BRANCH  14  15
ATOM     15  C   LIG    1       18.572 -28.028  14.637  0.00  0.00    +0.157 C 
BRANCH  15  16
ATOM     16  O   LIG    1       17.279 -28.308  14.070  0.00  0.00    -0.388 OA
ATOM     17  H   LIG    1       16.889 -29.046  14.569  0.00  0.00    +0.210 HD
ENDBRANCH  15  16
BRANCH  15  18
ATOM     18  C   LIG    1       18.745 -26.497  14.736  0.00  0.00    +0.188 C 
BRANCH  18  19
ATOM     19  O   LIG    1       18.262 -25.652  13.700  0.00  0.00    -0.392 OA
ATOM     20  H   LIG    1       18.950 -25.126  13.268  0.00  0.00    +0.209 HD
ENDBRANCH  18  19
ENDBRANCH  15  18
ENDBRANCH  14  15
ENDBRANCH  11  14
ENDBRANCH   4  10
BRANCH   1  23
ATOM     21  C   LIG    1       23.495 -32.884   7.400  0.00  0.00    +0.110 C 
ATOM     22  C   LIG    1       22.999 -32.384   8.713  0.00  0.00    +0.217 C 
ATOM     23  N   LIG    1       23.394 -31.154   9.256  0.00  0.00    -0.267 N 
ATOM     24  O   LIG    1       22.178 -33.104   9.276  0.00  0.00    -0.276 OA
BRANCH  23  25
ATOM     25  C   LIG    1       24.024 -29.978   8.520  0.00  0.00    +0.147 C 
BRANCH  25  26
ATOM     26  C   LIG    1       24.546 -30.239   7.092  0.00  0.00    +0.158 C 
BRANCH  26  27
ATOM     27  O   LIG    1       25.968 -30.411   7.119  0.00  0.00    -0.388 OA
ATOM     28  H   LIG    1       26.135 -31.034   7.859  0.00  0.00    +0.210 HD
ENDBRANCH  26  27
BRANCH  26  29
ATOM     29  C   LIG    1       24.312 -29.202   6.006  0.00  0.00    +0.188 C 
BRANCH  29  30
ATOM     30  O   LIG    1       23.055 -29.564   5.397  0.00  0.00    -0.392 OA
ATOM     31  H   LIG    1       22.597 -30.180   5.993  0.00  0.00    +0.209 HD
ENDBRANCH  29  30
ENDBRANCH  26  29
ENDBRANCH  25  26
ENDBRANCH  23  25
ENDBRANCH   1  23
BRANCH   7  32
ATOM     32  C   LIG    1       25.867 -31.127  13.304  0.00  0.00    +0.246 C 
ATOM     33  N   LIG    1       26.834 -30.137  13.245  0.00  0.00    -0.309 N 
ATOM     34  H   LIG    1       27.681 -30.439  13.720  0.00  0.00    +0.149 HD
ATOM     35  O   LIG    1       26.226 -32.212  13.745  0.00  0.00    -0.270 OA
BRANCH  33  36
ATOM     36  C   LIG    1       26.917 -28.843  12.586  0.00  0.00    +0.138 C 
BRANCH  36  37
ATOM     37  C   LIG    1       27.818 -28.845  11.379  0.00  0.00    +0.157 C 
BRANCH  37  38
ATOM     38  O   LIG    1       29.149 -29.203  11.724  0.00  0.00    -0.388 OA
ATOM     39  H   LIG    1       29.082 -29.718  12.551  0.00  0.00    +0.210 HD
ENDBRANCH  37  38
BRANCH  37  40
ATOM     40  C   LIG    1       27.310 -29.561  10.148  0.00  0.00    +0.188 C 
BRANCH  40  41
ATOM     41  O   LIG    1       27.124 -28.643   9.066  0.00  0.00    -0.392 OA
ATOM     42  H   LIG    1       27.926 -28.090   9.031  0.00  0.00    +0.209 HD
ENDBRANCH  40  41
ENDBRANCH  37  40
ENDBRANCH  36  37
ENDBRANCH  33  36
ENDBRANCH   7  32
TORSDOF 18
ENDMDL
MODEL 5
REMARK VINA RESULT:      -5.0      2.373      7.105
REMARK  Name = *****
REMARK                            x       y       z     vdW  Elec       q    Type
REMARK                         _______ _______ _______ _____ _____    ______ ____
ROOT
ATOM      1  C   LIG    1       24.350 -30.889   8.590  0.00  0.00    +0.064 A 
ATOM      2  C   LIG    1       23.138 -30.827   9.344  0.00  0.00    +0.049 A 
ATOM      3  I   LIG    1       22.306 -33.118   9.007  0.00  0.00    -0.041 I 
ATOM      4  C   LIG    1       23.142 -30.662  10.721  0.00  0.00    +0.065 A 
ATOM      5  C   LIG    1       24.411 -30.705  11.367  0.00  0.00    +0.040 A 
ATOM      6  I   LIG    1       24.204 -33.031  12.357  0.00  0.00    -0.042 I 
ATOM      7  C   LIG    1       25.641 -30.638  10.688  0.00  0.00    +0.065 A 
ATOM      8  C   LIG    1       25.581 -30.927   9.316  0.00  0.00    +0.049 A 
ATOM      9  I   LIG    1       26.648 -33.108   9.341  0.00  0.00    -0.041 I 
ENDROOT
BRANCH   4  10
ATOM     10  C   LIG    1       22.123 -29.926  11.550  0.00  0.00    +0.246 C 
ATOM     11  N   LIG    1       20.858 -30.465  11.754  0.00  0.00    -0.309 N 
ATOM     12  H   LIG    1       20.328 -29.813  12.316  0.00  0.00    +0.149 HD
ATOM     13  O   LIG    1       22.373 -28.862  12.043  0.00  0.00    -0.270 OA
BRANCH  11  14
ATOM     14  C   LIG    1       20.252 -31.749  11.431  0.00  0.00    +0.138 C 
BRANCH  14  15
ATOM     15  C   LIG    1       18.906 -31.621  10.708  0.00  0.00    +0.157 C 
BRANCH  15  16
ATOM     16  O   LIG    1       19.016 -30.475   9.845  0.00  0.00    -0.388 OA
ATOM     17  H   LIG    1       19.936 -30.164   9.879  0.00  0.00    +0.210 HD
ENDBRANCH  15  16
BRANCH  15  18
ATOM     18  C   LIG    1       17.702 -31.413  11.653  0.00  0.00    +0.188 C 
BRANCH  18  19
ATOM     19  O   LIG    1       17.748 -30.414  12.663  0.00  0.00    -0.392 OA
ATOM     20  H   LIG    1       17.094 -30.535  13.366  0.00  0.00    +0.209 HD
ENDBRANCH  18  19
ENDBRANCH  15  18
ENDBRANCH  14  15
ENDBRANCH  11  14
ENDBRANCH   4  10
BRANCH   1  23
ATOM     21  C   LIG    1       24.227 -28.535   5.602  0.00  0.00    +0.110 C 
ATOM     22  C   LIG    1       24.580 -29.164   6.906  0.00  0.00    +0.217 C 
ATOM     23  N   LIG    1       24.380 -30.525   7.171  0.00  0.00    -0.267 N 
ATOM     24  O   LIG    1       25.106 -28.417   7.727  0.00  0.00    -0.276 OA
BRANCH  23  25
ATOM     25  C   LIG    1       24.171 -31.644   6.158  0.00  0.00    +0.147 C 
BRANCH  25  26
ATOM     26  C   LIG    1       25.434 -32.286   5.546  0.00  0.00    +0.158 C 
BRANCH  26  27
ATOM     27  O   LIG    1       26.597 -31.560   5.964  0.00  0.00    -0.388 OA
ATOM     28  H   LIG    1       26.480 -31.426   6.929  0.00  0.00    +0.210 HD
ENDBRANCH  26  27
BRANCH  26  29
ATOM     29  C   LIG    1       25.570 -32.382   4.036  0.00  0.00    +0.188 C 
BRANCH  29  30
ATOM     30  O   LIG    1       24.410 -33.116   3.594  0.00  0.00    -0.392 OA
ATOM     31  H   LIG    1       23.635 -32.537   3.682  0.00  0.00    +0.209 HD
ENDBRANCH  29  30
ENDBRANCH  26  29
ENDBRANCH  25  26
ENDBRANCH  23  25
ENDBRANCH   1  23
BRANCH   7  32
ATOM     32  C   LIG    1       26.960 -30.025  11.119  0.00  0.00    +0.246 C 
ATOM     33  N   LIG    1       27.152 -29.297  12.282  0.00  0.00    -0.309 N 
ATOM     34  H   LIG    1       28.139 -29.093  12.415  0.00  0.00    +0.149 HD
ATOM     35  O   LIG    1       27.938 -30.153  10.391  0.00  0.00    -0.270 OA
BRANCH  33  36
ATOM     36  C   LIG    1       26.255 -28.704  13.262  0.00  0.00    +0.138 C 
BRANCH  36  37
ATOM     37  C   LIG    1       25.658 -27.398  12.810  0.00  0.00    +0.157 C 
BRANCH  37  38
ATOM     38  O   LIG    1       24.343 -27.223  13.319  0.00  0.00    -0.388 OA
ATOM     39  H   LIG    1       23.795 -27.906  12.886  0.00  0.00    +0.210 HD
ENDBRANCH  37  38
BRANCH  37  40
ATOM     40  C   LIG    1       26.520 -26.164  12.953  0.00  0.00    +0.188 C 
BRANCH  40  41
ATOM     41  O   LIG    1       27.782 -26.490  13.543  0.00  0.00    -0.392 OA
ATOM     42  H   LIG    1       28.429 -25.857  13.180  0.00  0.00    +0.209 HD
ENDBRANCH  40  41
ENDBRANCH  37  40
ENDBRANCH  36  37
ENDBRANCH  33  36
ENDBRANCH   7  32
TORSDOF 18
ENDMDL
MODEL 6
REMARK VINA RESULT:      -5.0      2.524      7.580
REMARK  Name = *****
REMARK                            x       y       z     vdW  Elec       q    Type
REMARK                         _______ _______ _______ _____ _____    ______ ____
ROOT
ATOM      1  C   LIG    1       22.436 -30.456  12.128  0.00  0.00    +0.064 A 
ATOM      2  C   LIG    1       22.083 -29.330  12.934  0.00  0.00    +0.049 A 
ATOM      3  I   LIG    1       21.992 -30.397  15.148  0.00  0.00    -0.041 I 
ATOM      4  C   LIG    1       22.945 -28.257  13.104  0.00  0.00    +0.065 A 
ATOM      5  C   LIG    1       24.255 -28.394  12.561  0.00  0.00    +0.040 A 
ATOM      6  I   LIG    1       25.479 -28.812  14.743  0.00  0.00    -0.042 I 
ATOM      7  C   LIG    1       24.629 -29.408  11.661  0.00  0.00    +0.065 A 
ATOM      8  C   LIG    1       23.771 -30.517  11.621  0.00  0.00    +0.049 A 
ATOM      9  I   LIG    1       25.187 -32.134  12.752  0.00  0.00    -0.041 I 
ENDROOT
BRANCH   4  10
ATOM     10  C   LIG    1       22.567 -26.810  13.281  0.00  0.00    +0.246 C 
ATOM     11  N   LIG    1       21.232 -26.436  13.379  0.00  0.00    -0.309 N 
ATOM     12  H   LIG    1       21.196 -25.430  13.474  0.00  0.00    +0.149 HD
ATOM     13  O   LIG    1       23.403 -25.950  13.335  0.00  0.00    -0.270 OA
BRANCH  11  14
ATOM     14  C   LIG    1       19.987 -27.184  13.480  0.00  0.00    +0.138 C 
BRANCH  14  15
ATOM     15  C   LIG    1       18.942 -26.507  14.375  0.00  0.00    +0.157 C 
BRANCH  15  16
ATOM     16  O   LIG    1       19.659 -25.966  15.499  0.00  0.00    -0.388 OA
ATOM     17  H   LIG    1       20.555 -25.736  15.198  0.00  0.00    +0.210 HD
ENDBRANCH  15  16
BRANCH  15  18
ATOM     18  C   LIG    1       17.850 -27.464  14.900  0.00  0.00    +0.188 C 
BRANCH  18  19
ATOM     19  O   LIG    1       17.150 -28.315  14.002  0.00  0.00    -0.392 OA
ATOM     20  H   LIG    1       17.556 -28.381  13.125  0.00  0.00    +0.209 HD
ENDBRANCH  18  19
ENDBRANCH  15  18
ENDBRANCH  14  15
ENDBRANCH  11  14
ENDBRANCH   4  10
BRANCH   1  23
ATOM     21  C   LIG    1       20.887 -33.703  10.884  0.00  0.00    +0.110 C 
ATOM     22  C   LIG    1       21.542 -32.674  11.739  0.00  0.00    +0.217 C 
ATOM     23  N   LIG    1       21.408 -31.298  11.510  0.00  0.00    -0.267 N 
ATOM     24  O   LIG    1       22.177 -33.109  12.697  0.00  0.00    -0.276 OA
BRANCH  23  25
ATOM     25  C   LIG    1       20.338 -30.599  10.680  0.00  0.00    +0.147 C 
BRANCH  25  26
ATOM     26  C   LIG    1       18.948 -31.267  10.615  0.00  0.00    +0.158 C 
BRANCH  26  27
ATOM     27  O   LIG    1       18.166 -30.658   9.580  0.00  0.00    -0.388 OA
ATOM     28  H   LIG    1       18.173 -29.699   9.786  0.00  0.00    +0.210 HD
ENDBRANCH  26  27
BRANCH  26  29
ATOM     29  C   LIG    1       18.045 -31.242  11.836  0.00  0.00    +0.188 C 
BRANCH  29  30
ATOM     30  O   LIG    1       18.738 -30.430  12.807  0.00  0.00    -0.392 OA
ATOM     31  H   LIG    1       18.104 -29.793  13.175  0.00  0.00    +0.209 HD
ENDBRANCH  29  30
ENDBRANCH  26  29
ENDBRANCH  25  26
ENDBRANCH  23  25
ENDBRANCH   1  23
BRANCH   7  32
ATOM     32  C   LIG    1       25.631 -29.378  10.522  0.00  0.00    +0.246 C 
ATOM     33  N   LIG    1       25.317 -29.569   9.186  0.00  0.00    -0.309 N 
ATOM     34  H   LIG    1       26.128 -29.384   8.600  0.00  0.00    +0.149 HD
ATOM     35  O   LIG    1       26.815 -29.195  10.781  0.00  0.00    -0.270 OA
BRANCH  33  36
ATOM     36  C   LIG    1       24.139 -30.053   8.483  0.00  0.00    +0.138 C 
BRANCH  36  37
ATOM     37  C   LIG    1       24.415 -30.442   7.055  0.00  0.00    +0.157 C 
BRANCH  37  38
ATOM     38  O   LIG    1       23.662 -31.584   6.672  0.00  0.00    -0.388 OA
ATOM     39  H   LIG    1       23.851 -31.723   5.724  0.00  0.00    +0.210 HD
ENDBRANCH  37  38
BRANCH  37  40
ATOM     40  C   LIG    1       24.381 -29.335   6.026  0.00  0.00    +0.188 C 
BRANCH  40  41
ATOM     41  O   LIG    1       23.127 -29.315   5.338  0.00  0.00    -0.392 OA
ATOM     42  H   LIG    1       22.435 -29.344   6.024  0.00  0.00    +0.209 HD
ENDBRANCH  40  41
ENDBRANCH  37  40
ENDBRANCH  36  37
ENDBRANCH  33  36
ENDBRANCH   7  32
TORSDOF 18
ENDMDL
MODEL 7
REMARK VINA RESULT:      -5.0      2.597      6.863
REMARK  Name = *****
REMARK                            x       y       z     vdW  Elec       q    Type
REMARK                         _______ _______ _______ _____ _____    ______ ____
ROOT
ATOM      1  C   LIG    1       24.519 -31.108   8.195  0.00  0.00    +0.064 A 
ATOM      2  C   LIG    1       23.288 -31.104   8.921  0.00  0.00    +0.049 A 
ATOM      3  I   LIG    1       22.654 -33.471   8.707  0.00  0.00    -0.041 I 
ATOM      4  C   LIG    1       23.247 -30.859  10.286  0.00  0.00    +0.065 A 
ATOM      5  C   LIG    1       24.500 -30.758  10.957  0.00  0.00    +0.040 A 
ATOM      6  I   LIG    1       24.459 -33.032  12.081  0.00  0.00    -0.042 I 
ATOM      7  C   LIG    1       25.736 -30.630  10.297  0.00  0.00    +0.065 A 
ATOM      8  C   LIG    1       25.732 -31.002   8.945  0.00  0.00    +0.049 A 
ATOM      9  I   LIG    1       26.972 -33.082   9.120  0.00  0.00    -0.041 I 
ENDROOT
BRANCH   4  10
ATOM     10  C   LIG    1       22.152 -30.163  11.050  0.00  0.00    +0.246 C 
ATOM     11  N   LIG    1       20.840 -30.614  10.971  0.00  0.00    -0.309 N 
ATOM     12  H   LIG    1       20.265 -30.005  11.537  0.00  0.00    +0.149 HD
ATOM     13  O   LIG    1       22.382 -29.205  11.734  0.00  0.00    -0.270 OA
BRANCH  11  14
ATOM     14  C   LIG    1       20.217 -31.782  10.364  0.00  0.00    +0.138 C 
BRANCH  14  15
ATOM     15  C   LIG    1       18.692 -31.669  10.252  0.00  0.00    +0.157 C 
BRANCH  15  16
ATOM     16  O   LIG    1       18.427 -30.456   9.524  0.00  0.00    -0.388 OA
ATOM     17  H   LIG    1       17.783 -30.663   8.826  0.00  0.00    +0.210 HD
ENDBRANCH  15  16
BRANCH  15  18
ATOM     18  C   LIG    1       17.966 -31.597  11.613  0.00  0.00    +0.188 C 
BRANCH  18  19
ATOM     19  O   LIG    1       16.879 -30.699  11.799  0.00  0.00    -0.392 OA
ATOM     20  H   LIG    1       16.139 -30.847  11.193  0.00  0.00    +0.209 HD
ENDBRANCH  18  19
ENDBRANCH  15  18
ENDBRANCH  14  15
ENDBRANCH  11  14
ENDBRANCH   4  10
BRANCH   1  23
ATOM     21  C   LIG    1       25.529 -31.662   4.568  0.00  0.00    +0.110 C 
ATOM     22  C   LIG    1       25.024 -31.873   5.953  0.00  0.00    +0.217 C 
ATOM     23  N   LIG    1       24.552 -30.827   6.758  0.00  0.00    -0.267 N 
ATOM     24  O   LIG    1       25.003 -33.041   6.336  0.00  0.00    -0.276 OA
BRANCH  23  25
ATOM     25  C   LIG    1       24.100 -29.444   6.305  0.00  0.00    +0.147 C 
BRANCH  25  26
ATOM     26  C   LIG    1       25.200 -28.404   6.009  0.00  0.00    +0.158 C 
BRANCH  26  27
ATOM     27  O   LIG    1       25.816 -27.988   7.235  0.00  0.00    -0.388 OA
ATOM     28  H   LIG    1       25.672 -28.733   7.858  0.00  0.00    +0.210 HD
ENDBRANCH  26  27
BRANCH  26  29
ATOM     29  C   LIG    1       24.838 -27.106   5.308  0.00  0.00    +0.188 C 
BRANCH  29  30
ATOM     30  O   LIG    1       23.991 -26.395   6.235  0.00  0.00    -0.392 OA
ATOM     31  H   LIG    1       24.561 -25.893   6.841  0.00  0.00    +0.209 HD
ENDBRANCH  29  30
ENDBRANCH  26  29
ENDBRANCH  25  26
ENDBRANCH  23  25
ENDBRANCH   1  23
BRANCH   7  32
ATOM     32  C   LIG    1       26.990 -29.886  10.716  0.00  0.00    +0.246 C 
ATOM     33  N   LIG    1       27.385 -29.677  12.027  0.00  0.00    -0.309 N 
ATOM     34  H   LIG    1       28.314 -29.262  12.056  0.00  0.00    +0.149 HD
ATOM     35  O   LIG    1       27.711 -29.408   9.848  0.00  0.00    -0.270 OA
BRANCH  33  36
ATOM     36  C   LIG    1       26.732 -29.833  13.317  0.00  0.00    +0.138 C 
BRANCH  36  37
ATOM     37  C   LIG    1       26.731 -28.572  14.140  0.00  0.00    +0.157 C 
BRANCH  37  38
ATOM     38  O   LIG    1       27.947 -27.852  13.992  0.00  0.00    -0.388 OA
ATOM     39  H   LIG    1       28.209 -27.960  13.057  0.00  0.00    +0.210 HD
ENDBRANCH  37  38
BRANCH  37  40
ATOM     40  C   LIG    1       25.504 -27.693  14.045  0.00  0.00    +0.188 C 
BRANCH  40  41
ATOM     41  O   LIG    1       24.848 -27.869  12.786  0.00  0.00    -0.392 OA
ATOM     42  H   LIG    1       25.529 -27.749  12.100  0.00  0.00    +0.209 HD
ENDBRANCH  40  41
ENDBRANCH  37  40
ENDBRANCH  36  37
ENDBRANCH  33  36
ENDBRANCH   7  32
TORSDOF 18
ENDMDL
MODEL 8
REMARK VINA RESULT:      -4.7      2.325      6.792
REMARK  Name = *****
REMARK                            x       y       z     vdW  Elec       q    Type
REMARK                         _______ _______ _______ _____ _____    ______ ____
ROOT
ATOM      1  C   LIG    1       23.732 -31.275   9.870  0.00  0.00    +0.064 A 
ATOM      2  C   LIG    1       22.379 -31.009  10.244  0.00  0.00    +0.049 A 
ATOM      3  I   LIG    1       21.329 -33.140   9.605  0.00  0.00    -0.041 I 
ATOM      4  C   LIG    1       22.010 -30.829  11.569  0.00  0.00    +0.065 A 
ATOM      5  C   LIG    1       23.015 -31.066  12.551  0.00  0.00    +0.040 A 
ATOM      6  I   LIG    1       22.165 -33.315  13.360  0.00  0.00    -0.042 I 
ATOM      7  C   LIG    1       24.383 -31.207  12.257  0.00  0.00    +0.065 A 
ATOM      8  C   LIG    1       24.678 -31.501  10.917  0.00  0.00    +0.049 A 
ATOM      9  I   LIG    1       25.334 -33.825  11.173  0.00  0.00    -0.041 I 
ENDROOT
BRANCH   4  10
ATOM     10  C   LIG    1       20.924 -29.927  12.094  0.00  0.00    +0.246 C 
ATOM     11  N   LIG    1       19.610 -30.374  12.166  0.00  0.00    -0.309 N 
ATOM     12  H   LIG    1       19.043 -29.618  12.525  0.00  0.00    +0.149 HD
ATOM     13  O   LIG    1       21.163 -28.808  12.453  0.00  0.00    -0.270 OA
BRANCH  11  14
ATOM     14  C   LIG    1       18.979 -31.668  11.949  0.00  0.00    +0.138 C 
BRANCH  14  15
ATOM     15  C   LIG    1       17.533 -31.562  11.449  0.00  0.00    +0.157 C 
BRANCH  15  16
ATOM     16  O   LIG    1       17.578 -30.793  10.234  0.00  0.00    -0.388 OA
ATOM     17  H   LIG    1       17.748 -29.866  10.475  0.00  0.00    +0.210 HD
ENDBRANCH  15  16
BRANCH  15  18
ATOM     18  C   LIG    1       16.576 -30.865  12.440  0.00  0.00    +0.188 C 
BRANCH  18  19
ATOM     19  O   LIG    1       16.801 -30.956  13.840  0.00  0.00    -0.392 OA
ATOM     20  H   LIG    1       17.635 -30.559  14.131  0.00  0.00    +0.209 HD
ENDBRANCH  18  19
ENDBRANCH  15  18
ENDBRANCH  14  15
ENDBRANCH  11  14
ENDBRANCH   4  10
BRANCH   1  23
ATOM     21  C   LIG    1       25.614 -31.859   6.613  0.00  0.00    +0.110 C 
ATOM     22  C   LIG    1       24.703 -32.024   7.781  0.00  0.00    +0.217 C 
ATOM     23  N   LIG    1       24.227 -30.940   8.532  0.00  0.00    -0.267 N 
ATOM     24  O   LIG    1       24.352 -33.177   8.019  0.00  0.00    -0.276 OA
BRANCH  23  25
ATOM     25  C   LIG    1       24.194 -29.474   8.120  0.00  0.00    +0.147 C 
BRANCH  25  26
ATOM     26  C   LIG    1       25.039 -29.066   6.895  0.00  0.00    +0.158 C 
BRANCH  26  27
ATOM     27  O   LIG    1       25.942 -28.014   7.257  0.00  0.00    -0.388 OA
ATOM     28  H   LIG    1       26.492 -27.864   6.458  0.00  0.00    +0.210 HD
ENDBRANCH  26  27
BRANCH  26  29
ATOM     29  C   LIG    1       24.347 -28.557   5.642  0.00  0.00    +0.188 C 
BRANCH  29  30
ATOM     30  O   LIG    1       23.228 -29.443   5.437  0.00  0.00    -0.392 OA
ATOM     31  H   LIG    1       22.824 -29.227   4.580  0.00  0.00    +0.209 HD
ENDBRANCH  29  30
ENDBRANCH  26  29
ENDBRANCH  25  26
ENDBRANCH  23  25
ENDBRANCH   1  23
BRANCH   7  32
ATOM     32  C   LIG    1       25.600 -30.809  13.070  0.00  0.00    +0.246 C 
ATOM     33  N   LIG    1       26.020 -29.506  13.281  0.00  0.00    -0.309 N 
ATOM     34  H   LIG    1       26.783 -29.482  13.952  0.00  0.00    +0.149 HD
ATOM     35  O   LIG    1       26.292 -31.689  13.569  0.00  0.00    -0.270 OA
BRANCH  33  36
ATOM     36  C   LIG    1       25.671 -28.223  12.689  0.00  0.00    +0.138 C 
BRANCH  36  37
ATOM     37  C   LIG    1       26.745 -27.668  11.793  0.00  0.00    +0.157 C 
BRANCH  37  38
ATOM     38  O   LIG    1       27.442 -26.598  12.416  0.00  0.00    -0.388 OA
ATOM     39  H   LIG    1       26.770 -26.099  12.921  0.00  0.00    +0.210 HD
ENDBRANCH  37  38
BRANCH  37  40
ATOM     40  C   LIG    1       27.665 -28.667  11.127  0.00  0.00    +0.188 C 
BRANCH  40  41
ATOM     41  O   LIG    1       27.276 -28.889   9.768  0.00  0.00    -0.392 OA
ATOM     42  H   LIG    1       27.039 -28.017   9.402  0.00  0.00    +0.209 HD
ENDBRANCH  40  41
ENDBRANCH  37  40
ENDBRANCH  36  37
ENDBRANCH  33  36
ENDBRANCH   7  32
TORSDOF 18
ENDMDL
MODEL 9
REMARK VINA RESULT:      -4.6      2.466      6.984
REMARK  Name = *****
REMARK                            x       y       z     vdW  Elec       q    Type
REMARK                         _______ _______ _______ _____ _____    ______ ____
ROOT
ATOM      1  C   LIG    1       24.564 -30.738   8.539  0.00  0.00    +0.064 A 
ATOM      2  C   LIG    1       23.337 -30.744   9.269  0.00  0.00    +0.049 A 
ATOM      3  I   LIG    1       22.614 -33.062   8.877  0.00  0.00    -0.041 I 
ATOM      4  C   LIG    1       23.308 -30.604  10.649  0.00  0.00    +0.065 A 
ATOM      5  C   LIG    1       24.565 -30.602  11.319  0.00  0.00    +0.040 A 
ATOM      6  I   LIG    1       24.443 -32.953  12.264  0.00  0.00    -0.042 I 
ATOM      7  C   LIG    1       25.803 -30.469  10.664  0.00  0.00    +0.065 A 
ATOM      8  C   LIG    1       25.782 -30.735   9.287  0.00  0.00    +0.049 A 
ATOM      9  I   LIG    1       26.944 -32.868   9.295  0.00  0.00    -0.041 I 
ENDROOT
BRANCH   4  10
ATOM     10  C   LIG    1       22.242 -29.929  11.470  0.00  0.00    +0.246 C 
ATOM     11  N   LIG    1       22.571 -28.897  12.342  0.00  0.00    -0.309 N 
ATOM     12  H   LIG    1       21.723 -28.597  12.805  0.00  0.00    +0.149 HD
ATOM     13  O   LIG    1       21.093 -30.266  11.399  0.00  0.00    -0.270 OA
BRANCH  11  14
ATOM     14  C   LIG    1       23.796 -28.153  12.597  0.00  0.00    +0.138 C 
BRANCH  14  15
ATOM     15  C   LIG    1       23.604 -26.978  13.563  0.00  0.00    +0.157 C 
BRANCH  15  16
ATOM     16  O   LIG    1       22.485 -26.222  13.066  0.00  0.00    -0.388 OA
ATOM     17  H   LIG    1       22.099 -25.735  13.814  0.00  0.00    +0.210 HD
ENDBRANCH  15  16
BRANCH  15  18
ATOM     18  C   LIG    1       24.827 -26.040  13.661  0.00  0.00    +0.188 C 
BRANCH  18  19
ATOM     19  O   LIG    1       26.103 -26.476  13.210  0.00  0.00    -0.392 OA
ATOM     20  H   LIG    1       26.300 -26.233  12.294  0.00  0.00    +0.209 HD
ENDBRANCH  18  19
ENDBRANCH  15  18
ENDBRANCH  14  15
ENDBRANCH  11  14
ENDBRANCH   4  10
BRANCH   1  23
ATOM     21  C   LIG    1       25.504 -31.073   4.866  0.00  0.00    +0.110 C 
ATOM     22  C   LIG    1       24.998 -31.358   6.237  0.00  0.00    +0.217 C 
ATOM     23  N   LIG    1       24.604 -30.348   7.127  0.00  0.00    -0.267 N 
ATOM     24  O   LIG    1       24.901 -32.547   6.529  0.00  0.00    -0.276 OA
BRANCH  23  25
ATOM     25  C   LIG    1       24.243 -28.907   6.788  0.00  0.00    +0.147 C 
BRANCH  25  26
ATOM     26  C   LIG    1       25.408 -27.910   6.618  0.00  0.00    +0.158 C 
BRANCH  26  27
ATOM     27  O   LIG    1       26.157 -27.827   7.838  0.00  0.00    -0.388 OA
ATOM     28  H   LIG    1       26.665 -28.665   7.881  0.00  0.00    +0.210 HD
ENDBRANCH  26  27
BRANCH  26  29
ATOM     29  C   LIG    1       25.112 -26.464   6.258  0.00  0.00    +0.188 C 
BRANCH  29  30
ATOM     30  O   LIG    1       23.760 -26.466   5.752  0.00  0.00    -0.392 OA
ATOM     31  H   LIG    1       23.158 -26.616   6.500  0.00  0.00    +0.209 HD
ENDBRANCH  29  30
ENDBRANCH  26  29
ENDBRANCH  25  26
ENDBRANCH  23  25
ENDBRANCH   1  23
BRANCH   7  32
ATOM     32  C   LIG    1       27.086 -29.807  11.132  0.00  0.00    +0.246 C 
ATOM     33  N   LIG    1       27.508 -29.742  12.450  0.00  0.00    -0.309 N 
ATOM     34  H   LIG    1       28.449 -29.359  12.504  0.00  0.00    +0.149 HD
ATOM     35  O   LIG    1       27.807 -29.264  10.304  0.00  0.00    -0.270 OA
BRANCH  33  36
ATOM     36  C   LIG    1       26.870 -30.008  13.730  0.00  0.00    +0.138 C 
BRANCH  36  37
ATOM     37  C   LIG    1       27.824 -30.520  14.776  0.00  0.00    +0.157 C 
BRANCH  37  38
ATOM     38  O   LIG    1       27.864 -31.940  14.794  0.00  0.00    -0.388 OA
ATOM     39  H   LIG    1       28.677 -32.191  14.314  0.00  0.00    +0.210 HD
ENDBRANCH  37  38
BRANCH  37  40
ATOM     40  C   LIG    1       29.196 -29.887  14.820  0.00  0.00    +0.188 C 
BRANCH  40  41
ATOM     41  O   LIG    1       29.972 -30.272  13.682  0.00  0.00    -0.392 OA
ATOM     42  H   LIG    1       29.623 -29.767  12.925  0.00  0.00    +0.209 HD
ENDBRANCH  40  41
ENDBRANCH  37  40
ENDBRANCH  36  37
ENDBRANCH  33  36
ENDBRANCH   7  32
TORSDOF 18
ENDMDL
