MODEL 1
REMARK VINA RESULT:      -4.3      0.000      0.000
REMARK  Name = *****
REMARK                            x       y       z     vdW  Elec       q    Type
REMARK                         _______ _______ _______ _____ _____    ______ ____
ROOT
ATOM      1  C   LIG    1       26.689 -14.475   4.260  0.00  0.00    +0.176 C 
ENDROOT
BRANCH   1   2
ATOM      2  O   LIG    1       27.600 -15.428   3.696  0.00  0.00    -0.387 OA
ATOM      3  H   LIG    1       27.314 -15.568   2.769  0.00  0.00    +0.210 HD
ENDBRANCH   1   2
BRANCH   1   4
ATOM      4  C   LIG    1       26.010 -13.674   3.123  0.00  0.00    +0.181 C 
BRANCH   4   5
ATOM      5  O   LIG    1       26.425 -14.090   1.813  0.00  0.00    -0.386 OA
ATOM      6  H   LIG    1       26.611 -15.047   1.842  0.00  0.00    +0.210 HD
ENDBRANCH   4   5
BRANCH   4   7
ATOM      7  C   LIG    1       24.471 -13.685   3.185  0.00  0.00    +0.208 C 
BRANCH   7   9
ATOM      8  O   LIG    1       24.012 -11.853   4.720  0.00  0.00    -0.298 OA
ATOM      9  C   LIG    1       23.890 -12.339   3.602  0.00  0.00    +0.257 C 
ENDBRANCH   7   9
BRANCH   7  10
ATOM     10  O   LIG    1       24.060 -14.685   4.122  0.00  0.00    -0.382 OA
ATOM     11  H   LIG    1       23.453 -14.221   4.736  0.00  0.00    +0.210 HD
ENDBRANCH   7  10
ENDBRANCH   4   7
ENDBRANCH   1   4
BRANCH   1  12
ATOM     12  C   LIG    1       27.458 -13.583   5.256  0.00  0.00    +0.171 C 
BRANCH  12  13
ATOM     13  O   LIG    1       26.518 -12.733   5.939  0.00  0.00    -0.387 OA
ATOM     14  H   LIG    1       26.726 -12.827   6.889  0.00  0.00    +0.210 HD
ENDBRANCH  12  13
BRANCH  12  15
ATOM     15  C   LIG    1       28.456 -12.658   4.551  0.00  0.00    +0.190 C 
BRANCH  15  16
ATOM     16  O   LIG    1       29.105 -11.840   5.525  0.00  0.00    -0.392 OA
ATOM     17  H   LIG    1       30.055 -11.853   5.306  0.00  0.00    +0.209 HD
ENDBRANCH  15  16
ENDBRANCH  12  15
ENDBRANCH   1  12
TORSDOF 10
ENDMDL
MODEL 2
REMARK VINA RESULT:      -4.2      6.211      7.138
REMARK  Name = *****
REMARK                            x       y       z     vdW  Elec       q    Type
REMARK                         _______ _______ _______ _____ _____    ______ ____
ROOT
ATOM      1  C   LIG    1       26.979 -20.299   6.454  0.00  0.00    +0.176 C 
ENDROOT
BRANCH   1   2
ATOM      2  O   LIG    1       26.717 -21.572   7.062  0.00  0.00    -0.387 OA
ATOM      3  H   LIG    1       26.078 -22.031   6.477  0.00  0.00    +0.210 HD
ENDBRANCH   1   2
BRANCH   1   4
ATOM      4  C   LIG    1       25.904 -20.010   5.377  0.00  0.00    +0.181 C 
BRANCH   4   5
ATOM      5  O   LIG    1       26.402 -20.128   4.036  0.00  0.00    -0.386 OA
ATOM      6  H   LIG    1       26.687 -21.051   3.897  0.00  0.00    +0.210 HD
ENDBRANCH   4   5
BRANCH   4   7
ATOM      7  C   LIG    1       24.635 -20.873   5.516  0.00  0.00    +0.208 C 
BRANCH   7   9
ATOM      8  O   LIG    1       23.536 -19.421   3.902  0.00  0.00    -0.298 OA
ATOM      9  C   LIG    1       23.541 -20.470   4.534  0.00  0.00    +0.257 C 
ENDBRANCH   7   9
BRANCH   7  10
ATOM     10  O   LIG    1       24.139 -20.744   6.852  0.00  0.00    -0.382 OA
ATOM     11  H   LIG    1       23.412 -21.398   6.915  0.00  0.00    +0.210 HD
ENDBRANCH   7  10
ENDBRANCH   4   7
ENDBRANCH   1   4
BRANCH   1  12
ATOM     12  C   LIG    1       28.415 -20.303   5.893  0.00  0.00    +0.171 C 
BRANCH  12  13
ATOM     13  O   LIG    1       29.209 -21.232   6.655  0.00  0.00    -0.387 OA
ATOM     14  H   LIG    1       28.885 -21.158   7.574  0.00  0.00    +0.210 HD
ENDBRANCH  12  13
BRANCH  12  15
ATOM     15  C   LIG    1       29.091 -18.934   6.028  0.00  0.00    +0.190 C 
BRANCH  15  16
ATOM     16  O   LIG    1       28.929 -18.209   4.808  0.00  0.00    -0.392 OA
ATOM     17  H   LIG    1       28.002 -17.907   4.789  0.00  0.00    +0.209 HD
ENDBRANCH  15  16
ENDBRANCH  12  15
ENDBRANCH   1  12
TORSDOF 10
ENDMDL
MODEL 3
REMARK VINA RESULT:      -4.1      0.933      1.353
REMARK  Name = *****
REMARK                            x       y       z     vdW  Elec       q    Type
REMARK                         _______ _______ _______ _____ _____    ______ ____
ROOT
ATOM      1  C   LIG    1       26.683 -14.451   4.195  0.00  0.00    +0.176 C 
ENDROOT
BRANCH   1   2
ATOM      2  O   LIG    1       27.418 -15.489   3.531  0.00  0.00    -0.387 OA
ATOM      3  H   LIG    1       28.107 -15.040   2.997  0.00  0.00    +0.210 HD
ENDBRANCH   1   2
BRANCH   1   4
ATOM      4  C   LIG    1       26.031 -13.524   3.141  0.00  0.00    +0.181 C 
BRANCH   4   5
ATOM      5  O   LIG    1       26.069 -14.065   1.812  0.00  0.00    -0.386 OA
ATOM      6  H   LIG    1       26.344 -13.356   1.202  0.00  0.00    +0.210 HD
ENDBRANCH   4   5
BRANCH   4   7
ATOM      7  C   LIG    1       24.581 -13.124   3.475  0.00  0.00    +0.208 C 
BRANCH   7   9
ATOM      8  O   LIG    1       23.265 -15.065   4.128  0.00  0.00    -0.298 OA
ATOM      9  C   LIG    1       23.919 -14.083   4.458  0.00  0.00    +0.257 C 
ENDBRANCH   7   9
BRANCH   7  10
ATOM     10  O   LIG    1       23.823 -13.098   2.261  0.00  0.00    -0.382 OA
ATOM     11  H   LIG    1       22.908 -12.883   2.540  0.00  0.00    +0.210 HD
ENDBRANCH   7  10
ENDBRANCH   4   7
ENDBRANCH   1   4
BRANCH   1  12
ATOM     12  C   LIG    1       27.633 -13.706   5.155  0.00  0.00    +0.171 C 
BRANCH  12  13
ATOM     13  O   LIG    1       26.846 -12.966   6.107  0.00  0.00    -0.387 OA
ATOM     14  H   LIG    1       27.044 -13.367   6.975  0.00  0.00    +0.210 HD
ENDBRANCH  12  13
BRANCH  12  15
ATOM     15  C   LIG    1       28.509 -12.685   4.421  0.00  0.00    +0.190 C 
BRANCH  15  16
ATOM     16  O   LIG    1       29.084 -11.790   5.375  0.00  0.00    -0.392 OA
ATOM     17  H   LIG    1       28.627 -10.936   5.260  0.00  0.00    +0.209 HD
ENDBRANCH  15  16
ENDBRANCH  12  15
ENDBRANCH   1  12
TORSDOF 10
ENDMDL
MODEL 4
REMARK VINA RESULT:      -4.0      6.559      8.482
REMARK  Name = *****
REMARK                            x       y       z     vdW  Elec       q    Type
REMARK                         _______ _______ _______ _____ _____    ______ ____
ROOT
ATOM      1  C   LIG    1       25.377 -20.164   4.945  0.00  0.00    +0.176 C 
ENDROOT
BRANCH   1   2
ATOM      2  O   LIG    1       25.960 -20.200   3.635  0.00  0.00    -0.387 OA
ATOM      3  H   LIG    1       25.757 -21.086   3.267  0.00  0.00    +0.210 HD
ENDBRANCH   1   2
BRANCH   1   4
ATOM      4  C   LIG    1       26.492 -20.302   6.010  0.00  0.00    +0.181 C 
BRANCH   4   5
ATOM      5  O   LIG    1       26.480 -21.571   6.680  0.00  0.00    -0.386 OA
ATOM      6  H   LIG    1       27.367 -21.970   6.595  0.00  0.00    +0.210 HD
ENDBRANCH   4   5
BRANCH   4   7
ATOM      7  C   LIG    1       27.910 -20.038   5.467  0.00  0.00    +0.208 C 
BRANCH   7   9
ATOM      8  O   LIG    1       29.382 -21.139   7.062  0.00  0.00    -0.298 OA
ATOM      9  C   LIG    1       28.976 -20.101   6.555  0.00  0.00    +0.257 C 
ENDBRANCH   7   9
BRANCH   7  10
ATOM     10  O   LIG    1       27.932 -18.742   4.861  0.00  0.00    -0.382 OA
ATOM     11  H   LIG    1       28.776 -18.340   5.157  0.00  0.00    +0.210 HD
ENDBRANCH   7  10
ENDBRANCH   4   7
ENDBRANCH   1   4
BRANCH   1  12
ATOM     12  C   LIG    1       24.305 -21.268   5.040  0.00  0.00    +0.171 C 
BRANCH  12  13
ATOM     13  O   LIG    1       23.827 -21.568   3.716  0.00  0.00    -0.387 OA
ATOM     14  H   LIG    1       24.390 -21.047   3.112  0.00  0.00    +0.210 HD
ENDBRANCH  12  13
BRANCH  12  15
ATOM     15  C   LIG    1       23.087 -20.820   5.856  0.00  0.00    +0.190 C 
BRANCH  15  16
ATOM     16  O   LIG    1       22.353 -19.850   5.107  0.00  0.00    -0.392 OA
ATOM     17  H   LIG    1       22.290 -19.058   5.671  0.00  0.00    +0.209 HD
ENDBRANCH  15  16
ENDBRANCH  12  15
ENDBRANCH   1  12
TORSDOF 10
ENDMDL
MODEL 5
REMARK VINA RESULT:      -3.9      1.245      4.045
REMARK  Name = *****
REMARK                            x       y       z     vdW  Elec       q    Type
REMARK                         _______ _______ _______ _____ _____    ______ ____
ROOT
ATOM      1  C   LIG    1       24.654 -13.882   3.580  0.00  0.00    +0.176 C 
ENDROOT
BRANCH   1   2
ATOM      2  O   LIG    1       23.980 -14.601   4.622  0.00  0.00    -0.387 OA
ATOM      3  H   LIG    1       23.282 -14.003   4.963  0.00  0.00    +0.210 HD
ENDBRANCH   1   2
BRANCH   1   4
ATOM      4  C   LIG    1       26.066 -13.472   4.066  0.00  0.00    +0.181 C 
BRANCH   4   5
ATOM      5  O   LIG    1       26.258 -13.670   5.474  0.00  0.00    -0.386 OA
ATOM      6  H   LIG    1       27.170 -13.403   5.698  0.00  0.00    +0.210 HD
ENDBRANCH   4   5
BRANCH   4   7
ATOM      7  C   LIG    1       27.212 -14.165   3.304  0.00  0.00    +0.208 C 
BRANCH   7   9
ATOM      8  O   LIG    1       28.749 -12.527   4.242  0.00  0.00    -0.298 OA
ATOM      9  C   LIG    1       28.580 -13.585   3.648  0.00  0.00    +0.257 C 
ENDBRANCH   7   9
BRANCH   7  10
ATOM     10  O   LIG    1       26.980 -14.021   1.900  0.00  0.00    -0.382 OA
ATOM     11  H   LIG    1       26.861 -13.058   1.762  0.00  0.00    +0.210 HD
ENDBRANCH   7  10
ENDBRANCH   4   7
ENDBRANCH   1   4
BRANCH   1  12
ATOM     12  C   LIG    1       23.783 -12.681   3.163  0.00  0.00    +0.171 C 
BRANCH  12  13
ATOM     13  O   LIG    1       24.117 -12.311   1.812  0.00  0.00    -0.387 OA
ATOM     14  H   LIG    1       24.057 -11.336   1.787  0.00  0.00    +0.210 HD
ENDBRANCH  12  13
BRANCH  12  15
ATOM     15  C   LIG    1       24.046 -11.447   4.034  0.00  0.00    +0.190 C 
BRANCH  15  16
ATOM     16  O   LIG    1       23.544 -11.687   5.350  0.00  0.00    -0.392 OA
ATOM     17  H   LIG    1       22.645 -12.047   5.239  0.00  0.00    +0.209 HD
ENDBRANCH  15  16
ENDBRANCH  12  15
ENDBRANCH   1  12
TORSDOF 10
ENDMDL
MODEL 6
REMARK VINA RESULT:      -3.9      5.988      7.774
REMARK  Name = *****
REMARK                            x       y       z     vdW  Elec       q    Type
REMARK                         _______ _______ _______ _____ _____    ______ ____
ROOT
ATOM      1  C   LIG    1       24.105 -20.168   3.733  0.00  0.00    +0.176 C 
ENDROOT
BRANCH   1   2
ATOM      2  O   LIG    1       23.871 -21.571   3.549  0.00  0.00    -0.387 OA
ATOM      3  H   LIG    1       24.749 -22.005   3.592  0.00  0.00    +0.210 HD
ENDBRANCH   1   2
BRANCH   1   4
ATOM      4  C   LIG    1       25.617 -19.922   3.959  0.00  0.00    +0.181 C 
BRANCH   4   5
ATOM      5  O   LIG    1       26.036 -18.601   3.585  0.00  0.00    -0.386 OA
ATOM      6  H   LIG    1       25.742 -17.980   4.277  0.00  0.00    +0.210 HD
ENDBRANCH   4   5
BRANCH   4   7
ATOM      7  C   LIG    1       26.087 -20.205   5.399  0.00  0.00    +0.208 C 
BRANCH   7   9
ATOM      8  O   LIG    1       28.280 -20.544   6.398  0.00  0.00    -0.298 OA
ATOM      9  C   LIG    1       27.577 -19.949   5.591  0.00  0.00    +0.257 C 
ENDBRANCH   7   9
BRANCH   7  10
ATOM     10  O   LIG    1       25.801 -21.572   5.711  0.00  0.00    -0.382 OA
ATOM     11  H   LIG    1       26.389 -21.786   6.466  0.00  0.00    +0.210 HD
ENDBRANCH   7  10
ENDBRANCH   4   7
ENDBRANCH   1   4
BRANCH   1  12
ATOM     12  C   LIG    1       23.228 -19.667   4.898  0.00  0.00    +0.171 C 
BRANCH  12  13
ATOM     13  O   LIG    1       22.712 -20.805   5.614  0.00  0.00    -0.387 OA
ATOM     14  H   LIG    1       21.741 -20.705   5.595  0.00  0.00    +0.210 HD
ENDBRANCH  12  13
BRANCH  12  15
ATOM     15  C   LIG    1       22.013 -18.872   4.404  0.00  0.00    +0.190 C 
BRANCH  15  16
ATOM     16  O   LIG    1       22.166 -17.502   4.780  0.00  0.00    -0.392 OA
ATOM     17  H   LIG    1       22.953 -17.461   5.355  0.00  0.00    +0.209 HD
ENDBRANCH  15  16
ENDBRANCH  12  15
ENDBRANCH   1  12
TORSDOF 10
ENDMDL
MODEL 7
REMARK VINA RESULT:      -3.9      1.130      4.134
REMARK  Name = *****
REMARK                            x       y       z     vdW  Elec       q    Type
REMARK                         _______ _______ _______ _____ _____    ______ ____
ROOT
ATOM      1  C   LIG    1       25.945 -13.553   3.000  0.00  0.00    +0.176 C 
ENDROOT
BRANCH   1   2
ATOM      2  O   LIG    1       26.493 -14.177   1.831  0.00  0.00    -0.387 OA
ATOM      3  H   LIG    1       26.200 -13.637   1.067  0.00  0.00    +0.210 HD
ENDBRANCH   1   2
BRANCH   1   4
ATOM      4  C   LIG    1       26.620 -14.140   4.264  0.00  0.00    +0.181 C 
BRANCH   4   5
ATOM      5  O   LIG    1       27.652 -15.091   3.963  0.00  0.00    -0.386 OA
ATOM      6  H   LIG    1       28.458 -14.599   3.717  0.00  0.00    +0.210 HD
ENDBRANCH   4   5
BRANCH   4   7
ATOM      7  C   LIG    1       27.188 -13.074   5.220  0.00  0.00    +0.208 C 
BRANCH   7   9
ATOM      8  O   LIG    1       29.152 -12.874   3.795  0.00  0.00    -0.298 OA
ATOM      9  C   LIG    1       28.627 -12.695   4.887  0.00  0.00    +0.257 C 
ENDBRANCH   7   9
BRANCH   7  10
ATOM     10  O   LIG    1       27.132 -13.582   6.556  0.00  0.00    -0.382 OA
ATOM     11  H   LIG    1       26.220 -13.392   6.859  0.00  0.00    +0.210 HD
ENDBRANCH   7  10
ENDBRANCH   4   7
ENDBRANCH   1   4
BRANCH   1  12
ATOM     12  C   LIG    1       24.414 -13.736   2.989  0.00  0.00    +0.171 C 
BRANCH  12  13
ATOM     13  O   LIG    1       23.800 -12.494   2.596  0.00  0.00    -0.387 OA
ATOM     14  H   LIG    1       24.461 -12.044   2.034  0.00  0.00    +0.210 HD
ENDBRANCH  12  13
BRANCH  12  15
ATOM     15  C   LIG    1       23.863 -14.077   4.378  0.00  0.00    +0.190 C 
BRANCH  15  16
ATOM     16  O   LIG    1       23.075 -15.265   4.290  0.00  0.00    -0.392 OA
ATOM     17  H   LIG    1       22.149 -14.991   4.425  0.00  0.00    +0.209 HD
ENDBRANCH  15  16
ENDBRANCH  12  15
ENDBRANCH   1  12
TORSDOF 10
ENDMDL
MODEL 8
REMARK VINA RESULT:      -3.8      6.562      8.349
REMARK  Name = *****
REMARK                            x       y       z     vdW  Elec       q    Type
REMARK                         _______ _______ _______ _____ _____    ______ ____
ROOT
ATOM      1  C   LIG    1       24.051 -20.148   4.879  0.00  0.00    +0.176 C 
ENDROOT
BRANCH   1   2
ATOM      2  O   LIG    1       24.202 -21.199   3.915  0.00  0.00    -0.387 OA
ATOM      3  H   LIG    1       25.045 -21.651   4.130  0.00  0.00    +0.210 HD
ENDBRANCH   1   2
BRANCH   1   4
ATOM      4  C   LIG    1       24.851 -20.500   6.157  0.00  0.00    +0.181 C 
BRANCH   4   5
ATOM      5  O   LIG    1       24.255 -21.558   6.923  0.00  0.00    -0.386 OA
ATOM      6  H   LIG    1       23.772 -22.143   6.310  0.00  0.00    +0.210 HD
ENDBRANCH   4   5
BRANCH   4   7
ATOM      7  C   LIG    1       26.328 -20.847   5.892  0.00  0.00    +0.208 C 
BRANCH   7   9
ATOM      8  O   LIG    1       28.457 -20.378   6.974  0.00  0.00    -0.298 OA
ATOM      9  C   LIG    1       27.238 -20.468   7.055  0.00  0.00    +0.257 C 
ENDBRANCH   7   9
BRANCH   7  10
ATOM     10  O   LIG    1       26.756 -20.154   4.715  0.00  0.00    -0.382 OA
ATOM     11  H   LIG    1       26.513 -19.217   4.872  0.00  0.00    +0.210 HD
ENDBRANCH   7  10
ENDBRANCH   4   7
ENDBRANCH   1   4
BRANCH   1  12
ATOM     12  C   LIG    1       22.548 -19.930   5.143  0.00  0.00    +0.171 C 
BRANCH  12  13
ATOM     13  O   LIG    1       21.852 -21.171   4.919  0.00  0.00    -0.387 OA
ATOM     14  H   LIG    1       21.452 -21.088   4.032  0.00  0.00    +0.210 HD
ENDBRANCH  12  13
BRANCH  12  15
ATOM     15  C   LIG    1       21.936 -18.904   4.183  0.00  0.00    +0.190 C 
BRANCH  15  16
ATOM     16  O   LIG    1       22.167 -17.590   4.694  0.00  0.00    -0.392 OA
ATOM     17  H   LIG    1       22.289 -17.011   3.918  0.00  0.00    +0.209 HD
ENDBRANCH  15  16
ENDBRANCH  12  15
ENDBRANCH   1  12
TORSDOF 10
ENDMDL
MODEL 9
REMARK VINA RESULT:      -3.8      1.214      2.204
REMARK  Name = *****
REMARK                            x       y       z     vdW  Elec       q    Type
REMARK                         _______ _______ _______ _____ _____    ______ ____
ROOT
ATOM      1  C   LIG    1       26.720 -13.039   5.104  0.00  0.00    +0.176 C 
ENDROOT
BRANCH   1   2
ATOM      2  O   LIG    1       27.146 -13.640   6.335  0.00  0.00    -0.387 OA
ATOM      3  H   LIG    1       26.329 -13.892   6.815  0.00  0.00    +0.210 HD
ENDBRANCH   1   2
BRANCH   1   4
ATOM      4  C   LIG    1       25.199 -13.263   4.918  0.00  0.00    +0.181 C 
BRANCH   4   5
ATOM      5  O   LIG    1       24.435 -12.052   5.013  0.00  0.00    -0.386 OA
ATOM      6  H   LIG    1       25.039 -11.298   4.879  0.00  0.00    +0.210 HD
ENDBRANCH   4   5
BRANCH   4   7
ATOM      7  C   LIG    1       24.831 -13.984   3.608  0.00  0.00    +0.208 C 
BRANCH   7   9
ATOM      8  O   LIG    1       24.841 -12.092   2.077  0.00  0.00    -0.298 OA
ATOM      9  C   LIG    1       24.241 -13.041   2.565  0.00  0.00    +0.257 C 
ENDBRANCH   7   9
BRANCH   7  10
ATOM     10  O   LIG    1       23.880 -15.011   3.904  0.00  0.00    -0.382 OA
ATOM     11  H   LIG    1       23.478 -15.239   3.040  0.00  0.00    +0.210 HD
ENDBRANCH   7  10
ENDBRANCH   4   7
ENDBRANCH   1   4
BRANCH   1  12
ATOM     12  C   LIG    1       27.565 -13.618   3.951  0.00  0.00    +0.171 C 
BRANCH  12  13
ATOM     13  O   LIG    1       27.884 -14.989   4.252  0.00  0.00    -0.387 OA
ATOM     14  H   LIG    1       27.243 -15.261   4.937  0.00  0.00    +0.210 HD
ENDBRANCH  12  13
BRANCH  12  15
ATOM     15  C   LIG    1       28.899 -12.882   3.788  0.00  0.00    +0.190 C 
BRANCH  15  16
ATOM     16  O   LIG    1       29.101 -12.023   4.911  0.00  0.00    -0.392 OA
ATOM     17  H   LIG    1       28.261 -12.017   5.407  0.00  0.00    +0.209 HD
ENDBRANCH  15  16
ENDBRANCH  12  15
ENDBRANCH   1  12
TORSDOF 10
ENDMDL
