MODEL 1
REMARK VINA RESULT:      -1.9      0.000      0.000
REMARK  Name = *****
REMARK                            x       y       z     vdW  Elec       q    Type
REMARK                         _______ _______ _______ _____ _____    ______ ____
ROOT
ATOM      1  C   LIG    1       25.379 -19.980   4.426  0.00  0.00    +0.190 C 
ATOM      2  N   LIG    1       24.357 -20.796   4.495  0.00  0.00    -0.077 NA
ENDROOT
BRANCH   1   3
ATOM      3  C   LIG    1       26.474 -20.304   5.349  0.00  0.00    +0.107 A 
ATOM      4  N   LIG    1       27.538 -19.439   5.581  0.00  0.00    -0.223 NA
ATOM      5  C   LIG    1       28.361 -19.943   6.466  0.00  0.00    +0.156 A 
ATOM      6  S   LIG    1       27.941 -21.495   7.062  0.00  0.00    -0.060 S 
ATOM      7  C   LIG    1       26.552 -21.489   6.065  0.00  0.00    +0.078 A 
BRANCH   5   8
ATOM      8  N   LIG    1       29.474 -19.319   6.875  0.00  0.00    -0.338 N 
ATOM      9  H   LIG    1       30.242 -19.295   6.213  0.00  0.00    +0.144 HD
ATOM     10  H   LIG    1       29.747 -19.401   7.846  0.00  0.00    +0.144 HD
ENDBRANCH   5   8
ENDBRANCH   1   3
BRANCH   1  13
ATOM     11  N   LIG    1       25.137 -17.526   4.098  0.00  0.00    -0.297 N 
ATOM     12  H   LIG    1       24.794 -17.565   5.055  0.00  0.00    +0.150 HD
ATOM     13  C   LIG    1       25.474 -18.731   3.522  0.00  0.00    +0.268 C 
ATOM     14  O   LIG    1       25.841 -18.798   2.357  0.00  0.00    -0.268 OA
BRANCH  11  20
ATOM     15  C   LIG    1       23.353 -14.480   3.359  0.00  0.00    +0.032 C 
ATOM     16  C   LIG    1       24.541 -15.069   4.081  0.00  0.00    +0.129 C 
ATOM     17  N   LIG    1       25.781 -14.272   3.909  0.00  0.00    -0.146 N 
ATOM     18  C   LIG    1       26.551 -15.407   3.587  0.00  0.00    +0.259 C 
ATOM     19  O   LIG    1       27.739 -15.580   3.586  0.00  0.00    -0.272 OA
ATOM     20  C   LIG    1       25.238 -16.253   3.362  0.00  0.00    +0.183 C 
BRANCH  17  21
ATOM     21  S   LIG    1       26.370 -13.077   4.882  0.00  0.00    +0.169 S 
ATOM     22  O   LIG    1       25.285 -12.238   5.314  0.00  0.00    -0.126 OA
ATOM     23  O   LIG    1       27.536 -12.522   4.223  0.00  0.00    -0.126 OA
BRANCH  21  24
ATOM     24  O   LIG    1       26.955 -13.874   6.147  0.00  0.00    -0.238 OA
ATOM     25  H   LIG    1       27.914 -13.690   6.193  0.00  0.00    +0.246 HD
ENDBRANCH  21  24
ENDBRANCH  17  21
ENDBRANCH  11  20
ENDBRANCH   1  13
BRANCH   2  26
ATOM     26  O   LIG    1       23.246 -20.476   3.704  0.00  0.00    -0.376 OA
BRANCH  26  27
ATOM     27  C   LIG    1       22.147 -20.070   4.544  0.00  0.00    +0.228 C 
ATOM     28  C   LIG    1       22.526 -20.210   6.022  0.00  0.00    +0.070 C 
ATOM     29  C   LIG    1       20.978 -21.007   4.217  0.00  0.00    +0.070 C 
BRANCH  27  30
ATOM     30  C   LIG    1       21.698 -18.633   4.224  0.00  0.00    +0.351 C 
ATOM     31  O   LIG    1       22.193 -17.600   4.650  0.00  0.00    -0.246 OA
BRANCH  30  32
ATOM     32  O   LIG    1       20.671 -18.570   3.347  0.00  0.00    -0.478 OA
ATOM     33  H   LIG    1       19.892 -18.905   3.839  0.00  0.00    +0.295 HD
ENDBRANCH  30  32
ENDBRANCH  27  30
ENDBRANCH  26  27
ENDBRANCH   2  26
TORSDOF 10
ENDMDL
MODEL 2
REMARK VINA RESULT:      -1.4      2.473      4.580
REMARK  Name = *****
REMARK                            x       y       z     vdW  Elec       q    Type
REMARK                         _______ _______ _______ _____ _____    ______ ____
ROOT
ATOM      1  C   LIG    1       25.236 -19.484   4.297  0.00  0.00    +0.190 C 
ATOM      2  N   LIG    1       25.968 -20.426   4.836  0.00  0.00    -0.077 NA
ENDROOT
BRANCH   1   3
ATOM      3  C   LIG    1       23.790 -19.730   4.367  0.00  0.00    +0.107 A 
ATOM      4  N   LIG    1       22.853 -18.826   3.879  0.00  0.00    -0.223 NA
ATOM      5  C   LIG    1       21.637 -19.290   4.029  0.00  0.00    +0.156 A 
ATOM      6  S   LIG    1       21.524 -20.822   4.790  0.00  0.00    -0.060 S 
ATOM      7  C   LIG    1       23.228 -20.870   4.922  0.00  0.00    +0.078 A 
BRANCH   5   8
ATOM      8  N   LIG    1       20.542 -18.620   3.646  0.00  0.00    -0.338 N 
ATOM      9  H   LIG    1       20.602 -18.134   2.758  0.00  0.00    +0.144 HD
ATOM     10  H   LIG    1       19.987 -18.155   4.352  0.00  0.00    +0.144 HD
ENDBRANCH   5   8
ENDBRANCH   1   3
BRANCH   1  13
ATOM     11  N   LIG    1       25.140 -17.036   3.868  0.00  0.00    -0.297 N 
ATOM     12  H   LIG    1       24.330 -17.094   4.481  0.00  0.00    +0.150 HD
ATOM     13  C   LIG    1       25.773 -18.225   3.581  0.00  0.00    +0.268 C 
ATOM     14  O   LIG    1       26.719 -18.271   2.808  0.00  0.00    -0.268 OA
BRANCH  11  20
ATOM     15  C   LIG    1       24.072 -13.661   3.178  0.00  0.00    +0.032 C 
ATOM     16  C   LIG    1       24.993 -14.515   4.014  0.00  0.00    +0.129 C 
ATOM     17  N   LIG    1       26.365 -13.958   4.127  0.00  0.00    -0.146 N 
ATOM     18  C   LIG    1       26.969 -15.192   3.814  0.00  0.00    +0.259 C 
ATOM     19  O   LIG    1       28.090 -15.586   3.984  0.00  0.00    -0.272 OA
ATOM     20  C   LIG    1       25.589 -15.754   3.295  0.00  0.00    +0.183 C 
BRANCH  17  21
ATOM     21  S   LIG    1       26.973 -12.972   5.301  0.00  0.00    +0.169 S 
ATOM     22  O   LIG    1       28.172 -12.341   4.819  0.00  0.00    -0.126 OA
ATOM     23  O   LIG    1       26.963 -13.724   6.541  0.00  0.00    -0.126 OA
BRANCH  21  24
ATOM     24  O   LIG    1       25.831 -11.859   5.488  0.00  0.00    -0.238 OA
ATOM     25  H   LIG    1       25.658 -11.465   4.609  0.00  0.00    +0.246 HD
ENDBRANCH  21  24
ENDBRANCH  17  21
ENDBRANCH  11  20
ENDBRANCH   1  13
BRANCH   2  26
ATOM     26  O   LIG    1       27.357 -20.288   4.711  0.00  0.00    -0.376 OA
BRANCH  26  27
ATOM     27  C   LIG    1       27.954 -20.142   6.015  0.00  0.00    +0.228 C 
ATOM     28  C   LIG    1       28.754 -21.397   6.377  0.00  0.00    +0.070 C 
ATOM     29  C   LIG    1       26.801 -19.956   7.006  0.00  0.00    +0.070 C 
BRANCH  27  30
ATOM     30  C   LIG    1       28.840 -18.885   6.087  0.00  0.00    +0.351 C 
ATOM     31  O   LIG    1       29.475 -18.492   7.055  0.00  0.00    -0.246 OA
BRANCH  30  32
ATOM     32  O   LIG    1       28.915 -18.209   4.919  0.00  0.00    -0.478 OA
ATOM     33  H   LIG    1       28.059 -18.374   4.472  0.00  0.00    +0.295 HD
ENDBRANCH  30  32
ENDBRANCH  27  30
ENDBRANCH  26  27
ENDBRANCH   2  26
TORSDOF 10
ENDMDL
MODEL 3
REMARK VINA RESULT:       0.3      1.469      2.225
REMARK  Name = *****
REMARK                            x       y       z     vdW  Elec       q    Type
REMARK                         _______ _______ _______ _____ _____    ______ ____
ROOT
ATOM      1  C   LIG    1       25.220 -18.667   4.094  0.00  0.00    +0.190 C 
ATOM      2  N   LIG    1       24.109 -19.307   3.828  0.00  0.00    -0.077 NA
ENDROOT
BRANCH   1   3
ATOM      3  C   LIG    1       26.180 -19.434   4.898  0.00  0.00    +0.107 A 
ATOM      4  N   LIG    1       27.527 -19.097   4.978  0.00  0.00    -0.223 NA
ATOM      5  C   LIG    1       28.163 -19.912   5.781  0.00  0.00    +0.156 A 
ATOM      6  S   LIG    1       27.208 -21.155   6.474  0.00  0.00    -0.060 S 
ATOM      7  C   LIG    1       25.841 -20.554   5.642  0.00  0.00    +0.078 A 
BRANCH   5   8
ATOM      8  N   LIG    1       29.475 -19.817   6.038  0.00  0.00    -0.338 N 
ATOM      9  H   LIG    1       30.099 -20.073   5.282  0.00  0.00    +0.144 HD
ATOM     10  H   LIG    1       29.805 -20.053   6.965  0.00  0.00    +0.144 HD
ENDBRANCH   5   8
ENDBRANCH   1   3
BRANCH   1  13
ATOM     11  N   LIG    1       24.542 -16.284   3.876  0.00  0.00    -0.297 N 
ATOM     12  H   LIG    1       23.652 -16.643   4.213  0.00  0.00    +0.150 HD
ATOM     13  C   LIG    1       25.541 -17.213   3.685  0.00  0.00    +0.268 C 
ATOM     14  O   LIG    1       26.628 -16.892   3.226  0.00  0.00    -0.268 OA
BRANCH  11  20
ATOM     15  C   LIG    1       24.503 -13.002   5.371  0.00  0.00    +0.032 C 
ATOM     16  C   LIG    1       25.379 -14.063   4.750  0.00  0.00    +0.129 C 
ATOM     17  N   LIG    1       26.374 -13.513   3.796  0.00  0.00    -0.146 N 
ATOM     18  C   LIG    1       26.059 -14.466   2.807  0.00  0.00    +0.259 C 
ATOM     19  O   LIG    1       26.665 -14.821   1.833  0.00  0.00    -0.272 OA
ATOM     20  C   LIG    1       24.739 -14.854   3.579  0.00  0.00    +0.183 C 
BRANCH  17  21
ATOM     21  S   LIG    1       27.932 -13.061   4.094  0.00  0.00    +0.169 S 
ATOM     22  O   LIG    1       28.790 -14.210   3.989  0.00  0.00    -0.126 OA
ATOM     23  O   LIG    1       27.919 -12.237   5.288  0.00  0.00    -0.126 OA
BRANCH  21  24
ATOM     24  O   LIG    1       28.266 -12.044   2.898  0.00  0.00    -0.238 OA
ATOM     25  H   LIG    1       27.539 -11.391   2.855  0.00  0.00    +0.246 HD
ENDBRANCH  21  24
ENDBRANCH  17  21
ENDBRANCH  11  20
ENDBRANCH   1  13
BRANCH   2  26
ATOM     26  O   LIG    1       23.120 -18.587   3.146  0.00  0.00    -0.376 OA
BRANCH  26  27
ATOM     27  C   LIG    1       21.905 -18.565   3.921  0.00  0.00    +0.228 C 
ATOM     28  C   LIG    1       20.686 -18.467   2.998  0.00  0.00    +0.070 C 
ATOM     29  C   LIG    1       21.980 -17.325   4.818  0.00  0.00    +0.070 C 
BRANCH  27  30
ATOM     30  C   LIG    1       21.804 -19.798   4.837  0.00  0.00    +0.351 C 
ATOM     31  O   LIG    1       21.258 -20.861   4.577  0.00  0.00    -0.246 OA
BRANCH  30  32
ATOM     32  O   LIG    1       22.436 -19.644   6.023  0.00  0.00    -0.478 OA
ATOM     33  H   LIG    1       22.181 -18.750   6.334  0.00  0.00    +0.295 HD
ENDBRANCH  30  32
ENDBRANCH  27  30
ENDBRANCH  26  27
ENDBRANCH   2  26
TORSDOF 10
ENDMDL
