MODEL 1
REMARK VINA RESULT:      -5.3      0.000      0.000
REMARK  Name = *****
REMARK                            x       y       z     vdW  Elec       q    Type
REMARK                         _______ _______ _______ _____ _____    ______ ____
ROOT
ATOM      1  C   LIG    1       23.273 -21.444   7.179  0.00  0.00    +0.318 C 
ATOM      2 CL   LIG    1       24.283 -22.931   7.012  0.00  0.00    -0.081 Cl
ENDROOT
BRANCH   1   3
ATOM      3  C   LIG    1       22.896 -20.855   5.798  0.00  0.00    +0.430 C 
ATOM      4  F   LIG    1       22.596 -19.536   5.914  0.00  0.00    -0.167 F 
ATOM      5  F   LIG    1       21.809 -21.448   5.248  0.00  0.00    -0.167 F 
ATOM      6  F   LIG    1       23.897 -20.968   4.895  0.00  0.00    -0.167 F 
ENDBRANCH   1   3
BRANCH   1   7
ATOM      7  O   LIG    1       24.014 -20.571   8.039  0.00  0.00    -0.294 OA
BRANCH   7   9
ATOM      8  F   LIG    1       25.928 -20.144   6.946  0.00  0.00    -0.178 F 
ATOM      9  C   LIG    1       25.400 -20.819   7.979  0.00  0.00    +0.484 C 
ATOM     10  F   LIG    1       25.968 -20.350   9.112  0.00  0.00    -0.178 F 
ENDBRANCH   7   9
ENDBRANCH   1   7
TORSDOF 3
ENDMDL
MODEL 2
REMARK VINA RESULT:      -5.2      2.563      2.846
REMARK  Name = *****
REMARK                            x       y       z     vdW  Elec       q    Type
REMARK                         _______ _______ _______ _____ _____    ______ ____
ROOT
ATOM      1  C   LIG    1       23.846 -21.063   5.847  0.00  0.00    +0.318 C 
ATOM      2 CL   LIG    1       23.744 -20.792   7.629  0.00  0.00    -0.081 Cl
ENDROOT
BRANCH   1   3
ATOM      3  C   LIG    1       22.749 -20.276   5.089  0.00  0.00    +0.430 C 
ATOM      4  F   LIG    1       22.347 -19.205   5.819  0.00  0.00    -0.167 F 
ATOM      5  F   LIG    1       21.638 -21.014   4.848  0.00  0.00    -0.167 F 
ATOM      6  F   LIG    1       23.175 -19.817   3.890  0.00  0.00    -0.167 F 
ENDBRANCH   1   3
BRANCH   1   7
ATOM      7  O   LIG    1       23.816 -22.483   5.672  0.00  0.00    -0.294 OA
BRANCH   7   9
ATOM      8  F   LIG    1       22.121 -23.589   6.646  0.00  0.00    -0.178 F 
ATOM      9  C   LIG    1       23.376 -23.151   6.833  0.00  0.00    +0.484 C 
ATOM     10  F   LIG    1       24.164 -24.231   7.030  0.00  0.00    -0.178 F 
ENDBRANCH   7   9
ENDBRANCH   1   7
TORSDOF 3
ENDMDL
MODEL 3
REMARK VINA RESULT:      -5.2      2.538      3.014
REMARK  Name = *****
REMARK                            x       y       z     vdW  Elec       q    Type
REMARK                         _______ _______ _______ _____ _____    ______ ____
ROOT
ATOM      1  C   LIG    1       23.927 -21.084   5.763  0.00  0.00    +0.318 C 
ATOM      2 CL   LIG    1       24.048 -20.770   7.537  0.00  0.00    -0.081 Cl
ENDROOT
BRANCH   1   3
ATOM      3  C   LIG    1       22.778 -20.272   5.119  0.00  0.00    +0.430 C 
ATOM      4  F   LIG    1       23.177 -19.749   3.932  0.00  0.00    -0.167 F 
ATOM      5  F   LIG    1       22.375 -19.227   5.882  0.00  0.00    -0.167 F 
ATOM      6  F   LIG    1       21.679 -21.025   4.884  0.00  0.00    -0.167 F 
ENDBRANCH   1   3
BRANCH   1   7
ATOM      7  O   LIG    1       23.824 -22.505   5.632  0.00  0.00    -0.294 OA
BRANCH   7   9
ATOM      8  F   LIG    1       22.199 -23.640   6.687  0.00  0.00    -0.178 F 
ATOM      9  C   LIG    1       23.429 -23.122   6.836  0.00  0.00    +0.484 C 
ATOM     10  F   LIG    1       24.277 -24.143   7.093  0.00  0.00    -0.178 F 
ENDBRANCH   7   9
ENDBRANCH   1   7
TORSDOF 3
ENDMDL
MODEL 4
REMARK VINA RESULT:      -5.1      2.469      2.905
REMARK  Name = *****
REMARK                            x       y       z     vdW  Elec       q    Type
REMARK                         _______ _______ _______ _____ _____    ______ ____
ROOT
ATOM      1  C   LIG    1       24.585 -21.069   5.698  0.00  0.00    +0.318 C 
ATOM      2 CL   LIG    1       25.839 -20.504   6.867  0.00  0.00    -0.081 Cl
ENDROOT
BRANCH   1   3
ATOM      3  C   LIG    1       23.159 -20.698   6.171  0.00  0.00    +0.430 C 
ATOM      4  F   LIG    1       22.259 -21.605   5.714  0.00  0.00    -0.167 F 
ATOM      5  F   LIG    1       22.747 -19.489   5.717  0.00  0.00    -0.167 F 
ATOM      6  F   LIG    1       23.052 -20.661   7.519  0.00  0.00    -0.167 F 
ENDBRANCH   1   3
BRANCH   1   7
ATOM      7  O   LIG    1       24.829 -22.468   5.519  0.00  0.00    -0.294 OA
BRANCH   7   9
ATOM      8  F   LIG    1       23.998 -23.829   7.100  0.00  0.00    -0.178 F 
ATOM      9  C   LIG    1       25.081 -23.123   6.741  0.00  0.00    +0.484 C 
ATOM     10  F   LIG    1       26.099 -23.993   6.559  0.00  0.00    -0.178 F 
ENDBRANCH   7   9
ENDBRANCH   1   7
TORSDOF 3
ENDMDL
MODEL 5
REMARK VINA RESULT:      -5.0      2.205      3.601
REMARK  Name = *****
REMARK                            x       y       z     vdW  Elec       q    Type
REMARK                         _______ _______ _______ _____ _____    ______ ____
ROOT
ATOM      1  C   LIG    1       24.333 -21.860   7.227  0.00  0.00    +0.318 C 
ATOM      2 CL   LIG    1       25.506 -20.827   6.324  0.00  0.00    -0.081 Cl
ENDROOT
BRANCH   1   3
ATOM      3  C   LIG    1       24.373 -23.328   6.737  0.00  0.00    +0.430 C 
ATOM      4  F   LIG    1       25.342 -24.017   7.392  0.00  0.00    -0.167 F 
ATOM      5  F   LIG    1       24.651 -23.438   5.416  0.00  0.00    -0.167 F 
ATOM      6  F   LIG    1       23.203 -23.976   6.942  0.00  0.00    -0.167 F 
ENDBRANCH   1   3
BRANCH   1   7
ATOM      7  O   LIG    1       23.067 -21.204   7.100  0.00  0.00    -0.294 OA
BRANCH   7   9
ATOM      8  F   LIG    1       21.906 -21.340   5.182  0.00  0.00    -0.178 F 
ATOM      9  C   LIG    1       22.878 -20.662   5.812  0.00  0.00    +0.484 C 
ATOM     10  F   LIG    1       22.468 -19.381   5.943  0.00  0.00    -0.178 F 
ENDBRANCH   7   9
ENDBRANCH   1   7
TORSDOF 3
ENDMDL
MODEL 6
REMARK VINA RESULT:      -5.0      6.682      7.499
REMARK  Name = *****
REMARK                            x       y       z     vdW  Elec       q    Type
REMARK                         _______ _______ _______ _____ _____    ______ ____
ROOT
ATOM      1  C   LIG    1       30.882 -20.026   8.824  0.00  0.00    +0.318 C 
ATOM      2 CL   LIG    1       31.278 -21.775   9.031  0.00  0.00    -0.081 Cl
ENDROOT
BRANCH   1   3
ATOM      3  C   LIG    1       30.346 -19.729   7.403  0.00  0.00    +0.430 C 
ATOM      4  F   LIG    1       29.698 -20.813   6.908  0.00  0.00    -0.167 F 
ATOM      5  F   LIG    1       31.327 -19.431   6.517  0.00  0.00    -0.167 F 
ATOM      6  F   LIG    1       29.478 -18.690   7.382  0.00  0.00    -0.167 F 
ENDBRANCH   1   3
BRANCH   1   7
ATOM      7  O   LIG    1       32.070 -19.318   9.193  0.00  0.00    -0.294 OA
BRANCH   7   9
ATOM      8  F   LIG    1       31.893 -17.132   8.709  0.00  0.00    -0.178 F 
ATOM      9  C   LIG    1       31.787 -18.033   9.698  0.00  0.00    +0.484 C 
ATOM     10  F   LIG    1       30.508 -18.017  10.135  0.00  0.00    -0.178 F 
ENDBRANCH   7   9
ENDBRANCH   1   7
TORSDOF 3
ENDMDL
MODEL 7
REMARK VINA RESULT:      -5.0      2.495      3.003
REMARK  Name = *****
REMARK                            x       y       z     vdW  Elec       q    Type
REMARK                         _______ _______ _______ _____ _____    ______ ____
ROOT
ATOM      1  C   LIG    1       23.530 -21.868   5.611  0.00  0.00    +0.318 C 
ATOM      2 CL   LIG    1       22.828 -20.209   5.738  0.00  0.00    -0.081 Cl
ENDROOT
BRANCH   1   3
ATOM      3  C   LIG    1       23.277 -22.691   6.897  0.00  0.00    +0.430 C 
ATOM      4  F   LIG    1       22.936 -21.872   7.923  0.00  0.00    -0.167 F 
ATOM      5  F   LIG    1       24.368 -23.383   7.306  0.00  0.00    -0.167 F 
ATOM      6  F   LIG    1       22.281 -23.595   6.747  0.00  0.00    -0.167 F 
ENDBRANCH   1   3
BRANCH   1   7
ATOM      7  O   LIG    1       24.905 -21.676   5.263  0.00  0.00    -0.294 OA
BRANCH   7   9
ATOM      8  F   LIG    1       25.834 -20.408   6.866  0.00  0.00    -0.178 F 
ATOM      9  C   LIG    1       25.365 -20.390   5.609  0.00  0.00    +0.484 C 
ATOM     10  F   LIG    1       26.392 -20.068   4.791  0.00  0.00    -0.178 F 
ENDBRANCH   7   9
ENDBRANCH   1   7
TORSDOF 3
ENDMDL
MODEL 8
REMARK VINA RESULT:      -5.0      2.180      2.617
REMARK  Name = *****
REMARK                            x       y       z     vdW  Elec       q    Type
REMARK                         _______ _______ _______ _____ _____    ______ ____
ROOT
ATOM      1  C   LIG    1       24.009 -20.939   4.723  0.00  0.00    +0.318 C 
ATOM      2 CL   LIG    1       24.629 -19.473   3.871  0.00  0.00    -0.081 Cl
ENDROOT
BRANCH   1   3
ATOM      3  C   LIG    1       22.744 -20.619   5.556  0.00  0.00    +0.430 C 
ATOM      4  F   LIG    1       21.647 -21.172   4.979  0.00  0.00    -0.167 F 
ATOM      5  F   LIG    1       22.496 -19.291   5.655  0.00  0.00    -0.167 F 
ATOM      6  F   LIG    1       22.822 -21.093   6.821  0.00  0.00    -0.167 F 
ENDBRANCH   1   3
BRANCH   1   7
ATOM      7  O   LIG    1       25.121 -21.451   5.465  0.00  0.00    -0.294 OA
BRANCH   7   9
ATOM      8  F   LIG    1       25.601 -20.234   7.291  0.00  0.00    -0.178 F 
ATOM      9  C   LIG    1       25.920 -20.421   6.001  0.00  0.00    +0.484 C 
ATOM     10  F   LIG    1       27.213 -20.812   5.949  0.00  0.00    -0.178 F 
ENDBRANCH   7   9
ENDBRANCH   1   7
TORSDOF 3
ENDMDL
MODEL 9
REMARK VINA RESULT:      -5.0      2.373      3.104
REMARK  Name = *****
REMARK                            x       y       z     vdW  Elec       q    Type
REMARK                         _______ _______ _______ _____ _____    ______ ____
ROOT
ATOM      1  C   LIG    1       24.289 -21.306   5.323  0.00  0.00    +0.318 C 
ATOM      2 CL   LIG    1       24.836 -23.003   5.610  0.00  0.00    -0.081 Cl
ENDROOT
BRANCH   1   3
ATOM      3  C   LIG    1       22.932 -21.022   6.011  0.00  0.00    +0.430 C 
ATOM      4  F   LIG    1       22.861 -21.673   7.200  0.00  0.00    -0.167 F 
ATOM      5  F   LIG    1       21.870 -21.441   5.281  0.00  0.00    -0.167 F 
ATOM      6  F   LIG    1       22.739 -19.705   6.254  0.00  0.00    -0.167 F 
ENDBRANCH   1   3
BRANCH   1   7
ATOM      7  O   LIG    1       24.306 -21.133   3.903  0.00  0.00    -0.294 OA
BRANCH   7   9
ATOM      8  F   LIG    1       23.870 -18.972   3.475  0.00  0.00    -0.178 F 
ATOM      9  C   LIG    1       24.850 -19.888   3.526  0.00  0.00    +0.484 C 
ATOM     10  F   LIG    1       25.728 -19.499   4.477  0.00  0.00    -0.178 F 
ENDBRANCH   7   9
ENDBRANCH   1   7
TORSDOF 3
ENDMDL
