MODEL 1
REMARK VINA RESULT:      -2.9      0.000      0.000
REMARK  Name = *****
REMARK                            x       y       z     vdW  Elec       q    Type
REMARK                         _______ _______ _______ _____ _____    ______ ____
ROOT
ATOM      1  C   LIG    1       24.288 -20.307   4.886  0.00  0.00    +0.125 C 
ATOM      2  C   LIG    1       25.340 -19.810   3.847  0.00  0.00    +0.104 C 
ATOM      3  N   LIG    1       26.386 -20.314   4.777  0.00  0.00    -0.260 N 
ATOM      4  C   LIG    1       27.329 -19.318   4.978  0.00  0.00    +0.131 C 
ATOM      5  C   LIG    1       27.030 -18.187   4.310  0.00  0.00    +0.019 C 
ATOM      6  C   LIG    1       25.710 -18.343   3.578  0.00  0.00    +0.046 C 
ATOM      7  C   LIG    1       24.612 -17.392   4.038  0.00  0.00    +0.015 C 
ATOM      8  C   LIG    1       25.497 -20.610   5.773  0.00  0.00    +0.228 C 
ATOM      9  O   LIG    1       25.649 -20.841   6.962  0.00  0.00    -0.275 OA
ENDROOT
BRANCH   1  11
ATOM     10  C   LIG    1       21.983 -21.285   4.881  0.00  0.00    +0.038 C 
ATOM     11  C   LIG    1       23.432 -21.486   4.459  0.00  0.00    +0.125 C 
BRANCH  11  12
ATOM     12  O   LIG    1       23.509 -21.572   3.035  0.00  0.00    -0.391 OA
ATOM     13  H   LIG    1       23.684 -20.681   2.684  0.00  0.00    +0.210 HD
ENDBRANCH  11  12
ENDBRANCH   1  11
BRANCH   4  14
ATOM     14  C   LIG    1       28.462 -19.558   5.908  0.00  0.00    +0.352 C 
ATOM     15  O   LIG    1       29.167 -18.736   6.463  0.00  0.00    -0.244 OA
BRANCH  14  16
ATOM     16  O   LIG    1       28.692 -20.879   6.072  0.00  0.00    -0.476 OA
ATOM     17  H   LIG    1       28.045 -21.302   5.472  0.00  0.00    +0.295 HD
ENDBRANCH  14  16
ENDBRANCH   4  14
BRANCH   5  18
ATOM     18  S   LIG    1       27.859 -16.678   4.411  0.00  0.00    -0.122 S 
BRANCH  18  19
ATOM     19  C   LIG    1       27.126 -15.639   3.097  0.00  0.00    +0.067 C 
ATOM     20  C   LIG    1       25.678 -15.228   3.309  0.00  0.00    +0.044 C 
ATOM     21  C   LIG    1       25.591 -13.712   3.137  0.00  0.00    +0.142 C 
ATOM     22  N   LIG    1       26.924 -13.255   2.690  0.00  0.00    -0.305 NA
ATOM     23  H   LIG    1       26.902 -13.097   1.684  0.00  0.00    +0.123 HD
ATOM     24  C   LIG    1       27.888 -14.317   2.994  0.00  0.00    +0.096 C 
BRANCH  21  25
ATOM     25  C   LIG    1       25.129 -13.006   4.443  0.00  0.00    +0.232 C 
ATOM     26  N   LIG    1       24.118 -12.054   4.370  0.00  0.00    -0.306 N 
ATOM     27  C   LIG    1       23.540 -11.519   3.150  0.00  0.00    +0.131 C 
ATOM     28  C   LIG    1       23.645 -11.447   5.605  0.00  0.00    +0.131 C 
ATOM     29  O   LIG    1       25.585 -13.350   5.540  0.00  0.00    -0.274 OA
ENDBRANCH  21  25
ENDBRANCH  18  19
ENDBRANCH   5  18
TORSDOF 7
ENDMDL
