MODEL 1
REMARK VINA RESULT:      -1.6      0.000      0.000
REMARK  Name = *****
REMARK                            x       y       z     vdW  Elec       q    Type
REMARK                         _______ _______ _______ _____ _____    ______ ____
ROOT
ATOM      1  C   LIG    1       23.374 -17.827   4.166  0.00  0.00    +0.162 A 
ATOM      2  C   LIG    1       23.608 -16.501   3.875  0.00  0.00    +0.167 A 
ATOM      3  O   LIG    1       22.822 -15.370   4.193  0.00  0.00    -0.481 OA
ATOM      4  C   LIG    1       23.857 -14.337   4.463  0.00  0.00    +0.213 C 
ATOM      5  C   LIG    1       25.010 -14.762   3.299  0.00  0.00    +0.044 C 
ATOM      6  C   LIG    1       26.327 -14.059   2.479  0.00  0.00    +0.021 C 
ATOM      7  C   LIG    1       27.414 -14.587   3.366  0.00  0.00    +0.065 C 
ATOM      8  N   LIG    1       26.964 -14.006   4.626  0.00  0.00    -0.302 NA
ATOM      9  C   LIG    1       25.771 -13.084   4.376  0.00  0.00    +0.085 C 
ATOM     10  C   LIG    1       28.029 -13.361   5.380  0.00  0.00    +0.105 C 
ATOM     11  C   LIG    1       27.377 -16.210   3.343  0.00  0.00    +0.054 C 
ATOM     12  C   LIG    1       26.012 -16.924   3.450  0.00  0.00    -0.038 A 
ATOM     13  C   LIG    1       25.795 -18.262   3.745  0.00  0.00    +0.008 A 
ATOM     14  C   LIG    1       26.080 -12.167   2.317  0.00  0.00    +0.009 C 
ATOM     15  C   LIG    1       24.531 -11.447   3.181  0.00  0.00    +0.035 C 
ATOM     16  C   LIG    1       24.546 -13.578   2.847  0.00  0.00    +0.031 C 
ATOM     17  C   LIG    1       23.429 -12.482   4.335  0.00  0.00    +0.156 C 
ATOM     18  C   LIG    1       24.866 -16.155   3.392  0.00  0.00    +0.011 A 
ATOM     19  C   LIG    1       24.481 -18.708   4.064  0.00  0.00    +0.050 A 
ENDROOT
BRANCH   1  21
ATOM     20  C   LIG    1       22.342 -19.704   5.171  0.00  0.00    +0.277 C 
ATOM     21  O   LIG    1       22.222 -18.402   4.613  0.00  0.00    -0.491 OA
ENDBRANCH   1  21
BRANCH  17  22
ATOM     22  O   LIG    1       23.421 -11.871   5.625  0.00  0.00    -0.388 OA
ATOM     23  H   LIG    1       23.787 -10.976   5.522  0.00  0.00    +0.210 HD
ENDBRANCH  17  22
TORSDOF 2
ENDMDL
MODEL 2
REMARK VINA RESULT:       1.4      2.594      6.372
REMARK  Name = *****
REMARK                            x       y       z     vdW  Elec       q    Type
REMARK                         _______ _______ _______ _____ _____    ______ ____
ROOT
ATOM      1  C   LIG    1       25.488 -15.004   3.653  0.00  0.00    +0.162 A 
ATOM      2  C   LIG    1       25.448 -16.378   3.563  0.00  0.00    +0.167 A 
ATOM      3  O   LIG    1       26.519 -17.300   3.555  0.00  0.00    -0.481 OA
ATOM      4  C   LIG    1       25.948 -18.448   4.308  0.00  0.00    +0.213 C 
ATOM      5  C   LIG    1       24.349 -18.397   3.756  0.00  0.00    +0.044 C 
ATOM      6  C   LIG    1       22.996 -19.426   3.643  0.00  0.00    +0.021 C 
ATOM      7  C   LIG    1       22.301 -18.975   4.892  0.00  0.00    +0.065 C 
ATOM      8  N   LIG    1       23.358 -19.286   5.849  0.00  0.00    -0.302 NA
ATOM      9  C   LIG    1       24.501 -20.014   5.142  0.00  0.00    +0.085 C 
ATOM     10  C   LIG    1       22.881 -19.994   7.028  0.00  0.00    +0.105 C 
ATOM     11  C   LIG    1       21.971 -17.390   4.774  0.00  0.00    +0.054 C 
ATOM     12  C   LIG    1       23.062 -16.442   4.229  0.00  0.00    -0.038 A 
ATOM     13  C   LIG    1       23.087 -15.059   4.329  0.00  0.00    +0.008 A 
ATOM     14  C   LIG    1       23.556 -21.250   3.483  0.00  0.00    +0.009 C 
ATOM     15  C   LIG    1       25.441 -21.562   3.605  0.00  0.00    +0.035 C 
ATOM     16  C   LIG    1       24.823 -19.534   3.206  0.00  0.00    +0.031 C 
ATOM     17  C   LIG    1       26.674 -20.200   4.097  0.00  0.00    +0.156 C 
ATOM     18  C   LIG    1       24.212 -17.001   3.706  0.00  0.00    +0.011 A 
ATOM     19  C   LIG    1       24.281 -14.352   4.009  0.00  0.00    +0.050 A 
ENDROOT
BRANCH   1  21
ATOM     20  C   LIG    1       27.108 -13.642   4.712  0.00  0.00    +0.277 C 
ATOM     21  O   LIG    1       26.566 -14.181   3.513  0.00  0.00    -0.491 OA
ENDBRANCH   1  21
BRANCH  17  22
ATOM     22  O   LIG    1       27.360 -20.613   5.278  0.00  0.00    -0.388 OA
ATOM     23  H   LIG    1       27.077 -21.523   5.473  0.00  0.00    +0.210 HD
ENDBRANCH  17  22
TORSDOF 2
ENDMDL
