MODEL 1
REMARK VINA RESULT:      -8.9      0.000      0.000
REMARK  Name = *****
REMARK                            x       y       z     vdW  Elec       q    Type
REMARK                         _______ _______ _______ _____ _____    ______ ____
ROOT
ATOM      1  C   LIG    1       26.178 -19.437   4.626  0.00  0.00    +0.192 A 
ATOM      2  N   LIG    1       25.032 -20.065   4.951  0.00  0.00    -0.205 NA
ATOM      3  C   LIG    1       24.996 -20.873   6.059  0.00  0.00    +0.153 A 
ATOM      4  C   LIG    1       26.174 -20.988   6.807  0.00  0.00    +0.171 A 
ATOM      5  N   LIG    1       26.537 -21.708   7.915  0.00  0.00    -0.124 NA
ATOM      6  N   LIG    1       27.827 -21.479   8.160  0.00  0.00    -0.063 NA
ATOM      7  N   LIG    1       28.255 -20.561   7.254  0.00  0.00    -0.221 N 
ATOM      8  C   LIG    1       27.271 -20.252   6.360  0.00  0.00    +0.185 A 
ATOM      9  N   LIG    1       27.347 -19.470   5.283  0.00  0.00    -0.201 NA
ENDROOT
BRANCH   7  10
ATOM     10  C   LIG    1       29.643 -20.180   7.139  0.00  0.00    +0.145 C 
ATOM     11  C   LIG    1       29.872 -18.670   7.039  0.00  0.00    +0.170 C 
ATOM     12  C   LIG    1       31.205 -18.461   7.766  0.00  0.00    +0.174 C 
ATOM     13  C   LIG    1       31.095 -19.421   8.963  0.00  0.00    +0.151 C 
ATOM     14  C   LIG    1       30.472 -20.675   8.338  0.00  0.00    +0.064 C 
BRANCH  11  15
ATOM     15  O   LIG    1       29.961 -18.250   5.675  0.00  0.00    -0.387 OA
ATOM     16  H   LIG    1       29.051 -18.316   5.317  0.00  0.00    +0.210 HD
ENDBRANCH  11  15
BRANCH  12  17
ATOM     17  O   LIG    1       32.261 -18.861   6.878  0.00  0.00    -0.387 OA
ATOM     18  H   LIG    1       32.833 -19.478   7.370  0.00  0.00    +0.210 HD
ENDBRANCH  12  17
BRANCH  13  19
ATOM     19  O   LIG    1       30.263 -18.839   9.973  0.00  0.00    -0.372 OA
BRANCH  19  20
ATOM     20  C   LIG    1       30.517 -17.448  10.187  0.00  0.00    +0.188 C 
BRANCH  20  21
ATOM     21  C   LIG    1       31.341 -17.226  11.450  0.00  0.00    +0.184 C 
BRANCH  21  22
ATOM     22  O   LIG    1       31.057 -15.942  11.998  0.00  0.00    -0.393 OA
ATOM     23  H   LIG    1       31.859 -15.399  11.884  0.00  0.00    +0.209 HD
ENDBRANCH  21  22
ENDBRANCH  20  21
ENDBRANCH  19  20
ENDBRANCH  13  19
ENDBRANCH   7  10
BRANCH   3  24
ATOM     24  N   LIG    1       23.848 -21.597   6.388  0.00  0.00    -0.324 N 
ATOM     25  H   LIG    1       23.150 -21.083   6.919  0.00  0.00    +0.148 HD
BRANCH  24  26
ATOM     26  C   LIG    1       23.689 -22.994   6.029  0.00  0.00    +0.080 C 
ATOM     27  C   LIG    1       24.170 -24.103   6.939  0.00  0.00    +0.041 C 
ATOM     28  C   LIG    1       22.694 -23.831   6.773  0.00  0.00    +0.033 C 
BRANCH  27  29
ATOM     29  C   LIG    1       24.752 -25.380   6.376  0.00  0.00    -0.040 A 
ATOM     30  C   LIG    1       23.924 -26.476   6.075  0.00  0.00    +0.045 A 
ATOM     31  C   LIG    1       24.457 -27.661   5.572  0.00  0.00    +0.159 A 
ATOM     32  F   LIG    1       23.637 -28.685   5.295  0.00  0.00    -0.203 F 
ATOM     33  C   LIG    1       25.823 -27.784   5.364  0.00  0.00    +0.158 A 
ATOM     34  F   LIG    1       26.335 -28.924   4.880  0.00  0.00    -0.203 F 
ATOM     35  C   LIG    1       26.671 -26.725   5.661  0.00  0.00    +0.041 A 
ATOM     36  C   LIG    1       26.135 -25.534   6.166  0.00  0.00    +0.007 A 
ENDBRANCH  27  29
ENDBRANCH  24  26
ENDBRANCH   3  24
BRANCH   1  37
ATOM     37  S   LIG    1       26.151 -18.417   3.168  0.00  0.00    -0.086 S 
BRANCH  37  38
ATOM     38  C   LIG    1       27.137 -17.025   3.818  0.00  0.00    +0.077 C 
BRANCH  38  40
ATOM     39  C   LIG    1       27.502 -14.504   3.776  0.00  0.00    +0.004 C 
ATOM     40  C   LIG    1       26.553 -15.654   3.466  0.00  0.00    +0.008 C 
ENDBRANCH  38  40
ENDBRANCH  37  38
ENDBRANCH   1  37
TORSDOF 13
ENDMDL
MODEL 2
REMARK VINA RESULT:      -8.6      1.552      1.956
REMARK  Name = *****
REMARK                            x       y       z     vdW  Elec       q    Type
REMARK                         _______ _______ _______ _____ _____    ______ ____
ROOT
ATOM      1  C   LIG    1       26.411 -19.935   5.144  0.00  0.00    +0.192 A 
ATOM      2  N   LIG    1       25.389 -20.731   5.517  0.00  0.00    -0.205 NA
ATOM      3  C   LIG    1       25.512 -21.501   6.645  0.00  0.00    +0.153 A 
ATOM      4  C   LIG    1       26.711 -21.403   7.361  0.00  0.00    +0.171 A 
ATOM      5  N   LIG    1       27.212 -22.021   8.476  0.00  0.00    -0.124 NA
ATOM      6  N   LIG    1       28.454 -21.580   8.678  0.00  0.00    -0.063 NA
ATOM      7  N   LIG    1       28.705 -20.632   7.738  0.00  0.00    -0.221 N 
ATOM      8  C   LIG    1       27.663 -20.512   6.865  0.00  0.00    +0.185 A 
ATOM      9  N   LIG    1       27.585 -19.760   5.767  0.00  0.00    -0.201 NA
ENDROOT
BRANCH   7  10
ATOM     10  C   LIG    1       30.010 -20.035   7.574  0.00  0.00    +0.145 C 
ATOM     11  C   LIG    1       30.002 -18.505   7.563  0.00  0.00    +0.170 C 
ATOM     12  C   LIG    1       31.332 -18.135   8.230  0.00  0.00    +0.174 C 
ATOM     13  C   LIG    1       31.444 -19.169   9.364  0.00  0.00    +0.151 C 
ATOM     14  C   LIG    1       30.978 -20.465   8.690  0.00  0.00    +0.064 C 
BRANCH  11  15
ATOM     15  O   LIG    1       29.940 -17.998   6.228  0.00  0.00    -0.387 OA
ATOM     16  H   LIG    1       30.227 -17.062   6.285  0.00  0.00    +0.210 HD
ENDBRANCH  11  15
BRANCH  12  17
ATOM     17  O   LIG    1       32.378 -18.315   7.261  0.00  0.00    -0.387 OA
ATOM     18  H   LIG    1       33.199 -17.973   7.657  0.00  0.00    +0.210 HD
ENDBRANCH  12  17
BRANCH  13  19
ATOM     19  O   LIG    1       30.601 -18.782  10.454  0.00  0.00    -0.372 OA
BRANCH  19  20
ATOM     20  C   LIG    1       30.627 -17.378  10.723  0.00  0.00    +0.188 C 
BRANCH  20  21
ATOM     21  C   LIG    1       31.623 -17.048  11.829  0.00  0.00    +0.184 C 
BRANCH  21  22
ATOM     22  O   LIG    1       31.291 -15.796  12.425  0.00  0.00    -0.393 OA
ATOM     23  H   LIG    1       31.566 -15.842  13.359  0.00  0.00    +0.209 HD
ENDBRANCH  21  22
ENDBRANCH  20  21
ENDBRANCH  19  20
ENDBRANCH  13  19
ENDBRANCH   7  10
BRANCH   3  24
ATOM     24  N   LIG    1       24.505 -22.390   7.024  0.00  0.00    -0.324 N 
ATOM     25  H   LIG    1       23.979 -22.121   7.851  0.00  0.00    +0.148 HD
BRANCH  24  26
ATOM     26  C   LIG    1       24.262 -23.629   6.308  0.00  0.00    +0.080 C 
ATOM     27  C   LIG    1       24.191 -24.957   7.029  0.00  0.00    +0.041 C 
ATOM     28  C   LIG    1       22.942 -24.319   6.470  0.00  0.00    +0.033 C 
BRANCH  27  29
ATOM     29  C   LIG    1       24.721 -26.222   6.391  0.00  0.00    -0.040 A 
ATOM     30  C   LIG    1       25.932 -26.215   5.677  0.00  0.00    +0.045 A 
ATOM     31  C   LIG    1       26.416 -27.374   5.073  0.00  0.00    +0.159 A 
ATOM     32  F   LIG    1       27.576 -27.329   4.402  0.00  0.00    -0.203 F 
ATOM     33  C   LIG    1       25.705 -28.561   5.161  0.00  0.00    +0.158 A 
ATOM     34  F   LIG    1       26.171 -29.675   4.580  0.00  0.00    -0.203 F 
ATOM     35  C   LIG    1       24.499 -28.601   5.849  0.00  0.00    +0.041 A 
ATOM     36  C   LIG    1       24.013 -27.437   6.456  0.00  0.00    +0.007 A 
ENDBRANCH  27  29
ENDBRANCH  24  26
ENDBRANCH   3  24
BRANCH   1  37
ATOM     37  S   LIG    1       26.183 -18.976   3.662  0.00  0.00    -0.086 S 
BRANCH  37  38
ATOM     38  C   LIG    1       24.450 -19.439   3.327  0.00  0.00    +0.077 C 
BRANCH  38  40
ATOM     39  C   LIG    1       22.300 -19.017   4.625  0.00  0.00    +0.004 C 
ATOM     40  C   LIG    1       23.439 -18.402   3.824  0.00  0.00    +0.008 C 
ENDBRANCH  38  40
ENDBRANCH  37  38
ENDBRANCH   1  37
TORSDOF 13
ENDMDL
MODEL 3
REMARK VINA RESULT:      -8.2      8.332     12.142
REMARK  Name = *****
REMARK                            x       y       z     vdW  Elec       q    Type
REMARK                         _______ _______ _______ _____ _____    ______ ____
ROOT
ATOM      1  C   LIG    1       26.728 -29.390  10.694  0.00  0.00    +0.192 A 
ATOM      2  N   LIG    1       26.862 -28.843   9.471  0.00  0.00    -0.205 NA
ATOM      3  C   LIG    1       25.860 -29.000   8.548  0.00  0.00    +0.153 A 
ATOM      4  C   LIG    1       24.730 -29.723   8.947  0.00  0.00    +0.171 A 
ATOM      5  N   LIG    1       23.577 -30.118   8.320  0.00  0.00    -0.124 NA
ATOM      6  N   LIG    1       22.866 -30.856   9.174  0.00  0.00    -0.063 NA
ATOM      7  N   LIG    1       23.534 -30.861  10.356  0.00  0.00    -0.221 N 
ATOM      8  C   LIG    1       24.725 -30.203  10.257  0.00  0.00    +0.185 A 
ATOM      9  N   LIG    1       25.684 -30.082  11.174  0.00  0.00    -0.201 NA
ENDROOT
BRANCH   7  10
ATOM     10  C   LIG    1       23.119 -31.679  11.473  0.00  0.00    +0.145 C 
ATOM     11  C   LIG    1       22.728 -30.884  12.720  0.00  0.00    +0.170 C 
ATOM     12  C   LIG    1       21.606 -31.723  13.343  0.00  0.00    +0.174 C 
ATOM     13  C   LIG    1       20.809 -32.192  12.114  0.00  0.00    +0.151 C 
ATOM     14  C   LIG    1       21.910 -32.562  11.114  0.00  0.00    +0.064 C 
BRANCH  11  15
ATOM     15  O   LIG    1       23.832 -30.756  13.619  0.00  0.00    -0.387 OA
ATOM     16  H   LIG    1       24.061 -29.803  13.626  0.00  0.00    +0.210 HD
ENDBRANCH  11  15
BRANCH  12  17
ATOM     17  O   LIG    1       22.211 -32.835  14.022  0.00  0.00    -0.387 OA
ATOM     18  H   LIG    1       23.175 -32.691  14.009  0.00  0.00    +0.210 HD
ENDBRANCH  12  17
BRANCH  13  19
ATOM     19  O   LIG    1       19.976 -31.127  11.645  0.00  0.00    -0.372 OA
BRANCH  19  20
ATOM     20  C   LIG    1       19.490 -31.328  10.315  0.00  0.00    +0.188 C 
BRANCH  20  21
ATOM     21  C   LIG    1       17.967 -31.292  10.273  0.00  0.00    +0.184 C 
BRANCH  21  22
ATOM     22  O   LIG    1       17.528 -30.438   9.221  0.00  0.00    -0.393 OA
ATOM     23  H   LIG    1       16.751 -30.861   8.813  0.00  0.00    +0.209 HD
ENDBRANCH  21  22
ENDBRANCH  20  21
ENDBRANCH  19  20
ENDBRANCH  13  19
ENDBRANCH   7  10
BRANCH   3  24
ATOM     24  N   LIG    1       25.993 -28.509   7.248  0.00  0.00    -0.324 N 
ATOM     25  H   LIG    1       26.681 -28.988   6.673  0.00  0.00    +0.148 HD
BRANCH  24  26
ATOM     26  C   LIG    1       25.228 -27.370   6.773  0.00  0.00    +0.080 C 
ATOM     27  C   LIG    1       25.890 -26.039   6.487  0.00  0.00    +0.041 C 
ATOM     28  C   LIG    1       25.403 -26.913   5.356  0.00  0.00    +0.033 C 
BRANCH  27  29
ATOM     29  C   LIG    1       25.177 -24.736   6.771  0.00  0.00    -0.040 A 
ATOM     30  C   LIG    1       23.807 -24.589   6.490  0.00  0.00    +0.045 A 
ATOM     31  C   LIG    1       23.151 -23.384   6.733  0.00  0.00    +0.159 A 
ATOM     32  F   LIG    1       21.843 -23.281   6.455  0.00  0.00    -0.203 F 
ATOM     33  C   LIG    1       23.842 -22.300   7.253  0.00  0.00    +0.158 A 
ATOM     34  F   LIG    1       23.209 -21.141   7.486  0.00  0.00    -0.203 F 
ATOM     35  C   LIG    1       25.198 -22.407   7.531  0.00  0.00    +0.041 A 
ATOM     36  C   LIG    1       25.858 -23.617   7.287  0.00  0.00    +0.007 A 
ENDBRANCH  27  29
ENDBRANCH  24  26
ENDBRANCH   3  24
BRANCH   1  37
ATOM     37  S   LIG    1       28.075 -29.156  11.833  0.00  0.00    -0.086 S 
BRANCH  37  38
ATOM     38  C   LIG    1       27.191 -28.137  13.063  0.00  0.00    +0.077 C 
BRANCH  38  40
ATOM     39  C   LIG    1       27.050 -25.608  13.337  0.00  0.00    +0.004 C 
ATOM     40  C   LIG    1       26.670 -26.816  12.491  0.00  0.00    +0.008 C 
ENDBRANCH  38  40
ENDBRANCH  37  38
ENDBRANCH   1  37
TORSDOF 13
ENDMDL
MODEL 4
REMARK VINA RESULT:      -8.2      2.286      3.142
REMARK  Name = *****
REMARK                            x       y       z     vdW  Elec       q    Type
REMARK                         _______ _______ _______ _____ _____    ______ ____
ROOT
ATOM      1  C   LIG    1       25.618 -20.560   5.220  0.00  0.00    +0.192 A 
ATOM      2  N   LIG    1       24.999 -21.708   5.555  0.00  0.00    -0.205 NA
ATOM      3  C   LIG    1       25.395 -22.383   6.681  0.00  0.00    +0.153 A 
ATOM      4  C   LIG    1       26.430 -21.820   7.436  0.00  0.00    +0.171 A 
ATOM      5  N   LIG    1       27.110 -22.202   8.562  0.00  0.00    -0.124 NA
ATOM      6  N   LIG    1       28.060 -21.298   8.806  0.00  0.00    -0.063 NA
ATOM      7  N   LIG    1       27.928 -20.312   7.881  0.00  0.00    -0.221 N 
ATOM      8  C   LIG    1       26.951 -20.610   6.975  0.00  0.00    +0.185 A 
ATOM      9  N   LIG    1       26.602 -19.934   5.881  0.00  0.00    -0.201 NA
ENDROOT
BRANCH   7  10
ATOM     10  C   LIG    1       28.881 -19.234   7.762  0.00  0.00    +0.145 C 
ATOM     11  C   LIG    1       29.801 -19.073   8.973  0.00  0.00    +0.170 C 
ATOM     12  C   LIG    1       31.122 -18.596   8.360  0.00  0.00    +0.174 C 
ATOM     13  C   LIG    1       31.227 -19.440   7.078  0.00  0.00    +0.151 C 
ATOM     14  C   LIG    1       29.793 -19.412   6.534  0.00  0.00    +0.064 C 
BRANCH  11  15
ATOM     15  O   LIG    1       29.284 -18.106   9.890  0.00  0.00    -0.387 OA
ATOM     16  H   LIG    1       28.311 -18.118   9.769  0.00  0.00    +0.210 HD
ENDBRANCH  11  15
BRANCH  12  17
ATOM     17  O   LIG    1       30.988 -17.200   8.051  0.00  0.00    -0.387 OA
ATOM     18  H   LIG    1       31.212 -16.704   8.859  0.00  0.00    +0.210 HD
ENDBRANCH  12  17
BRANCH  13  19
ATOM     19  O   LIG    1       31.665 -20.763   7.404  0.00  0.00    -0.372 OA
BRANCH  19  20
ATOM     20  C   LIG    1       31.860 -20.967   8.807  0.00  0.00    +0.188 C 
BRANCH  20  21
ATOM     21  C   LIG    1       31.461 -22.379   9.219  0.00  0.00    +0.184 C 
BRANCH  21  22
ATOM     22  O   LIG    1       30.589 -22.329  10.345  0.00  0.00    -0.393 OA
ATOM     23  H   LIG    1       29.759 -21.916  10.045  0.00  0.00    +0.209 HD
ENDBRANCH  21  22
ENDBRANCH  20  21
ENDBRANCH  19  20
ENDBRANCH  13  19
ENDBRANCH   7  10
BRANCH   3  24
ATOM     24  N   LIG    1       24.827 -23.612   7.023  0.00  0.00    -0.324 N 
ATOM     25  H   LIG    1       24.079 -23.567   7.709  0.00  0.00    +0.148 HD
BRANCH  24  26
ATOM     26  C   LIG    1       25.305 -24.863   6.464  0.00  0.00    +0.080 C 
ATOM     27  C   LIG    1       24.347 -25.939   6.002  0.00  0.00    +0.041 C 
ATOM     28  C   LIG    1       25.127 -25.123   4.998  0.00  0.00    +0.033 C 
BRANCH  27  29
ATOM     29  C   LIG    1       24.675 -27.405   6.174  0.00  0.00    -0.040 A 
ATOM     30  C   LIG    1       24.974 -27.931   7.444  0.00  0.00    +0.045 A 
ATOM     31  C   LIG    1       25.294 -29.278   7.605  0.00  0.00    +0.159 A 
ATOM     32  F   LIG    1       25.570 -29.744   8.832  0.00  0.00    -0.203 F 
ATOM     33  C   LIG    1       25.330 -30.128   6.510  0.00  0.00    +0.158 A 
ATOM     34  F   LIG    1       25.638 -31.422   6.667  0.00  0.00    -0.203 F 
ATOM     35  C   LIG    1       25.052 -29.639   5.240  0.00  0.00    +0.041 A 
ATOM     36  C   LIG    1       24.731 -28.286   5.077  0.00  0.00    +0.007 A 
ENDBRANCH  27  29
ENDBRANCH  24  26
ENDBRANCH   3  24
BRANCH   1  37
ATOM     37  S   LIG    1       25.059 -19.748   3.738  0.00  0.00    -0.086 S 
BRANCH  37  38
ATOM     38  C   LIG    1       23.286 -20.157   3.881  0.00  0.00    +0.077 C 
BRANCH  38  40
ATOM     39  C   LIG    1       22.219 -17.940   4.539  0.00  0.00    +0.004 C 
ATOM     40  C   LIG    1       22.566 -19.358   4.970  0.00  0.00    +0.008 C 
ENDBRANCH  38  40
ENDBRANCH  37  38
ENDBRANCH   1  37
TORSDOF 13
ENDMDL
MODEL 5
REMARK VINA RESULT:      -8.0      7.183     10.148
REMARK  Name = *****
REMARK                            x       y       z     vdW  Elec       q    Type
REMARK                         _______ _______ _______ _____ _____    ______ ____
ROOT
ATOM      1  C   LIG    1       23.583 -30.770   9.771  0.00  0.00    +0.192 A 
ATOM      2  N   LIG    1       23.763 -30.452   8.474  0.00  0.00    -0.205 NA
ATOM      3  C   LIG    1       24.837 -29.680   8.112  0.00  0.00    +0.153 A 
ATOM      4  C   LIG    1       25.706 -29.272   9.132  0.00  0.00    +0.171 A 
ATOM      5  N   LIG    1       26.827 -28.486   9.175  0.00  0.00    -0.124 NA
ATOM      6  N   LIG    1       27.218 -28.381  10.446  0.00  0.00    -0.063 NA
ATOM      7  N   LIG    1       26.390 -29.160  11.189  0.00  0.00    -0.221 N 
ATOM      8  C   LIG    1       25.402 -29.707  10.422  0.00  0.00    +0.185 A 
ATOM      9  N   LIG    1       24.362 -30.443  10.812  0.00  0.00    -0.201 NA
ENDROOT
BRANCH   7  10
ATOM     10  C   LIG    1       26.437 -29.179  12.633  0.00  0.00    +0.145 C 
ATOM     11  C   LIG    1       27.823 -28.899  13.218  0.00  0.00    +0.170 C 
ATOM     12  C   LIG    1       27.518 -28.144  14.517  0.00  0.00    +0.174 C 
ATOM     13  C   LIG    1       26.354 -27.224  14.111  0.00  0.00    +0.151 C 
ATOM     14  C   LIG    1       25.480 -28.142  13.248  0.00  0.00    +0.064 C 
BRANCH  11  15
ATOM     15  O   LIG    1       28.526 -30.115  13.484  0.00  0.00    -0.387 OA
ATOM     16  H   LIG    1       28.623 -30.562  12.617  0.00  0.00    +0.210 HD
ENDBRANCH  11  15
BRANCH  12  17
ATOM     17  O   LIG    1       27.100 -29.106  15.499  0.00  0.00    -0.387 OA
ATOM     18  H   LIG    1       27.889 -29.618  15.754  0.00  0.00    +0.210 HD
ENDBRANCH  12  17
BRANCH  13  19
ATOM     19  O   LIG    1       26.859 -26.101  13.382  0.00  0.00    -0.372 OA
BRANCH  19  20
ATOM     20  C   LIG    1       27.640 -25.208  14.182  0.00  0.00    +0.188 C 
BRANCH  20  21
ATOM     21  C   LIG    1       26.758 -24.393  15.119  0.00  0.00    +0.184 C 
BRANCH  21  22
ATOM     22  O   LIG    1       26.101 -23.358  14.393  0.00  0.00    -0.393 OA
ATOM     23  H   LIG    1       26.225 -23.550  13.446  0.00  0.00    +0.209 HD
ENDBRANCH  21  22
ENDBRANCH  20  21
ENDBRANCH  19  20
ENDBRANCH  13  19
ENDBRANCH   7  10
BRANCH   3  24
ATOM     24  N   LIG    1       25.019 -29.271   6.790  0.00  0.00    -0.324 N 
ATOM     25  H   LIG    1       25.498 -29.938   6.192  0.00  0.00    +0.148 HD
BRANCH  24  26
ATOM     26  C   LIG    1       24.587 -27.966   6.322  0.00  0.00    +0.080 C 
ATOM     27  C   LIG    1       25.544 -26.797   6.250  0.00  0.00    +0.041 C 
ATOM     28  C   LIG    1       25.062 -27.474   4.989  0.00  0.00    +0.033 C 
BRANCH  27  29
ATOM     29  C   LIG    1       25.083 -25.388   6.552  0.00  0.00    -0.040 A 
ATOM     30  C   LIG    1       23.727 -25.036   6.437  0.00  0.00    +0.045 A 
ATOM     31  C   LIG    1       23.299 -23.735   6.697  0.00  0.00    +0.159 A 
ATOM     32  F   LIG    1       21.997 -23.436   6.580  0.00  0.00    -0.203 F 
ATOM     33  C   LIG    1       24.210 -22.758   7.071  0.00  0.00    +0.158 A 
ATOM     34  F   LIG    1       23.797 -21.508   7.321  0.00  0.00    -0.203 F 
ATOM     35  C   LIG    1       25.558 -23.070   7.183  0.00  0.00    +0.041 A 
ATOM     36  C   LIG    1       25.988 -24.376   6.921  0.00  0.00    +0.007 A 
ENDBRANCH  27  29
ENDBRANCH  24  26
ENDBRANCH   3  24
BRANCH   1  37
ATOM     37  S   LIG    1       22.159 -31.762  10.166  0.00  0.00    -0.086 S 
BRANCH  37  38
ATOM     38  C   LIG    1       21.066 -30.417  10.739  0.00  0.00    +0.077 C 
BRANCH  38  40
ATOM     39  C   LIG    1       21.411 -28.707  12.595  0.00  0.00    +0.004 C 
ATOM     40  C   LIG    1       21.155 -30.167  12.246  0.00  0.00    +0.008 C 
ENDBRANCH  38  40
ENDBRANCH  37  38
ENDBRANCH   1  37
TORSDOF 13
ENDMDL
MODEL 6
REMARK VINA RESULT:      -7.9      5.478      8.903
REMARK  Name = *****
REMARK                            x       y       z     vdW  Elec       q    Type
REMARK                         _______ _______ _______ _____ _____    ______ ____
ROOT
ATOM      1  C   LIG    1       24.624 -21.542   4.576  0.00  0.00    +0.192 A 
ATOM      2  N   LIG    1       25.228 -20.695   5.432  0.00  0.00    -0.205 NA
ATOM      3  C   LIG    1       25.890 -21.197   6.524  0.00  0.00    +0.153 A 
ATOM      4  C   LIG    1       25.907 -22.588   6.678  0.00  0.00    +0.171 A 
ATOM      5  N   LIG    1       26.409 -23.439   7.628  0.00  0.00    -0.124 NA
ATOM      6  N   LIG    1       26.073 -24.686   7.295  0.00  0.00    -0.063 NA
ATOM      7  N   LIG    1       25.427 -24.626   6.101  0.00  0.00    -0.221 N 
ATOM      8  C   LIG    1       25.261 -23.334   5.692  0.00  0.00    +0.185 A 
ATOM      9  N   LIG    1       24.598 -22.881   4.628  0.00  0.00    -0.201 NA
ENDROOT
BRANCH   7  10
ATOM     10  C   LIG    1       24.800 -25.782   5.504  0.00  0.00    +0.145 C 
ATOM     11  C   LIG    1       25.784 -26.796   4.917  0.00  0.00    +0.170 C 
ATOM     12  C   LIG    1       25.096 -28.144   5.158  0.00  0.00    +0.174 C 
ATOM     13  C   LIG    1       24.491 -27.972   6.562  0.00  0.00    +0.151 C 
ATOM     14  C   LIG    1       23.930 -26.545   6.519  0.00  0.00    +0.064 C 
BRANCH  11  15
ATOM     15  O   LIG    1       25.990 -26.567   3.521  0.00  0.00    -0.387 OA
ATOM     16  H   LIG    1       25.606 -27.346   3.065  0.00  0.00    +0.210 HD
ENDBRANCH  11  15
BRANCH  12  17
ATOM     17  O   LIG    1       24.067 -28.299   4.167  0.00  0.00    -0.387 OA
ATOM     18  H   LIG    1       24.416 -28.898   3.482  0.00  0.00    +0.210 HD
ENDBRANCH  12  17
BRANCH  13  19
ATOM     19  O   LIG    1       25.514 -28.130   7.550  0.00  0.00    -0.372 OA
BRANCH  19  20
ATOM     20  C   LIG    1       25.490 -29.407   8.194  0.00  0.00    +0.188 C 
BRANCH  20  21
ATOM     21  C   LIG    1       26.100 -29.332   9.589  0.00  0.00    +0.184 C 
BRANCH  21  22
ATOM     22  O   LIG    1       27.474 -28.963   9.501  0.00  0.00    -0.393 OA
ATOM     23  H   LIG    1       27.891 -29.564   8.858  0.00  0.00    +0.209 HD
ENDBRANCH  21  22
ENDBRANCH  20  21
ENDBRANCH  19  20
ENDBRANCH  13  19
ENDBRANCH   7  10
BRANCH   3  24
ATOM     24  N   LIG    1       26.467 -20.349   7.471  0.00  0.00    -0.324 N 
ATOM     25  H   LIG    1       25.909 -20.191   8.306  0.00  0.00    +0.148 HD
BRANCH  24  26
ATOM     26  C   LIG    1       27.752 -19.711   7.251  0.00  0.00    +0.080 C 
ATOM     27  C   LIG    1       28.980 -20.118   8.036  0.00  0.00    +0.041 C 
ATOM     28  C   LIG    1       28.845 -20.483   6.577  0.00  0.00    +0.033 C 
BRANCH  27  29
ATOM     29  C   LIG    1       30.018 -19.098   8.447  0.00  0.00    -0.040 A 
ATOM     30  C   LIG    1       29.744 -18.160   9.458  0.00  0.00    +0.045 A 
ATOM     31  C   LIG    1       30.691 -17.207   9.829  0.00  0.00    +0.159 A 
ATOM     32  F   LIG    1       30.395 -16.330  10.799  0.00  0.00    -0.203 F 
ATOM     33  C   LIG    1       31.926 -17.163   9.200  0.00  0.00    +0.158 A 
ATOM     34  F   LIG    1       32.836 -16.246   9.557  0.00  0.00    -0.203 F 
ATOM     35  C   LIG    1       32.225 -18.067   8.189  0.00  0.00    +0.041 A 
ATOM     36  C   LIG    1       31.274 -19.024   7.816  0.00  0.00    +0.007 A 
ENDBRANCH  27  29
ENDBRANCH  24  26
ENDBRANCH   3  24
BRANCH   1  37
ATOM     37  S   LIG    1       23.775 -20.815   3.191  0.00  0.00    -0.086 S 
BRANCH  37  38
ATOM     38  C   LIG    1       23.706 -19.100   3.810  0.00  0.00    +0.077 C 
BRANCH  38  40
ATOM     39  C   LIG    1       22.221 -17.222   4.681  0.00  0.00    +0.004 C 
ATOM     40  C   LIG    1       22.324 -18.702   4.336  0.00  0.00    +0.008 C 
ENDBRANCH  38  40
ENDBRANCH  37  38
ENDBRANCH   1  37
TORSDOF 13
ENDMDL
MODEL 7
REMARK VINA RESULT:      -7.9      7.179     10.455
REMARK  Name = *****
REMARK                            x       y       z     vdW  Elec       q    Type
REMARK                         _______ _______ _______ _____ _____    ______ ____
ROOT
ATOM      1  C   LIG    1       23.882 -31.022   8.993  0.00  0.00    +0.192 A 
ATOM      2  N   LIG    1       24.235 -30.554   7.781  0.00  0.00    -0.205 NA
ATOM      3  C   LIG    1       25.209 -29.593   7.686  0.00  0.00    +0.153 A 
ATOM      4  C   LIG    1       25.798 -29.158   8.880  0.00  0.00    +0.171 A 
ATOM      5  N   LIG    1       26.742 -28.216   9.192  0.00  0.00    -0.124 NA
ATOM      6  N   LIG    1       26.875 -28.178  10.518  0.00  0.00    -0.063 NA
ATOM      7  N   LIG    1       26.072 -29.146  11.033  0.00  0.00    -0.221 N 
ATOM      8  C   LIG    1       25.346 -29.760  10.054  0.00  0.00    +0.185 A 
ATOM      9  N   LIG    1       24.394 -30.684  10.185  0.00  0.00    -0.201 NA
ENDROOT
BRANCH   7  10
ATOM     10  C   LIG    1       25.863 -29.299  12.454  0.00  0.00    +0.145 C 
ATOM     11  C   LIG    1       27.069 -28.912  13.311  0.00  0.00    +0.170 C 
ATOM     12  C   LIG    1       26.436 -28.331  14.580  0.00  0.00    +0.174 C 
ATOM     13  C   LIG    1       25.248 -27.523  14.029  0.00  0.00    +0.151 C 
ATOM     14  C   LIG    1       24.677 -28.451  12.950  0.00  0.00    +0.064 C 
BRANCH  11  15
ATOM     15  O   LIG    1       27.873 -30.054  13.617  0.00  0.00    -0.387 OA
ATOM     16  H   LIG    1       28.798 -29.729  13.641  0.00  0.00    +0.210 HD
ENDBRANCH  11  15
BRANCH  12  17
ATOM     17  O   LIG    1       25.985 -29.427  15.392  0.00  0.00    -0.387 OA
ATOM     18  H   LIG    1       26.252 -30.248  14.940  0.00  0.00    +0.210 HD
ENDBRANCH  12  17
BRANCH  13  19
ATOM     19  O   LIG    1       25.716 -26.281  13.494  0.00  0.00    -0.372 OA
BRANCH  19  20
ATOM     20  C   LIG    1       24.978 -25.147  13.960  0.00  0.00    +0.188 C 
BRANCH  20  21
ATOM     21  C   LIG    1       25.876 -24.181  14.723  0.00  0.00    +0.184 C 
BRANCH  21  22
ATOM     22  O   LIG    1       25.543 -22.837  14.386  0.00  0.00    -0.393 OA
ATOM     23  H   LIG    1       24.643 -22.673  14.719  0.00  0.00    +0.209 HD
ENDBRANCH  21  22
ENDBRANCH  20  21
ENDBRANCH  19  20
ENDBRANCH  13  19
ENDBRANCH   7  10
BRANCH   3  24
ATOM     24  N   LIG    1       25.552 -29.032   6.455  0.00  0.00    -0.324 N 
ATOM     25  H   LIG    1       26.212 -29.572   5.902  0.00  0.00    +0.148 HD
BRANCH  24  26
ATOM     26  C   LIG    1       25.031 -27.748   6.022  0.00  0.00    +0.080 C 
ATOM     27  C   LIG    1       25.832 -26.475   6.186  0.00  0.00    +0.041 C 
ATOM     28  C   LIG    1       25.630 -27.084   4.820  0.00  0.00    +0.033 C 
BRANCH  27  29
ATOM     29  C   LIG    1       25.157 -25.162   6.515  0.00  0.00    -0.040 A 
ATOM     30  C   LIG    1       25.898 -24.077   7.013  0.00  0.00    +0.045 A 
ATOM     31  C   LIG    1       25.278 -22.871   7.335  0.00  0.00    +0.159 A 
ATOM     32  F   LIG    1       26.018 -21.856   7.805  0.00  0.00    -0.203 F 
ATOM     33  C   LIG    1       23.908 -22.721   7.173  0.00  0.00    +0.158 A 
ATOM     34  F   LIG    1       23.313 -21.561   7.482  0.00  0.00    -0.203 F 
ATOM     35  C   LIG    1       23.144 -23.777   6.694  0.00  0.00    +0.041 A 
ATOM     36  C   LIG    1       23.767 -24.988   6.372  0.00  0.00    +0.007 A 
ENDBRANCH  27  29
ENDBRANCH  24  26
ENDBRANCH   3  24
BRANCH   1  37
ATOM     37  S   LIG    1       22.602 -32.258   9.037  0.00  0.00    -0.086 S 
BRANCH  37  38
ATOM     38  C   LIG    1       21.966 -31.901  10.710  0.00  0.00    +0.077 C 
BRANCH  38  40
ATOM     39  C   LIG    1       19.552 -31.204  10.289  0.00  0.00    +0.004 C 
ATOM     40  C   LIG    1       20.939 -30.766  10.738  0.00  0.00    +0.008 C 
ENDBRANCH  38  40
ENDBRANCH  37  38
ENDBRANCH   1  37
TORSDOF 13
ENDMDL
MODEL 8
REMARK VINA RESULT:      -7.4      7.571     11.038
REMARK  Name = *****
REMARK                            x       y       z     vdW  Elec       q    Type
REMARK                         _______ _______ _______ _____ _____    ______ ____
ROOT
ATOM      1  C   LIG    1       24.721 -31.049   8.548  0.00  0.00    +0.192 A 
ATOM      2  N   LIG    1       25.174 -30.096   7.711  0.00  0.00    -0.205 NA
ATOM      3  C   LIG    1       25.883 -29.036   8.216  0.00  0.00    +0.153 A 
ATOM      4  C   LIG    1       26.106 -29.014   9.597  0.00  0.00    +0.171 A 
ATOM      5  N   LIG    1       26.713 -28.133  10.454  0.00  0.00    -0.124 NA
ATOM      6  N   LIG    1       26.574 -28.595  11.698  0.00  0.00    -0.063 NA
ATOM      7  N   LIG    1       25.950 -29.798  11.616  0.00  0.00    -0.221 N 
ATOM      8  C   LIG    1       25.599 -30.088  10.329  0.00  0.00    +0.185 A 
ATOM      9  N   LIG    1       24.895 -31.126   9.875  0.00  0.00    -0.201 NA
ENDROOT
BRANCH   7  10
ATOM     10  C   LIG    1       25.515 -30.524  12.787  0.00  0.00    +0.145 C 
ATOM     11  C   LIG    1       26.467 -30.418  13.979  0.00  0.00    +0.170 C 
ATOM     12  C   LIG    1       25.529 -30.444  15.191  0.00  0.00    +0.174 C 
ATOM     13  C   LIG    1       24.345 -29.580  14.724  0.00  0.00    +0.151 C 
ATOM     14  C   LIG    1       24.137 -30.041  13.276  0.00  0.00    +0.064 C 
BRANCH  11  15
ATOM     15  O   LIG    1       27.378 -31.519  14.012  0.00  0.00    -0.387 OA
ATOM     16  H   LIG    1       27.982 -31.388  13.252  0.00  0.00    +0.210 HD
ENDBRANCH  11  15
BRANCH  12  17
ATOM     17  O   LIG    1       25.123 -31.805  15.407  0.00  0.00    -0.387 OA
ATOM     18  H   LIG    1       25.261 -32.283  14.568  0.00  0.00    +0.210 HD
ENDBRANCH  12  17
BRANCH  13  19
ATOM     19  O   LIG    1       24.693 -28.195  14.815  0.00  0.00    -0.372 OA
BRANCH  19  20
ATOM     20  C   LIG    1       23.679 -27.320  14.311  0.00  0.00    +0.188 C 
BRANCH  20  21
ATOM     21  C   LIG    1       24.289 -26.053  13.722  0.00  0.00    +0.184 C 
BRANCH  21  22
ATOM     22  O   LIG    1       25.648 -26.288  13.363  0.00  0.00    -0.393 OA
ATOM     23  H   LIG    1       25.656 -27.055  12.762  0.00  0.00    +0.209 HD
ENDBRANCH  21  22
ENDBRANCH  20  21
ENDBRANCH  19  20
ENDBRANCH  13  19
ENDBRANCH   7  10
BRANCH   3  24
ATOM     24  N   LIG    1       26.308 -27.994   7.390  0.00  0.00    -0.324 N 
ATOM     25  H   LIG    1       27.299 -27.998   7.163  0.00  0.00    +0.148 HD
BRANCH  24  26
ATOM     26  C   LIG    1       25.401 -26.959   6.927  0.00  0.00    +0.080 C 
ATOM     27  C   LIG    1       25.909 -25.606   6.481  0.00  0.00    +0.041 C 
ATOM     28  C   LIG    1       25.385 -26.600   5.472  0.00  0.00    +0.033 C 
BRANCH  27  29
ATOM     29  C   LIG    1       25.118 -24.345   6.753  0.00  0.00    -0.040 A 
ATOM     30  C   LIG    1       25.746 -23.201   7.276  0.00  0.00    +0.045 A 
ATOM     31  C   LIG    1       25.018 -22.044   7.545  0.00  0.00    +0.159 A 
ATOM     32  F   LIG    1       25.651 -20.971   8.041  0.00  0.00    -0.203 F 
ATOM     33  C   LIG    1       23.653 -22.000   7.305  0.00  0.00    +0.158 A 
ATOM     34  F   LIG    1       22.955 -20.886   7.564  0.00  0.00    -0.203 F 
ATOM     35  C   LIG    1       22.999 -23.116   6.800  0.00  0.00    +0.041 A 
ATOM     36  C   LIG    1       23.730 -24.280   6.530  0.00  0.00    +0.007 A 
ENDBRANCH  27  29
ENDBRANCH  24  26
ENDBRANCH   3  24
BRANCH   1  37
ATOM     37  S   LIG    1       23.798 -32.386   7.822  0.00  0.00    -0.086 S 
BRANCH  37  38
ATOM     38  C   LIG    1       23.842 -31.809   6.090  0.00  0.00    +0.077 C 
BRANCH  38  40
ATOM     39  C   LIG    1       25.887 -32.150   4.612  0.00  0.00    +0.004 C 
ATOM     40  C   LIG    1       24.601 -32.755   5.157  0.00  0.00    +0.008 C 
ENDBRANCH  38  40
ENDBRANCH  37  38
ENDBRANCH   1  37
TORSDOF 13
ENDMDL
MODEL 9
REMARK VINA RESULT:      -7.1      7.818     11.045
REMARK  Name = *****
REMARK                            x       y       z     vdW  Elec       q    Type
REMARK                         _______ _______ _______ _____ _____    ______ ____
ROOT
ATOM      1  C   LIG    1       23.441 -30.918   9.571  0.00  0.00    +0.192 A 
ATOM      2  N   LIG    1       23.683 -30.567   8.293  0.00  0.00    -0.205 NA
ATOM      3  C   LIG    1       24.738 -29.737   8.011  0.00  0.00    +0.153 A 
ATOM      4  C   LIG    1       25.521 -29.306   9.088  0.00  0.00    +0.171 A 
ATOM      5  N   LIG    1       26.596 -28.466   9.213  0.00  0.00    -0.124 NA
ATOM      6  N   LIG    1       26.903 -28.367  10.507  0.00  0.00    -0.063 NA
ATOM      7  N   LIG    1       26.071 -29.200  11.186  0.00  0.00    -0.221 N 
ATOM      8  C   LIG    1       25.161 -29.780  10.350  0.00  0.00    +0.185 A 
ATOM      9  N   LIG    1       24.137 -30.574  10.663  0.00  0.00    -0.201 NA
ENDROOT
BRANCH   7  10
ATOM     10  C   LIG    1       26.032 -29.243  12.629  0.00  0.00    +0.145 C 
ATOM     11  C   LIG    1       26.445 -30.590  13.227  0.00  0.00    +0.170 C 
ATOM     12  C   LIG    1       27.140 -30.202  14.537  0.00  0.00    +0.174 C 
ATOM     13  C   LIG    1       27.939 -28.948  14.141  0.00  0.00    +0.151 C 
ATOM     14  C   LIG    1       26.950 -28.179  13.257  0.00  0.00    +0.064 C 
BRANCH  11  15
ATOM     15  O   LIG    1       25.306 -31.416  13.476  0.00  0.00    -0.387 OA
ATOM     16  H   LIG    1       25.612 -32.338  13.344  0.00  0.00    +0.210 HD
ENDBRANCH  11  15
BRANCH  12  17
ATOM     17  O   LIG    1       26.122 -29.884  15.500  0.00  0.00    -0.387 OA
ATOM     18  H   LIG    1       25.667 -29.082  15.183  0.00  0.00    +0.210 HD
ENDBRANCH  12  17
BRANCH  13  19
ATOM     19  O   LIG    1       29.123 -29.334  13.435  0.00  0.00    -0.372 OA
BRANCH  19  20
ATOM     20  C   LIG    1       30.191 -29.741  14.296  0.00  0.00    +0.188 C 
BRANCH  20  21
ATOM     21  C   LIG    1       31.546 -29.508  13.639  0.00  0.00    +0.184 C 
BRANCH  21  22
ATOM     22  O   LIG    1       31.380 -29.299  12.239  0.00  0.00    -0.393 OA
ATOM     23  H   LIG    1       31.392 -28.336  12.091  0.00  0.00    +0.209 HD
ENDBRANCH  21  22
ENDBRANCH  20  21
ENDBRANCH  19  20
ENDBRANCH  13  19
ENDBRANCH   7  10
BRANCH   3  24
ATOM     24  N   LIG    1       24.979 -29.294   6.709  0.00  0.00    -0.324 N 
ATOM     25  H   LIG    1       25.501 -29.938   6.123  0.00  0.00    +0.148 HD
BRANCH  24  26
ATOM     26  C   LIG    1       24.546 -27.987   6.248  0.00  0.00    +0.080 C 
ATOM     27  C   LIG    1       25.499 -26.814   6.192  0.00  0.00    +0.041 C 
ATOM     28  C   LIG    1       25.029 -27.483   4.922  0.00  0.00    +0.033 C 
BRANCH  27  29
ATOM     29  C   LIG    1       25.031 -25.410   6.502  0.00  0.00    -0.040 A 
ATOM     30  C   LIG    1       25.926 -24.445   6.995  0.00  0.00    +0.045 A 
ATOM     31  C   LIG    1       25.496 -23.155   7.299  0.00  0.00    +0.159 A 
ATOM     32  F   LIG    1       26.379 -22.260   7.765  0.00  0.00    -0.203 F 
ATOM     33  C   LIG    1       24.167 -22.799   7.123  0.00  0.00    +0.158 A 
ATOM     34  F   LIG    1       23.754 -21.557   7.416  0.00  0.00    -0.203 F 
ATOM     35  C   LIG    1       23.253 -23.730   6.649  0.00  0.00    +0.041 A 
ATOM     36  C   LIG    1       23.685 -25.026   6.345  0.00  0.00    +0.007 A 
ENDBRANCH  27  29
ENDBRANCH  24  26
ENDBRANCH   3  24
BRANCH   1  37
ATOM     37  S   LIG    1       22.047 -31.987   9.861  0.00  0.00    -0.086 S 
BRANCH  37  38
ATOM     38  C   LIG    1       21.020 -30.810  10.805  0.00  0.00    +0.077 C 
BRANCH  38  40
ATOM     39  C   LIG    1       19.458 -30.697  12.814  0.00  0.00    +0.004 C 
ATOM     40  C   LIG    1       19.888 -31.485  11.584  0.00  0.00    +0.008 C 
ENDBRANCH  38  40
ENDBRANCH  37  38
ENDBRANCH   1  37
TORSDOF 13
ENDMDL
