MODEL 1
REMARK VINA RESULT:      -3.5      0.000      0.000
REMARK  Name = *****
REMARK                            x       y       z     vdW  Elec       q    Type
REMARK                         _______ _______ _______ _____ _____    ______ ____
ROOT
ATOM      1  O   LIG    1       29.475 -11.896   4.977  0.00  0.00    -0.247 OA
ATOM      2  C   LIG    1       28.471 -12.550   4.687  0.00  0.00    +0.327 C 
ATOM      3  N   LIG    1       28.328 -13.185   3.498  0.00  0.00    -0.274 N 
ATOM      4  H   LIG    1       29.052 -13.039   2.809  0.00  0.00    +0.173 HD
ATOM      5  C   LIG    1       27.169 -13.741   3.046  0.00  0.00    +0.275 C 
ATOM      6  O   LIG    1       27.021 -14.038   1.864  0.00  0.00    -0.266 OA
ATOM      7  C   LIG    1       26.074 -13.938   4.085  0.00  0.00    +0.111 C 
ATOM      8  C   LIG    1       26.278 -13.365   5.280  0.00  0.00    +0.116 C 
ATOM      9  N   LIG    1       27.424 -12.662   5.557  0.00  0.00    -0.312 N 
ATOM     10  H   LIG    1       27.542 -12.187   6.444  0.00  0.00    +0.170 HD
ENDROOT
BRANCH   7  11
ATOM     11  N   LIG    1       24.905 -14.621   3.743  0.00  0.00    -0.322 N 
BRANCH  11  12
ATOM     12  C   LIG    1       24.711 -16.068   4.026  0.00  0.00    +0.121 C 
BRANCH  12  13
ATOM     13  C   LIG    1       25.621 -17.082   3.313  0.00  0.00    +0.127 C 
ATOM     14 CL   LIG    1       25.073 -18.771   3.354  0.00  0.00    -0.124 Cl
ENDBRANCH  12  13
ENDBRANCH  11  12
BRANCH  11  15
ATOM     15  C   LIG    1       23.719 -13.964   3.131  0.00  0.00    +0.121 C 
BRANCH  15  16
ATOM     16  C   LIG    1       23.622 -12.434   3.198  0.00  0.00    +0.127 C 
ATOM     17 CL   LIG    1       24.504 -11.627   1.879  0.00  0.00    -0.124 Cl
ENDBRANCH  15  16
ENDBRANCH  11  15
ENDBRANCH   7  11
TORSDOF 5
ENDMDL
MODEL 2
REMARK VINA RESULT:      -3.1      3.135      4.220
REMARK  Name = *****
REMARK                            x       y       z     vdW  Elec       q    Type
REMARK                         _______ _______ _______ _____ _____    ______ ____
ROOT
ATOM      1  O   LIG    1       23.820 -11.604   3.189  0.00  0.00    -0.247 OA
ATOM      2  C   LIG    1       24.428 -12.672   3.282  0.00  0.00    +0.327 C 
ATOM      3  N   LIG    1       25.634 -12.882   2.698  0.00  0.00    -0.274 N 
ATOM      4  H   LIG    1       25.992 -12.148   2.105  0.00  0.00    +0.173 HD
ATOM      5  C   LIG    1       26.247 -14.095   2.593  0.00  0.00    +0.275 C 
ATOM      6  O   LIG    1       27.178 -14.274   1.813  0.00  0.00    -0.266 OA
ATOM      7  C   LIG    1       25.688 -15.204   3.473  0.00  0.00    +0.111 C 
ATOM      8  C   LIG    1       24.534 -14.939   4.103  0.00  0.00    +0.116 C 
ATOM      9  N   LIG    1       23.907 -13.724   3.980  0.00  0.00    -0.312 N 
ATOM     10  H   LIG    1       23.009 -13.556   4.416  0.00  0.00    +0.170 HD
ENDROOT
BRANCH   7  11
ATOM     11  N   LIG    1       26.337 -16.439   3.532  0.00  0.00    -0.322 N 
BRANCH  11  12
ATOM     12  C   LIG    1       27.655 -16.621   4.194  0.00  0.00    +0.121 C 
BRANCH  12  13
ATOM     13  C   LIG    1       28.064 -18.036   4.637  0.00  0.00    +0.127 C 
ATOM     14 CL   LIG    1       29.452 -18.129   5.740  0.00  0.00    -0.124 Cl
ENDBRANCH  12  13
ENDBRANCH  11  12
BRANCH  11  15
ATOM     15  C   LIG    1       25.749 -17.700   3.004  0.00  0.00    +0.121 C 
BRANCH  15  16
ATOM     16  C   LIG    1       24.616 -18.361   3.800  0.00  0.00    +0.127 C 
ATOM     17 CL   LIG    1       24.750 -20.136   3.846  0.00  0.00    -0.124 Cl
ENDBRANCH  15  16
ENDBRANCH  11  15
ENDBRANCH   7  11
TORSDOF 5
ENDMDL
MODEL 3
REMARK VINA RESULT:      -3.1      3.216      4.833
REMARK  Name = *****
REMARK                            x       y       z     vdW  Elec       q    Type
REMARK                         _______ _______ _______ _____ _____    ______ ____
ROOT
ATOM      1  O   LIG    1       24.354 -19.414   3.612  0.00  0.00    -0.247 OA
ATOM      2  C   LIG    1       24.666 -18.223   3.655  0.00  0.00    +0.327 C 
ATOM      3  N   LIG    1       23.828 -17.261   4.113  0.00  0.00    -0.274 N 
ATOM      4  H   LIG    1       22.889 -17.545   4.351  0.00  0.00    +0.173 HD
ATOM      5  C   LIG    1       24.040 -15.920   3.991  0.00  0.00    +0.275 C 
ATOM      6  O   LIG    1       23.130 -15.112   4.155  0.00  0.00    -0.266 OA
ATOM      7  C   LIG    1       25.453 -15.500   3.610  0.00  0.00    +0.111 C 
ATOM      8  C   LIG    1       26.285 -16.482   3.236  0.00  0.00    +0.116 C 
ATOM      9  N   LIG    1       25.891 -17.797   3.224  0.00  0.00    -0.312 N 
ATOM     10  H   LIG    1       26.511 -18.523   2.887  0.00  0.00    +0.170 HD
ENDROOT
BRANCH   7  11
ATOM     11  N   LIG    1       25.795 -14.146   3.592  0.00  0.00    -0.322 N 
BRANCH  11  12
ATOM     12  C   LIG    1       26.217 -13.411   4.814  0.00  0.00    +0.121 C 
BRANCH  12  13
ATOM     13  C   LIG    1       27.706 -13.425   5.199  0.00  0.00    +0.127 C 
ATOM     14 CL   LIG    1       28.826 -12.796   3.973  0.00  0.00    -0.124 Cl
ENDBRANCH  12  13
ENDBRANCH  11  12
BRANCH  11  15
ATOM     15  C   LIG    1       25.839 -13.326   2.352  0.00  0.00    +0.121 C 
BRANCH  15  16
ATOM     16  C   LIG    1       24.537 -12.679   1.863  0.00  0.00    +0.127 C 
ATOM     17 CL   LIG    1       23.767 -11.657   3.100  0.00  0.00    -0.124 Cl
ENDBRANCH  15  16
ENDBRANCH  11  15
ENDBRANCH   7  11
TORSDOF 5
ENDMDL
MODEL 4
REMARK VINA RESULT:      -3.1      3.167      5.171
REMARK  Name = *****
REMARK                            x       y       z     vdW  Elec       q    Type
REMARK                         _______ _______ _______ _____ _____    ______ ____
ROOT
ATOM      1  O   LIG    1       24.325 -19.388   3.609  0.00  0.00    -0.247 OA
ATOM      2  C   LIG    1       24.658 -18.202   3.653  0.00  0.00    +0.327 C 
ATOM      3  N   LIG    1       23.837 -17.226   4.113  0.00  0.00    -0.274 N 
ATOM      4  H   LIG    1       22.893 -17.494   4.353  0.00  0.00    +0.173 HD
ATOM      5  C   LIG    1       24.071 -15.889   3.991  0.00  0.00    +0.275 C 
ATOM      6  O   LIG    1       23.175 -15.066   4.158  0.00  0.00    -0.266 OA
ATOM      7  C   LIG    1       25.490 -15.492   3.608  0.00  0.00    +0.111 C 
ATOM      8  C   LIG    1       26.305 -16.489   3.232  0.00  0.00    +0.116 C 
ATOM      9  N   LIG    1       25.888 -17.797   3.220  0.00  0.00    -0.312 N 
ATOM     10  H   LIG    1       26.496 -18.533   2.881  0.00  0.00    +0.170 HD
ENDROOT
BRANCH   7  11
ATOM     11  N   LIG    1       25.855 -14.145   3.591  0.00  0.00    -0.322 N 
BRANCH  11  12
ATOM     12  C   LIG    1       25.848 -13.329   2.348  0.00  0.00    +0.121 C 
BRANCH  12  13
ATOM     13  C   LIG    1       24.518 -12.715   1.881  0.00  0.00    +0.127 C 
ATOM     14 CL   LIG    1       23.803 -11.505   2.967  0.00  0.00    -0.124 Cl
ENDBRANCH  12  13
ENDBRANCH  11  12
BRANCH  11  15
ATOM     15  C   LIG    1       26.216 -13.377   4.812  0.00  0.00    +0.121 C 
BRANCH  15  16
ATOM     16  C   LIG    1       27.689 -13.346   5.241  0.00  0.00    +0.127 C 
ATOM     17 CL   LIG    1       28.791 -12.964   3.896  0.00  0.00    -0.124 Cl
ENDBRANCH  15  16
ENDBRANCH  11  15
ENDBRANCH   7  11
TORSDOF 5
ENDMDL
MODEL 5
REMARK VINA RESULT:      -3.0      3.170      4.209
REMARK  Name = *****
REMARK                            x       y       z     vdW  Elec       q    Type
REMARK                         _______ _______ _______ _____ _____    ______ ____
ROOT
ATOM      1  O   LIG    1       23.735 -11.690   3.274  0.00  0.00    -0.247 OA
ATOM      2  C   LIG    1       24.346 -12.758   3.359  0.00  0.00    +0.327 C 
ATOM      3  N   LIG    1       25.549 -12.963   2.768  0.00  0.00    -0.274 N 
ATOM      4  H   LIG    1       25.903 -12.225   2.178  0.00  0.00    +0.173 HD
ATOM      5  C   LIG    1       26.164 -14.174   2.654  0.00  0.00    +0.275 C 
ATOM      6  O   LIG    1       27.091 -14.348   1.868  0.00  0.00    -0.266 OA
ATOM      7  C   LIG    1       25.610 -15.289   3.530  0.00  0.00    +0.111 C 
ATOM      8  C   LIG    1       24.459 -15.029   4.166  0.00  0.00    +0.116 C 
ATOM      9  N   LIG    1       23.829 -13.815   4.052  0.00  0.00    -0.312 N 
ATOM     10  H   LIG    1       22.932 -13.651   4.493  0.00  0.00    +0.170 HD
ENDROOT
BRANCH   7  11
ATOM     11  N   LIG    1       26.261 -16.523   3.579  0.00  0.00    -0.322 N 
BRANCH  11  12
ATOM     12  C   LIG    1       25.685 -17.756   2.980  0.00  0.00    +0.121 C 
BRANCH  12  13
ATOM     13  C   LIG    1       24.556 -18.479   3.735  0.00  0.00    +0.127 C 
ATOM     14 CL   LIG    1       24.982 -20.053   4.439  0.00  0.00    -0.124 Cl
ENDBRANCH  12  13
ENDBRANCH  11  12
BRANCH  11  15
ATOM     15  C   LIG    1       27.614 -16.716   4.167  0.00  0.00    +0.121 C 
BRANCH  15  16
ATOM     16  C   LIG    1       28.010 -18.124   4.631  0.00  0.00    +0.127 C 
ATOM     17 CL   LIG    1       29.418 -18.120   5.720  0.00  0.00    -0.124 Cl
ENDBRANCH  15  16
ENDBRANCH  11  15
ENDBRANCH   7  11
TORSDOF 5
ENDMDL
MODEL 6
REMARK VINA RESULT:      -3.0      3.095      5.322
REMARK  Name = *****
REMARK                            x       y       z     vdW  Elec       q    Type
REMARK                         _______ _______ _______ _____ _____    ______ ____
ROOT
ATOM      1  O   LIG    1       22.067 -18.579   4.570  0.00  0.00    -0.247 OA
ATOM      2  C   LIG    1       22.814 -17.635   4.305  0.00  0.00    +0.327 C 
ATOM      3  N   LIG    1       23.994 -17.792   3.656  0.00  0.00    -0.274 N 
ATOM      4  H   LIG    1       24.288 -18.738   3.460  0.00  0.00    +0.173 HD
ATOM      5  C   LIG    1       24.946 -16.826   3.524  0.00  0.00    +0.275 C 
ATOM      6  O   LIG    1       26.095 -17.102   3.191  0.00  0.00    -0.266 OA
ATOM      7  C   LIG    1       24.502 -15.405   3.844  0.00  0.00    +0.111 C 
ATOM      8  C   LIG    1       23.295 -15.273   4.414  0.00  0.00    +0.116 C 
ATOM      9  N   LIG    1       22.495 -16.358   4.670  0.00  0.00    -0.312 N 
ATOM     10  H   LIG    1       21.610 -16.250   5.151  0.00  0.00    +0.170 HD
ENDROOT
BRANCH   7  11
ATOM     11  N   LIG    1       25.369 -14.336   3.609  0.00  0.00    -0.322 N 
BRANCH  11  12
ATOM     12  C   LIG    1       25.221 -13.427   2.441  0.00  0.00    +0.121 C 
BRANCH  12  13
ATOM     13  C   LIG    1       24.234 -12.253   2.547  0.00  0.00    +0.127 C 
ATOM     14 CL   LIG    1       23.779 -11.773   4.196  0.00  0.00    -0.124 Cl
ENDBRANCH  12  13
ENDBRANCH  11  12
BRANCH  11  15
ATOM     15  C   LIG    1       26.475 -13.958   4.529  0.00  0.00    +0.121 C 
BRANCH  15  16
ATOM     16  C   LIG    1       27.918 -14.199   4.066  0.00  0.00    +0.127 C 
ATOM     17 CL   LIG    1       28.874 -12.699   3.980  0.00  0.00    -0.124 Cl
ENDBRANCH  15  16
ENDBRANCH  11  15
ENDBRANCH   7  11
TORSDOF 5
ENDMDL
MODEL 7
REMARK VINA RESULT:      -3.0      3.009      4.901
REMARK  Name = *****
REMARK                            x       y       z     vdW  Elec       q    Type
REMARK                         _______ _______ _______ _____ _____    ______ ____
ROOT
ATOM      1  O   LIG    1       22.029 -18.151   4.671  0.00  0.00    -0.247 OA
ATOM      2  C   LIG    1       22.831 -17.263   4.375  0.00  0.00    +0.327 C 
ATOM      3  N   LIG    1       23.990 -17.510   3.716  0.00  0.00    -0.274 N 
ATOM      4  H   LIG    1       24.219 -18.477   3.537  0.00  0.00    +0.173 HD
ATOM      5  C   LIG    1       24.999 -16.611   3.550  0.00  0.00    +0.275 C 
ATOM      6  O   LIG    1       26.124 -16.967   3.209  0.00  0.00    -0.266 OA
ATOM      7  C   LIG    1       24.653 -15.157   3.842  0.00  0.00    +0.111 C 
ATOM      8  C   LIG    1       23.465 -14.935   4.423  0.00  0.00    +0.116 C 
ATOM      9  N   LIG    1       22.600 -15.960   4.714  0.00  0.00    -0.312 N 
ATOM     10  H   LIG    1       21.730 -15.784   5.203  0.00  0.00    +0.170 HD
ENDROOT
BRANCH   7  11
ATOM     11  N   LIG    1       25.583 -14.152   3.571  0.00  0.00    -0.322 N 
BRANCH  11  12
ATOM     12  C   LIG    1       26.604 -13.718   4.561  0.00  0.00    +0.121 C 
BRANCH  12  13
ATOM     13  C   LIG    1       28.050 -13.512   4.079  0.00  0.00    +0.127 C 
ATOM     14 CL   LIG    1       28.923 -12.154   4.819  0.00  0.00    -0.124 Cl
ENDBRANCH  12  13
ENDBRANCH  11  12
BRANCH  11  15
ATOM     15  C   LIG    1       25.692 -13.468   2.255  0.00  0.00    +0.121 C 
BRANCH  15  16
ATOM     16  C   LIG    1       24.556 -12.530   1.828  0.00  0.00    +0.127 C 
ATOM     17 CL   LIG    1       23.832 -11.655   3.199  0.00  0.00    -0.124 Cl
ENDBRANCH  15  16
ENDBRANCH  11  15
ENDBRANCH   7  11
TORSDOF 5
ENDMDL
MODEL 8
REMARK VINA RESULT:      -2.7      3.664      5.523
REMARK  Name = *****
REMARK                            x       y       z     vdW  Elec       q    Type
REMARK                         _______ _______ _______ _____ _____    ______ ____
ROOT
ATOM      1  O   LIG    1       24.233 -21.020   3.573  0.00  0.00    -0.247 OA
ATOM      2  C   LIG    1       24.427 -19.805   3.647  0.00  0.00    +0.327 C 
ATOM      3  N   LIG    1       23.505 -18.944   4.142  0.00  0.00    -0.274 N 
ATOM      4  H   LIG    1       22.602 -19.326   4.383  0.00  0.00    +0.173 HD
ATOM      5  C   LIG    1       23.581 -17.586   4.056  0.00  0.00    +0.275 C 
ATOM      6  O   LIG    1       22.598 -16.877   4.255  0.00  0.00    -0.266 OA
ATOM      7  C   LIG    1       24.939 -17.017   3.670  0.00  0.00    +0.111 C 
ATOM      8  C   LIG    1       25.859 -17.902   3.258  0.00  0.00    +0.116 C 
ATOM      9  N   LIG    1       25.597 -19.248   3.213  0.00  0.00    -0.312 N 
ATOM     10  H   LIG    1       26.281 -19.900   2.848  0.00  0.00    +0.170 HD
ENDROOT
BRANCH   7  11
ATOM     11  N   LIG    1       25.145 -15.636   3.687  0.00  0.00    -0.322 N 
BRANCH  11  12
ATOM     12  C   LIG    1       26.433 -15.014   3.281  0.00  0.00    +0.121 C 
BRANCH  12  13
ATOM     13  C   LIG    1       27.193 -14.163   4.314  0.00  0.00    +0.127 C 
ATOM     14 CL   LIG    1       28.644 -13.335   3.712  0.00  0.00    -0.124 Cl
ENDBRANCH  12  13
ENDBRANCH  11  12
BRANCH  11  15
ATOM     15  C   LIG    1       24.088 -14.653   4.043  0.00  0.00    +0.121 C 
BRANCH  15  16
ATOM     16  C   LIG    1       23.895 -13.433   3.133  0.00  0.00    +0.127 C 
ATOM     17 CL   LIG    1       23.832 -11.901   4.038  0.00  0.00    -0.124 Cl
ENDBRANCH  15  16
ENDBRANCH  11  15
ENDBRANCH   7  11
TORSDOF 5
ENDMDL
MODEL 9
REMARK VINA RESULT:      -2.6      5.017      7.212
REMARK  Name = *****
REMARK                            x       y       z     vdW  Elec       q    Type
REMARK                         _______ _______ _______ _____ _____    ______ ____
ROOT
ATOM      1  O   LIG    1       20.930 -21.382   4.815  0.00  0.00    -0.247 OA
ATOM      2  C   LIG    1       22.029 -20.836   4.701  0.00  0.00    +0.327 C 
ATOM      3  N   LIG    1       22.184 -19.489   4.709  0.00  0.00    -0.274 N 
ATOM      4  H   LIG    1       21.343 -18.931   4.734  0.00  0.00    +0.173 HD
ATOM      5  C   LIG    1       23.334 -18.835   4.381  0.00  0.00    +0.275 C 
ATOM      6  O   LIG    1       23.334 -17.634   4.125  0.00  0.00    -0.266 OA
ATOM      7  C   LIG    1       24.593 -19.688   4.324  0.00  0.00    +0.111 C 
ATOM      8  C   LIG    1       24.417 -21.015   4.398  0.00  0.00    +0.116 C 
ATOM      9  N   LIG    1       23.170 -21.571   4.544  0.00  0.00    -0.312 N 
ATOM     10  H   LIG    1       23.045 -22.576   4.543  0.00  0.00    +0.170 HD
ENDROOT
BRANCH   7  11
ATOM     11  N   LIG    1       25.836 -19.081   4.128  0.00  0.00    -0.322 N 
BRANCH  11  12
ATOM     12  C   LIG    1       27.085 -19.597   4.747  0.00  0.00    +0.121 C 
BRANCH  12  13
ATOM     13  C   LIG    1       27.008 -20.201   6.159  0.00  0.00    +0.127 C 
ATOM     14 CL   LIG    1       28.492 -20.981   6.747  0.00  0.00    -0.124 Cl
ENDBRANCH  12  13
ENDBRANCH  11  12
BRANCH  11  15
ATOM     15  C   LIG    1       26.046 -17.911   3.234  0.00  0.00    +0.121 C 
BRANCH  15  16
ATOM     16  C   LIG    1       26.999 -16.803   3.701  0.00  0.00    +0.127 C 
ATOM     17 CL   LIG    1       26.341 -15.170   3.438  0.00  0.00    -0.124 Cl
ENDBRANCH  15  16
ENDBRANCH  11  15
ENDBRANCH   7  11
TORSDOF 5
ENDMDL
