MODEL 1
REMARK VINA RESULT:      -7.2      0.000      0.000
REMARK  Name = *****
REMARK                            x       y       z     vdW  Elec       q    Type
REMARK                         _______ _______ _______ _____ _____    ______ ____
ROOT
ATOM      1  S   LIG    1       29.121 -21.335   6.515  0.00  0.00    -0.041 S 
ENDROOT
BRANCH   1   2
ATOM      2  C   LIG    1       27.519 -21.099   7.221  0.00  0.00    +0.132 A 
ATOM      3  C   LIG    1       26.396 -20.911   6.446  0.00  0.00    +0.118 A 
ATOM      4  C   LIG    1       25.181 -20.640   7.045  0.00  0.00    +0.182 A 
ATOM      5  N   LIG    1       24.213 -20.406   6.108  0.00  0.00    -0.216 NA
ATOM      6  C   LIG    1       24.810 -20.579   4.949  0.00  0.00    +0.199 A 
ATOM      7  N   LIG    1       25.004 -20.612   8.377  0.00  0.00    -0.214 NA
ATOM      8  C   LIG    1       26.125 -20.878   9.056  0.00  0.00    +0.225 A 
ATOM      9  N   LIG    1       26.126 -20.922   5.105  0.00  0.00    -0.341 N 
ATOM     10  H   LIG    1       26.783 -21.134   4.362  0.00  0.00    +0.167 HD
ATOM     11  N   LIG    1       27.365 -21.096   8.565  0.00  0.00    -0.227 NA
ENDBRANCH   1   2
BRANCH   1  14
ATOM     12  C   LIG    1       29.412 -18.115   6.478  0.00  0.00    +0.151 C 
ATOM     13  N   LIG    1       30.075 -18.950   7.453  0.00  0.00    -0.323 N 
ATOM     14  C   LIG    1       30.046 -20.322   7.586  0.00  0.00    +0.182 A 
ATOM     15  C   LIG    1       30.834 -20.569   8.702  0.00  0.00    +0.399 A 
ATOM     16  N   LIG    1       31.349 -19.393   9.216  0.00  0.00    -0.170 NA
ATOM     17  C   LIG    1       30.884 -18.448   8.438  0.00  0.00    +0.207 A 
BRANCH  15  18
ATOM     18  N   LIG    1       31.184 -21.813   9.352  0.00  0.00    +0.103 N 
ATOM     19  O   LIG    1       30.606 -22.114  10.401  0.00  0.00    -0.575 OA
ATOM     20  O   LIG    1       32.072 -22.502   8.806  0.00  0.00    +0.043 OA
ENDBRANCH  15  18
ENDBRANCH   1  14
TORSDOF 3
ENDMDL
MODEL 2
REMARK VINA RESULT:      -7.0      1.806      2.179
REMARK  Name = *****
REMARK                            x       y       z     vdW  Elec       q    Type
REMARK                         _______ _______ _______ _____ _____    ______ ____
ROOT
ATOM      1  S   LIG    1       29.057 -21.896   7.680  0.00  0.00    -0.041 S 
ENDROOT
BRANCH   1   2
ATOM      2  C   LIG    1       27.329 -21.640   7.942  0.00  0.00    +0.132 A 
ATOM      3  C   LIG    1       26.372 -22.444   7.361  0.00  0.00    +0.118 A 
ATOM      4  C   LIG    1       25.032 -22.149   7.522  0.00  0.00    +0.182 A 
ATOM      5  N   LIG    1       24.250 -23.012   6.806  0.00  0.00    -0.216 NA
ATOM      6  C   LIG    1       25.092 -23.856   6.251  0.00  0.00    +0.199 A 
ATOM      7  N   LIG    1       24.585 -21.137   8.286  0.00  0.00    -0.214 NA
ATOM      8  C   LIG    1       25.574 -20.452   8.873  0.00  0.00    +0.225 A 
ATOM      9  N   LIG    1       26.388 -23.573   6.589  0.00  0.00    -0.341 N 
ATOM     10  H   LIG    1       27.209 -24.098   6.309  0.00  0.00    +0.167 HD
ATOM     11  N   LIG    1       26.906 -20.627   8.731  0.00  0.00    -0.227 NA
ENDBRANCH   1   2
BRANCH   1  14
ATOM     12  C   LIG    1       28.086 -19.894   5.333  0.00  0.00    +0.151 C 
ATOM     13  N   LIG    1       29.036 -19.506   6.350  0.00  0.00    -0.323 N 
ATOM     14  C   LIG    1       29.540 -20.247   7.398  0.00  0.00    +0.182 A 
ATOM     15  C   LIG    1       30.382 -19.365   8.062  0.00  0.00    +0.399 A 
ATOM     16  N   LIG    1       30.413 -18.137   7.427  0.00  0.00    -0.170 NA
ATOM     17  C   LIG    1       29.607 -18.262   6.402  0.00  0.00    +0.207 A 
BRANCH  15  18
ATOM     18  N   LIG    1       31.194 -19.546   9.244  0.00  0.00    +0.103 N 
ATOM     19  O   LIG    1       32.173 -20.295   9.179  0.00  0.00    -0.575 OA
ATOM     20  O   LIG    1       30.833 -18.935  10.273  0.00  0.00    +0.043 OA
ENDBRANCH  15  18
ENDBRANCH   1  14
TORSDOF 3
ENDMDL
MODEL 3
REMARK VINA RESULT:      -6.7      3.326      5.943
REMARK  Name = *****
REMARK                            x       y       z     vdW  Elec       q    Type
REMARK                         _______ _______ _______ _____ _____    ______ ____
ROOT
ATOM      1  S   LIG    1       25.592 -21.099   4.902  0.00  0.00    -0.041 S 
ENDROOT
BRANCH   1   2
ATOM      2  C   LIG    1       26.792 -20.883   6.179  0.00  0.00    +0.132 A 
ATOM      3  C   LIG    1       27.840 -19.995   6.059  0.00  0.00    +0.118 A 
ATOM      4  C   LIG    1       28.804 -19.928   7.047  0.00  0.00    +0.182 A 
ATOM      5  N   LIG    1       29.796 -19.051   6.705  0.00  0.00    -0.216 NA
ATOM      6  C   LIG    1       29.424 -18.549   5.548  0.00  0.00    +0.199 A 
ATOM      7  N   LIG    1       28.750 -20.645   8.182  0.00  0.00    -0.214 NA
ATOM      8  C   LIG    1       27.665 -21.425   8.254  0.00  0.00    +0.225 A 
ATOM      9  N   LIG    1       28.226 -19.065   5.134  0.00  0.00    -0.341 N 
ATOM     10  H   LIG    1       27.722 -18.811   4.291  0.00  0.00    +0.167 HD
ATOM     11  N   LIG    1       26.704 -21.602   7.321  0.00  0.00    -0.227 NA
ENDBRANCH   1   2
BRANCH   1  14
ATOM     12  C   LIG    1       22.851 -20.257   6.396  0.00  0.00    +0.151 C 
ATOM     13  N   LIG    1       23.327 -21.620   6.343  0.00  0.00    -0.323 N 
ATOM     14  C   LIG    1       24.467 -22.121   5.751  0.00  0.00    +0.182 A 
ATOM     15  C   LIG    1       24.398 -23.488   5.985  0.00  0.00    +0.399 A 
ATOM     16  N   LIG    1       23.269 -23.808   6.717  0.00  0.00    -0.170 NA
ATOM     17  C   LIG    1       22.660 -22.667   6.923  0.00  0.00    +0.207 A 
BRANCH  15  18
ATOM     18  N   LIG    1       25.296 -24.555   5.607  0.00  0.00    +0.103 N 
ATOM     19  O   LIG    1       25.127 -25.111   4.518  0.00  0.00    -0.575 OA
ATOM     20  O   LIG    1       26.187 -24.858   6.429  0.00  0.00    +0.043 OA
ENDBRANCH  15  18
ENDBRANCH   1  14
TORSDOF 3
ENDMDL
MODEL 4
REMARK VINA RESULT:      -6.5      3.971      5.202
REMARK  Name = *****
REMARK                            x       y       z     vdW  Elec       q    Type
REMARK                         _______ _______ _______ _____ _____    ______ ____
ROOT
ATOM      1  S   LIG    1       25.740 -21.098   8.335  0.00  0.00    -0.041 S 
ENDROOT
BRANCH   1   2
ATOM      2  C   LIG    1       24.587 -22.254   7.663  0.00  0.00    +0.132 A 
ATOM      3  C   LIG    1       24.984 -23.463   7.134  0.00  0.00    +0.118 A 
ATOM      4  C   LIG    1       24.055 -24.294   6.538  0.00  0.00    +0.182 A 
ATOM      5  N   LIG    1       24.656 -25.401   6.006  0.00  0.00    -0.216 NA
ATOM      6  C   LIG    1       25.929 -25.278   6.312  0.00  0.00    +0.199 A 
ATOM      7  N   LIG    1       22.739 -24.023   6.498  0.00  0.00    -0.214 NA
ATOM      8  C   LIG    1       22.427 -22.868   7.099  0.00  0.00    +0.225 A 
ATOM      9  N   LIG    1       26.169 -24.136   7.027  0.00  0.00    -0.341 N 
ATOM     10  H   LIG    1       27.065 -23.839   7.401  0.00  0.00    +0.167 HD
ATOM     11  N   LIG    1       23.266 -21.966   7.654  0.00  0.00    -0.227 NA
ENDBRANCH   1   2
BRANCH   1  14
ATOM     12  C   LIG    1       28.770 -20.112   7.785  0.00  0.00    +0.151 C 
ATOM     13  N   LIG    1       27.751 -20.118   6.761  0.00  0.00    -0.323 N 
ATOM     14  C   LIG    1       26.430 -20.503   6.851  0.00  0.00    +0.182 A 
ATOM     15  C   LIG    1       25.938 -20.327   5.564  0.00  0.00    +0.399 A 
ATOM     16  N   LIG    1       26.916 -19.827   4.724  0.00  0.00    -0.170 NA
ATOM     17  C   LIG    1       27.981 -19.704   5.475  0.00  0.00    +0.207 A 
BRANCH  15  18
ATOM     18  N   LIG    1       24.621 -20.565   5.019  0.00  0.00    +0.103 N 
ATOM     19  O   LIG    1       23.713 -19.779   5.302  0.00  0.00    -0.575 OA
ATOM     20  O   LIG    1       24.485 -21.578   4.298  0.00  0.00    +0.043 OA
ENDBRANCH  15  18
ENDBRANCH   1  14
TORSDOF 3
ENDMDL
MODEL 5
REMARK VINA RESULT:      -6.2      2.713      3.518
REMARK  Name = *****
REMARK                            x       y       z     vdW  Elec       q    Type
REMARK                         _______ _______ _______ _____ _____    ______ ____
ROOT
ATOM      1  S   LIG    1       26.049 -20.836   8.294  0.00  0.00    -0.041 S 
ENDROOT
BRANCH   1   2
ATOM      2  C   LIG    1       25.599 -22.371   7.545  0.00  0.00    +0.132 A 
ATOM      3  C   LIG    1       24.294 -22.678   7.227  0.00  0.00    +0.118 A 
ATOM      4  C   LIG    1       23.981 -23.927   6.727  0.00  0.00    +0.182 A 
ATOM      5  N   LIG    1       22.632 -24.061   6.552  0.00  0.00    -0.216 NA
ATOM      6  C   LIG    1       22.126 -22.897   6.894  0.00  0.00    +0.199 A 
ATOM      7  N   LIG    1       24.903 -24.868   6.459  0.00  0.00    -0.214 NA
ATOM      8  C   LIG    1       26.151 -24.464   6.726  0.00  0.00    +0.225 A 
ATOM      9  N   LIG    1       23.099 -22.014   7.275  0.00  0.00    -0.341 N 
ATOM     10  H   LIG    1       22.959 -21.049   7.552  0.00  0.00    +0.167 HD
ATOM     11  N   LIG    1       26.549 -23.293   7.268  0.00  0.00    -0.227 NA
ENDBRANCH   1   2
BRANCH   1  14
ATOM     12  C   LIG    1       25.789 -20.084   5.161  0.00  0.00    +0.151 C 
ATOM     13  N   LIG    1       27.046 -20.053   5.871  0.00  0.00    -0.323 N 
ATOM     14  C   LIG    1       27.306 -20.349   7.193  0.00  0.00    +0.182 A 
ATOM     15  C   LIG    1       28.669 -20.121   7.329  0.00  0.00    +0.399 A 
ATOM     16  N   LIG    1       29.227 -19.726   6.127  0.00  0.00    -0.170 NA
ATOM     17  C   LIG    1       28.232 -19.708   5.277  0.00  0.00    +0.207 A 
BRANCH  15  18
ATOM     18  N   LIG    1       29.535 -20.248   8.479  0.00  0.00    +0.103 N 
ATOM     19  O   LIG    1       29.931 -19.221   9.037  0.00  0.00    -0.575 OA
ATOM     20  O   LIG    1       29.841 -21.409   8.827  0.00  0.00    +0.043 OA
ENDBRANCH  15  18
ENDBRANCH   1  14
TORSDOF 3
ENDMDL
MODEL 6
REMARK VINA RESULT:      -6.1      2.065      2.596
REMARK  Name = *****
REMARK                            x       y       z     vdW  Elec       q    Type
REMARK                         _______ _______ _______ _____ _____    ______ ____
ROOT
ATOM      1  S   LIG    1       29.015 -19.283   6.437  0.00  0.00    -0.041 S 
ENDROOT
BRANCH   1   2
ATOM      2  C   LIG    1       27.485 -19.963   6.997  0.00  0.00    +0.132 A 
ATOM      3  C   LIG    1       26.479 -20.323   6.126  0.00  0.00    +0.118 A 
ATOM      4  C   LIG    1       25.266 -20.765   6.618  0.00  0.00    +0.182 A 
ATOM      5  N   LIG    1       24.379 -20.993   5.602  0.00  0.00    -0.216 NA
ATOM      6  C   LIG    1       25.051 -20.742   4.500  0.00  0.00    +0.199 A 
ATOM      7  N   LIG    1       25.018 -20.936   7.928  0.00  0.00    -0.214 NA
ATOM      8  C   LIG    1       26.069 -20.636   8.700  0.00  0.00    +0.225 A 
ATOM      9  N   LIG    1       26.340 -20.368   4.767  0.00  0.00    -0.341 N 
ATOM     10  H   LIG    1       27.056 -20.152   4.082  0.00  0.00    +0.167 HD
ATOM     11  N   LIG    1       27.268 -20.144   8.319  0.00  0.00    -0.227 NA
ENDBRANCH   1   2
BRANCH   1  14
ATOM     12  C   LIG    1       29.746 -22.238   7.525  0.00  0.00    +0.151 C 
ATOM     13  N   LIG    1       30.250 -21.031   8.139  0.00  0.00    -0.323 N 
ATOM     14  C   LIG    1       30.022 -19.717   7.789  0.00  0.00    +0.182 A 
ATOM     15  C   LIG    1       30.776 -18.989   8.700  0.00  0.00    +0.399 A 
ATOM     16  N   LIG    1       31.420 -19.827   9.592  0.00  0.00    -0.170 NA
ATOM     17  C   LIG    1       31.074 -21.038   9.234  0.00  0.00    +0.207 A 
BRANCH  15  18
ATOM     18  N   LIG    1       30.957 -17.562   8.846  0.00  0.00    +0.103 N 
ATOM     19  O   LIG    1       32.015 -17.059   8.461  0.00  0.00    -0.575 OA
ATOM     20  O   LIG    1       30.019 -16.929   9.376  0.00  0.00    +0.043 OA
ENDBRANCH  15  18
ENDBRANCH   1  14
TORSDOF 3
ENDMDL
MODEL 7
REMARK VINA RESULT:      -6.0      3.203      6.168
REMARK  Name = *****
REMARK                            x       y       z     vdW  Elec       q    Type
REMARK                         _______ _______ _______ _____ _____    ______ ____
ROOT
ATOM      1  S   LIG    1       25.800 -20.317   4.398  0.00  0.00    -0.041 S 
ENDROOT
BRANCH   1   2
ATOM      2  C   LIG    1       26.520 -20.236   6.009  0.00  0.00    +0.132 A 
ATOM      3  C   LIG    1       27.828 -19.851   6.209  0.00  0.00    +0.118 A 
ATOM      4  C   LIG    1       28.373 -19.891   7.478  0.00  0.00    +0.182 A 
ATOM      5  N   LIG    1       29.697 -19.551   7.455  0.00  0.00    -0.216 NA
ATOM      6  C   LIG    1       29.952 -19.258   6.199  0.00  0.00    +0.199 A 
ATOM      7  N   LIG    1       27.670 -20.228   8.573  0.00  0.00    -0.214 NA
ATOM      8  C   LIG    1       26.391 -20.515   8.303  0.00  0.00    +0.225 A 
ATOM      9  N   LIG    1       28.840 -19.390   5.412  0.00  0.00    -0.341 N 
ATOM     10  H   LIG    1       28.780 -19.193   4.419  0.00  0.00    +0.167 HD
ATOM     11  N   LIG    1       25.785 -20.561   7.096  0.00  0.00    -0.227 NA
ENDBRANCH   1   2
BRANCH   1  14
ATOM     12  C   LIG    1       23.084 -18.605   4.017  0.00  0.00    +0.151 C 
ATOM     13  N   LIG    1       23.103 -19.919   4.616  0.00  0.00    -0.323 N 
ATOM     14  C   LIG    1       24.176 -20.755   4.844  0.00  0.00    +0.182 A 
ATOM     15  C   LIG    1       23.606 -21.888   5.411  0.00  0.00    +0.399 A 
ATOM     16  N   LIG    1       22.239 -21.739   5.550  0.00  0.00    -0.170 NA
ATOM     17  C   LIG    1       21.975 -20.547   5.076  0.00  0.00    +0.207 A 
BRANCH  15  18
ATOM     18  N   LIG    1       24.212 -23.120   5.864  0.00  0.00    +0.103 N 
ATOM     19  O   LIG    1       25.049 -23.668   5.141  0.00  0.00    -0.575 OA
ATOM     20  O   LIG    1       23.828 -23.562   6.969  0.00  0.00    +0.043 OA
ENDBRANCH  15  18
ENDBRANCH   1  14
TORSDOF 3
ENDMDL
MODEL 8
REMARK VINA RESULT:      -5.9      3.865      4.958
REMARK  Name = *****
REMARK                            x       y       z     vdW  Elec       q    Type
REMARK                         _______ _______ _______ _____ _____    ______ ____
ROOT
ATOM      1  S   LIG    1       26.337 -21.514   8.253  0.00  0.00    -0.041 S 
ENDROOT
BRANCH   1   2
ATOM      2  C   LIG    1       25.658 -22.924   7.435  0.00  0.00    +0.132 A 
ATOM      3  C   LIG    1       24.310 -23.043   7.175  0.00  0.00    +0.118 A 
ATOM      4  C   LIG    1       23.815 -24.205   6.615  0.00  0.00    +0.182 A 
ATOM      5  N   LIG    1       22.453 -24.158   6.511  0.00  0.00    -0.216 NA
ATOM      6  C   LIG    1       22.118 -22.966   6.955  0.00  0.00    +0.199 A 
ATOM      7  N   LIG    1       24.594 -25.232   6.234  0.00  0.00    -0.214 NA
ATOM      8  C   LIG    1       25.895 -25.007   6.453  0.00  0.00    +0.225 A 
ATOM      9  N   LIG    1       23.214 -22.241   7.334  0.00  0.00    -0.341 N 
ATOM     10  H   LIG    1       23.213 -21.287   7.680  0.00  0.00    +0.167 HD
ATOM     11  N   LIG    1       26.467 -23.935   7.044  0.00  0.00    -0.227 NA
ENDBRANCH   1   2
BRANCH   1  14
ATOM     12  C   LIG    1       29.252 -20.210   7.745  0.00  0.00    +0.151 C 
ATOM     13  N   LIG    1       28.181 -20.132   6.780  0.00  0.00    -0.323 N 
ATOM     14  C   LIG    1       26.898 -20.632   6.861  0.00  0.00    +0.182 A 
ATOM     15  C   LIG    1       26.324 -20.288   5.644  0.00  0.00    +0.399 A 
ATOM     16  N   LIG    1       27.215 -19.581   4.858  0.00  0.00    -0.170 NA
ATOM     17  C   LIG    1       28.309 -19.496   5.573  0.00  0.00    +0.207 A 
BRANCH  15  18
ATOM     18  N   LIG    1       24.999 -20.540   5.123  0.00  0.00    +0.103 N 
ATOM     19  O   LIG    1       24.875 -21.323   4.178  0.00  0.00    -0.575 OA
ATOM     20  O   LIG    1       24.056 -19.924   5.666  0.00  0.00    +0.043 OA
ENDBRANCH  15  18
ENDBRANCH   1  14
TORSDOF 3
ENDMDL
MODEL 9
REMARK VINA RESULT:      -5.9      2.571      3.109
REMARK  Name = *****
REMARK                            x       y       z     vdW  Elec       q    Type
REMARK                         _______ _______ _______ _____ _____    ______ ____
ROOT
ATOM      1  S   LIG    1       29.090 -22.028   7.057  0.00  0.00    -0.041 S 
ENDROOT
BRANCH   1   2
ATOM      2  C   LIG    1       27.454 -21.669   7.619  0.00  0.00    +0.132 A 
ATOM      3  C   LIG    1       26.364 -22.417   7.229  0.00  0.00    +0.118 A 
ATOM      4  C   LIG    1       25.094 -22.041   7.622  0.00  0.00    +0.182 A 
ATOM      5  N   LIG    1       24.148 -22.859   7.069  0.00  0.00    -0.216 NA
ATOM      6  C   LIG    1       24.827 -23.754   6.385  0.00  0.00    +0.199 A 
ATOM      7  N   LIG    1       24.850 -21.002   8.438  0.00  0.00    -0.214 NA
ATOM      8  C   LIG    1       25.966 -20.375   8.830  0.00  0.00    +0.225 A 
ATOM      9  N   LIG    1       26.176 -23.547   6.483  0.00  0.00    -0.341 N 
ATOM     10  H   LIG    1       26.903 -24.122   6.069  0.00  0.00    +0.167 HD
ATOM     11  N   LIG    1       27.239 -20.630   8.456  0.00  0.00    -0.227 NA
ENDBRANCH   1   2
BRANCH   1  14
ATOM     12  C   LIG    1       31.271 -21.288   9.326  0.00  0.00    +0.151 C 
ATOM     13  N   LIG    1       30.761 -20.318   8.385  0.00  0.00    -0.323 N 
ATOM     14  C   LIG    1       29.835 -20.488   7.377  0.00  0.00    +0.182 A 
ATOM     15  C   LIG    1       29.752 -19.237   6.781  0.00  0.00    +0.399 A 
ATOM     16  N   LIG    1       30.576 -18.328   7.418  0.00  0.00    -0.170 NA
ATOM     17  C   LIG    1       31.154 -19.005   8.378  0.00  0.00    +0.207 A 
BRANCH  15  18
ATOM     18  N   LIG    1       28.959 -18.777   5.663  0.00  0.00    +0.103 N 
ATOM     19  O   LIG    1       27.972 -19.438   5.327  0.00  0.00    -0.575 OA
ATOM     20  O   LIG    1       29.341 -17.732   5.094  0.00  0.00    +0.043 OA
ENDBRANCH  15  18
ENDBRANCH   1  14
TORSDOF 3
ENDMDL
