MODEL 1
REMARK VINA RESULT:      -8.7      0.000      0.000
REMARK  Name = *****
REMARK                            x       y       z     vdW  Elec       q    Type
REMARK                         _______ _______ _______ _____ _____    ______ ____
ROOT
ATOM      1  C   LIG    1       24.945 -26.470   6.607  0.00  0.00    -0.035 A 
ATOM      2  C   LIG    1       25.795 -26.916   7.635  0.00  0.00    +0.050 A 
ATOM      3  C   LIG    1       25.858 -28.282   7.995  0.00  0.00    +0.129 A 
ATOM      4  O   LIG    1       26.719 -28.595   9.018  0.00  0.00    -0.485 OA
ATOM      5  C   LIG    1       26.506 -29.877   9.665  0.00  0.00    +0.108 C 
ATOM      6  C   LIG    1       26.429 -30.986   8.578  0.00  0.00    +0.041 C 
ATOM      7  C   LIG    1       25.280 -30.729   7.575  0.00  0.00    +0.040 C 
ATOM      8  C   LIG    1       23.943 -31.393   7.938  0.00  0.00    +0.083 C 
ATOM      9  C   LIG    1       24.096 -32.814   8.410  0.00  0.00    +0.134 C 
ATOM     10  O   LIG    1       23.326 -33.691   8.067  0.00  0.00    -0.297 OA
ATOM     11  C   LIG    1       25.134 -33.053   9.463  0.00  0.00    +0.075 C 
ATOM     12  C   LIG    1       26.469 -32.458   9.037  0.00  0.00    +0.015 C 
ATOM     13  C   LIG    1       27.745 -30.078  10.559  0.00  0.00    +0.056 C 
ATOM     14  C   LIG    1       25.290 -29.742  10.594  0.00  0.00    +0.056 C 
ATOM     15  C   LIG    1       25.109 -29.245   7.312  0.00  0.00    +0.040 A 
ATOM     16  C   LIG    1       24.229 -28.791   6.331  0.00  0.00    +0.124 A 
ATOM     17  C   LIG    1       24.118 -27.440   6.014  0.00  0.00    +0.050 A 
ENDROOT
BRANCH   1  18
ATOM     18  C   LIG    1       24.858 -25.008   6.088  0.00  0.00    -0.010 C 
ATOM     19  C   LIG    1       26.052 -24.244   6.711  0.00  0.00    +0.016 C 
ATOM     20  C   LIG    1       25.006 -24.883   4.552  0.00  0.00    +0.016 C 
BRANCH  18  21
ATOM     21  C   LIG    1       23.469 -24.359   6.536  0.00  0.00    +0.011 C 
BRANCH  21  22
ATOM     22  C   LIG    1       23.494 -22.855   6.917  0.00  0.00    +0.001 C 
BRANCH  22  23
ATOM     23  C   LIG    1       22.789 -21.840   5.973  0.00  0.00    +0.000 C 
BRANCH  23  24
ATOM     24  C   LIG    1       23.171 -20.360   6.152  0.00  0.00    -0.000 C 
BRANCH  24  26
ATOM     25  C   LIG    1       23.467 -19.154   3.926  0.00  0.00    +0.004 C 
ATOM     26  C   LIG    1       22.532 -19.420   5.107  0.00  0.00    -0.003 C 
ENDBRANCH  24  26
ENDBRANCH  23  24
ENDBRANCH  22  23
ENDBRANCH  21  22
ENDBRANCH  18  21
ENDBRANCH   1  18
BRANCH  16  27
ATOM     27  O   LIG    1       23.486 -29.690   5.621  0.00  0.00    -0.506 OA
ATOM     28  H   LIG    1       23.013 -30.270   6.239  0.00  0.00    +0.292 HD
ENDBRANCH  16  27
TORSDOF 7
ENDMDL
MODEL 2
REMARK VINA RESULT:      -8.6      0.782      1.441
REMARK  Name = *****
REMARK                            x       y       z     vdW  Elec       q    Type
REMARK                         _______ _______ _______ _____ _____    ______ ____
ROOT
ATOM      1  C   LIG    1       24.979 -26.491   6.614  0.00  0.00    -0.035 A 
ATOM      2  C   LIG    1       25.822 -26.949   7.642  0.00  0.00    +0.050 A 
ATOM      3  C   LIG    1       25.868 -28.316   8.001  0.00  0.00    +0.129 A 
ATOM      4  O   LIG    1       26.724 -28.640   9.025  0.00  0.00    -0.485 OA
ATOM      5  C   LIG    1       26.495 -29.921   9.670  0.00  0.00    +0.108 C 
ATOM      6  C   LIG    1       26.407 -31.028   8.581  0.00  0.00    +0.041 C 
ATOM      7  C   LIG    1       25.262 -30.755   7.577  0.00  0.00    +0.040 C 
ATOM      8  C   LIG    1       23.918 -31.404   7.936  0.00  0.00    +0.083 C 
ATOM      9  C   LIG    1       24.054 -32.828   8.406  0.00  0.00    +0.134 C 
ATOM     10  O   LIG    1       23.273 -33.695   8.060  0.00  0.00    -0.297 OA
ATOM     11  C   LIG    1       25.086 -33.081   9.460  0.00  0.00    +0.075 C 
ATOM     12  C   LIG    1       26.429 -32.501   9.038  0.00  0.00    +0.015 C 
ATOM     13  C   LIG    1       27.730 -30.137  10.566  0.00  0.00    +0.056 C 
ATOM     14  C   LIG    1       25.279 -29.773  10.597  0.00  0.00    +0.056 C 
ATOM     15  C   LIG    1       25.109 -29.269   7.315  0.00  0.00    +0.040 A 
ATOM     16  C   LIG    1       24.236 -28.803   6.333  0.00  0.00    +0.124 A 
ATOM     17  C   LIG    1       24.142 -27.451   6.018  0.00  0.00    +0.050 A 
ENDROOT
BRANCH   1  18
ATOM     18  C   LIG    1       24.910 -25.027   6.097  0.00  0.00    -0.010 C 
ATOM     19  C   LIG    1       25.026 -25.096   4.554  0.00  0.00    +0.016 C 
ATOM     20  C   LIG    1       23.569 -24.320   6.408  0.00  0.00    +0.016 C 
BRANCH  18  21
ATOM     21  C   LIG    1       26.110 -24.179   6.722  0.00  0.00    +0.011 C 
BRANCH  21  22
ATOM     22  C   LIG    1       25.721 -23.039   7.700  0.00  0.00    +0.001 C 
BRANCH  22  23
ATOM     23  C   LIG    1       26.234 -21.601   7.404  0.00  0.00    +0.000 C 
BRANCH  23  24
ATOM     24  C   LIG    1       25.326 -20.716   6.533  0.00  0.00    -0.000 C 
BRANCH  24  26
ATOM     25  C   LIG    1       22.904 -20.341   5.832  0.00  0.00    +0.004 C 
ATOM     26  C   LIG    1       23.847 -20.713   6.977  0.00  0.00    -0.003 C 
ENDBRANCH  24  26
ENDBRANCH  23  24
ENDBRANCH  22  23
ENDBRANCH  21  22
ENDBRANCH  18  21
ENDBRANCH   1  18
BRANCH  16  27
ATOM     27  O   LIG    1       23.484 -29.693   5.620  0.00  0.00    -0.506 OA
ATOM     28  H   LIG    1       22.675 -29.894   6.116  0.00  0.00    +0.292 HD
ENDBRANCH  16  27
TORSDOF 7
ENDMDL
MODEL 3
REMARK VINA RESULT:      -8.4      1.519      3.255
REMARK  Name = *****
REMARK                            x       y       z     vdW  Elec       q    Type
REMARK                         _______ _______ _______ _____ _____    ______ ____
ROOT
ATOM      1  C   LIG    1       25.061 -26.869   6.566  0.00  0.00    -0.035 A 
ATOM      2  C   LIG    1       24.335 -27.950   6.032  0.00  0.00    +0.050 A 
ATOM      3  C   LIG    1       24.493 -29.261   6.536  0.00  0.00    +0.129 A 
ATOM      4  O   LIG    1       23.738 -30.234   5.928  0.00  0.00    -0.485 OA
ATOM      5  C   LIG    1       24.168 -31.604   6.137  0.00  0.00    +0.108 C 
ATOM      6  C   LIG    1       24.358 -31.849   7.661  0.00  0.00    +0.041 C 
ATOM      7  C   LIG    1       25.408 -30.890   8.270  0.00  0.00    +0.040 C 
ATOM      8  C   LIG    1       26.844 -31.434   8.297  0.00  0.00    +0.083 C 
ATOM      9  C   LIG    1       26.926 -32.868   8.746  0.00  0.00    +0.134 C 
ATOM     10  O   LIG    1       27.801 -33.257   9.497  0.00  0.00    -0.297 OA
ATOM     11  C   LIG    1       25.986 -33.825   8.080  0.00  0.00    +0.075 C 
ATOM     12  C   LIG    1       24.559 -33.299   8.146  0.00  0.00    +0.015 C 
ATOM     13  C   LIG    1       23.016 -32.468   5.587  0.00  0.00    +0.056 C 
ATOM     14  C   LIG    1       25.393 -31.855   5.245  0.00  0.00    +0.056 C 
ATOM     15  C   LIG    1       25.344 -29.524   7.614  0.00  0.00    +0.040 A 
ATOM     16  C   LIG    1       26.100 -28.460   8.104  0.00  0.00    +0.124 A 
ATOM     17  C   LIG    1       25.994 -27.178   7.572  0.00  0.00    +0.050 A 
ENDROOT
BRANCH   1  18
ATOM     18  C   LIG    1       24.905 -25.384   6.134  0.00  0.00    -0.010 C 
ATOM     19  C   LIG    1       25.019 -25.357   4.590  0.00  0.00    +0.016 C 
ATOM     20  C   LIG    1       23.527 -24.776   6.487  0.00  0.00    +0.016 C 
BRANCH  18  21
ATOM     21  C   LIG    1       26.056 -24.505   6.807  0.00  0.00    +0.011 C 
BRANCH  21  22
ATOM     22  C   LIG    1       25.607 -23.211   7.536  0.00  0.00    +0.001 C 
BRANCH  22  23
ATOM     23  C   LIG    1       25.903 -21.840   6.864  0.00  0.00    +0.000 C 
BRANCH  23  24
ATOM     24  C   LIG    1       24.967 -20.678   7.240  0.00  0.00    -0.000 C 
BRANCH  24  26
ATOM     25  C   LIG    1       22.906 -21.059   5.789  0.00  0.00    +0.004 C 
ATOM     26  C   LIG    1       23.469 -21.050   7.211  0.00  0.00    -0.003 C 
ENDBRANCH  24  26
ENDBRANCH  23  24
ENDBRANCH  22  23
ENDBRANCH  21  22
ENDBRANCH  18  21
ENDBRANCH   1  18
BRANCH  16  27
ATOM     27  O   LIG    1       26.934 -28.657   9.168  0.00  0.00    -0.506 OA
ATOM     28  H   LIG    1       27.830 -28.375   8.925  0.00  0.00    +0.292 HD
ENDBRANCH  16  27
TORSDOF 7
ENDMDL
MODEL 4
REMARK VINA RESULT:      -8.3      6.520      9.952
REMARK  Name = *****
REMARK                            x       y       z     vdW  Elec       q    Type
REMARK                         _______ _______ _______ _____ _____    ______ ____
ROOT
ATOM      1  C   LIG    1       28.596 -20.142   7.382  0.00  0.00    -0.035 A 
ATOM      2  C   LIG    1       27.852 -19.646   6.296  0.00  0.00    +0.050 A 
ATOM      3  C   LIG    1       26.502 -20.017   6.099  0.00  0.00    +0.129 A 
ATOM      4  O   LIG    1       25.883 -19.474   5.000  0.00  0.00    -0.485 OA
ATOM      5  C   LIG    1       24.670 -20.136   4.555  0.00  0.00    +0.108 C 
ATOM      6  C   LIG    1       23.711 -20.305   5.768  0.00  0.00    +0.041 C 
ATOM      7  C   LIG    1       24.358 -21.139   6.899  0.00  0.00    +0.040 C 
ATOM      8  C   LIG    1       24.075 -22.647   6.833  0.00  0.00    +0.083 C 
ATOM      9  C   LIG    1       22.638 -22.968   6.520  0.00  0.00    +0.134 C 
ATOM     10  O   LIG    1       22.044 -23.868   7.083  0.00  0.00    -0.297 OA
ATOM     11  C   LIG    1       22.038 -22.244   5.355  0.00  0.00    +0.075 C 
ATOM     12  C   LIG    1       22.259 -20.744   5.492  0.00  0.00    +0.015 C 
ATOM     13  C   LIG    1       24.060 -19.182   3.510  0.00  0.00    +0.056 C 
ATOM     14  C   LIG    1       25.076 -21.421   3.818  0.00  0.00    +0.056 C 
ATOM     15  C   LIG    1       25.844 -20.857   7.003  0.00  0.00    +0.040 A 
ATOM     16  C   LIG    1       26.600 -21.388   8.047  0.00  0.00    +0.124 A 
ATOM     17  C   LIG    1       27.946 -21.074   8.210  0.00  0.00    +0.050 A 
ENDROOT
BRANCH   1  18
ATOM     18  C   LIG    1       30.057 -19.739   7.726  0.00  0.00    -0.010 C 
ATOM     19  C   LIG    1       30.725 -20.986   8.354  0.00  0.00    +0.016 C 
ATOM     20  C   LIG    1       30.904 -19.359   6.488  0.00  0.00    +0.016 C 
BRANCH  18  21
ATOM     21  C   LIG    1       30.050 -18.517   8.754  0.00  0.00    +0.011 C 
BRANCH  21  22
ATOM     22  C   LIG    1       31.335 -18.309   9.597  0.00  0.00    +0.001 C 
BRANCH  22  23
ATOM     23  C   LIG    1       32.209 -17.053   9.320  0.00  0.00    +0.000 C 
BRANCH  23  24
ATOM     24  C   LIG    1       32.581 -16.195  10.541  0.00  0.00    -0.000 C 
BRANCH  24  26
ATOM     25  C   LIG    1       32.270 -16.219  13.072  0.00  0.00    +0.004 C 
ATOM     26  C   LIG    1       31.578 -16.306  11.710  0.00  0.00    -0.003 C 
ENDBRANCH  24  26
ENDBRANCH  23  24
ENDBRANCH  22  23
ENDBRANCH  21  22
ENDBRANCH  18  21
ENDBRANCH   1  18
BRANCH  16  27
ATOM     27  O   LIG    1       26.004 -22.200   8.968  0.00  0.00    -0.506 OA
ATOM     28  H   LIG    1       26.593 -22.300   9.733  0.00  0.00    +0.292 HD
ENDBRANCH  16  27
TORSDOF 7
ENDMDL
MODEL 5
REMARK VINA RESULT:      -7.3      1.506      2.117
REMARK  Name = *****
REMARK                            x       y       z     vdW  Elec       q    Type
REMARK                         _______ _______ _______ _____ _____    ______ ____
ROOT
ATOM      1  C   LIG    1       25.274 -27.805   6.832  0.00  0.00    -0.035 A 
ATOM      2  C   LIG    1       25.852 -27.955   8.106  0.00  0.00    +0.050 A 
ATOM      3  C   LIG    1       25.610 -29.105   8.892  0.00  0.00    +0.129 A 
ATOM      4  O   LIG    1       26.222 -29.133  10.121  0.00  0.00    -0.485 OA
ATOM      5  C   LIG    1       25.682 -30.074  11.085  0.00  0.00    +0.108 C 
ATOM      6  C   LIG    1       25.586 -31.479  10.423  0.00  0.00    +0.041 C 
ATOM      7  C   LIG    1       24.681 -31.462   9.169  0.00  0.00    +0.040 C 
ATOM      8  C   LIG    1       23.206 -31.803   9.431  0.00  0.00    +0.083 C 
ATOM      9  C   LIG    1       23.024 -32.976  10.357  0.00  0.00    +0.134 C 
ATOM     10  O   LIG    1       22.176 -33.825  10.158  0.00  0.00    -0.297 OA
ATOM     11  C   LIG    1       23.816 -32.945  11.627  0.00  0.00    +0.075 C 
ATOM     12  C   LIG    1       25.288 -32.691  11.329  0.00  0.00    +0.015 C 
ATOM     13  C   LIG    1       26.702 -30.086  12.239  0.00  0.00    +0.056 C 
ATOM     14  C   LIG    1       24.375 -29.486  11.637  0.00  0.00    +0.056 C 
ATOM     15  C   LIG    1       24.823 -30.156   8.412  0.00  0.00    +0.040 A 
ATOM     16  C   LIG    1       24.210 -29.980   7.172  0.00  0.00    +0.124 A 
ATOM     17  C   LIG    1       24.395 -28.822   6.421  0.00  0.00    +0.050 A 
ENDROOT
BRANCH   1  18
ATOM     18  C   LIG    1       25.536 -26.618   5.864  0.00  0.00    -0.010 C 
ATOM     19  C   LIG    1       26.595 -27.103   4.844  0.00  0.00    +0.016 C 
ATOM     20  C   LIG    1       24.292 -26.198   5.044  0.00  0.00    +0.016 C 
BRANCH  18  21
ATOM     21  C   LIG    1       26.071 -25.359   6.688  0.00  0.00    +0.011 C 
BRANCH  21  22
ATOM     22  C   LIG    1       25.539 -23.967   6.257  0.00  0.00    +0.001 C 
BRANCH  22  23
ATOM     23  C   LIG    1       24.568 -23.216   7.212  0.00  0.00    +0.000 C 
BRANCH  23  24
ATOM     24  C   LIG    1       23.114 -23.070   6.732  0.00  0.00    -0.000 C 
BRANCH  24  26
ATOM     25  C   LIG    1       23.494 -20.551   6.835  0.00  0.00    +0.004 C 
ATOM     26  C   LIG    1       22.803 -21.698   6.095  0.00  0.00    -0.003 C 
ENDBRANCH  24  26
ENDBRANCH  23  24
ENDBRANCH  22  23
ENDBRANCH  21  22
ENDBRANCH  18  21
ENDBRANCH   1  18
BRANCH  16  27
ATOM     27  O   LIG    1       23.444 -30.982   6.648  0.00  0.00    -0.506 OA
ATOM     28  H   LIG    1       22.553 -30.932   7.027  0.00  0.00    +0.292 HD
ENDBRANCH  16  27
TORSDOF 7
ENDMDL
MODEL 6
REMARK VINA RESULT:      -7.1      1.602      2.018
REMARK  Name = *****
REMARK                            x       y       z     vdW  Elec       q    Type
REMARK                         _______ _______ _______ _____ _____    ______ ____
ROOT
ATOM      1  C   LIG    1       24.885 -25.971   6.564  0.00  0.00    -0.035 A 
ATOM      2  C   LIG    1       25.548 -26.714   7.558  0.00  0.00    +0.050 A 
ATOM      3  C   LIG    1       25.588 -28.127   7.516  0.00  0.00    +0.129 A 
ATOM      4  O   LIG    1       26.257 -28.741   8.546  0.00  0.00    -0.485 OA
ATOM      5  C   LIG    1       25.971 -30.150   8.746  0.00  0.00    +0.108 C 
ATOM      6  C   LIG    1       26.128 -30.897   7.392  0.00  0.00    +0.041 C 
ATOM      7  C   LIG    1       25.173 -30.335   6.312  0.00  0.00    +0.040 C 
ATOM      8  C   LIG    1       23.815 -31.046   6.217  0.00  0.00    +0.083 C 
ATOM      9  C   LIG    1       23.925 -32.546   6.280  0.00  0.00    +0.134 C 
ATOM     10  O   LIG    1       23.258 -33.269   5.564  0.00  0.00    -0.297 OA
ATOM     11  C   LIG    1       24.760 -33.101   7.391  0.00  0.00    +0.075 C 
ATOM     12  C   LIG    1       26.131 -32.439   7.407  0.00  0.00    +0.015 C 
ATOM     13  C   LIG    1       27.032 -30.628   9.757  0.00  0.00    +0.056 C 
ATOM     14  C   LIG    1       24.603 -30.261   9.435  0.00  0.00    +0.056 C 
ATOM     15  C   LIG    1       25.006 -28.835   6.459  0.00  0.00    +0.040 A 
ATOM     16  C   LIG    1       24.306 -28.098   5.506  0.00  0.00    +0.124 A 
ATOM     17  C   LIG    1       24.212 -26.711   5.576  0.00  0.00    +0.050 A 
ENDROOT
BRANCH   1  18
ATOM     18  C   LIG    1       24.848 -24.420   6.480  0.00  0.00    -0.010 C 
ATOM     19  C   LIG    1       23.437 -23.985   6.944  0.00  0.00    +0.016 C 
ATOM     20  C   LIG    1       25.858 -23.722   7.422  0.00  0.00    +0.016 C 
BRANCH  18  21
ATOM     21  C   LIG    1       25.124 -23.956   4.977  0.00  0.00    +0.011 C 
BRANCH  21  22
ATOM     22  C   LIG    1       24.353 -22.703   4.483  0.00  0.00    +0.001 C 
BRANCH  22  23
ATOM     23  C   LIG    1       24.970 -21.300   4.749  0.00  0.00    +0.000 C 
BRANCH  23  24
ATOM     24  C   LIG    1       24.593 -20.629   6.081  0.00  0.00    -0.000 C 
BRANCH  24  26
ATOM     25  C   LIG    1       27.127 -20.418   6.274  0.00  0.00    +0.004 C 
ATOM     26  C   LIG    1       25.794 -20.398   7.024  0.00  0.00    -0.003 C 
ENDBRANCH  24  26
ENDBRANCH  23  24
ENDBRANCH  22  23
ENDBRANCH  21  22
ENDBRANCH  18  21
ENDBRANCH   1  18
BRANCH  16  27
ATOM     27  O   LIG    1       23.734 -28.737   4.443  0.00  0.00    -0.506 OA
ATOM     28  H   LIG    1       23.201 -29.480   4.769  0.00  0.00    +0.292 HD
ENDBRANCH  16  27
TORSDOF 7
ENDMDL
MODEL 7
REMARK VINA RESULT:      -7.1      1.747      3.385
REMARK  Name = *****
REMARK                            x       y       z     vdW  Elec       q    Type
REMARK                         _______ _______ _______ _____ _____    ______ ____
ROOT
ATOM      1  C   LIG    1       25.326 -27.941   6.883  0.00  0.00    -0.035 A 
ATOM      2  C   LIG    1       24.564 -29.078   6.558  0.00  0.00    +0.050 A 
ATOM      3  C   LIG    1       24.331 -30.101   7.505  0.00  0.00    +0.129 A 
ATOM      4  O   LIG    1       23.580 -31.165   7.068  0.00  0.00    -0.485 OA
ATOM      5  C   LIG    1       23.668 -32.380   7.858  0.00  0.00    +0.108 C 
ATOM      6  C   LIG    1       23.416 -32.032   9.352  0.00  0.00    +0.041 C 
ATOM      7  C   LIG    1       24.443 -31.006   9.885  0.00  0.00    +0.040 C 
ATOM      8  C   LIG    1       25.691 -31.618  10.537  0.00  0.00    +0.083 C 
ATOM      9  C   LIG    1       25.376 -32.769  11.456  0.00  0.00    +0.134 C 
ATOM     10  O   LIG    1       25.940 -32.910  12.524  0.00  0.00    -0.297 OA
ATOM     11  C   LIG    1       24.468 -33.824  10.905  0.00  0.00    +0.075 C 
ATOM     12  C   LIG    1       23.201 -33.195  10.343  0.00  0.00    +0.015 C 
ATOM     13  C   LIG    1       22.548 -33.287   7.313  0.00  0.00    +0.056 C 
ATOM     14  C   LIG    1       25.006 -33.060   7.529  0.00  0.00    +0.056 C 
ATOM     15  C   LIG    1       24.813 -29.999   8.813  0.00  0.00    +0.040 A 
ATOM     16  C   LIG    1       25.612 -28.897   9.114  0.00  0.00    +0.124 A 
ATOM     17  C   LIG    1       25.896 -27.917   8.168  0.00  0.00    +0.050 A 
ENDROOT
BRANCH   1  18
ATOM     18  C   LIG    1       25.576 -26.731   5.940  0.00  0.00    -0.010 C 
ATOM     19  C   LIG    1       26.721 -27.143   4.983  0.00  0.00    +0.016 C 
ATOM     20  C   LIG    1       24.362 -26.374   5.050  0.00  0.00    +0.016 C 
BRANCH  18  21
ATOM     21  C   LIG    1       25.988 -25.452   6.804  0.00  0.00    +0.011 C 
BRANCH  21  22
ATOM     22  C   LIG    1       25.500 -24.074   6.284  0.00  0.00    +0.001 C 
BRANCH  22  23
ATOM     23  C   LIG    1       24.908 -23.063   7.308  0.00  0.00    +0.000 C 
BRANCH  23  24
ATOM     24  C   LIG    1       23.553 -22.433   6.941  0.00  0.00    -0.000 C 
BRANCH  24  26
ATOM     25  C   LIG    1       22.834 -20.397   5.587  0.00  0.00    +0.004 C 
ATOM     26  C   LIG    1       23.594 -20.894   6.818  0.00  0.00    -0.003 C 
ENDBRANCH  24  26
ENDBRANCH  23  24
ENDBRANCH  22  23
ENDBRANCH  21  22
ENDBRANCH  18  21
ENDBRANCH   1  18
BRANCH  16  27
ATOM     27  O   LIG    1       26.096 -28.739  10.382  0.00  0.00    -0.506 OA
ATOM     28  H   LIG    1       25.491 -28.169  10.883  0.00  0.00    +0.292 HD
ENDBRANCH  16  27
TORSDOF 7
ENDMDL
MODEL 8
REMARK VINA RESULT:      -6.9      2.125      3.825
REMARK  Name = *****
REMARK                            x       y       z     vdW  Elec       q    Type
REMARK                         _______ _______ _______ _____ _____    ______ ____
ROOT
ATOM      1  C   LIG    1       25.223 -28.285   7.251  0.00  0.00    -0.035 A 
ATOM      2  C   LIG    1       24.197 -29.226   7.452  0.00  0.00    +0.050 A 
ATOM      3  C   LIG    1       24.065 -29.918   8.678  0.00  0.00    +0.129 A 
ATOM      4  O   LIG    1       23.030 -30.818   8.752  0.00  0.00    -0.485 OA
ATOM      5  C   LIG    1       23.116 -31.809   9.810  0.00  0.00    +0.108 C 
ATOM      6  C   LIG    1       23.389 -31.086  11.160  0.00  0.00    +0.041 C 
ATOM      7  C   LIG    1       24.703 -30.271  11.121  0.00  0.00    +0.040 C 
ATOM      8  C   LIG    1       25.948 -31.028  11.605  0.00  0.00    +0.083 C 
ATOM      9  C   LIG    1       25.707 -31.825  12.860  0.00  0.00    +0.134 C 
ATOM     10  O   LIG    1       26.524 -31.869  13.760  0.00  0.00    -0.297 OA
ATOM     11  C   LIG    1       24.493 -32.701  12.863  0.00  0.00    +0.075 C 
ATOM     12  C   LIG    1       23.260 -31.903  12.462  0.00  0.00    +0.015 C 
ATOM     13  C   LIG    1       21.734 -32.489   9.827  0.00  0.00    +0.056 C 
ATOM     14  C   LIG    1       24.141 -32.869   9.382  0.00  0.00    +0.056 C 
ATOM     15  C   LIG    1       24.924 -29.659   9.751  0.00  0.00    +0.040 A 
ATOM     16  C   LIG    1       25.970 -28.765   9.529  0.00  0.00    +0.124 A 
ATOM     17  C   LIG    1       26.142 -28.127   8.304  0.00  0.00    +0.050 A 
ENDROOT
BRANCH   1  18
ATOM     18  C   LIG    1       25.408 -27.421   5.972  0.00  0.00    -0.010 C 
ATOM     19  C   LIG    1       26.829 -26.811   6.051  0.00  0.00    +0.016 C 
ATOM     20  C   LIG    1       25.349 -28.236   4.658  0.00  0.00    +0.016 C 
BRANCH  18  21
ATOM     21  C   LIG    1       24.296 -26.276   5.931  0.00  0.00    +0.011 C 
BRANCH  21  22
ATOM     22  C   LIG    1       24.775 -24.854   5.537  0.00  0.00    +0.001 C 
BRANCH  22  23
ATOM     23  C   LIG    1       24.676 -23.718   6.595  0.00  0.00    +0.000 C 
BRANCH  23  24
ATOM     24  C   LIG    1       23.274 -23.137   6.845  0.00  0.00    -0.000 C 
BRANCH  24  26
ATOM     25  C   LIG    1       23.181 -20.672   6.203  0.00  0.00    +0.004 C 
ATOM     26  C   LIG    1       23.285 -21.678   7.351  0.00  0.00    -0.003 C 
ENDBRANCH  24  26
ENDBRANCH  23  24
ENDBRANCH  22  23
ENDBRANCH  21  22
ENDBRANCH  18  21
ENDBRANCH   1  18
BRANCH  16  27
ATOM     27  O   LIG    1       26.828 -28.463  10.547  0.00  0.00    -0.506 OA
ATOM     28  H   LIG    1       26.537 -28.916  11.354  0.00  0.00    +0.292 HD
ENDBRANCH  16  27
TORSDOF 7
ENDMDL
MODEL 9
REMARK VINA RESULT:      -6.9      5.375     10.000
REMARK  Name = *****
REMARK                            x       y       z     vdW  Elec       q    Type
REMARK                         _______ _______ _______ _____ _____    ______ ____
ROOT
ATOM      1  C   LIG    1       25.015 -20.669   6.175  0.00  0.00    -0.035 A 
ATOM      2  C   LIG    1       26.146 -20.308   5.419  0.00  0.00    +0.050 A 
ATOM      3  C   LIG    1       27.388 -20.038   6.038  0.00  0.00    +0.129 A 
ATOM      4  O   LIG    1       28.415 -19.688   5.196  0.00  0.00    -0.485 OA
ATOM      5  C   LIG    1       29.551 -19.026   5.812  0.00  0.00    +0.108 C 
ATOM      6  C   LIG    1       30.026 -19.864   7.032  0.00  0.00    +0.041 C 
ATOM      7  C   LIG    1       28.906 -20.032   8.085  0.00  0.00    +0.040 C 
ATOM      8  C   LIG    1       28.891 -18.966   9.190  0.00  0.00    +0.083 C 
ATOM      9  C   LIG    1       30.261 -18.655   9.732  0.00  0.00    +0.134 C 
ATOM     10  O   LIG    1       30.458 -18.489  10.922  0.00  0.00    -0.297 OA
ATOM     11  C   LIG    1       31.327 -18.382   8.717  0.00  0.00    +0.075 C 
ATOM     12  C   LIG    1       31.375 -19.500   7.684  0.00  0.00    +0.015 C 
ATOM     13  C   LIG    1       30.633 -18.998   4.716  0.00  0.00    +0.056 C 
ATOM     14  C   LIG    1       29.152 -17.569   6.095  0.00  0.00    +0.056 C 
ATOM     15  C   LIG    1       27.549 -20.162   7.421  0.00  0.00    +0.040 A 
ATOM     16  C   LIG    1       26.414 -20.468   8.171  0.00  0.00    +0.124 A 
ATOM     17  C   LIG    1       25.174 -20.675   7.572  0.00  0.00    +0.050 A 
ENDROOT
BRANCH   1  18
ATOM     18  C   LIG    1       23.630 -21.057   5.587  0.00  0.00    -0.010 C 
ATOM     19  C   LIG    1       22.839 -19.738   5.408  0.00  0.00    +0.016 C 
ATOM     20  C   LIG    1       23.711 -21.717   4.190  0.00  0.00    +0.016 C 
BRANCH  18  21
ATOM     21  C   LIG    1       22.876 -22.043   6.591  0.00  0.00    +0.011 C 
BRANCH  21  22
ATOM     22  C   LIG    1       23.084 -23.563   6.363  0.00  0.00    +0.001 C 
BRANCH  22  23
ATOM     23  C   LIG    1       24.391 -24.220   6.891  0.00  0.00    +0.000 C 
BRANCH  23  24
ATOM     24  C   LIG    1       25.508 -24.447   5.859  0.00  0.00    -0.000 C 
BRANCH  24  26
ATOM     25  C   LIG    1       25.912 -26.788   4.934  0.00  0.00    +0.004 C 
ATOM     26  C   LIG    1       25.147 -25.474   4.764  0.00  0.00    -0.003 C 
ENDBRANCH  24  26
ENDBRANCH  23  24
ENDBRANCH  22  23
ENDBRANCH  21  22
ENDBRANCH  18  21
ENDBRANCH   1  18
BRANCH  16  27
ATOM     27  O   LIG    1       26.518 -20.619   9.524  0.00  0.00    -0.506 OA
ATOM     28  H   LIG    1       25.684 -20.977   9.869  0.00  0.00    +0.292 HD
ENDBRANCH  16  27
TORSDOF 7
ENDMDL
