MODEL 1
REMARK VINA RESULT:      66.1      0.000      0.000
REMARK  Name = *****
REMARK                            x       y       z     vdW  Elec       q    Type
REMARK                         _______ _______ _______ _____ _____    ______ ____
ROOT
ATOM      1  CA  LIG    1       23.662 -11.537   3.596  0.00  0.00    +0.191 C 
ATOM      2  C   LIG    1       24.303 -11.979   4.944  0.00  0.00    +0.169 C 
ATOM      3  N   LIG    1       25.562 -12.133   4.230  0.00  0.00    -0.249 N 
ATOM      4  CA  LIG    1       26.602 -12.974   4.589  0.00  0.00    +0.126 C 
ATOM      5  C   LIG    1       26.525 -13.769   5.688  0.00  0.00    -0.009 C 
ATOM      6  C   LIG    1       25.300 -13.762   6.588  0.00  0.00    +0.108 C 
ATOM      7  S   LIG    1       23.769 -13.573   5.630  0.00  0.00    -0.131 S 
ATOM      8  C   LIG    1       25.058 -11.854   3.004  0.00  0.00    +0.244 C 
ATOM      9  O   LIG    1       25.496 -11.995   1.867  0.00  0.00    -0.273 OA
ENDROOT
BRANCH   5  10
ATOM     10  C   LIG    1       27.478 -14.811   6.087  0.00  0.00    +0.015 C 
ATOM     11  C   LIG    1       27.513 -16.108   5.745  0.00  0.00    +0.016 C 
ATOM     12  C   LIG    1       28.601 -17.029   6.224  0.00  0.00    +0.243 C 
ATOM     13  O   LIG    1       29.452 -16.758   7.049  0.00  0.00    -0.270 OA
ATOM     14  N   LIG    1       28.448 -18.218   5.514  0.00  0.00    -0.293 N 
ATOM     15  C   LIG    1       27.557 -18.013   4.392  0.00  0.00    +0.113 C 
ATOM     16  C   LIG    1       26.620 -16.912   4.862  0.00  0.00    +0.059 C 
BRANCH  14  17
ATOM     17  C   LIG    1       29.379 -19.347   5.652  0.00  0.00    +0.091 C 
ATOM     18  C   LIG    1       29.473 -19.980   7.055  0.00  0.00    +0.103 C 
ATOM     19  N   LIG    1       29.185 -21.420   6.917  0.00  0.00    -0.314 NA
ATOM     20  H   LIG    1       30.072 -21.916   6.808  0.00  0.00    +0.122 HD
ATOM     21  C   LIG    1       28.424 -21.545   5.672  0.00  0.00    +0.083 C 
ATOM     22  C   LIG    1       29.048 -20.527   4.740  0.00  0.00    +0.039 C 
ENDBRANCH  14  17
ENDBRANCH   5  10
BRANCH   1  24
ATOM     23  C   LIG    1       22.459 -13.722   3.210  0.00  0.00    +0.270 C 
ATOM     24  N   LIG    1       22.563 -12.361   3.034  0.00  0.00    -0.296 N 
ATOM     25  H   LIG    1       21.816 -11.929   2.492  0.00  0.00    +0.150 HD
ATOM     26  O   LIG    1       23.310 -14.345   3.827  0.00  0.00    -0.268 OA
BRANCH  23  27
ATOM     27  C   LIG    1       21.211 -14.409   2.586  0.00  0.00    +0.208 C 
ATOM     28  N   LIG    1       20.253 -13.783   1.942  0.00  0.00    -0.079 NA
BRANCH  27  32
ATOM     29  C   LIG    1       21.343 -17.869   3.635  0.00  0.00    +0.176 A 
ATOM     30  S   LIG    1       20.338 -18.169   2.276  0.00  0.00    +0.049 S 
ATOM     31  N   LIG    1       20.295 -16.572   1.821  0.00  0.00    -0.185 NA
ATOM     32  C   LIG    1       21.032 -15.875   2.694  0.00  0.00    +0.197 A 
ATOM     33  N   LIG    1       21.636 -16.598   3.748  0.00  0.00    -0.202 NA
BRANCH  29  34
ATOM     34  N   LIG    1       21.760 -18.826   4.480  0.00  0.00    -0.336 N 
ATOM     35  H   LIG    1       21.262 -18.900   5.361  0.00  0.00    +0.144 HD
ATOM     36  H   LIG    1       22.075 -19.712   4.100  0.00  0.00    +0.144 HD
ENDBRANCH  29  34
ENDBRANCH  27  32
BRANCH  28  37
ATOM     37  O   LIG    1       20.387 -12.400   1.815  0.00  0.00    -0.408 OA
ATOM     38  H   LIG    1       20.997 -12.181   2.551  0.00  0.00    +0.328 HD
ENDBRANCH  28  37
ENDBRANCH  23  27
ENDBRANCH   1  24
BRANCH   4  39
ATOM     39  C   LIG    1       27.795 -12.984   3.677  0.00  0.00    +0.352 C 
ATOM     40  O   LIG    1       27.952 -13.616   2.651  0.00  0.00    -0.244 OA
BRANCH  39  41
ATOM     41  OXT LIG    1       28.788 -12.213   4.167  0.00  0.00    -0.476 OA
ATOM     42  HXT LIG    1       29.584 -12.783   4.116  0.00  0.00    +0.295 HD
ENDBRANCH  39  41
ENDBRANCH   4  39
TORSDOF 9
ENDMDL
