MODEL 1
REMARK VINA RESULT:      42.1      0.000      0.000
REMARK  Name = *****
REMARK                            x       y       z     vdW  Elec       q    Type
REMARK                         _______ _______ _______ _____ _____    ______ ____
ROOT
ATOM      1  C   LIG    1       27.547 -13.170   4.487  0.00  0.00    +0.134 C 
ATOM      2  C   LIG    1       28.343 -14.193   3.656  0.00  0.00    +0.079 C 
ATOM      3  C   LIG    1       27.455 -14.889   2.622  0.00  0.00    +0.158 C 
ATOM      4  C   LIG    1       26.430 -15.668   3.413  0.00  0.00    +0.030 A 
ATOM      5  C   LIG    1       25.829 -15.082   4.547  0.00  0.00    +0.007 A 
ATOM      6  C   LIG    1       24.706 -15.696   5.097  0.00  0.00    +0.132 A 
ATOM      7  C   LIG    1       24.247 -16.925   4.604  0.00  0.00    +0.078 A 
ATOM      8  C   LIG    1       23.034 -17.522   5.164  0.00  0.00    +0.198 C 
ATOM      9  O   LIG    1       22.371 -16.882   5.978  0.00  0.00    -0.286 OA
ATOM     10  C   LIG    1       22.613 -18.860   4.743  0.00  0.00    +0.037 A 
ATOM     11  C   LIG    1       23.324 -19.572   3.772  0.00  0.00    +0.075 A 
ATOM     12  C   LIG    1       22.872 -20.852   3.401  0.00  0.00    +0.132 A 
ATOM     13  C   LIG    1       21.736 -21.388   4.026  0.00  0.00    +0.046 A 
ATOM     14  C   LIG    1       21.037 -20.664   4.990  0.00  0.00    +0.004 A 
ATOM     15  C   LIG    1       24.508 -18.931   3.149  0.00  0.00    +0.202 C 
ATOM     16  O   LIG    1       25.164 -19.465   2.254  0.00  0.00    -0.286 OA
ATOM     17  C   LIG    1       21.473 -19.400   5.350  0.00  0.00    +0.012 A 
ATOM     18  C   LIG    1       24.941 -17.586   3.595  0.00  0.00    +0.078 A 
ATOM     19  C   LIG    1       26.034 -16.948   2.998  0.00  0.00    +0.135 A 
ATOM     20  C   LIG    1       26.449 -13.894   5.273  0.00  0.00    +0.082 C 
ENDROOT
BRANCH   1  21
ATOM     21  O   LIG    1       26.921 -12.158   3.686  0.00  0.00    -0.381 OA
ATOM     22  H   LIG    1       27.634 -11.546   3.411  0.00  0.00    +0.211 HD
ENDBRANCH   1  21
BRANCH  19  23
ATOM     23  O   LIG    1       26.767 -17.537   2.001  0.00  0.00    -0.506 OA
ATOM     24  H   LIG    1       27.666 -17.133   1.976  0.00  0.00    +0.292 HD
ENDBRANCH  19  23
BRANCH   6  25
ATOM     25  O   LIG    1       24.090 -15.038   6.130  0.00  0.00    -0.506 OA
ATOM     26  H   LIG    1       23.701 -14.203   5.782  0.00  0.00    +0.292 HD
ENDBRANCH   6  25
BRANCH  12  27
ATOM     27  O   LIG    1       23.600 -21.568   2.490  0.00  0.00    -0.494 OA
ATOM     28  C   LIG    1       24.997 -21.293   2.441  0.00  0.00    +0.277 C 
ENDBRANCH  12  27
BRANCH   1  29
ATOM     29  C   LIG    1       28.526 -12.414   5.394  0.00  0.00    +0.202 C 
ATOM     30  O   LIG    1       29.208 -11.473   4.974  0.00  0.00    -0.291 OA
BRANCH  29  31
ATOM     31  C   LIG    1       28.575 -12.838   6.855  0.00  0.00    +0.309 C 
BRANCH  31  32
ATOM     32  O   LIG    1       29.239 -14.079   7.059  0.00  0.00    -0.457 OA
BRANCH  32  33
ATOM     33  C   LIG    1       28.455 -15.169   6.773  0.00  0.00    +0.307 C 
ATOM     34  O   LIG    1       27.292 -15.289   7.046  0.00  0.00    -0.251 OA
BRANCH  33  35
ATOM     35  C   LIG    1       29.329 -16.307   6.304  0.00  0.00    +0.120 C 
BRANCH  35  36
ATOM     36  C   LIG    1       28.600 -17.344   5.451  0.00  0.00    +0.011 C 
BRANCH  36  38
ATOM     37  C   LIG    1       28.013 -19.678   6.260  0.00  0.00    +0.004 C 
ATOM     38  C   LIG    1       29.093 -18.766   5.695  0.00  0.00    -0.003 C 
ENDBRANCH  36  38
ENDBRANCH  35  36
ENDBRANCH  33  35
ENDBRANCH  32  33
ENDBRANCH  31  32
ENDBRANCH  29  31
ENDBRANCH   1  29
BRANCH   3  39
ATOM     39  O   LIG    1       26.792 -13.886   1.813  0.00  0.00    -0.343 OA
BRANCH  39  40
ATOM     40  C   LIG    1       25.407 -13.639   2.124  0.00  0.00    +0.253 C 
ATOM     41  O   LIG    1       25.175 -12.245   2.208  0.00  0.00    -0.346 OA
ATOM     42  C   LIG    1       23.961 -11.794   2.811  0.00  0.00    +0.148 C 
ATOM     43  C   LIG    1       22.784 -11.747   1.834  0.00  0.00    +0.040 C 
ATOM     44  C   LIG    1       23.673 -12.495   4.146  0.00  0.00    +0.163 C 
ATOM     45  C   LIG    1       23.733 -14.037   4.017  0.00  0.00    +0.109 C 
ATOM     46  C   LIG    1       25.121 -14.364   3.453  0.00  0.00    +0.086 C 
BRANCH  45  47
ATOM     47  N   LIG    1       22.648 -14.651   3.239  0.00  0.00    -0.302 N 
ATOM     48  H   LIG    1       22.616 -14.519   2.231  0.00  0.00    +0.149 HD
ATOM     49  C   LIG    1       21.860 -15.691   3.747  0.00  0.00    +0.318 C 
ATOM     50  O   LIG    1       22.024 -16.134   4.886  0.00  0.00    -0.266 OA
BRANCH  49  51
ATOM     51  C   LIG    1       20.776 -16.226   2.775  0.00  0.00    +0.469 C 
ATOM     52  F   LIG    1       21.161 -17.365   2.137  0.00  0.00    -0.162 F 
ATOM     53  F   LIG    1       20.430 -15.330   1.812  0.00  0.00    -0.162 F 
ATOM     54  F   LIG    1       19.625 -16.543   3.440  0.00  0.00    -0.162 F 
ENDBRANCH  49  51
ENDBRANCH  45  47
BRANCH  44  55
ATOM     55  O   LIG    1       22.493 -11.985   4.745  0.00  0.00    -0.387 OA
ATOM     56  H   LIG    1       21.758 -12.592   4.535  0.00  0.00    +0.210 HD
ENDBRANCH  44  55
ENDBRANCH  39  40
ENDBRANCH   3  39
TORSDOF 16
ENDMDL
