MODEL 1
REMARK VINA RESULT:      -4.9      0.000      0.000
REMARK  Name = *****
REMARK                            x       y       z     vdW  Elec       q    Type
REMARK                         _______ _______ _______ _____ _____    ______ ____
ROOT
ATOM      1  O   LIG    1       26.206 -18.190   3.330  0.00  0.00    -0.471 OA
ENDROOT
BRANCH   1   2
ATOM      2  C   LIG    1       25.370 -19.101   3.927  0.00  0.00    +0.265 A 
ATOM      3  C   LIG    1       25.762 -20.066   4.960  0.00  0.00    +0.194 A 
ATOM      4  N   LIG    1       24.740 -20.840   5.373  0.00  0.00    -0.172 NA
ATOM      5  S   LIG    1       23.417 -20.353   4.493  0.00  0.00    +0.121 S 
ATOM      6  N   LIG    1       24.088 -19.129   3.574  0.00  0.00    -0.153 NA
BRANCH   3   7
ATOM      7  N   LIG    1       27.030 -20.148   5.474  0.00  0.00    -0.306 N 
ATOM      8  C   LIG    1       27.168 -20.795   6.798  0.00  0.00    +0.135 C 
ATOM      9  C   LIG    1       28.644 -21.124   7.061  0.00  0.00    +0.178 C 
ATOM     10  O   LIG    1       29.474 -19.954   6.970  0.00  0.00    -0.377 OA
ATOM     11  C   LIG    1       29.353 -19.360   5.666  0.00  0.00    +0.178 C 
ATOM     12  C   LIG    1       27.900 -18.948   5.378  0.00  0.00    +0.135 C 
ENDBRANCH   3   7
ENDBRANCH   1   2
BRANCH   1  13
ATOM     13  C   LIG    1       25.864 -16.820   3.612  0.00  0.00    +0.263 C 
BRANCH  13  14
ATOM     14  C   LIG    1       27.050 -15.890   3.284  0.00  0.00    +0.166 C 
BRANCH  14  15
ATOM     15  O   LIG    1       27.944 -15.832   4.406  0.00  0.00    -0.387 OA
ATOM     16  H   LIG    1       27.569 -16.434   5.074  0.00  0.00    +0.210 HD
ENDBRANCH  14  15
BRANCH  14  17
ATOM     17  C   LIG    1       26.537 -14.463   2.977  0.00  0.00    +0.116 C 
BRANCH  17  18
ATOM     18  N   LIG    1       25.849 -13.867   4.136  0.00  0.00    -0.309 NA
ATOM     19  H   LIG    1       25.901 -14.545   4.902  0.00  0.00    +0.122 HD
BRANCH  18  21
ATOM     20  C   LIG    1       24.209 -13.120   2.427  0.00  0.00    +0.027 C 
ATOM     21  C   LIG    1       24.445 -13.462   3.908  0.00  0.00    +0.011 C 
ATOM     22  C   LIG    1       23.445 -14.534   4.375  0.00  0.00    +0.027 C 
ATOM     23  C   LIG    1       24.189 -12.182   4.732  0.00  0.00    +0.027 C 
ENDBRANCH  18  21
ENDBRANCH  17  18
ENDBRANCH  14  17
ENDBRANCH  13  14
ENDBRANCH   1  13
TORSDOF 8
ENDMDL
MODEL 2
REMARK VINA RESULT:      -4.7      2.207      3.270
REMARK  Name = *****
REMARK                            x       y       z     vdW  Elec       q    Type
REMARK                         _______ _______ _______ _____ _____    ______ ____
ROOT
ATOM      1  O   LIG    1       27.177 -17.726   4.046  0.00  0.00    -0.471 OA
ENDROOT
BRANCH   1   2
ATOM      2  C   LIG    1       27.799 -18.588   4.916  0.00  0.00    +0.265 A 
ATOM      3  C   LIG    1       27.155 -19.709   5.608  0.00  0.00    +0.194 A 
ATOM      4  N   LIG    1       28.000 -20.393   6.403  0.00  0.00    -0.172 NA
ATOM      5  S   LIG    1       29.472 -19.637   6.258  0.00  0.00    +0.121 S 
ATOM      6  N   LIG    1       29.096 -18.430   5.164  0.00  0.00    -0.153 NA
BRANCH   3   7
ATOM      7  N   LIG    1       25.837 -20.045   5.437  0.00  0.00    -0.306 N 
ATOM      8  C   LIG    1       25.231 -20.903   6.480  0.00  0.00    +0.135 C 
ATOM      9  C   LIG    1       23.702 -20.889   6.336  0.00  0.00    +0.178 C 
ATOM     10  O   LIG    1       23.287 -21.302   5.023  0.00  0.00    -0.377 OA
ATOM     11  C   LIG    1       23.858 -20.436   4.027  0.00  0.00    +0.178 C 
ATOM     12  C   LIG    1       25.395 -20.465   4.083  0.00  0.00    +0.135 C 
ENDBRANCH   3   7
ENDBRANCH   1   2
BRANCH   1  13
ATOM     13  C   LIG    1       27.739 -16.400   4.046  0.00  0.00    +0.263 C 
BRANCH  13  14
ATOM     14  C   LIG    1       26.698 -15.373   3.553  0.00  0.00    +0.166 C 
BRANCH  14  15
ATOM     15  O   LIG    1       27.211 -14.679   2.406  0.00  0.00    -0.387 OA
ATOM     16  H   LIG    1       26.537 -14.012   2.178  0.00  0.00    +0.210 HD
ENDBRANCH  14  15
BRANCH  14  17
ATOM     17  C   LIG    1       26.397 -14.346   4.669  0.00  0.00    +0.116 C 
BRANCH  17  18
ATOM     18  N   LIG    1       25.890 -13.074   4.121  0.00  0.00    -0.309 NA
ATOM     19  H   LIG    1       26.139 -12.336   4.786  0.00  0.00    +0.122 HD
BRANCH  18  21
ATOM     20  C   LIG    1       24.186 -12.763   2.341  0.00  0.00    +0.027 C 
ATOM     21  C   LIG    1       24.440 -13.034   3.834  0.00  0.00    +0.011 C 
ATOM     22  C   LIG    1       23.722 -14.322   4.272  0.00  0.00    +0.027 C 
ATOM     23  C   LIG    1       23.838 -11.859   4.633  0.00  0.00    +0.027 C 
ENDBRANCH  18  21
ENDBRANCH  17  18
ENDBRANCH  14  17
ENDBRANCH  13  14
ENDBRANCH   1  13
TORSDOF 8
ENDMDL
MODEL 3
REMARK VINA RESULT:      -4.3      2.424      4.099
REMARK  Name = *****
REMARK                            x       y       z     vdW  Elec       q    Type
REMARK                         _______ _______ _______ _____ _____    ______ ____
ROOT
ATOM      1  O   LIG    1       25.992 -19.218   3.578  0.00  0.00    -0.471 OA
ENDROOT
BRANCH   1   2
ATOM      2  C   LIG    1       26.009 -19.794   4.824  0.00  0.00    +0.265 A 
ATOM      3  C   LIG    1       24.839 -20.319   5.535  0.00  0.00    +0.194 A 
ATOM      4  N   LIG    1       25.142 -20.831   6.744  0.00  0.00    -0.172 NA
ATOM      5  S   LIG    1       26.783 -20.634   6.921  0.00  0.00    +0.121 S 
ATOM      6  N   LIG    1       27.169 -19.914   5.463  0.00  0.00    -0.153 NA
BRANCH   3   7
ATOM      7  N   LIG    1       23.573 -20.317   5.009  0.00  0.00    -0.306 N 
ATOM      8  C   LIG    1       22.914 -19.000   4.873  0.00  0.00    +0.135 C 
ATOM      9  C   LIG    1       21.685 -19.128   3.960  0.00  0.00    +0.178 C 
ATOM     10  O   LIG    1       20.764 -20.119   4.445  0.00  0.00    -0.377 OA
ATOM     11  C   LIG    1       21.413 -21.398   4.538  0.00  0.00    +0.178 C 
ATOM     12  C   LIG    1       22.614 -21.341   5.497  0.00  0.00    +0.135 C 
ENDBRANCH   3   7
ENDBRANCH   1   2
BRANCH   1  13
ATOM     13  C   LIG    1       25.770 -17.794   3.602  0.00  0.00    +0.263 C 
BRANCH  13  14
ATOM     14  C   LIG    1       27.095 -17.039   3.367  0.00  0.00    +0.166 C 
BRANCH  14  15
ATOM     15  O   LIG    1       28.110 -17.561   4.237  0.00  0.00    -0.387 OA
ATOM     16  H   LIG    1       27.882 -17.243   5.130  0.00  0.00    +0.210 HD
ENDBRANCH  14  15
BRANCH  14  17
ATOM     17  C   LIG    1       26.906 -15.532   3.662  0.00  0.00    +0.116 C 
BRANCH  17  18
ATOM     18  N   LIG    1       25.794 -14.956   2.885  0.00  0.00    -0.309 NA
ATOM     19  H   LIG    1       26.195 -14.557   2.031  0.00  0.00    +0.122 HD
BRANCH  18  21
ATOM     20  C   LIG    1       25.761 -13.335   4.766  0.00  0.00    +0.027 C 
ATOM     21  C   LIG    1       24.980 -13.942   3.587  0.00  0.00    +0.011 C 
ATOM     22  C   LIG    1       24.489 -12.830   2.644  0.00  0.00    +0.027 C 
ATOM     23  C   LIG    1       23.740 -14.657   4.164  0.00  0.00    +0.027 C 
ENDBRANCH  18  21
ENDBRANCH  17  18
ENDBRANCH  14  17
ENDBRANCH  13  14
ENDBRANCH   1  13
TORSDOF 8
ENDMDL
MODEL 4
REMARK VINA RESULT:      -4.2      1.557      2.072
REMARK  Name = *****
REMARK                            x       y       z     vdW  Elec       q    Type
REMARK                         _______ _______ _______ _____ _____    ______ ____
ROOT
ATOM      1  O   LIG    1       25.484 -19.064   3.272  0.00  0.00    -0.471 OA
ENDROOT
BRANCH   1   2
ATOM      2  C   LIG    1       24.684 -19.771   4.137  0.00  0.00    +0.265 A 
ATOM      3  C   LIG    1       25.152 -20.518   5.309  0.00  0.00    +0.194 A 
ATOM      4  N   LIG    1       24.153 -21.118   5.984  0.00  0.00    -0.172 NA
ATOM      5  S   LIG    1       22.759 -20.744   5.160  0.00  0.00    +0.121 S 
ATOM      6  N   LIG    1       23.370 -19.789   3.933  0.00  0.00    -0.153 NA
BRANCH   3   7
ATOM      7  N   LIG    1       26.466 -20.571   5.695  0.00  0.00    -0.306 N 
ATOM      8  C   LIG    1       26.757 -21.286   6.958  0.00  0.00    +0.135 C 
ATOM      9  C   LIG    1       28.265 -21.562   7.060  0.00  0.00    +0.178 C 
ATOM     10  O   LIG    1       29.035 -20.353   6.961  0.00  0.00    -0.377 OA
ATOM     11  C   LIG    1       28.765 -19.692   5.713  0.00  0.00    +0.178 C 
ATOM     12  C   LIG    1       27.275 -19.331   5.590  0.00  0.00    +0.135 C 
ENDBRANCH   3   7
ENDBRANCH   1   2
BRANCH   1  13
ATOM     13  C   LIG    1       25.229 -17.646   3.278  0.00  0.00    +0.263 C 
BRANCH  13  14
ATOM     14  C   LIG    1       26.530 -16.864   3.001  0.00  0.00    +0.166 C 
BRANCH  14  15
ATOM     15  O   LIG    1       27.608 -17.436   3.756  0.00  0.00    -0.387 OA
ATOM     16  H   LIG    1       28.061 -18.048   3.147  0.00  0.00    +0.210 HD
ENDBRANCH  14  15
BRANCH  14  17
ATOM     17  C   LIG    1       26.357 -15.384   3.415  0.00  0.00    +0.116 C 
BRANCH  17  18
ATOM     18  N   LIG    1       27.637 -14.776   3.823  0.00  0.00    -0.309 NA
ATOM     19  H   LIG    1       27.956 -15.272   4.660  0.00  0.00    +0.122 HD
BRANCH  18  21
ATOM     20  C   LIG    1       26.941 -13.015   5.431  0.00  0.00    +0.027 C 
ATOM     21  C   LIG    1       27.602 -13.320   4.075  0.00  0.00    +0.011 C 
ATOM     22  C   LIG    1       29.000 -12.681   4.007  0.00  0.00    +0.027 C 
ATOM     23  C   LIG    1       26.732 -12.676   2.974  0.00  0.00    +0.027 C 
ENDBRANCH  18  21
ENDBRANCH  17  18
ENDBRANCH  14  17
ENDBRANCH  13  14
ENDBRANCH   1  13
TORSDOF 8
ENDMDL
MODEL 5
REMARK VINA RESULT:      -3.9      1.973      2.853
REMARK  Name = *****
REMARK                            x       y       z     vdW  Elec       q    Type
REMARK                         _______ _______ _______ _____ _____    ______ ____
ROOT
ATOM      1  O   LIG    1       23.768 -18.313   4.108  0.00  0.00    -0.471 OA
ENDROOT
BRANCH   1   2
ATOM      2  C   LIG    1       23.370 -19.524   4.617  0.00  0.00    +0.265 A 
ATOM      3  C   LIG    1       24.224 -20.455   5.364  0.00  0.00    +0.194 A 
ATOM      4  N   LIG    1       23.575 -21.571   5.748  0.00  0.00    -0.172 NA
ATOM      5  S   LIG    1       22.021 -21.412   5.182  0.00  0.00    +0.121 S 
ATOM      6  N   LIG    1       22.109 -19.912   4.450  0.00  0.00    -0.153 NA
BRANCH   3   7
ATOM      7  N   LIG    1       25.535 -20.198   5.666  0.00  0.00    -0.306 N 
ATOM      8  C   LIG    1       26.408 -19.795   4.541  0.00  0.00    +0.135 C 
ATOM      9  C   LIG    1       27.719 -19.209   5.087  0.00  0.00    +0.178 C 
ATOM     10  O   LIG    1       28.392 -20.134   5.958  0.00  0.00    -0.377 OA
ATOM     11  C   LIG    1       27.542 -20.486   7.062  0.00  0.00    +0.178 C 
ATOM     12  C   LIG    1       26.240 -21.141   6.571  0.00  0.00    +0.135 C 
ENDBRANCH   3   7
ENDBRANCH   1   2
BRANCH   1  13
ATOM     13  C   LIG    1       22.716 -17.328   4.070  0.00  0.00    +0.263 C 
BRANCH  13  14
ATOM     14  C   LIG    1       23.139 -16.058   4.836  0.00  0.00    +0.166 C 
BRANCH  14  15
ATOM     15  O   LIG    1       22.045 -15.589   5.637  0.00  0.00    -0.387 OA
ATOM     16  H   LIG    1       21.520 -15.010   5.054  0.00  0.00    +0.210 HD
ENDBRANCH  14  15
BRANCH  14  17
ATOM     17  C   LIG    1       23.543 -14.947   3.838  0.00  0.00    +0.116 C 
BRANCH  17  18
ATOM     18  N   LIG    1       24.535 -14.023   4.418  0.00  0.00    -0.309 NA
ATOM     19  H   LIG    1       24.174 -13.073   4.292  0.00  0.00    +0.122 HD
BRANCH  18  21
ATOM     20  C   LIG    1       26.944 -13.668   4.905  0.00  0.00    +0.027 C 
ATOM     21  C   LIG    1       25.903 -14.126   3.868  0.00  0.00    +0.011 C 
ATOM     22  C   LIG    1       26.230 -15.547   3.376  0.00  0.00    +0.027 C 
ATOM     23  C   LIG    1       25.994 -13.172   2.658  0.00  0.00    +0.027 C 
ENDBRANCH  18  21
ENDBRANCH  17  18
ENDBRANCH  14  17
ENDBRANCH  13  14
ENDBRANCH   1  13
TORSDOF 8
ENDMDL
MODEL 6
REMARK VINA RESULT:      -3.5      2.514      6.047
REMARK  Name = *****
REMARK                            x       y       z     vdW  Elec       q    Type
REMARK                         _______ _______ _______ _____ _____    ______ ____
ROOT
ATOM      1  O   LIG    1       26.148 -17.033   3.313  0.00  0.00    -0.471 OA
ENDROOT
BRANCH   1   2
ATOM      2  C   LIG    1       25.151 -16.177   3.711  0.00  0.00    +0.265 A 
ATOM      3  C   LIG    1       25.345 -14.791   4.149  0.00  0.00    +0.194 A 
ATOM      4  N   LIG    1       24.193 -14.178   4.483  0.00  0.00    -0.172 NA
ATOM      5  S   LIG    1       22.995 -15.305   4.250  0.00  0.00    +0.121 S 
ATOM      6  N   LIG    1       23.891 -16.603   3.697  0.00  0.00    -0.153 NA
BRANCH   3   7
ATOM      7  N   LIG    1       26.569 -14.175   4.184  0.00  0.00    -0.306 N 
ATOM      8  C   LIG    1       26.799 -13.219   5.290  0.00  0.00    +0.135 C 
ATOM      9  C   LIG    1       28.297 -12.898   5.394  0.00  0.00    +0.178 C 
ATOM     10  O   LIG    1       28.819 -12.390   4.155  0.00  0.00    -0.377 OA
ATOM     11  C   LIG    1       28.618 -13.347   3.101  0.00  0.00    +0.178 C 
ATOM     12  C   LIG    1       27.123 -13.653   2.909  0.00  0.00    +0.135 C 
ENDBRANCH   3   7
ENDBRANCH   1   2
BRANCH   1  13
ATOM     13  C   LIG    1       25.728 -18.409   3.225  0.00  0.00    +0.263 C 
BRANCH  13  14
ATOM     14  C   LIG    1       26.003 -19.141   4.555  0.00  0.00    +0.166 C 
BRANCH  14  15
ATOM     15  O   LIG    1       27.417 -19.325   4.722  0.00  0.00    -0.387 OA
ATOM     16  H   LIG    1       27.701 -18.635   5.349  0.00  0.00    +0.210 HD
ENDBRANCH  14  15
BRANCH  14  17
ATOM     17  C   LIG    1       25.314 -20.526   4.550  0.00  0.00    +0.116 C 
BRANCH  17  18
ATOM     18  N   LIG    1       23.923 -20.445   4.068  0.00  0.00    -0.309 NA
ATOM     19  H   LIG    1       23.859 -19.620   3.463  0.00  0.00    +0.122 HD
BRANCH  18  21
ATOM     20  C   LIG    1       21.766 -21.407   4.836  0.00  0.00    +0.027 C 
ATOM     21  C   LIG    1       22.885 -20.388   5.119  0.00  0.00    +0.011 C 
ATOM     22  C   LIG    1       23.465 -20.609   6.526  0.00  0.00    +0.027 C 
ATOM     23  C   LIG    1       22.257 -18.979   5.080  0.00  0.00    +0.027 C 
ENDBRANCH  18  21
ENDBRANCH  17  18
ENDBRANCH  14  17
ENDBRANCH  13  14
ENDBRANCH   1  13
TORSDOF 8
ENDMDL
MODEL 7
REMARK VINA RESULT:      -3.3      2.251      3.252
REMARK  Name = *****
REMARK                            x       y       z     vdW  Elec       q    Type
REMARK                         _______ _______ _______ _____ _____    ______ ____
ROOT
ATOM      1  O   LIG    1       23.622 -17.359   4.160  0.00  0.00    -0.471 OA
ENDROOT
BRANCH   1   2
ATOM      2  C   LIG    1       22.817 -18.467   4.261  0.00  0.00    +0.265 A 
ATOM      3  C   LIG    1       23.217 -19.761   4.825  0.00  0.00    +0.194 A 
ATOM      4  N   LIG    1       22.227 -20.674   4.802  0.00  0.00    -0.172 NA
ATOM      5  S   LIG    1       20.923 -19.913   4.109  0.00  0.00    +0.121 S 
ATOM      6  N   LIG    1       21.560 -18.392   3.835  0.00  0.00    -0.153 NA
BRANCH   3   7
ATOM      7  N   LIG    1       24.460 -20.003   5.350  0.00  0.00    -0.306 N 
ATOM      8  C   LIG    1       25.592 -20.013   4.398  0.00  0.00    +0.135 C 
ATOM      9  C   LIG    1       26.918 -19.939   5.169  0.00  0.00    +0.178 C 
ATOM     10  O   LIG    1       27.038 -21.006   6.124  0.00  0.00    -0.377 OA
ATOM     11  C   LIG    1       25.948 -20.958   7.062  0.00  0.00    +0.178 C 
ATOM     12  C   LIG    1       24.595 -21.097   6.345  0.00  0.00    +0.135 C 
ENDBRANCH   3   7
ENDBRANCH   1   2
BRANCH   1  13
ATOM     13  C   LIG    1       22.937 -16.120   4.425  0.00  0.00    +0.263 C 
BRANCH  13  14
ATOM     14  C   LIG    1       23.911 -14.930   4.314  0.00  0.00    +0.166 C 
BRANCH  14  15
ATOM     15  O   LIG    1       23.259 -13.830   3.662  0.00  0.00    -0.387 OA
ATOM     16  H   LIG    1       23.686 -13.750   2.789  0.00  0.00    +0.210 HD
ENDBRANCH  14  15
BRANCH  14  17
ATOM     17  C   LIG    1       25.155 -15.338   3.489  0.00  0.00    +0.116 C 
BRANCH  17  18
ATOM     18  N   LIG    1       26.031 -14.185   3.213  0.00  0.00    -0.309 NA
ATOM     19  H   LIG    1       26.307 -14.242   2.228  0.00  0.00    +0.122 HD
BRANCH  18  21
ATOM     20  C   LIG    1       28.366 -13.346   3.332  0.00  0.00    +0.027 C 
ATOM     21  C   LIG    1       27.230 -14.073   4.072  0.00  0.00    +0.011 C 
ATOM     22  C   LIG    1       26.928 -13.372   5.408  0.00  0.00    +0.027 C 
ATOM     23  C   LIG    1       27.715 -15.505   4.385  0.00  0.00    +0.027 C 
ENDBRANCH  18  21
ENDBRANCH  17  18
ENDBRANCH  14  17
ENDBRANCH  13  14
ENDBRANCH   1  13
TORSDOF 8
ENDMDL
MODEL 8
REMARK VINA RESULT:      -3.1      2.761      6.703
REMARK  Name = *****
REMARK                            x       y       z     vdW  Elec       q    Type
REMARK                         _______ _______ _______ _____ _____    ______ ____
ROOT
ATOM      1  O   LIG    1       25.402 -17.738   3.311  0.00  0.00    -0.471 OA
ENDROOT
BRANCH   1   2
ATOM      2  C   LIG    1       26.519 -17.047   3.713  0.00  0.00    +0.265 A 
ATOM      3  C   LIG    1       26.666 -15.588   3.700  0.00  0.00    +0.194 A 
ATOM      4  N   LIG    1       27.867 -15.176   4.151  0.00  0.00    -0.172 NA
ATOM      5  S   LIG    1       28.705 -16.557   4.538  0.00  0.00    +0.121 S 
ATOM      6  N   LIG    1       27.567 -17.725   4.171  0.00  0.00    -0.153 NA
BRANCH   3   7
ATOM      7  N   LIG    1       25.672 -14.732   3.303  0.00  0.00    -0.306 N 
ATOM      8  C   LIG    1       26.080 -13.591   2.453  0.00  0.00    +0.135 C 
ATOM      9  C   LIG    1       24.838 -12.954   1.812  0.00  0.00    +0.178 C 
ATOM     10  O   LIG    1       23.880 -12.544   2.802  0.00  0.00    -0.377 OA
ATOM     11  C   LIG    1       23.470 -13.672   3.593  0.00  0.00    +0.178 C 
ATOM     12  C   LIG    1       24.670 -14.308   4.314  0.00  0.00    +0.135 C 
ENDBRANCH   3   7
ENDBRANCH   1   2
BRANCH   1  13
ATOM     13  C   LIG    1       25.628 -19.151   3.139  0.00  0.00    +0.263 C 
BRANCH  13  14
ATOM     14  C   LIG    1       25.667 -19.861   4.507  0.00  0.00    +0.166 C 
BRANCH  14  15
ATOM     15  O   LIG    1       27.027 -20.150   4.863  0.00  0.00    -0.387 OA
ATOM     16  H   LIG    1       27.522 -20.168   4.023  0.00  0.00    +0.210 HD
ENDBRANCH  14  15
BRANCH  14  17
ATOM     17  C   LIG    1       24.873 -21.187   4.440  0.00  0.00    +0.116 C 
BRANCH  17  18
ATOM     18  N   LIG    1       23.508 -20.982   3.921  0.00  0.00    -0.309 NA
ATOM     19  H   LIG    1       23.581 -20.358   3.112  0.00  0.00    +0.122 HD
BRANCH  18  21
ATOM     20  C   LIG    1       22.978 -20.734   6.335  0.00  0.00    +0.027 C 
ATOM     21  C   LIG    1       22.529 -20.448   4.891  0.00  0.00    +0.011 C 
ATOM     22  C   LIG    1       22.277 -18.942   4.699  0.00  0.00    +0.027 C 
ATOM     23  C   LIG    1       21.193 -21.186   4.660  0.00  0.00    +0.027 C 
ENDBRANCH  18  21
ENDBRANCH  17  18
ENDBRANCH  14  17
ENDBRANCH  13  14
ENDBRANCH   1  13
TORSDOF 8
ENDMDL
MODEL 9
REMARK VINA RESULT:      -2.3      2.921      6.956
REMARK  Name = *****
REMARK                            x       y       z     vdW  Elec       q    Type
REMARK                         _______ _______ _______ _____ _____    ______ ____
ROOT
ATOM      1  O   LIG    1       25.405 -16.404   3.273  0.00  0.00    -0.471 OA
ENDROOT
BRANCH   1   2
ATOM      2  C   LIG    1       26.547 -15.793   3.730  0.00  0.00    +0.265 A 
ATOM      3  C   LIG    1       26.753 -14.345   3.834  0.00  0.00    +0.194 A 
ATOM      4  N   LIG    1       27.968 -14.020   4.317  0.00  0.00    -0.172 NA
ATOM      5  S   LIG    1       28.748 -15.461   4.593  0.00  0.00    +0.121 S 
ATOM      6  N   LIG    1       27.565 -16.548   4.132  0.00  0.00    -0.153 NA
BRANCH   3   7
ATOM      7  N   LIG    1       25.796 -13.420   3.506  0.00  0.00    -0.306 N 
ATOM      8  C   LIG    1       24.617 -13.342   4.397  0.00  0.00    +0.135 C 
ATOM      9  C   LIG    1       23.837 -12.050   4.111  0.00  0.00    +0.178 C 
ATOM     10  O   LIG    1       23.448 -11.960   2.730  0.00  0.00    -0.377 OA
ATOM     11  C   LIG    1       24.608 -12.003   1.882  0.00  0.00    +0.178 C 
ATOM     12  C   LIG    1       25.391 -13.312   2.082  0.00  0.00    +0.135 C 
ENDBRANCH   3   7
ENDBRANCH   1   2
BRANCH   1  13
ATOM     13  C   LIG    1       25.614 -17.754   2.817  0.00  0.00    +0.263 C 
BRANCH  13  14
ATOM     14  C   LIG    1       25.240 -18.761   3.924  0.00  0.00    +0.166 C 
BRANCH  14  15
ATOM     15  O   LIG    1       26.426 -19.398   4.420  0.00  0.00    -0.387 OA
ATOM     16  H   LIG    1       26.947 -18.693   4.845  0.00  0.00    +0.210 HD
ENDBRANCH  14  15
BRANCH  14  17
ATOM     17  C   LIG    1       24.288 -19.841   3.360  0.00  0.00    +0.116 C 
BRANCH  17  18
ATOM     18  N   LIG    1       23.953 -20.860   4.371  0.00  0.00    -0.309 NA
ATOM     19  H   LIG    1       23.795 -21.741   3.874  0.00  0.00    +0.122 HD
BRANCH  18  21
ATOM     20  C   LIG    1       22.275 -19.125   4.959  0.00  0.00    +0.027 C 
ATOM     21  C   LIG    1       22.795 -20.547   5.235  0.00  0.00    +0.011 C 
ATOM     22  C   LIG    1       21.657 -21.571   5.080  0.00  0.00    +0.027 C 
ATOM     23  C   LIG    1       23.279 -20.594   6.700  0.00  0.00    +0.027 C 
ENDBRANCH  18  21
ENDBRANCH  17  18
ENDBRANCH  14  17
ENDBRANCH  13  14
ENDBRANCH   1  13
TORSDOF 8
ENDMDL
