MODEL 1
REMARK VINA RESULT:      -9.7      0.000      0.000
REMARK  Name = *****
REMARK                            x       y       z     vdW  Elec       q    Type
REMARK                         _______ _______ _______ _____ _____    ______ ____
ROOT
ATOM      1  N   LIG    1       25.752 -28.366   5.940  0.00  0.00    -0.109 NA
ATOM      2  C   LIG    1       25.355 -27.148   6.067  0.00  0.00    +0.201 C 
ATOM      3  N   LIG    1       26.228 -26.101   6.357  0.00  0.00    -0.326 N 
ATOM      4  H   LIG    1       27.171 -26.269   6.659  0.00  0.00    +0.169 HD
ATOM      5  C   LIG    1       25.488 -24.956   6.663  0.00  0.00    +0.066 A 
ATOM      6  C   LIG    1       24.133 -25.262   6.439  0.00  0.00    +0.065 A 
ATOM      7  C   LIG    1       23.154 -24.306   6.550  0.00  0.00    +0.028 A 
ATOM      8  C   LIG    1       23.560 -23.013   6.915  0.00  0.00    +0.014 A 
ATOM      9  C   LIG    1       24.925 -22.701   7.147  0.00  0.00    +0.024 A 
ATOM     10  C   LIG    1       25.909 -23.687   6.986  0.00  0.00    +0.039 A 
ATOM     11  N   LIG    1       24.080 -26.587   6.010  0.00  0.00    -0.326 N 
ATOM     12  H   LIG    1       23.248 -27.155   5.937  0.00  0.00    +0.169 HD
ENDROOT
BRANCH   1  13
ATOM     13  C   LIG    1       24.804 -29.319   5.698  0.00  0.00    +0.427 C 
ATOM     14  O   LIG    1       23.651 -29.326   6.102  0.00  0.00    -0.224 OA
BRANCH  13  16
ATOM     15  C   LIG    1       25.842 -31.405   5.706  0.00  0.00    +0.282 C 
ATOM     16  O   LIG    1       25.352 -30.309   4.940  0.00  0.00    -0.452 OA
ENDBRANCH  13  16
ENDBRANCH   1  13
BRANCH   9  17
ATOM     17  C   LIG    1       25.285 -21.292   7.496  0.00  0.00    +0.193 C 
ATOM     18  O   LIG    1       24.470 -20.603   8.105  0.00  0.00    -0.287 OA
BRANCH  17  19
ATOM     19  C   LIG    1       26.602 -20.691   7.130  0.00  0.00    +0.022 A 
ATOM     20  C   LIG    1       27.617 -20.529   8.083  0.00  0.00    +0.014 A 
ATOM     21  C   LIG    1       28.840 -19.960   7.719  0.00  0.00    +0.039 A 
ATOM     22  C   LIG    1       29.044 -19.544   6.408  0.00  0.00    +0.123 A 
ATOM     23  F   LIG    1       30.220 -19.003   6.064  0.00  0.00    -0.205 F 
ATOM     24  C   LIG    1       28.039 -19.668   5.456  0.00  0.00    +0.039 A 
ATOM     25  C   LIG    1       26.808 -20.226   5.820  0.00  0.00    +0.014 A 
ENDBRANCH  17  19
ENDBRANCH   9  17
TORSDOF 4
ENDMDL
MODEL 2
REMARK VINA RESULT:      -9.5      3.615      5.844
REMARK  Name = *****
REMARK                            x       y       z     vdW  Elec       q    Type
REMARK                         _______ _______ _______ _____ _____    ______ ____
ROOT
ATOM      1  N   LIG    1       24.805 -23.190   7.364  0.00  0.00    -0.109 NA
ATOM      2  C   LIG    1       25.790 -22.415   7.069  0.00  0.00    +0.201 C 
ATOM      3  N   LIG    1       26.959 -22.365   7.827  0.00  0.00    -0.326 N 
ATOM      4  H   LIG    1       27.016 -22.790   8.735  0.00  0.00    +0.169 HD
ATOM      5  C   LIG    1       27.734 -21.282   7.407  0.00  0.00    +0.066 A 
ATOM      6  C   LIG    1       27.096 -20.721   6.285  0.00  0.00    +0.065 A 
ATOM      7  C   LIG    1       27.668 -19.698   5.571  0.00  0.00    +0.028 A 
ATOM      8  C   LIG    1       28.910 -19.220   6.020  0.00  0.00    +0.014 A 
ATOM      9  C   LIG    1       29.555 -19.778   7.154  0.00  0.00    +0.024 A 
ATOM     10  C   LIG    1       28.967 -20.852   7.840  0.00  0.00    +0.039 A 
ATOM     11  N   LIG    1       25.944 -21.471   6.054  0.00  0.00    -0.326 N 
ATOM     12  H   LIG    1       25.185 -21.220   5.437  0.00  0.00    +0.169 HD
ENDROOT
BRANCH   1  13
ATOM     13  C   LIG    1       23.692 -23.126   6.577  0.00  0.00    +0.427 C 
ATOM     14  O   LIG    1       23.242 -22.135   6.020  0.00  0.00    -0.224 OA
BRANCH  13  16
ATOM     15  C   LIG    1       24.032 -25.397   6.183  0.00  0.00    +0.282 C 
ATOM     16  O   LIG    1       23.116 -24.359   6.520  0.00  0.00    -0.452 OA
ENDBRANCH  13  16
ENDBRANCH   1  13
BRANCH   9  17
ATOM     17  C   LIG    1       30.893 -19.241   7.549  0.00  0.00    +0.193 C 
ATOM     18  O   LIG    1       31.880 -19.561   6.891  0.00  0.00    -0.287 OA
BRANCH  17  19
ATOM     19  C   LIG    1       31.073 -18.328   8.716  0.00  0.00    +0.022 A 
ATOM     20  C   LIG    1       30.076 -18.190   9.691  0.00  0.00    +0.014 A 
ATOM     21  C   LIG    1       30.265 -17.325  10.773  0.00  0.00    +0.039 A 
ATOM     22  C   LIG    1       31.442 -16.593  10.874  0.00  0.00    +0.123 A 
ATOM     23  F   LIG    1       31.618 -15.769  11.914  0.00  0.00    -0.205 F 
ATOM     24  C   LIG    1       32.429 -16.693   9.900  0.00  0.00    +0.039 A 
ATOM     25  C   LIG    1       32.239 -17.549   8.809  0.00  0.00    +0.014 A 
ENDBRANCH  17  19
ENDBRANCH   9  17
TORSDOF 4
ENDMDL
MODEL 3
REMARK VINA RESULT:      -9.4      5.320      8.491
REMARK  Name = *****
REMARK                            x       y       z     vdW  Elec       q    Type
REMARK                         _______ _______ _______ _____ _____    ______ ____
ROOT
ATOM      1  N   LIG    1       31.091 -18.252   7.549  0.00  0.00    -0.109 NA
ATOM      2  C   LIG    1       30.148 -19.112   7.384  0.00  0.00    +0.201 C 
ATOM      3  N   LIG    1       29.238 -19.036   6.331  0.00  0.00    -0.326 N 
ATOM      4  H   LIG    1       29.161 -18.214   5.760  0.00  0.00    +0.169 HD
ATOM      5  C   LIG    1       28.208 -19.954   6.545  0.00  0.00    +0.066 A 
ATOM      6  C   LIG    1       28.545 -20.701   7.690  0.00  0.00    +0.065 A 
ATOM      7  C   LIG    1       27.778 -21.762   8.105  0.00  0.00    +0.028 A 
ATOM      8  C   LIG    1       26.632 -22.059   7.350  0.00  0.00    +0.014 A 
ATOM      9  C   LIG    1       26.285 -21.305   6.198  0.00  0.00    +0.024 A 
ATOM     10  C   LIG    1       27.109 -20.252   5.773  0.00  0.00    +0.039 A 
ATOM     11  N   LIG    1       29.768 -20.215   8.147  0.00  0.00    -0.326 N 
ATOM     12  H   LIG    1       30.190 -20.419   9.042  0.00  0.00    +0.169 HD
ENDROOT
BRANCH   1  13
ATOM     13  C   LIG    1       31.898 -18.398   8.641  0.00  0.00    +0.427 C 
ATOM     14  O   LIG    1       32.258 -19.448   9.151  0.00  0.00    -0.224 OA
BRANCH  13  16
ATOM     15  C   LIG    1       31.198 -16.543   9.865  0.00  0.00    +0.282 C 
ATOM     16  O   LIG    1       32.235 -17.166   9.113  0.00  0.00    -0.452 OA
ENDBRANCH  13  16
ENDBRANCH   1  13
BRANCH   9  17
ATOM     17  C   LIG    1       25.070 -21.705   5.424  0.00  0.00    +0.193 C 
ATOM     18  O   LIG    1       24.894 -22.893   5.165  0.00  0.00    -0.287 OA
BRANCH  17  19
ATOM     19  C   LIG    1       24.062 -20.710   4.954  0.00  0.00    +0.022 A 
ATOM     20  C   LIG    1       24.408 -19.695   4.051  0.00  0.00    +0.014 A 
ATOM     21  C   LIG    1       23.448 -18.771   3.629  0.00  0.00    +0.039 A 
ATOM     22  C   LIG    1       22.148 -18.856   4.115  0.00  0.00    +0.123 A 
ATOM     23  F   LIG    1       21.232 -17.970   3.704  0.00  0.00    -0.205 F 
ATOM     24  C   LIG    1       21.793 -19.836   5.035  0.00  0.00    +0.039 A 
ATOM     25  C   LIG    1       22.755 -20.755   5.470  0.00  0.00    +0.014 A 
ENDBRANCH  17  19
ENDBRANCH   9  17
TORSDOF 4
ENDMDL
MODEL 4
REMARK VINA RESULT:      -9.4      5.200      7.097
REMARK  Name = *****
REMARK                            x       y       z     vdW  Elec       q    Type
REMARK                         _______ _______ _______ _____ _____    ______ ____
ROOT
ATOM      1  N   LIG    1       24.654 -21.600   5.489  0.00  0.00    -0.109 NA
ATOM      2  C   LIG    1       25.790 -20.997   5.544  0.00  0.00    +0.201 C 
ATOM      3  N   LIG    1       26.746 -21.284   6.517  0.00  0.00    -0.326 N 
ATOM      4  H   LIG    1       26.525 -21.839   7.325  0.00  0.00    +0.169 HD
ATOM      5  C   LIG    1       27.758 -20.324   6.467  0.00  0.00    +0.066 A 
ATOM      6  C   LIG    1       27.491 -19.493   5.362  0.00  0.00    +0.065 A 
ATOM      7  C   LIG    1       28.367 -18.508   4.977  0.00  0.00    +0.028 A 
ATOM      8  C   LIG    1       29.531 -18.350   5.746  0.00  0.00    +0.014 A 
ATOM      9  C   LIG    1       29.801 -19.181   6.865  0.00  0.00    +0.024 A 
ATOM     10  C   LIG    1       28.910 -20.208   7.210  0.00  0.00    +0.039 A 
ATOM     11  N   LIG    1       26.321 -19.965   4.772  0.00  0.00    -0.326 N 
ATOM     12  H   LIG    1       25.773 -19.484   4.071  0.00  0.00    +0.169 HD
ENDROOT
BRANCH   1  13
ATOM     13  C   LIG    1       23.776 -21.208   4.519  0.00  0.00    +0.427 C 
ATOM     14  O   LIG    1       23.968 -21.208   3.312  0.00  0.00    -0.224 OA
BRANCH  13  16
ATOM     15  C   LIG    1       22.441 -19.366   5.024  0.00  0.00    +0.282 C 
ATOM     16  O   LIG    1       22.627 -20.776   5.108  0.00  0.00    -0.452 OA
ENDBRANCH  13  16
ENDBRANCH   1  13
BRANCH   9  17
ATOM     17  C   LIG    1       31.081 -18.977   7.611  0.00  0.00    +0.193 C 
ATOM     18  O   LIG    1       32.106 -19.510   7.192  0.00  0.00    -0.287 OA
BRANCH  17  19
ATOM     19  C   LIG    1       31.157 -18.147   8.850  0.00  0.00    +0.022 A 
ATOM     20  C   LIG    1       30.104 -18.121   9.774  0.00  0.00    +0.014 A 
ATOM     21  C   LIG    1       30.195 -17.333  10.924  0.00  0.00    +0.039 A 
ATOM     22  C   LIG    1       31.332 -16.564  11.144  0.00  0.00    +0.123 A 
ATOM     23  F   LIG    1       31.415 -15.813  12.250  0.00  0.00    -0.205 F 
ATOM     24  C   LIG    1       32.374 -16.551  10.224  0.00  0.00    +0.039 A 
ATOM     25  C   LIG    1       32.281 -17.331   9.065  0.00  0.00    +0.014 A 
ENDBRANCH  17  19
ENDBRANCH   9  17
TORSDOF 4
ENDMDL
MODEL 5
REMARK VINA RESULT:      -9.3      4.719      6.752
REMARK  Name = *****
REMARK                            x       y       z     vdW  Elec       q    Type
REMARK                         _______ _______ _______ _____ _____    ______ ____
ROOT
ATOM      1  N   LIG    1       24.179 -21.682   7.860  0.00  0.00    -0.109 NA
ATOM      2  C   LIG    1       25.329 -21.244   7.480  0.00  0.00    +0.201 C 
ATOM      3  N   LIG    1       26.390 -21.055   8.364  0.00  0.00    -0.326 N 
ATOM      4  H   LIG    1       26.257 -21.077   9.359  0.00  0.00    +0.169 HD
ATOM      5  C   LIG    1       27.412 -20.360   7.713  0.00  0.00    +0.066 A 
ATOM      6  C   LIG    1       27.032 -20.222   6.365  0.00  0.00    +0.065 A 
ATOM      7  C   LIG    1       27.877 -19.671   5.435  0.00  0.00    +0.028 A 
ATOM      8  C   LIG    1       29.132 -19.233   5.889  0.00  0.00    +0.014 A 
ATOM      9  C   LIG    1       29.518 -19.366   7.248  0.00  0.00    +0.024 A 
ATOM     10  C   LIG    1       28.650 -19.971   8.170  0.00  0.00    +0.039 A 
ATOM     11  N   LIG    1       25.785 -20.829   6.230  0.00  0.00    -0.326 N 
ATOM     12  H   LIG    1       25.167 -20.746   5.435  0.00  0.00    +0.169 HD
ENDROOT
BRANCH   1  13
ATOM     13  C   LIG    1       23.198 -21.788   6.917  0.00  0.00    +0.427 C 
ATOM     14  O   LIG    1       22.678 -22.817   6.511  0.00  0.00    -0.224 OA
BRANCH  13  16
ATOM     15  C   LIG    1       22.451 -20.535   5.100  0.00  0.00    +0.282 C 
ATOM     16  O   LIG    1       22.890 -20.544   6.455  0.00  0.00    -0.452 OA
ENDBRANCH  13  16
ENDBRANCH   1  13
BRANCH   9  17
ATOM     17  C   LIG    1       30.885 -18.911   7.649  0.00  0.00    +0.193 C 
ATOM     18  O   LIG    1       31.846 -19.233   6.955  0.00  0.00    -0.287 OA
BRANCH  17  19
ATOM     19  C   LIG    1       31.123 -18.075   8.863  0.00  0.00    +0.022 A 
ATOM     20  C   LIG    1       30.162 -17.979   9.879  0.00  0.00    +0.014 A 
ATOM     21  C   LIG    1       30.405 -17.187  11.004  0.00  0.00    +0.039 A 
ATOM     22  C   LIG    1       31.600 -16.485  11.109  0.00  0.00    +0.123 A 
ATOM     23  F   LIG    1       31.828 -15.730  12.191  0.00  0.00    -0.205 F 
ATOM     24  C   LIG    1       32.552 -16.542  10.097  0.00  0.00    +0.039 A 
ATOM     25  C   LIG    1       32.307 -17.325   8.963  0.00  0.00    +0.014 A 
ENDBRANCH  17  19
ENDBRANCH   9  17
TORSDOF 4
ENDMDL
MODEL 6
REMARK VINA RESULT:      -8.6      2.784      3.370
REMARK  Name = *****
REMARK                            x       y       z     vdW  Elec       q    Type
REMARK                         _______ _______ _______ _____ _____    ______ ____
ROOT
ATOM      1  N   LIG    1       25.351 -29.987   7.267  0.00  0.00    -0.109 NA
ATOM      2  C   LIG    1       25.354 -28.791   6.789  0.00  0.00    +0.201 C 
ATOM      3  N   LIG    1       25.884 -27.706   7.484  0.00  0.00    -0.326 N 
ATOM      4  H   LIG    1       26.123 -27.770   8.457  0.00  0.00    +0.169 HD
ATOM      5  C   LIG    1       25.537 -26.524   6.827  0.00  0.00    +0.066 A 
ATOM      6  C   LIG    1       24.882 -26.886   5.634  0.00  0.00    +0.065 A 
ATOM      7  C   LIG    1       24.506 -25.944   4.709  0.00  0.00    +0.028 A 
ATOM      8  C   LIG    1       24.785 -24.601   5.011  0.00  0.00    +0.014 A 
ATOM      9  C   LIG    1       25.439 -24.231   6.215  0.00  0.00    +0.024 A 
ATOM     10  C   LIG    1       25.850 -25.218   7.124  0.00  0.00    +0.039 A 
ATOM     11  N   LIG    1       24.841 -28.278   5.598  0.00  0.00    -0.326 N 
ATOM     12  H   LIG    1       24.288 -28.840   4.967  0.00  0.00    +0.169 HD
ENDROOT
BRANCH   1  13
ATOM     13  C   LIG    1       24.766 -30.967   6.518  0.00  0.00    +0.427 C 
ATOM     14  O   LIG    1       23.590 -31.038   6.192  0.00  0.00    -0.224 OA
BRANCH  13  16
ATOM     15  C   LIG    1       25.941 -32.010   4.798  0.00  0.00    +0.282 C 
ATOM     16  O   LIG    1       25.704 -31.902   6.198  0.00  0.00    -0.452 OA
ENDBRANCH  13  16
ENDBRANCH   1  13
BRANCH   9  17
ATOM     17  C   LIG    1       25.736 -22.785   6.449  0.00  0.00    +0.193 C 
ATOM     18  O   LIG    1       26.736 -22.479   7.094  0.00  0.00    -0.287 OA
BRANCH  17  19
ATOM     19  C   LIG    1       24.858 -21.696   5.926  0.00  0.00    +0.022 A 
ATOM     20  C   LIG    1       25.211 -20.964   4.785  0.00  0.00    +0.014 A 
ATOM     21  C   LIG    1       24.376 -19.946   4.316  0.00  0.00    +0.039 A 
ATOM     22  C   LIG    1       23.197 -19.654   4.992  0.00  0.00    +0.123 A 
ATOM     23  F   LIG    1       22.400 -18.680   4.536  0.00  0.00    -0.205 F 
ATOM     24  C   LIG    1       22.846 -20.348   6.144  0.00  0.00    +0.039 A 
ATOM     25  C   LIG    1       23.686 -21.360   6.624  0.00  0.00    +0.014 A 
ENDBRANCH  17  19
ENDBRANCH   9  17
TORSDOF 4
ENDMDL
MODEL 7
REMARK VINA RESULT:      -8.6      4.608      6.632
REMARK  Name = *****
REMARK                            x       y       z     vdW  Elec       q    Type
REMARK                         _______ _______ _______ _____ _____    ______ ____
ROOT
ATOM      1  N   LIG    1       24.598 -20.849   4.389  0.00  0.00    -0.109 NA
ATOM      2  C   LIG    1       25.503 -20.516   5.242  0.00  0.00    +0.201 C 
ATOM      3  N   LIG    1       26.721 -19.954   4.863  0.00  0.00    -0.326 N 
ATOM      4  H   LIG    1       27.024 -19.949   3.906  0.00  0.00    +0.169 HD
ATOM      5  C   LIG    1       27.575 -19.920   5.967  0.00  0.00    +0.066 A 
ATOM      6  C   LIG    1       26.835 -20.356   7.082  0.00  0.00    +0.065 A 
ATOM      7  C   LIG    1       27.367 -20.337   8.348  0.00  0.00    +0.028 A 
ATOM      8  C   LIG    1       28.689 -19.881   8.481  0.00  0.00    +0.014 A 
ATOM      9  C   LIG    1       29.441 -19.446   7.358  0.00  0.00    +0.024 A 
ATOM     10  C   LIG    1       28.858 -19.437   6.082  0.00  0.00    +0.039 A 
ATOM     11  N   LIG    1       25.552 -20.651   6.629  0.00  0.00    -0.326 N 
ATOM     12  H   LIG    1       24.840 -21.150   7.143  0.00  0.00    +0.169 HD
ENDROOT
BRANCH   1  13
ATOM     13  C   LIG    1       23.460 -21.432   4.868  0.00  0.00    +0.427 C 
ATOM     14  O   LIG    1       22.318 -21.012   4.758  0.00  0.00    -0.224 OA
BRANCH  13  16
ATOM     15  C   LIG    1       22.915 -22.878   6.612  0.00  0.00    +0.282 C 
ATOM     16  O   LIG    1       23.792 -22.574   5.532  0.00  0.00    -0.452 OA
ENDBRANCH  13  16
ENDBRANCH   1  13
BRANCH   9  17
ATOM     17  C   LIG    1       30.829 -18.939   7.584  0.00  0.00    +0.193 C 
ATOM     18  O   LIG    1       31.715 -19.258   6.795  0.00  0.00    -0.287 OA
BRANCH  17  19
ATOM     19  C   LIG    1       31.178 -18.056   8.737  0.00  0.00    +0.022 A 
ATOM     20  C   LIG    1       32.405 -17.382   8.790  0.00  0.00    +0.014 A 
ATOM     21  C   LIG    1       32.712 -16.565   9.881  0.00  0.00    +0.039 A 
ATOM     22  C   LIG    1       31.799 -16.430  10.921  0.00  0.00    +0.123 A 
ATOM     23  F   LIG    1       32.098 -15.643  11.962  0.00  0.00    -0.205 F 
ATOM     24  C   LIG    1       30.590 -17.116  10.901  0.00  0.00    +0.039 A 
ATOM     25  C   LIG    1       30.284 -17.945   9.815  0.00  0.00    +0.014 A 
ENDBRANCH  17  19
ENDBRANCH   9  17
TORSDOF 4
ENDMDL
MODEL 8
REMARK VINA RESULT:      -8.5      2.615      3.182
REMARK  Name = *****
REMARK                            x       y       z     vdW  Elec       q    Type
REMARK                         _______ _______ _______ _____ _____    ______ ____
ROOT
ATOM      1  N   LIG    1       25.659 -29.037   5.588  0.00  0.00    -0.109 NA
ATOM      2  C   LIG    1       25.269 -27.814   5.686  0.00  0.00    +0.201 C 
ATOM      3  N   LIG    1       26.121 -26.735   5.457  0.00  0.00    -0.326 N 
ATOM      4  H   LIG    1       27.115 -26.854   5.384  0.00  0.00    +0.169 HD
ATOM      5  C   LIG    1       25.489 -25.557   5.862  0.00  0.00    +0.066 A 
ATOM      6  C   LIG    1       24.175 -25.894   6.236  0.00  0.00    +0.065 A 
ATOM      7  C   LIG    1       23.260 -24.932   6.585  0.00  0.00    +0.028 A 
ATOM      8  C   LIG    1       23.696 -23.597   6.572  0.00  0.00    +0.014 A 
ATOM      9  C   LIG    1       25.022 -23.253   6.201  0.00  0.00    +0.024 A 
ATOM     10  C   LIG    1       25.925 -24.252   5.808  0.00  0.00    +0.039 A 
ATOM     11  N   LIG    1       24.041 -27.269   6.056  0.00  0.00    -0.326 N 
ATOM     12  H   LIG    1       23.282 -27.841   6.398  0.00  0.00    +0.169 HD
ENDROOT
BRANCH   1  13
ATOM     13  C   LIG    1       24.752 -30.016   5.877  0.00  0.00    +0.427 C 
ATOM     14  O   LIG    1       23.535 -29.930   5.814  0.00  0.00    -0.224 OA
BRANCH  13  16
ATOM     15  C   LIG    1       25.901 -31.930   5.210  0.00  0.00    +0.282 C 
ATOM     16  O   LIG    1       25.417 -31.132   6.286  0.00  0.00    -0.452 OA
ENDBRANCH  13  16
ENDBRANCH   1  13
BRANCH   9  17
ATOM     17  C   LIG    1       25.402 -21.807   6.176  0.00  0.00    +0.193 C 
ATOM     18  O   LIG    1       26.460 -21.460   6.696  0.00  0.00    -0.287 OA
BRANCH  17  19
ATOM     19  C   LIG    1       24.541 -20.768   5.537  0.00  0.00    +0.022 A 
ATOM     20  C   LIG    1       23.290 -20.431   6.073  0.00  0.00    +0.014 A 
ATOM     21  C   LIG    1       22.499 -19.459   5.456  0.00  0.00    +0.039 A 
ATOM     22  C   LIG    1       22.952 -18.832   4.300  0.00  0.00    +0.123 A 
ATOM     23  F   LIG    1       22.190 -17.899   3.716  0.00  0.00    -0.205 F 
ATOM     24  C   LIG    1       24.175 -19.175   3.736  0.00  0.00    +0.039 A 
ATOM     25  C   LIG    1       24.966 -20.157   4.345  0.00  0.00    +0.014 A 
ENDBRANCH  17  19
ENDBRANCH   9  17
TORSDOF 4
ENDMDL
MODEL 9
REMARK VINA RESULT:      -8.0      3.622      5.395
REMARK  Name = *****
REMARK                            x       y       z     vdW  Elec       q    Type
REMARK                         _______ _______ _______ _____ _____    ______ ____
ROOT
ATOM      1  N   LIG    1       26.256 -31.352  10.486  0.00  0.00    -0.109 NA
ATOM      2  C   LIG    1       25.959 -30.645   9.452  0.00  0.00    +0.201 C 
ATOM      3  N   LIG    1       26.516 -29.389   9.217  0.00  0.00    -0.326 N 
ATOM      4  H   LIG    1       27.032 -28.900   9.927  0.00  0.00    +0.169 HD
ATOM      5  C   LIG    1       25.838 -28.774   8.163  0.00  0.00    +0.066 A 
ATOM      6  C   LIG    1       24.922 -29.713   7.651  0.00  0.00    +0.065 A 
ATOM      7  C   LIG    1       24.171 -29.446   6.533  0.00  0.00    +0.028 A 
ATOM      8  C   LIG    1       24.341 -28.189   5.932  0.00  0.00    +0.014 A 
ATOM      9  C   LIG    1       25.259 -27.237   6.447  0.00  0.00    +0.024 A 
ATOM     10  C   LIG    1       26.044 -27.552   7.566  0.00  0.00    +0.039 A 
ATOM     11  N   LIG    1       25.061 -30.872   8.411  0.00  0.00    -0.326 N 
ATOM     12  H   LIG    1       24.430 -31.662   8.411  0.00  0.00    +0.169 HD
ENDROOT
BRANCH   1  13
ATOM     13  C   LIG    1       25.618 -32.549  10.638  0.00  0.00    +0.427 C 
ATOM     14  O   LIG    1       26.132 -33.658  10.662  0.00  0.00    -0.224 OA
BRANCH  13  16
ATOM     15  C   LIG    1       23.500 -33.521  10.679  0.00  0.00    +0.282 C 
ATOM     16  O   LIG    1       24.277 -32.329  10.736  0.00  0.00    -0.452 OA
ENDBRANCH  13  16
ENDBRANCH   1  13
BRANCH   9  17
ATOM     17  C   LIG    1       25.413 -25.934   5.730  0.00  0.00    +0.193 C 
ATOM     18  O   LIG    1       26.018 -25.911   4.661  0.00  0.00    -0.287 OA
BRANCH  17  19
ATOM     19  C   LIG    1       24.854 -24.658   6.267  0.00  0.00    +0.022 A 
ATOM     20  C   LIG    1       25.693 -23.636   6.731  0.00  0.00    +0.014 A 
ATOM     21  C   LIG    1       25.147 -22.452   7.234  0.00  0.00    +0.039 A 
ATOM     22  C   LIG    1       23.767 -22.294   7.283  0.00  0.00    +0.123 A 
ATOM     23  F   LIG    1       23.250 -21.156   7.763  0.00  0.00    -0.205 F 
ATOM     24  C   LIG    1       22.918 -23.309   6.857  0.00  0.00    +0.039 A 
ATOM     25  C   LIG    1       23.461 -24.502   6.363  0.00  0.00    +0.014 A 
ENDBRANCH  17  19
ENDBRANCH   9  17
TORSDOF 4
ENDMDL
