MODEL 1
REMARK VINA RESULT:      -8.0      0.000      0.000
REMARK  Name = *****
REMARK                            x       y       z     vdW  Elec       q    Type
REMARK                         _______ _______ _______ _____ _____    ______ ____
ROOT
ATOM      1  C   LIG    1       31.666 -17.858   8.363  0.00  0.00    +0.141 C 
ATOM      2  N   LIG    1       30.880 -19.016   8.011  0.00  0.00    -0.245 N 
ATOM      3  C   LIG    1       29.949 -19.011   7.011  0.00  0.00    +0.229 C 
ATOM      4  O   LIG    1       29.658 -18.054   6.309  0.00  0.00    -0.275 OA
ATOM      5  C   LIG    1       29.346 -20.393   6.900  0.00  0.00    +0.114 C 
ATOM      6  C   LIG    1       30.104 -21.218   7.937  0.00  0.00    +0.114 C 
ATOM      7  C   LIG    1       31.060 -20.248   8.562  0.00  0.00    +0.223 C 
ATOM      8  O   LIG    1       31.879 -20.551   9.418  0.00  0.00    -0.275 OA
ENDROOT
BRANCH   5   9
ATOM      9  C   LIG    1       27.848 -20.454   7.108  0.00  0.00    -0.035 A 
ATOM     10  C   LIG    1       27.000 -20.448   5.989  0.00  0.00    +0.004 A 
ATOM     11  C   LIG    1       25.615 -20.542   6.143  0.00  0.00    +0.000 A 
ATOM     12  C   LIG    1       25.060 -20.650   7.415  0.00  0.00    +0.000 A 
ATOM     13  C   LIG    1       25.889 -20.666   8.534  0.00  0.00    +0.000 A 
ATOM     14  C   LIG    1       27.274 -20.574   8.384  0.00  0.00    +0.004 A 
ENDBRANCH   5   9
TORSDOF 1
ENDMDL
MODEL 2
REMARK VINA RESULT:      -7.9      5.507      6.658
REMARK  Name = *****
REMARK                            x       y       z     vdW  Elec       q    Type
REMARK                         _______ _______ _______ _____ _____    ______ ____
ROOT
ATOM      1  C   LIG    1       24.023 -26.302   6.040  0.00  0.00    +0.141 C 
ATOM      2  N   LIG    1       24.466 -24.954   6.305  0.00  0.00    -0.245 N 
ATOM      3  C   LIG    1       23.613 -23.943   6.643  0.00  0.00    +0.229 C 
ATOM      4  O   LIG    1       22.400 -24.035   6.753  0.00  0.00    -0.275 OA
ATOM      5  C   LIG    1       24.420 -22.685   6.878  0.00  0.00    +0.114 C 
ATOM      6  C   LIG    1       25.869 -23.126   6.688  0.00  0.00    +0.114 C 
ATOM      7  C   LIG    1       25.776 -24.583   6.350  0.00  0.00    +0.223 C 
ATOM      8  O   LIG    1       26.745 -25.306   6.168  0.00  0.00    -0.275 OA
ENDROOT
BRANCH   5   9
ATOM      9  C   LIG    1       24.059 -21.518   5.983  0.00  0.00    -0.035 A 
ATOM     10  C   LIG    1       24.805 -21.295   4.814  0.00  0.00    +0.004 A 
ATOM     11  C   LIG    1       24.475 -20.252   3.946  0.00  0.00    +0.000 A 
ATOM     12  C   LIG    1       23.394 -19.423   4.230  0.00  0.00    +0.000 A 
ATOM     13  C   LIG    1       22.639 -19.637   5.381  0.00  0.00    +0.000 A 
ATOM     14  C   LIG    1       22.964 -20.681   6.250  0.00  0.00    +0.004 A 
ENDBRANCH   5   9
TORSDOF 1
ENDMDL
MODEL 3
REMARK VINA RESULT:      -7.8      2.876      4.307
REMARK  Name = *****
REMARK                            x       y       z     vdW  Elec       q    Type
REMARK                         _______ _______ _______ _____ _____    ______ ____
ROOT
ATOM      1  C   LIG    1       28.729 -20.012   8.217  0.00  0.00    +0.141 C 
ATOM      2  N   LIG    1       27.542 -20.248   7.431  0.00  0.00    -0.245 N 
ATOM      3  C   LIG    1       26.344 -20.607   7.980  0.00  0.00    +0.229 C 
ATOM      4  O   LIG    1       26.124 -20.780   9.170  0.00  0.00    -0.275 OA
ATOM      5  C   LIG    1       25.321 -20.737   6.874  0.00  0.00    +0.114 C 
ATOM      6  C   LIG    1       26.082 -20.343   5.610  0.00  0.00    +0.114 C 
ATOM      7  C   LIG    1       27.469 -20.035   6.088  0.00  0.00    +0.223 C 
ATOM      8  O   LIG    1       28.368 -19.635   5.364  0.00  0.00    -0.275 OA
ENDROOT
BRANCH   5   9
ATOM      9  C   LIG    1       24.684 -22.106   6.751  0.00  0.00    -0.035 A 
ATOM     10  C   LIG    1       25.508 -23.234   6.607  0.00  0.00    +0.004 A 
ATOM     11  C   LIG    1       24.956 -24.514   6.530  0.00  0.00    +0.000 A 
ATOM     12  C   LIG    1       23.577 -24.685   6.600  0.00  0.00    +0.000 A 
ATOM     13  C   LIG    1       22.747 -23.577   6.751  0.00  0.00    +0.000 A 
ATOM     14  C   LIG    1       23.295 -22.295   6.832  0.00  0.00    +0.004 A 
ENDBRANCH   5   9
TORSDOF 1
ENDMDL
MODEL 4
REMARK VINA RESULT:      -7.6      4.345      5.786
REMARK  Name = *****
REMARK                            x       y       z     vdW  Elec       q    Type
REMARK                         _______ _______ _______ _____ _____    ______ ____
ROOT
ATOM      1  C   LIG    1       25.908 -24.340   7.265  0.00  0.00    +0.141 C 
ATOM      2  N   LIG    1       25.355 -23.008   7.338  0.00  0.00    -0.245 N 
ATOM      3  C   LIG    1       24.156 -22.667   6.780  0.00  0.00    +0.229 C 
ATOM      4  O   LIG    1       23.417 -23.416   6.156  0.00  0.00    -0.275 OA
ATOM      5  C   LIG    1       23.878 -21.211   7.076  0.00  0.00    +0.114 C 
ATOM      6  C   LIG    1       25.059 -20.770   7.937  0.00  0.00    +0.114 C 
ATOM      7  C   LIG    1       25.916 -21.995   8.053  0.00  0.00    +0.223 C 
ATOM      8  O   LIG    1       26.944 -22.050   8.713  0.00  0.00    -0.275 OA
ENDROOT
BRANCH   5   9
ATOM      9  C   LIG    1       23.707 -20.333   5.854  0.00  0.00    -0.035 A 
ATOM     10  C   LIG    1       24.736 -20.278   4.899  0.00  0.00    +0.004 A 
ATOM     11  C   LIG    1       24.595 -19.510   3.743  0.00  0.00    +0.000 A 
ATOM     12  C   LIG    1       23.425 -18.790   3.521  0.00  0.00    +0.000 A 
ATOM     13  C   LIG    1       22.393 -18.840   4.454  0.00  0.00    +0.000 A 
ATOM     14  C   LIG    1       22.528 -19.610   5.611  0.00  0.00    +0.004 A 
ENDBRANCH   5   9
TORSDOF 1
ENDMDL
MODEL 5
REMARK VINA RESULT:      -7.1      4.746      6.316
REMARK  Name = *****
REMARK                            x       y       z     vdW  Elec       q    Type
REMARK                         _______ _______ _______ _____ _____    ______ ____
ROOT
ATOM      1  C   LIG    1       24.694 -18.979   3.557  0.00  0.00    +0.141 C 
ATOM      2  N   LIG    1       24.310 -19.769   4.702  0.00  0.00    -0.245 N 
ATOM      3  C   LIG    1       25.210 -20.436   5.483  0.00  0.00    +0.229 C 
ATOM      4  O   LIG    1       26.421 -20.462   5.318  0.00  0.00    -0.275 OA
ATOM      5  C   LIG    1       24.465 -21.126   6.603  0.00  0.00    +0.114 C 
ATOM      6  C   LIG    1       23.009 -20.714   6.396  0.00  0.00    +0.114 C 
ATOM      7  C   LIG    1       23.036 -19.841   5.179  0.00  0.00    +0.223 C 
ATOM      8  O   LIG    1       22.054 -19.276   4.720  0.00  0.00    -0.275 OA
ENDROOT
BRANCH   5   9
ATOM      9  C   LIG    1       24.629 -22.631   6.647  0.00  0.00    -0.035 A 
ATOM     10  C   LIG    1       23.504 -23.449   6.458  0.00  0.00    +0.004 A 
ATOM     11  C   LIG    1       23.625 -24.839   6.453  0.00  0.00    +0.000 A 
ATOM     12  C   LIG    1       24.872 -25.432   6.632  0.00  0.00    +0.000 A 
ATOM     13  C   LIG    1       25.999 -24.634   6.813  0.00  0.00    +0.000 A 
ATOM     14  C   LIG    1       25.882 -23.242   6.815  0.00  0.00    +0.004 A 
ENDBRANCH   5   9
TORSDOF 1
ENDMDL
MODEL 6
REMARK VINA RESULT:      -7.1      2.812      4.243
REMARK  Name = *****
REMARK                            x       y       z     vdW  Elec       q    Type
REMARK                         _______ _______ _______ _____ _____    ______ ____
ROOT
ATOM      1  C   LIG    1       28.519 -19.891   7.996  0.00  0.00    +0.141 C 
ATOM      2  N   LIG    1       27.387 -20.511   7.350  0.00  0.00    -0.245 N 
ATOM      3  C   LIG    1       27.101 -20.343   6.025  0.00  0.00    +0.229 C 
ATOM      4  O   LIG    1       27.737 -19.660   5.236  0.00  0.00    -0.275 OA
ATOM      5  C   LIG    1       25.874 -21.159   5.685  0.00  0.00    +0.114 C 
ATOM      6  C   LIG    1       25.524 -21.872   6.989  0.00  0.00    +0.114 C 
ATOM      7  C   LIG    1       26.561 -21.403   7.964  0.00  0.00    +0.223 C 
ATOM      8  O   LIG    1       26.640 -21.794   9.119  0.00  0.00    -0.275 OA
ENDROOT
BRANCH   5   9
ATOM      9  C   LIG    1       24.707 -20.360   5.143  0.00  0.00    -0.035 A 
ATOM     10  C   LIG    1       23.510 -20.314   5.875  0.00  0.00    +0.004 A 
ATOM     11  C   LIG    1       22.427 -19.556   5.425  0.00  0.00    +0.000 A 
ATOM     12  C   LIG    1       22.527 -18.831   4.241  0.00  0.00    +0.000 A 
ATOM     13  C   LIG    1       23.711 -18.860   3.508  0.00  0.00    +0.000 A 
ATOM     14  C   LIG    1       24.797 -19.614   3.957  0.00  0.00    +0.004 A 
ENDBRANCH   5   9
TORSDOF 1
ENDMDL
MODEL 7
REMARK VINA RESULT:      -7.1      7.629      8.963
REMARK  Name = *****
REMARK                            x       y       z     vdW  Elec       q    Type
REMARK                         _______ _______ _______ _____ _____    ______ ____
ROOT
ATOM      1  C   LIG    1       24.593 -30.072   8.366  0.00  0.00    +0.141 C 
ATOM      2  N   LIG    1       24.736 -29.052   7.354  0.00  0.00    -0.245 N 
ATOM      3  C   LIG    1       25.611 -28.010   7.466  0.00  0.00    +0.229 C 
ATOM      4  O   LIG    1       26.359 -27.800   8.410  0.00  0.00    -0.275 OA
ATOM      5  C   LIG    1       25.520 -27.161   6.218  0.00  0.00    +0.114 C 
ATOM      6  C   LIG    1       24.510 -27.895   5.338  0.00  0.00    +0.114 C 
ATOM      7  C   LIG    1       24.099 -29.085   6.151  0.00  0.00    +0.223 C 
ATOM      8  O   LIG    1       23.326 -29.946   5.759  0.00  0.00    -0.275 OA
ENDROOT
BRANCH   5   9
ATOM      9  C   LIG    1       25.125 -25.719   6.454  0.00  0.00    -0.035 A 
ATOM     10  C   LIG    1       23.771 -25.356   6.373  0.00  0.00    +0.004 A 
ATOM     11  C   LIG    1       23.368 -24.043   6.623  0.00  0.00    +0.000 A 
ATOM     12  C   LIG    1       24.310 -23.076   6.962  0.00  0.00    +0.000 A 
ATOM     13  C   LIG    1       25.656 -23.422   7.054  0.00  0.00    +0.000 A 
ATOM     14  C   LIG    1       26.063 -24.735   6.808  0.00  0.00    +0.004 A 
ENDBRANCH   5   9
TORSDOF 1
ENDMDL
MODEL 8
REMARK VINA RESULT:      -6.9      4.115      6.063
REMARK  Name = *****
REMARK                            x       y       z     vdW  Elec       q    Type
REMARK                         _______ _______ _______ _____ _____    ______ ____
ROOT
ATOM      1  C   LIG    1       22.373 -22.814   6.502  0.00  0.00    +0.141 C 
ATOM      2  N   LIG    1       23.766 -22.914   6.864  0.00  0.00    -0.245 N 
ATOM      3  C   LIG    1       24.418 -21.959   7.590  0.00  0.00    +0.229 C 
ATOM      4  O   LIG    1       23.930 -20.921   8.011  0.00  0.00    -0.275 OA
ATOM      5  C   LIG    1       25.847 -22.405   7.809  0.00  0.00    +0.114 C 
ATOM      6  C   LIG    1       25.914 -23.784   7.158  0.00  0.00    +0.114 C 
ATOM      7  C   LIG    1       24.536 -24.009   6.612  0.00  0.00    +0.223 C 
ATOM      8  O   LIG    1       24.182 -25.036   6.052  0.00  0.00    -0.275 OA
ENDROOT
BRANCH   5   9
ATOM      9  C   LIG    1       26.900 -21.465   7.261  0.00  0.00    -0.035 A 
ATOM     10  C   LIG    1       28.184 -21.468   7.829  0.00  0.00    +0.004 A 
ATOM     11  C   LIG    1       29.189 -20.643   7.323  0.00  0.00    +0.000 A 
ATOM     12  C   LIG    1       28.928 -19.808   6.240  0.00  0.00    +0.000 A 
ATOM     13  C   LIG    1       27.662 -19.799   5.660  0.00  0.00    +0.000 A 
ATOM     14  C   LIG    1       26.655 -20.626   6.162  0.00  0.00    +0.004 A 
ENDBRANCH   5   9
TORSDOF 1
ENDMDL
MODEL 9
REMARK VINA RESULT:      -6.9      1.299      1.702
REMARK  Name = *****
REMARK                            x       y       z     vdW  Elec       q    Type
REMARK                         _______ _______ _______ _____ _____    ______ ____
ROOT
ATOM      1  C   LIG    1       30.435 -18.429   7.523  0.00  0.00    +0.141 C 
ATOM      2  N   LIG    1       29.522 -19.518   7.267  0.00  0.00    -0.245 N 
ATOM      3  C   LIG    1       28.672 -19.542   6.199  0.00  0.00    +0.229 C 
ATOM      4  O   LIG    1       28.564 -18.671   5.349  0.00  0.00    -0.275 OA
ATOM      5  C   LIG    1       27.893 -20.838   6.227  0.00  0.00    +0.114 C 
ATOM      6  C   LIG    1       28.457 -21.590   7.430  0.00  0.00    +0.114 C 
ATOM      7  C   LIG    1       29.493 -20.668   7.997  0.00  0.00    +0.223 C 
ATOM      8  O   LIG    1       30.202 -20.942   8.954  0.00  0.00    -0.275 OA
ENDROOT
BRANCH   5   9
ATOM      9  C   LIG    1       26.390 -20.678   6.310  0.00  0.00    -0.035 A 
ATOM     10  C   LIG    1       25.661 -20.425   5.137  0.00  0.00    +0.004 A 
ATOM     11  C   LIG    1       24.271 -20.309   5.171  0.00  0.00    +0.000 A 
ATOM     12  C   LIG    1       23.588 -20.451   6.376  0.00  0.00    +0.000 A 
ATOM     13  C   LIG    1       24.295 -20.710   7.547  0.00  0.00    +0.000 A 
ATOM     14  C   LIG    1       25.686 -20.829   7.516  0.00  0.00    +0.004 A 
ENDBRANCH   5   9
TORSDOF 1
ENDMDL
