MODEL 1
REMARK VINA RESULT:      -8.3      0.000      0.000
REMARK  Name = *****
REMARK                            x       y       z     vdW  Elec       q    Type
REMARK                         _______ _______ _______ _____ _____    ______ ____
ROOT
ATOM      1  C   LIG    1       25.269 -32.547   9.082  0.00  0.00    +0.107 C 
ENDROOT
BRANCH   1   2
ATOM      2  N   LIG    1       24.926 -32.043   7.752  0.00  0.00    -0.308 N 
ATOM      3  H   LIG    1       24.329 -31.220   7.723  0.00  0.00    +0.149 HD
ATOM      4  C   LIG    1       25.750 -32.199   6.653  0.00  0.00    +0.234 C 
ATOM      5  O   LIG    1       26.842 -32.762   6.696  0.00  0.00    -0.274 OA
BRANCH   4   6
ATOM      6  C   LIG    1       25.245 -31.494   5.388  0.00  0.00    +0.168 C 
BRANCH   6   7
ATOM      7  N   LIG    1       25.508 -30.089   5.648  0.00  0.00    -0.298 N 
ATOM      8  H   LIG    1       26.437 -29.709   5.542  0.00  0.00    +0.150 HD
ATOM      9  C   LIG    1       24.458 -29.201   5.774  0.00  0.00    +0.263 C 
ATOM     10  O   LIG    1       23.299 -29.537   5.760  0.00  0.00    -0.269 OA
BRANCH   9  11
ATOM     11  C   LIG    1       24.858 -27.785   5.986  0.00  0.00    +0.126 A 
ATOM     12  N   LIG    1       23.884 -26.854   6.108  0.00  0.00    -0.242 NA
ATOM     13  C   LIG    1       24.278 -25.584   6.337  0.00  0.00    +0.072 A 
ATOM     14  C   LIG    1       25.647 -25.220   6.376  0.00  0.00    +0.000 A 
ATOM     15  C   LIG    1       26.032 -23.893   6.616  0.00  0.00    +0.010 A 
ATOM     16  C   LIG    1       25.070 -22.915   6.849  0.00  0.00    +0.001 A 
ATOM     17  C   LIG    1       23.723 -23.259   6.828  0.00  0.00    +0.002 A 
ATOM     18  C   LIG    1       26.614 -26.210   6.189  0.00  0.00    +0.012 A 
ATOM     19  C   LIG    1       23.341 -24.582   6.565  0.00  0.00    +0.028 A 
ATOM     20  C   LIG    1       26.218 -27.525   6.009  0.00  0.00    +0.034 A 
ENDBRANCH   9  11
ENDBRANCH   6   7
BRANCH   6  21
ATOM     21  C   LIG    1       25.981 -31.925   4.116  0.00  0.00    +0.127 C 
BRANCH  21  22
ATOM     22  C   LIG    1       25.239 -33.063   3.461  0.00  0.00    +0.213 C 
ATOM     23  O   LIG    1       24.192 -33.523   3.855  0.00  0.00    -0.276 OA
ATOM     24  N   LIG    1       25.896 -33.562   2.361  0.00  0.00    -0.329 N 
ATOM     25  H   LIG    1       25.508 -34.408   1.971  0.00  0.00    +0.145 HD
ATOM     26  H   LIG    1       26.869 -33.363   2.182  0.00  0.00    +0.145 HD
ENDBRANCH  21  22
ENDBRANCH   6  21
ENDBRANCH   4   6
ENDBRANCH   1   2
BRANCH   1  27
ATOM     27  C   LIG    1       24.100 -32.560  10.135  0.00  0.00    +0.149 C 
BRANCH  27  28
ATOM     28  O   LIG    1       23.414 -33.811   9.932  0.00  0.00    -0.389 OA
ATOM     29  H   LIG    1       22.946 -33.737   9.082  0.00  0.00    +0.210 HD
ENDBRANCH  27  28
BRANCH  27  30
ATOM     30  C   LIG    1       24.477 -32.339  11.650  0.00  0.00    +0.118 C 
BRANCH  30  32
ATOM     31  C   LIG    1       22.364 -30.950  11.946  0.00  0.00    +0.143 C 
ATOM     32  N   LIG    1       23.368 -31.875  12.575  0.00  0.00    -0.289 NA
ATOM     33  C   LIG    1       23.918 -31.064  13.714  0.00  0.00    +0.089 C 
ATOM     34  C   LIG    1       24.682 -29.771  13.307  0.00  0.00    +0.006 C 
ATOM     35  C   LIG    1       23.886 -28.891  12.319  0.00  0.00    -0.005 C 
ATOM     36  C   LIG    1       22.989 -27.856  13.012  0.00  0.00    +0.004 C 
ATOM     37  C   LIG    1       23.783 -27.004  13.985  0.00  0.00    +0.000 C 
ATOM     38  C   LIG    1       24.366 -27.878  15.081  0.00  0.00    +0.000 C 
ATOM     39  C   LIG    1       25.252 -28.982  14.509  0.00  0.00    +0.005 C 
ATOM     40  C   LIG    1       23.047 -29.706  11.326  0.00  0.00    +0.032 C 
BRANCH  31  43
ATOM     41  N   LIG    1       20.380 -32.460  11.362  0.00  0.00    -0.309 N 
ATOM     42  H   LIG    1       20.372 -32.678  12.352  0.00  0.00    +0.149 HD
ATOM     43  C   LIG    1       21.307 -31.502  10.957  0.00  0.00    +0.231 C 
ATOM     44  O   LIG    1       21.204 -30.942   9.864  0.00  0.00    -0.274 OA
BRANCH  41  46
ATOM     45  C   LIG    1       18.128 -33.587  11.401  0.00  0.00    +0.031 C 
ATOM     46  C   LIG    1       19.141 -32.778  10.561  0.00  0.00    +0.026 C 
ATOM     47  C   LIG    1       18.424 -31.499  10.071  0.00  0.00    +0.031 C 
ATOM     48  C   LIG    1       19.445 -33.674   9.341  0.00  0.00    +0.031 C 
ENDBRANCH  41  46
ENDBRANCH  31  43
ENDBRANCH  30  32
ENDBRANCH  27  30
ENDBRANCH   1  27
BRANCH   1  49
ATOM     49  C   LIG    1       26.636 -32.001   9.602  0.00  0.00    +0.060 C 
BRANCH  49  50
ATOM     50  C   LIG    1       26.742 -30.554  10.021  0.00  0.00    -0.045 A 
ATOM     51  C   LIG    1       26.173 -29.527   9.257  0.00  0.00    +0.003 A 
ATOM     52  C   LIG    1       26.369 -28.189   9.615  0.00  0.00    +0.000 A 
ATOM     53  C   LIG    1       27.104 -27.863  10.753  0.00  0.00    +0.000 A 
ATOM     54  C   LIG    1       27.627 -28.873  11.548  0.00  0.00    +0.000 A 
ATOM     55  C   LIG    1       27.490 -30.200  11.150  0.00  0.00    +0.003 A 
ENDBRANCH  49  50
ENDBRANCH   1  49
TORSDOF 14
ENDMDL
MODEL 2
REMARK VINA RESULT:      -8.2      1.578      2.045
REMARK  Name = *****
REMARK                            x       y       z     vdW  Elec       q    Type
REMARK                         _______ _______ _______ _____ _____    ______ ____
ROOT
ATOM      1  C   LIG    1       24.277 -31.831   9.646  0.00  0.00    +0.107 C 
ENDROOT
BRANCH   1   2
ATOM      2  N   LIG    1       24.796 -31.342   8.370  0.00  0.00    -0.308 N 
ATOM      3  H   LIG    1       25.804 -31.216   8.312  0.00  0.00    +0.149 HD
ATOM      4  C   LIG    1       24.174 -31.590   7.159  0.00  0.00    +0.234 C 
ATOM      5  O   LIG    1       23.142 -32.248   7.047  0.00  0.00    -0.274 OA
BRANCH   4   6
ATOM      6  C   LIG    1       24.953 -31.080   5.940  0.00  0.00    +0.168 C 
BRANCH   6   7
ATOM      7  N   LIG    1       25.201 -29.682   6.251  0.00  0.00    -0.298 N 
ATOM      8  H   LIG    1       26.114 -29.375   6.554  0.00  0.00    +0.150 HD
ATOM      9  C   LIG    1       24.287 -28.717   5.877  0.00  0.00    +0.263 C 
ATOM     10  O   LIG    1       23.224 -28.973   5.364  0.00  0.00    -0.269 OA
BRANCH   9  11
ATOM     11  C   LIG    1       24.680 -27.322   6.204  0.00  0.00    +0.126 A 
ATOM     12  N   LIG    1       23.729 -26.360   6.164  0.00  0.00    -0.242 NA
ATOM     13  C   LIG    1       24.108 -25.111   6.503  0.00  0.00    +0.072 A 
ATOM     14  C   LIG    1       25.455 -24.796   6.815  0.00  0.00    +0.000 A 
ATOM     15  C   LIG    1       25.825 -23.489   7.165  0.00  0.00    +0.010 A 
ATOM     16  C   LIG    1       24.866 -22.484   7.237  0.00  0.00    +0.001 A 
ATOM     17  C   LIG    1       23.538 -22.780   6.947  0.00  0.00    +0.002 A 
ATOM     18  C   LIG    1       26.410 -25.814   6.788  0.00  0.00    +0.012 A 
ATOM     19  C   LIG    1       23.176 -24.082   6.576  0.00  0.00    +0.028 A 
ATOM     20  C   LIG    1       26.017 -27.110   6.496  0.00  0.00    +0.034 A 
ENDBRANCH   9  11
ENDBRANCH   6   7
BRANCH   6  21
ATOM     21  C   LIG    1       26.286 -31.800   5.725  0.00  0.00    +0.127 C 
BRANCH  21  22
ATOM     22  C   LIG    1       26.080 -32.990   4.821  0.00  0.00    +0.213 C 
ATOM     23  O   LIG    1       25.215 -33.824   4.964  0.00  0.00    -0.276 OA
ATOM     24  N   LIG    1       27.009 -33.058   3.811  0.00  0.00    -0.329 N 
ATOM     25  H   LIG    1       26.995 -33.906   3.264  0.00  0.00    +0.145 HD
ATOM     26  H   LIG    1       27.867 -32.528   3.835  0.00  0.00    +0.145 HD
ENDBRANCH  21  22
ENDBRANCH   6  21
ENDBRANCH   4   6
ENDBRANCH   1   2
BRANCH   1  27
ATOM     27  C   LIG    1       22.796 -31.424   9.987  0.00  0.00    +0.149 C 
BRANCH  27  28
ATOM     28  O   LIG    1       22.200 -32.599  10.571  0.00  0.00    -0.389 OA
ATOM     29  H   LIG    1       22.894 -33.282  10.592  0.00  0.00    +0.210 HD
ENDBRANCH  27  28
BRANCH  27  30
ATOM     30  C   LIG    1       22.575 -30.149  10.887  0.00  0.00    +0.118 C 
BRANCH  30  32
ATOM     31  C   LIG    1       21.221 -30.007  13.038  0.00  0.00    +0.143 C 
ATOM     32  N   LIG    1       22.528 -30.365  12.387  0.00  0.00    -0.289 NA
ATOM     33  C   LIG    1       23.518 -29.480  13.093  0.00  0.00    +0.089 C 
ATOM     34  C   LIG    1       23.311 -27.952  12.891  0.00  0.00    +0.006 C 
ATOM     35  C   LIG    1       21.859 -27.502  13.162  0.00  0.00    -0.005 C 
ATOM     36  C   LIG    1       21.608 -27.102  14.621  0.00  0.00    +0.004 C 
ATOM     37  C   LIG    1       22.600 -26.048  15.081  0.00  0.00    +0.000 C 
ATOM     38  C   LIG    1       24.011 -26.607  15.020  0.00  0.00    +0.000 C 
ATOM     39  C   LIG    1       24.366 -27.082  13.613  0.00  0.00    +0.005 C 
ATOM     40  C   LIG    1       20.815 -28.544  12.735  0.00  0.00    +0.032 C 
BRANCH  31  43
ATOM     41  N   LIG    1       18.708 -30.478  13.188  0.00  0.00    -0.309 N 
ATOM     42  H   LIG    1       18.631 -29.494  13.424  0.00  0.00    +0.149 HD
ATOM     43  C   LIG    1       19.987 -30.928  12.868  0.00  0.00    +0.231 C 
ATOM     44  O   LIG    1       20.154 -31.998  12.279  0.00  0.00    -0.274 OA
BRANCH  41  46
ATOM     45  C   LIG    1       16.201 -30.333  12.989  0.00  0.00    +0.031 C 
ATOM     46  C   LIG    1       17.459 -31.193  12.733  0.00  0.00    +0.026 C 
ATOM     47  C   LIG    1       17.499 -31.523  11.223  0.00  0.00    +0.031 C 
ATOM     48  C   LIG    1       17.211 -32.498  13.520  0.00  0.00    +0.031 C 
ENDBRANCH  41  46
ENDBRANCH  31  43
ENDBRANCH  30  32
ENDBRANCH  27  30
ENDBRANCH   1  27
BRANCH   1  49
ATOM     49  C   LIG    1       25.301 -31.679  10.815  0.00  0.00    +0.060 C 
BRANCH  49  50
ATOM     50  C   LIG    1       26.047 -30.376  10.978  0.00  0.00    -0.045 A 
ATOM     51  C   LIG    1       26.761 -30.083  12.146  0.00  0.00    +0.003 A 
ATOM     52  C   LIG    1       27.362 -28.830  12.311  0.00  0.00    +0.000 A 
ATOM     53  C   LIG    1       27.285 -27.872  11.303  0.00  0.00    +0.000 A 
ATOM     54  C   LIG    1       26.626 -28.170  10.118  0.00  0.00    +0.000 A 
ATOM     55  C   LIG    1       25.969 -29.391   9.986  0.00  0.00    +0.003 A 
ENDBRANCH  49  50
ENDBRANCH   1  49
TORSDOF 14
ENDMDL
MODEL 3
REMARK VINA RESULT:      -8.1      2.128      4.522
REMARK  Name = *****
REMARK                            x       y       z     vdW  Elec       q    Type
REMARK                         _______ _______ _______ _____ _____    ______ ____
ROOT
ATOM      1  C   LIG    1       24.319 -30.465  11.229  0.00  0.00    +0.107 C 
ENDROOT
BRANCH   1   2
ATOM      2  N   LIG    1       24.172 -30.265   9.788  0.00  0.00    -0.308 N 
ATOM      3  H   LIG    1       23.414 -29.656   9.493  0.00  0.00    +0.149 HD
ATOM      4  C   LIG    1       25.237 -30.331   8.907  0.00  0.00    +0.234 C 
ATOM      5  O   LIG    1       26.395 -30.553   9.254  0.00  0.00    -0.274 OA
BRANCH   4   6
ATOM      6  C   LIG    1       24.873 -29.978   7.459  0.00  0.00    +0.168 C 
BRANCH   6   7
ATOM      7  N   LIG    1       24.971 -28.528   7.424  0.00  0.00    -0.298 N 
ATOM      8  H   LIG    1       25.574 -28.036   8.067  0.00  0.00    +0.150 HD
ATOM      9  C   LIG    1       24.465 -27.827   6.348  0.00  0.00    +0.263 C 
ATOM     10  O   LIG    1       23.857 -28.346   5.444  0.00  0.00    -0.269 OA
BRANCH   9  11
ATOM     11  C   LIG    1       24.673 -26.356   6.406  0.00  0.00    +0.126 A 
ATOM     12  N   LIG    1       23.584 -25.553   6.427  0.00  0.00    -0.242 NA
ATOM     13  C   LIG    1       23.805 -24.225   6.518  0.00  0.00    +0.072 A 
ATOM     14  C   LIG    1       25.115 -23.683   6.515  0.00  0.00    +0.000 A 
ATOM     15  C   LIG    1       25.320 -22.298   6.611  0.00  0.00    +0.010 A 
ATOM     16  C   LIG    1       24.236 -21.436   6.737  0.00  0.00    +0.001 A 
ATOM     17  C   LIG    1       22.945 -21.955   6.755  0.00  0.00    +0.002 A 
ATOM     18  C   LIG    1       26.205 -24.551   6.435  0.00  0.00    +0.012 A 
ATOM     19  C   LIG    1       22.743 -23.336   6.637  0.00  0.00    +0.028 A 
ATOM     20  C   LIG    1       25.987 -25.918   6.399  0.00  0.00    +0.034 A 
ENDBRANCH   9  11
ENDBRANCH   6   7
BRANCH   6  21
ATOM     21  C   LIG    1       25.830 -30.580   6.427  0.00  0.00    +0.127 C 
BRANCH  21  22
ATOM     22  C   LIG    1       25.223 -31.829   5.840  0.00  0.00    +0.213 C 
ATOM     23  O   LIG    1       25.800 -32.885   5.714  0.00  0.00    -0.276 OA
ATOM     24  N   LIG    1       23.925 -31.645   5.423  0.00  0.00    -0.329 N 
ATOM     25  H   LIG    1       23.523 -32.410   4.902  0.00  0.00    +0.145 HD
ATOM     26  H   LIG    1       23.531 -30.726   5.289  0.00  0.00    +0.145 HD
ENDBRANCH  21  22
ENDBRANCH   6  21
ENDBRANCH   4   6
ENDBRANCH   1   2
BRANCH   1  27
ATOM     27  C   LIG    1       23.902 -31.881  11.773  0.00  0.00    +0.149 C 
BRANCH  27  28
ATOM     28  O   LIG    1       24.635 -32.052  13.001  0.00  0.00    -0.389 OA
ATOM     29  H   LIG    1       24.673 -31.177  13.427  0.00  0.00    +0.210 HD
ENDBRANCH  27  28
BRANCH  27  30
ATOM     30  C   LIG    1       22.363 -32.167  11.966  0.00  0.00    +0.118 C 
BRANCH  30  32
ATOM     31  C   LIG    1       20.223 -30.795  12.113  0.00  0.00    +0.143 C 
ATOM     32  N   LIG    1       21.396 -31.225  11.276  0.00  0.00    -0.289 NA
ATOM     33  C   LIG    1       20.750 -31.885  10.090  0.00  0.00    +0.089 C 
ATOM     34  C   LIG    1       19.923 -33.164  10.406  0.00  0.00    +0.006 C 
ATOM     35  C   LIG    1       18.914 -32.956  11.556  0.00  0.00    -0.005 C 
ATOM     36  C   LIG    1       17.538 -32.474  11.078  0.00  0.00    +0.004 C 
ATOM     37  C   LIG    1       16.970 -33.396  10.014  0.00  0.00    +0.000 C 
ATOM     38  C   LIG    1       17.878 -33.398   8.796  0.00  0.00    +0.000 C 
ATOM     39  C   LIG    1       19.299 -33.825   9.155  0.00  0.00    +0.005 C 
ATOM     40  C   LIG    1       19.432 -32.013  12.650  0.00  0.00    +0.032 C 
BRANCH  31  43
ATOM     41  N   LIG    1       19.915 -28.468  13.135  0.00  0.00    -0.309 N 
ATOM     42  H   LIG    1       19.333 -28.289  12.324  0.00  0.00    +0.149 HD
ATOM     43  C   LIG    1       20.414 -29.763  13.252  0.00  0.00    +0.231 C 
ATOM     44  O   LIG    1       20.863 -30.176  14.323  0.00  0.00    -0.274 OA
BRANCH  41  46
ATOM     45  C   LIG    1       19.074 -28.253  15.499  0.00  0.00    +0.031 C 
ATOM     46  C   LIG    1       19.774 -27.543  14.320  0.00  0.00    +0.026 C 
ATOM     47  C   LIG    1       21.146 -27.040  14.827  0.00  0.00    +0.031 C 
ATOM     48  C   LIG    1       18.882 -26.322  14.009  0.00  0.00    +0.031 C 
ENDBRANCH  41  46
ENDBRANCH  31  43
ENDBRANCH  30  32
ENDBRANCH  27  30
ENDBRANCH   1  27
BRANCH   1  49
ATOM     49  C   LIG    1       23.810 -29.248  12.064  0.00  0.00    +0.060 C 
BRANCH  49  50
ATOM     50  C   LIG    1       24.793 -28.183  12.492  0.00  0.00    -0.045 A 
ATOM     51  C   LIG    1       24.408 -27.123  13.321  0.00  0.00    +0.003 A 
ATOM     52  C   LIG    1       25.311 -26.098  13.623  0.00  0.00    +0.000 A 
ATOM     53  C   LIG    1       26.614 -26.138  13.130  0.00  0.00    +0.000 A 
ATOM     54  C   LIG    1       27.023 -27.212  12.351  0.00  0.00    +0.000 A 
ATOM     55  C   LIG    1       26.102 -28.193  11.995  0.00  0.00    +0.003 A 
ENDBRANCH  49  50
ENDBRANCH   1  49
TORSDOF 14
ENDMDL
MODEL 4
REMARK VINA RESULT:      -8.0      2.810      5.685
REMARK  Name = *****
REMARK                            x       y       z     vdW  Elec       q    Type
REMARK                         _______ _______ _______ _____ _____    ______ ____
ROOT
ATOM      1  C   LIG    1       24.961 -30.383  10.240  0.00  0.00    +0.107 C 
ENDROOT
BRANCH   1   2
ATOM      2  N   LIG    1       24.723 -30.002   8.849  0.00  0.00    -0.308 N 
ATOM      3  H   LIG    1       24.789 -29.010   8.636  0.00  0.00    +0.149 HD
ATOM      4  C   LIG    1       24.991 -30.841   7.782  0.00  0.00    +0.234 C 
ATOM      5  O   LIG    1       25.460 -31.971   7.906  0.00  0.00    -0.274 OA
BRANCH   4   6
ATOM      6  C   LIG    1       24.772 -30.194   6.408  0.00  0.00    +0.168 C 
BRANCH   6   7
ATOM      7  N   LIG    1       24.878 -28.770   6.677  0.00  0.00    -0.298 N 
ATOM      8  H   LIG    1       25.401 -28.432   7.472  0.00  0.00    +0.150 HD
ATOM      9  C   LIG    1       24.506 -27.855   5.713  0.00  0.00    +0.263 C 
ATOM     10  O   LIG    1       24.009 -28.167   4.658  0.00  0.00    -0.269 OA
BRANCH   9  11
ATOM     11  C   LIG    1       24.710 -26.431   6.089  0.00  0.00    +0.126 A 
ATOM     12  N   LIG    1       23.625 -25.627   6.175  0.00  0.00    -0.242 NA
ATOM     13  C   LIG    1       23.838 -24.351   6.555  0.00  0.00    +0.072 A 
ATOM     14  C   LIG    1       25.143 -23.846   6.784  0.00  0.00    +0.000 A 
ATOM     15  C   LIG    1       25.340 -22.515   7.179  0.00  0.00    +0.010 A 
ATOM     16  C   LIG    1       24.250 -21.675   7.380  0.00  0.00    +0.001 A 
ATOM     17  C   LIG    1       22.963 -22.159   7.173  0.00  0.00    +0.002 A 
ATOM     18  C   LIG    1       26.235 -24.702   6.628  0.00  0.00    +0.012 A 
ATOM     19  C   LIG    1       22.771 -23.483   6.757  0.00  0.00    +0.028 A 
ATOM     20  C   LIG    1       26.019 -26.029   6.293  0.00  0.00    +0.034 A 
ENDBRANCH   9  11
ENDBRANCH   6   7
BRANCH   6  21
ATOM     21  C   LIG    1       25.824 -30.598   5.371  0.00  0.00    +0.127 C 
BRANCH  21  22
ATOM     22  C   LIG    1       25.519 -31.979   4.850  0.00  0.00    +0.213 C 
ATOM     23  O   LIG    1       26.338 -32.739   4.385  0.00  0.00    -0.276 OA
ATOM     24  N   LIG    1       24.183 -32.294   4.926  0.00  0.00    -0.329 N 
ATOM     25  H   LIG    1       23.911 -33.150   4.467  0.00  0.00    +0.145 HD
ATOM     26  H   LIG    1       23.474 -31.589   5.067  0.00  0.00    +0.145 HD
ENDBRANCH  21  22
ENDBRANCH   6  21
ENDBRANCH   4   6
ENDBRANCH   1   2
BRANCH   1  27
ATOM     27  C   LIG    1       26.464 -30.627  10.639  0.00  0.00    +0.149 C 
BRANCH  27  28
ATOM     28  O   LIG    1       27.240 -29.887   9.677  0.00  0.00    -0.389 OA
ATOM     29  H   LIG    1       28.113 -30.316   9.634  0.00  0.00    +0.210 HD
ENDBRANCH  27  28
BRANCH  27  30
ATOM     30  C   LIG    1       26.893 -30.291  12.118  0.00  0.00    +0.118 C 
BRANCH  30  32
ATOM     31  C   LIG    1       27.782 -28.608  13.810  0.00  0.00    +0.143 C 
ATOM     32  N   LIG    1       27.293 -28.858  12.410  0.00  0.00    -0.289 NA
ATOM     33  C   LIG    1       26.116 -27.931  12.286  0.00  0.00    +0.089 C 
ATOM     34  C   LIG    1       24.928 -28.229  13.245  0.00  0.00    +0.006 C 
ATOM     35  C   LIG    1       25.369 -28.388  14.716  0.00  0.00    -0.005 C 
ATOM     36  C   LIG    1       25.359 -27.069  15.500  0.00  0.00    +0.004 C 
ATOM     37  C   LIG    1       24.008 -26.382  15.407  0.00  0.00    +0.000 C 
ATOM     38  C   LIG    1       23.707 -26.031  13.960  0.00  0.00    +0.000 C 
ATOM     39  C   LIG    1       23.729 -27.267  13.065  0.00  0.00    +0.005 C 
ATOM     40  C   LIG    1       26.741 -29.057  14.865  0.00  0.00    +0.032 C 
BRANCH  31  43
ATOM     41  N   LIG    1       30.242 -29.131  13.328  0.00  0.00    -0.309 N 
ATOM     42  H   LIG    1       30.055 -28.727  12.417  0.00  0.00    +0.149 HD
ATOM     43  C   LIG    1       29.190 -29.089  14.241  0.00  0.00    +0.231 C 
ATOM     44  O   LIG    1       29.388 -29.262  15.445  0.00  0.00    -0.274 OA
BRANCH  41  46
ATOM     45  C   LIG    1       31.885 -30.502  14.657  0.00  0.00    +0.031 C 
ATOM     46  C   LIG    1       31.683 -29.262  13.758  0.00  0.00    +0.026 C 
ATOM     47  C   LIG    1       32.637 -29.403  12.549  0.00  0.00    +0.031 C 
ATOM     48  C   LIG    1       32.149 -28.070  14.621  0.00  0.00    +0.031 C 
ENDBRANCH  41  46
ENDBRANCH  31  43
ENDBRANCH  30  32
ENDBRANCH  27  30
ENDBRANCH   1  27
BRANCH   1  49
ATOM     49  C   LIG    1       23.947 -31.453  10.756  0.00  0.00    +0.060 C 
BRANCH  49  50
ATOM     50  C   LIG    1       23.145 -31.169  12.004  0.00  0.00    -0.045 A 
ATOM     51  C   LIG    1       21.937 -30.464  11.952  0.00  0.00    +0.003 A 
ATOM     52  C   LIG    1       21.263 -30.129  13.131  0.00  0.00    +0.000 A 
ATOM     53  C   LIG    1       21.769 -30.521  14.369  0.00  0.00    +0.000 A 
ATOM     54  C   LIG    1       22.938 -31.267  14.430  0.00  0.00    +0.000 A 
ATOM     55  C   LIG    1       23.643 -31.537  13.260  0.00  0.00    +0.003 A 
ENDBRANCH  49  50
ENDBRANCH   1  49
TORSDOF 14
ENDMDL
MODEL 5
REMARK VINA RESULT:      -7.9      1.787      4.251
REMARK  Name = *****
REMARK                            x       y       z     vdW  Elec       q    Type
REMARK                         _______ _______ _______ _____ _____    ______ ____
ROOT
ATOM      1  C   LIG    1       25.340 -31.033  10.437  0.00  0.00    +0.107 C 
ENDROOT
BRANCH   1   2
ATOM      2  N   LIG    1       24.926 -30.695   9.076  0.00  0.00    -0.308 N 
ATOM      3  H   LIG    1       24.345 -29.867   8.975  0.00  0.00    +0.149 HD
ATOM      4  C   LIG    1       25.679 -31.014   7.960  0.00  0.00    +0.234 C 
ATOM      5  O   LIG    1       26.760 -31.597   8.012  0.00  0.00    -0.274 OA
BRANCH   4   6
ATOM      6  C   LIG    1       25.111 -30.464   6.645  0.00  0.00    +0.168 C 
BRANCH   6   7
ATOM      7  N   LIG    1       25.223 -29.023   6.798  0.00  0.00    -0.298 N 
ATOM      8  H   LIG    1       25.977 -28.618   7.334  0.00  0.00    +0.150 HD
ATOM      9  C   LIG    1       24.475 -28.183   5.997  0.00  0.00    +0.263 C 
ATOM     10  O   LIG    1       23.651 -28.577   5.210  0.00  0.00    -0.269 OA
BRANCH   9  11
ATOM     11  C   LIG    1       24.718 -26.732   6.214  0.00  0.00    +0.126 A 
ATOM     12  N   LIG    1       23.650 -25.903   6.264  0.00  0.00    -0.242 NA
ATOM     13  C   LIG    1       23.901 -24.598   6.500  0.00  0.00    +0.072 A 
ATOM     14  C   LIG    1       25.222 -24.098   6.615  0.00  0.00    +0.000 A 
ATOM     15  C   LIG    1       25.457 -22.737   6.860  0.00  0.00    +0.010 A 
ATOM     16  C   LIG    1       24.390 -21.860   7.022  0.00  0.00    +0.001 A 
ATOM     17  C   LIG    1       23.088 -22.337   6.924  0.00  0.00    +0.002 A 
ATOM     18  C   LIG    1       26.293 -24.987   6.500  0.00  0.00    +0.012 A 
ATOM     19  C   LIG    1       22.857 -23.693   6.657  0.00  0.00    +0.028 A 
ATOM     20  C   LIG    1       26.042 -26.337   6.315  0.00  0.00    +0.034 A 
ENDBRANCH   9  11
ENDBRANCH   6   7
BRANCH   6  21
ATOM     21  C   LIG    1       25.897 -30.910   5.409  0.00  0.00    +0.127 C 
BRANCH  21  22
ATOM     22  C   LIG    1       25.241 -32.124   4.802  0.00  0.00    +0.213 C 
ATOM     23  O   LIG    1       25.768 -32.868   4.006  0.00  0.00    -0.276 OA
ATOM     24  N   LIG    1       23.945 -32.297   5.225  0.00  0.00    -0.329 N 
ATOM     25  H   LIG    1       23.422 -33.014   4.744  0.00  0.00    +0.145 HD
ATOM     26  H   LIG    1       23.425 -31.557   5.674  0.00  0.00    +0.145 HD
ENDBRANCH  21  22
ENDBRANCH   6  21
ENDBRANCH   4   6
ENDBRANCH   1   2
BRANCH   1  27
ATOM     27  C   LIG    1       24.570 -32.227  11.113  0.00  0.00    +0.149 C 
BRANCH  27  28
ATOM     28  O   LIG    1       25.566 -32.953  11.859  0.00  0.00    -0.389 OA
ATOM     29  H   LIG    1       25.909 -32.342  12.534  0.00  0.00    +0.210 HD
ENDBRANCH  27  28
BRANCH  27  30
ATOM     30  C   LIG    1       23.314 -31.880  12.001  0.00  0.00    +0.118 C 
BRANCH  30  32
ATOM     31  C   LIG    1       21.712 -30.026  12.695  0.00  0.00    +0.143 C 
ATOM     32  N   LIG    1       22.487 -30.679  11.584  0.00  0.00    -0.289 NA
ATOM     33  C   LIG    1       21.418 -31.073  10.603  0.00  0.00    +0.089 C 
ATOM     34  C   LIG    1       20.391 -32.120  11.119  0.00  0.00    +0.006 C 
ATOM     35  C   LIG    1       19.788 -31.744  12.490  0.00  0.00    -0.005 C 
ATOM     36  C   LIG    1       18.512 -30.899  12.383  0.00  0.00    +0.004 C 
ATOM     37  C   LIG    1       17.478 -31.572  11.499  0.00  0.00    +0.000 C 
ATOM     38  C   LIG    1       18.022 -31.719  10.089  0.00  0.00    +0.000 C 
ATOM     39  C   LIG    1       19.326 -32.514  10.069  0.00  0.00    +0.005 C 
ATOM     40  C   LIG    1       20.789 -31.039  13.416  0.00  0.00    +0.032 C 
BRANCH  31  43
ATOM     41  N   LIG    1       23.246 -28.087  13.360  0.00  0.00    -0.309 N 
ATOM     42  H   LIG    1       23.227 -27.853  12.373  0.00  0.00    +0.149 HD
ATOM     43  C   LIG    1       22.442 -29.156  13.748  0.00  0.00    +0.231 C 
ATOM     44  O   LIG    1       22.149 -29.333  14.933  0.00  0.00    -0.274 OA
BRANCH  41  46
ATOM     45  C   LIG    1       22.490 -26.329  14.999  0.00  0.00    +0.031 C 
ATOM     46  C   LIG    1       23.698 -27.020  14.328  0.00  0.00    +0.026 C 
ATOM     47  C   LIG    1       24.589 -27.598  15.452  0.00  0.00    +0.031 C 
ATOM     48  C   LIG    1       24.465 -25.878  13.625  0.00  0.00    +0.031 C 
ENDBRANCH  41  46
ENDBRANCH  31  43
ENDBRANCH  30  32
ENDBRANCH  27  30
ENDBRANCH   1  27
BRANCH   1  49
ATOM     49  C   LIG    1       25.550 -29.774  11.337  0.00  0.00    +0.060 C 
BRANCH  49  50
ATOM     50  C   LIG    1       26.796 -29.671  12.183  0.00  0.00    -0.045 A 
ATOM     51  C   LIG    1       28.032 -29.323  11.626  0.00  0.00    +0.003 A 
ATOM     52  C   LIG    1       29.189 -29.330  12.413  0.00  0.00    +0.000 A 
ATOM     53  C   LIG    1       29.119 -29.650  13.768  0.00  0.00    +0.000 A 
ATOM     54  C   LIG    1       27.891 -29.944  14.343  0.00  0.00    +0.000 A 
ATOM     55  C   LIG    1       26.754 -30.005  13.542  0.00  0.00    +0.003 A 
ENDBRANCH  49  50
ENDBRANCH   1  49
TORSDOF 14
ENDMDL
MODEL 6
REMARK VINA RESULT:      -7.4      3.141      6.052
REMARK  Name = *****
REMARK                            x       y       z     vdW  Elec       q    Type
REMARK                         _______ _______ _______ _____ _____    ______ ____
ROOT
ATOM      1  C   LIG    1       25.974 -30.610   8.946  0.00  0.00    +0.107 C 
ENDROOT
BRANCH   1   2
ATOM      2  N   LIG    1       25.814 -29.710   7.804  0.00  0.00    -0.308 N 
ATOM      3  H   LIG    1       26.495 -29.806   7.056  0.00  0.00    +0.149 HD
ATOM      4  C   LIG    1       24.587 -29.209   7.409  0.00  0.00    +0.234 C 
ATOM      5  O   LIG    1       23.527 -29.480   7.970  0.00  0.00    -0.274 OA
BRANCH   4   6
ATOM      6  C   LIG    1       24.638 -28.377   6.121  0.00  0.00    +0.168 C 
BRANCH   6   7
ATOM      7  N   LIG    1       24.740 -27.008   6.599  0.00  0.00    -0.298 N 
ATOM      8  H   LIG    1       25.441 -26.750   7.279  0.00  0.00    +0.150 HD
ATOM      9  C   LIG    1       24.076 -25.994   5.938  0.00  0.00    +0.263 C 
ATOM     10  O   LIG    1       23.329 -26.184   5.010  0.00  0.00    -0.269 OA
BRANCH   9  11
ATOM     11  C   LIG    1       24.303 -24.633   6.493  0.00  0.00    +0.126 A 
ATOM     12  N   LIG    1       25.572 -24.258   6.776  0.00  0.00    -0.242 NA
ATOM     13  C   LIG    1       25.749 -23.005   7.242  0.00  0.00    +0.072 A 
ATOM     14  C   LIG    1       24.656 -22.139   7.497  0.00  0.00    +0.000 A 
ATOM     15  C   LIG    1       24.865 -20.840   7.981  0.00  0.00    +0.010 A 
ATOM     16  C   LIG    1       26.157 -20.370   8.193  0.00  0.00    +0.001 A 
ATOM     17  C   LIG    1       27.241 -21.203   7.934  0.00  0.00    +0.002 A 
ATOM     18  C   LIG    1       23.361 -22.594   7.240  0.00  0.00    +0.012 A 
ATOM     19  C   LIG    1       27.027 -22.508   7.471  0.00  0.00    +0.028 A 
ATOM     20  C   LIG    1       23.175 -23.859   6.709  0.00  0.00    +0.034 A 
ENDBRANCH   9  11
ENDBRANCH   6   7
BRANCH   6  21
ATOM     21  C   LIG    1       25.844 -28.701   5.235  0.00  0.00    +0.127 C 
BRANCH  21  22
ATOM     22  C   LIG    1       26.514 -27.421   4.802  0.00  0.00    +0.213 C 
ATOM     23  O   LIG    1       26.246 -26.808   3.793  0.00  0.00    -0.276 OA
ATOM     24  N   LIG    1       27.504 -27.019   5.667  0.00  0.00    -0.329 N 
ATOM     25  H   LIG    1       28.070 -26.246   5.351  0.00  0.00    +0.145 HD
ATOM     26  H   LIG    1       27.900 -27.643   6.354  0.00  0.00    +0.145 HD
ENDBRANCH  21  22
ENDBRANCH   6  21
ENDBRANCH   4   6
ENDBRANCH   1   2
BRANCH   1  27
ATOM     27  C   LIG    1       27.094 -30.218   9.979  0.00  0.00    +0.149 C 
BRANCH  27  28
ATOM     28  O   LIG    1       27.524 -28.898   9.596  0.00  0.00    -0.389 OA
ATOM     29  H   LIG    1       27.917 -28.979   8.709  0.00  0.00    +0.210 HD
ENDBRANCH  27  28
BRANCH  27  30
ATOM     30  C   LIG    1       26.734 -30.293  11.513  0.00  0.00    +0.118 C 
BRANCH  30  32
ATOM     31  C   LIG    1       27.005 -29.156  13.774  0.00  0.00    +0.143 C 
ATOM     32  N   LIG    1       26.784 -28.996  12.295  0.00  0.00    -0.289 NA
ATOM     33  C   LIG    1       25.471 -28.268  12.220  0.00  0.00    +0.089 C 
ATOM     34  C   LIG    1       24.245 -29.041  12.784  0.00  0.00    +0.006 C 
ATOM     35  C   LIG    1       24.494 -29.612  14.197  0.00  0.00    -0.005 C 
ATOM     36  C   LIG    1       24.100 -28.646  15.322  0.00  0.00    +0.004 C 
ATOM     37  C   LIG    1       22.664 -28.177  15.167  0.00  0.00    +0.000 C 
ATOM     38  C   LIG    1       22.507 -27.414  13.864  0.00  0.00    +0.000 C 
ATOM     39  C   LIG    1       22.913 -28.265  12.662  0.00  0.00    +0.005 C 
ATOM     40  C   LIG    1       25.939 -30.080  14.412  0.00  0.00    +0.032 C 
BRANCH  31  43
ATOM     41  N   LIG    1       29.552 -29.315  13.555  0.00  0.00    -0.309 N 
ATOM     42  H   LIG    1       29.419 -28.796  12.694  0.00  0.00    +0.149 HD
ATOM     43  C   LIG    1       28.406 -29.535  14.316  0.00  0.00    +0.231 C 
ATOM     44  O   LIG    1       28.485 -29.872  15.500  0.00  0.00    -0.274 OA
BRANCH  41  46
ATOM     45  C   LIG    1       32.013 -29.478  13.048  0.00  0.00    +0.031 C 
ATOM     46  C   LIG    1       30.939 -29.348  14.150  0.00  0.00    +0.026 C 
ATOM     47  C   LIG    1       31.252 -28.068  14.959  0.00  0.00    +0.031 C 
ATOM     48  C   LIG    1       31.157 -30.576  15.060  0.00  0.00    +0.031 C 
ENDBRANCH  41  46
ENDBRANCH  31  43
ENDBRANCH  30  32
ENDBRANCH  27  30
ENDBRANCH   1  27
BRANCH   1  49
ATOM     49  C   LIG    1       25.933 -32.118   8.539  0.00  0.00    +0.060 C 
BRANCH  49  50
ATOM     50  C   LIG    1       26.506 -32.538   7.206  0.00  0.00    -0.045 A 
ATOM     51  C   LIG    1       25.732 -32.521   6.039  0.00  0.00    +0.003 A 
ATOM     52  C   LIG    1       26.257 -33.007   4.837  0.00  0.00    +0.000 A 
ATOM     53  C   LIG    1       27.565 -33.483   4.778  0.00  0.00    +0.000 A 
ATOM     54  C   LIG    1       28.359 -33.455   5.916  0.00  0.00    +0.000 A 
ATOM     55  C   LIG    1       27.811 -33.037   7.127  0.00  0.00    +0.003 A 
ENDBRANCH  49  50
ENDBRANCH   1  49
TORSDOF 14
ENDMDL
MODEL 7
REMARK VINA RESULT:      -7.2      2.547      5.784
REMARK  Name = *****
REMARK                            x       y       z     vdW  Elec       q    Type
REMARK                         _______ _______ _______ _____ _____    ______ ____
ROOT
ATOM      1  C   LIG    1       26.105 -30.554   8.789  0.00  0.00    +0.107 C 
ENDROOT
BRANCH   1   2
ATOM      2  N   LIG    1       25.904 -29.636   7.668  0.00  0.00    -0.308 N 
ATOM      3  H   LIG    1       26.572 -29.704   6.905  0.00  0.00    +0.149 HD
ATOM      4  C   LIG    1       24.659 -29.152   7.307  0.00  0.00    +0.234 C 
ATOM      5  O   LIG    1       23.617 -29.455   7.884  0.00  0.00    -0.274 OA
BRANCH   4   6
ATOM      6  C   LIG    1       24.667 -28.295   6.035  0.00  0.00    +0.168 C 
BRANCH   6   7
ATOM      7  N   LIG    1       24.791 -26.936   6.536  0.00  0.00    -0.298 N 
ATOM      8  H   LIG    1       25.523 -26.690   7.186  0.00  0.00    +0.150 HD
ATOM      9  C   LIG    1       24.094 -25.910   5.929  0.00  0.00    +0.263 C 
ATOM     10  O   LIG    1       23.304 -26.083   5.034  0.00  0.00    -0.269 OA
BRANCH   9  11
ATOM     11  C   LIG    1       24.345 -24.560   6.500  0.00  0.00    +0.126 A 
ATOM     12  N   LIG    1       25.626 -24.189   6.731  0.00  0.00    -0.242 NA
ATOM     13  C   LIG    1       25.824 -22.945   7.214  0.00  0.00    +0.072 A 
ATOM     14  C   LIG    1       24.743 -22.087   7.538  0.00  0.00    +0.000 A 
ATOM     15  C   LIG    1       24.974 -20.797   8.038  0.00  0.00    +0.010 A 
ATOM     16  C   LIG    1       26.275 -20.330   8.198  0.00  0.00    +0.001 A 
ATOM     17  C   LIG    1       27.345 -21.155   7.872  0.00  0.00    +0.002 A 
ATOM     18  C   LIG    1       23.438 -22.539   7.333  0.00  0.00    +0.012 A 
ATOM     19  C   LIG    1       27.111 -22.451   7.393  0.00  0.00    +0.028 A 
ATOM     20  C   LIG    1       23.229 -23.793   6.785  0.00  0.00    +0.034 A 
ENDBRANCH   9  11
ENDBRANCH   6   7
BRANCH   6  21
ATOM     21  C   LIG    1       25.840 -28.604   5.101  0.00  0.00    +0.127 C 
BRANCH  21  22
ATOM     22  C   LIG    1       26.539 -27.323   4.722  0.00  0.00    +0.213 C 
ATOM     23  O   LIG    1       26.215 -26.605   3.803  0.00  0.00    -0.276 OA
ATOM     24  N   LIG    1       27.625 -27.053   5.521  0.00  0.00    -0.329 N 
ATOM     25  H   LIG    1       28.203 -26.281   5.223  0.00  0.00    +0.145 HD
ATOM     26  H   LIG    1       28.046 -27.757   6.107  0.00  0.00    +0.145 HD
ENDBRANCH  21  22
ENDBRANCH   6  21
ENDBRANCH   4   6
ENDBRANCH   1   2
BRANCH   1  27
ATOM     27  C   LIG    1       27.027 -30.029   9.951  0.00  0.00    +0.149 C 
BRANCH  27  28
ATOM     28  O   LIG    1       27.399 -28.690   9.570  0.00  0.00    -0.389 OA
ATOM     29  H   LIG    1       28.224 -28.484  10.045  0.00  0.00    +0.210 HD
ENDBRANCH  27  28
BRANCH  27  30
ATOM     30  C   LIG    1       26.455 -30.081  11.419  0.00  0.00    +0.118 C 
BRANCH  30  32
ATOM     31  C   LIG    1       24.952 -29.045  13.195  0.00  0.00    +0.143 C 
ATOM     32  N   LIG    1       25.280 -29.175  11.733  0.00  0.00    -0.289 NA
ATOM     33  C   LIG    1       24.008 -29.715  11.142  0.00  0.00    +0.089 C 
ATOM     34  C   LIG    1       23.585 -31.126  11.642  0.00  0.00    +0.006 C 
ATOM     35  C   LIG    1       23.585 -31.241  13.181  0.00  0.00    -0.005 C 
ATOM     36  C   LIG    1       22.239 -30.873  13.819  0.00  0.00    +0.004 C 
ATOM     37  C   LIG    1       21.103 -31.677  13.212  0.00  0.00    +0.000 C 
ATOM     38  C   LIG    1       20.983 -31.363  11.731  0.00  0.00    +0.000 C 
ATOM     39  C   LIG    1       22.285 -31.652  10.988  0.00  0.00    +0.005 C 
ATOM     40  C   LIG    1       24.702 -30.427  13.847  0.00  0.00    +0.032 C 
BRANCH  31  43
ATOM     41  N   LIG    1       26.501 -27.056  13.646  0.00  0.00    -0.309 N 
ATOM     42  H   LIG    1       26.254 -26.767  12.706  0.00  0.00    +0.149 HD
ATOM     43  C   LIG    1       25.855 -28.194  14.123  0.00  0.00    +0.231 C 
ATOM     44  O   LIG    1       25.839 -28.457  15.327  0.00  0.00    -0.274 OA
BRANCH  41  46
ATOM     45  C   LIG    1       27.767 -24.882  13.759  0.00  0.00    +0.031 C 
ATOM     46  C   LIG    1       27.105 -26.021  14.564  0.00  0.00    +0.026 C 
ATOM     47  C   LIG    1       26.045 -25.382  15.491  0.00  0.00    +0.031 C 
ATOM     48  C   LIG    1       28.241 -26.601  15.435  0.00  0.00    +0.031 C 
ENDBRANCH  41  46
ENDBRANCH  31  43
ENDBRANCH  30  32
ENDBRANCH  27  30
ENDBRANCH   1  27
BRANCH   1  49
ATOM     49  C   LIG    1       26.375 -32.021   8.328  0.00  0.00    +0.060 C 
BRANCH  49  50
ATOM     50  C   LIG    1       26.024 -32.428   6.916  0.00  0.00    -0.045 A 
ATOM     51  C   LIG    1       27.011 -32.609   5.941  0.00  0.00    +0.003 A 
ATOM     52  C   LIG    1       26.654 -32.891   4.618  0.00  0.00    +0.000 A 
ATOM     53  C   LIG    1       25.313 -33.026   4.262  0.00  0.00    +0.000 A 
ATOM     54  C   LIG    1       24.328 -32.902   5.232  0.00  0.00    +0.000 A 
ATOM     55  C   LIG    1       24.684 -32.552   6.532  0.00  0.00    +0.003 A 
ENDBRANCH  49  50
ENDBRANCH   1  49
TORSDOF 14
ENDMDL
MODEL 8
REMARK VINA RESULT:      -7.0      3.730      7.222
REMARK  Name = *****
REMARK                            x       y       z     vdW  Elec       q    Type
REMARK                         _______ _______ _______ _____ _____    ______ ____
ROOT
ATOM      1  C   LIG    1       25.072 -28.142   6.953  0.00  0.00    +0.107 C 
ENDROOT
BRANCH   1   2
ATOM      2  N   LIG    1       24.643 -26.747   6.851  0.00  0.00    -0.308 N 
ATOM      3  H   LIG    1       23.910 -26.453   7.491  0.00  0.00    +0.149 HD
ATOM      4  C   LIG    1       25.481 -25.732   6.425  0.00  0.00    +0.234 C 
ATOM      5  O   LIG    1       26.656 -25.907   6.107  0.00  0.00    -0.274 OA
BRANCH   4   6
ATOM      6  C   LIG    1       24.857 -24.333   6.503  0.00  0.00    +0.168 C 
BRANCH   6   7
ATOM      7  N   LIG    1       26.005 -23.442   6.475  0.00  0.00    -0.298 N 
ATOM      8  H   LIG    1       26.632 -23.432   5.684  0.00  0.00    +0.150 HD
ATOM      9  C   LIG    1       26.103 -22.412   7.390  0.00  0.00    +0.263 C 
ATOM     10  O   LIG    1       25.316 -22.245   8.288  0.00  0.00    -0.269 OA
BRANCH   9  11
ATOM     11  C   LIG    1       27.296 -21.540   7.224  0.00  0.00    +0.126 A 
ATOM     12  N   LIG    1       28.300 -21.647   8.125  0.00  0.00    -0.242 NA
ATOM     13  C   LIG    1       29.384 -20.869   7.927  0.00  0.00    +0.072 A 
ATOM     14  C   LIG    1       29.447 -19.928   6.869  0.00  0.00    +0.000 A 
ATOM     15  C   LIG    1       30.586 -19.131   6.683  0.00  0.00    +0.010 A 
ATOM     16  C   LIG    1       31.687 -19.274   7.522  0.00  0.00    +0.001 A 
ATOM     17  C   LIG    1       31.645 -20.203   8.555  0.00  0.00    +0.002 A 
ATOM     18  C   LIG    1       28.361 -19.817   5.999  0.00  0.00    +0.012 A 
ATOM     19  C   LIG    1       30.497 -20.982   8.752  0.00  0.00    +0.028 A 
ATOM     20  C   LIG    1       27.268 -20.651   6.163  0.00  0.00    +0.034 A 
ENDBRANCH   9  11
ENDBRANCH   6   7
BRANCH   6  21
ATOM     21  C   LIG    1       23.933 -24.012   5.326  0.00  0.00    +0.127 C 
BRANCH  21  22
ATOM     22  C   LIG    1       23.802 -22.518   5.175  0.00  0.00    +0.213 C 
ATOM     23  O   LIG    1       24.448 -21.841   4.408  0.00  0.00    -0.276 OA
ATOM     24  N   LIG    1       22.875 -21.976   6.035  0.00  0.00    -0.329 N 
ATOM     25  H   LIG    1       22.849 -20.967   6.067  0.00  0.00    +0.145 HD
ATOM     26  H   LIG    1       22.528 -22.481   6.836  0.00  0.00    +0.145 HD
ENDBRANCH  21  22
ENDBRANCH   6  21
ENDBRANCH   4   6
ENDBRANCH   1   2
BRANCH   1  27
ATOM     27  C   LIG    1       26.212 -28.435   7.997  0.00  0.00    +0.149 C 
BRANCH  27  28
ATOM     28  O   LIG    1       26.448 -27.184   8.670  0.00  0.00    -0.389 OA
ATOM     29  H   LIG    1       27.276 -27.288   9.170  0.00  0.00    +0.210 HD
ENDBRANCH  27  28
BRANCH  27  30
ATOM     30  C   LIG    1       25.983 -29.614   9.019  0.00  0.00    +0.118 C 
BRANCH  30  32
ATOM     31  C   LIG    1       25.065 -29.475  11.390  0.00  0.00    +0.143 C 
ATOM     32  N   LIG    1       24.765 -29.519   9.917  0.00  0.00    -0.289 NA
ATOM     33  C   LIG    1       23.895 -30.737   9.780  0.00  0.00    +0.089 C 
ATOM     34  C   LIG    1       24.573 -32.088  10.148  0.00  0.00    +0.006 C 
ATOM     35  C   LIG    1       25.278 -32.050  11.521  0.00  0.00    -0.005 C 
ATOM     36  C   LIG    1       24.368 -32.464  12.684  0.00  0.00    +0.004 C 
ATOM     37  C   LIG    1       23.735 -33.821  12.433  0.00  0.00    +0.000 C 
ATOM     38  C   LIG    1       22.858 -33.760  11.195  0.00  0.00    +0.000 C 
ATOM     39  C   LIG    1       23.649 -33.315   9.966  0.00  0.00    +0.005 C 
ATOM     40  C   LIG    1       25.916 -30.690  11.834  0.00  0.00    +0.032 C 
BRANCH  31  43
ATOM     41  N   LIG    1       24.992 -27.572  13.101  0.00  0.00    -0.309 N 
ATOM     42  H   LIG    1       24.207 -28.079  13.496  0.00  0.00    +0.149 HD
ATOM     43  C   LIG    1       25.637 -28.186  12.031  0.00  0.00    +0.231 C 
ATOM     44  O   LIG    1       26.763 -27.827  11.678  0.00  0.00    -0.274 OA
BRANCH  41  46
ATOM     45  C   LIG    1       24.629 -25.757  14.809  0.00  0.00    +0.031 C 
ATOM     46  C   LIG    1       25.665 -26.533  13.966  0.00  0.00    +0.026 C 
ATOM     47  C   LIG    1       26.682 -27.166  14.944  0.00  0.00    +0.031 C 
ATOM     48  C   LIG    1       26.384 -25.452  13.131  0.00  0.00    +0.031 C 
ENDBRANCH  41  46
ENDBRANCH  31  43
ENDBRANCH  30  32
ENDBRANCH  27  30
ENDBRANCH   1  27
BRANCH   1  49
ATOM     49  C   LIG    1       25.243 -28.826   5.560  0.00  0.00    +0.060 C 
BRANCH  49  50
ATOM     50  C   LIG    1       25.071 -30.322   5.446  0.00  0.00    -0.045 A 
ATOM     51  C   LIG    1       25.903 -31.095   4.628  0.00  0.00    +0.003 A 
ATOM     52  C   LIG    1       25.661 -32.463   4.465  0.00  0.00    +0.000 A 
ATOM     53  C   LIG    1       24.609 -33.079   5.140  0.00  0.00    +0.000 A 
ATOM     54  C   LIG    1       23.810 -32.334   5.995  0.00  0.00    +0.000 A 
ATOM     55  C   LIG    1       24.010 -30.960   6.100  0.00  0.00    +0.003 A 
ENDBRANCH  49  50
ENDBRANCH   1  49
TORSDOF 14
ENDMDL
MODEL 9
REMARK VINA RESULT:      -6.8      3.168      5.424
REMARK  Name = *****
REMARK                            x       y       z     vdW  Elec       q    Type
REMARK                         _______ _______ _______ _____ _____    ______ ____
ROOT
ATOM      1  C   LIG    1       24.994 -29.128   8.207  0.00  0.00    +0.107 C 
ENDROOT
BRANCH   1   2
ATOM      2  N   LIG    1       25.658 -28.230   7.263  0.00  0.00    -0.308 N 
ATOM      3  H   LIG    1       26.534 -28.561   6.867  0.00  0.00    +0.149 HD
ATOM      4  C   LIG    1       24.970 -27.327   6.472  0.00  0.00    +0.234 C 
ATOM      5  O   LIG    1       23.747 -27.206   6.484  0.00  0.00    -0.274 OA
BRANCH   4   6
ATOM      6  C   LIG    1       25.855 -26.568   5.476  0.00  0.00    +0.168 C 
BRANCH   6   7
ATOM      7  N   LIG    1       25.198 -25.279   5.344  0.00  0.00    -0.298 N 
ATOM      8  H   LIG    1       24.433 -25.153   4.696  0.00  0.00    +0.150 HD
ATOM      9  C   LIG    1       25.416 -24.291   6.284  0.00  0.00    +0.263 C 
ATOM     10  O   LIG    1       26.202 -24.403   7.193  0.00  0.00    -0.269 OA
BRANCH   9  11
ATOM     11  C   LIG    1       24.645 -23.039   6.067  0.00  0.00    +0.126 A 
ATOM     12  N   LIG    1       25.014 -22.226   5.050  0.00  0.00    -0.242 NA
ATOM     13  C   LIG    1       24.272 -21.116   4.855  0.00  0.00    +0.072 A 
ATOM     14  C   LIG    1       23.201 -20.771   5.717  0.00  0.00    +0.000 A 
ATOM     15  C   LIG    1       22.444 -19.611   5.493  0.00  0.00    +0.010 A 
ATOM     16  C   LIG    1       22.718 -18.795   4.401  0.00  0.00    +0.001 A 
ATOM     17  C   LIG    1       23.757 -19.128   3.539  0.00  0.00    +0.002 A 
ATOM     18  C   LIG    1       22.896 -21.615   6.786  0.00  0.00    +0.012 A 
ATOM     19  C   LIG    1       24.525 -20.275   3.778  0.00  0.00    +0.028 A 
ATOM     20  C   LIG    1       23.617 -22.785   6.959  0.00  0.00    +0.034 A 
ENDBRANCH   9  11
ENDBRANCH   6   7
BRANCH   6  21
ATOM     21  C   LIG    1       27.290 -26.362   5.970  0.00  0.00    +0.127 C 
BRANCH  21  22
ATOM     22  C   LIG    1       28.250 -27.075   5.053  0.00  0.00    +0.213 C 
ATOM     23  O   LIG    1       29.448 -26.904   5.038  0.00  0.00    -0.276 OA
ATOM     24  N   LIG    1       27.619 -27.940   4.190  0.00  0.00    -0.329 N 
ATOM     25  H   LIG    1       28.203 -28.337   3.469  0.00  0.00    +0.145 HD
ATOM     26  H   LIG    1       26.625 -27.898   4.022  0.00  0.00    +0.145 HD
ENDBRANCH  21  22
ENDBRANCH   6  21
ENDBRANCH   4   6
ENDBRANCH   1   2
BRANCH   1  27
ATOM     27  C   LIG    1       25.796 -29.463   9.518  0.00  0.00    +0.149 C 
BRANCH  27  28
ATOM     28  O   LIG    1       27.178 -29.523   9.118  0.00  0.00    -0.389 OA
ATOM     29  H   LIG    1       27.247 -30.241   8.464  0.00  0.00    +0.210 HD
ENDBRANCH  27  28
BRANCH  27  30
ATOM     30  C   LIG    1       25.589 -28.518  10.764  0.00  0.00    +0.118 C 
BRANCH  30  32
ATOM     31  C   LIG    1       25.036 -28.251  13.235  0.00  0.00    +0.143 C 
ATOM     32  N   LIG    1       25.367 -29.188  12.106  0.00  0.00    -0.289 NA
ATOM     33  C   LIG    1       26.617 -29.873  12.583  0.00  0.00    +0.089 C 
ATOM     34  C   LIG    1       27.851 -28.947  12.784  0.00  0.00    +0.006 C 
ATOM     35  C   LIG    1       27.532 -27.700  13.636  0.00  0.00    -0.005 C 
ATOM     36  C   LIG    1       27.748 -27.916  15.139  0.00  0.00    +0.004 C 
ATOM     37  C   LIG    1       29.149 -28.428  15.425  0.00  0.00    +0.000 C 
ATOM     38  C   LIG    1       29.352 -29.777  14.757  0.00  0.00    +0.000 C 
ATOM     39  C   LIG    1       29.121 -29.698  13.250  0.00  0.00    +0.005 C 
ATOM     40  C   LIG    1       26.117 -27.155  13.400  0.00  0.00    +0.032 C 
BRANCH  31  43
ATOM     41  N   LIG    1       22.503 -28.380  13.587  0.00  0.00    -0.309 N 
ATOM     42  H   LIG    1       22.677 -29.351  13.823  0.00  0.00    +0.149 HD
ATOM     43  C   LIG    1       23.631 -27.606  13.325  0.00  0.00    +0.231 C 
ATOM     44  O   LIG    1       23.570 -26.374  13.333  0.00  0.00    -0.274 OA
BRANCH  41  46
ATOM     45  C   LIG    1       20.110 -28.869  14.202  0.00  0.00    +0.031 C 
ATOM     46  C   LIG    1       21.187 -27.777  14.015  0.00  0.00    +0.026 C 
ATOM     47  C   LIG    1       21.309 -27.009  15.351  0.00  0.00    +0.031 C 
ATOM     48  C   LIG    1       20.603 -26.827  12.947  0.00  0.00    +0.031 C 
ENDBRANCH  41  46
ENDBRANCH  31  43
ENDBRANCH  30  32
ENDBRANCH  27  30
ENDBRANCH   1  27
BRANCH   1  49
ATOM     49  C   LIG    1       24.313 -30.346   7.506  0.00  0.00    +0.060 C 
BRANCH  49  50
ATOM     50  C   LIG    1       25.159 -31.298   6.693  0.00  0.00    -0.045 A 
ATOM     51  C   LIG    1       25.886 -32.330   7.298  0.00  0.00    +0.003 A 
ATOM     52  C   LIG    1       26.737 -33.136   6.535  0.00  0.00    +0.000 A 
ATOM     53  C   LIG    1       26.847 -32.942   5.159  0.00  0.00    +0.000 A 
ATOM     54  C   LIG    1       26.090 -31.957   4.540  0.00  0.00    +0.000 A 
ATOM     55  C   LIG    1       25.298 -31.112   5.313  0.00  0.00    +0.003 A 
ENDBRANCH  49  50
ENDBRANCH   1  49
TORSDOF 14
ENDMDL
