MODEL 1
REMARK VINA RESULT:      -6.9      0.000      0.000
REMARK  Name = *****
REMARK                            x       y       z     vdW  Elec       q    Type
REMARK                         _______ _______ _______ _____ _____    ______ ____
ROOT
ATOM      1  C   LIG    1       26.700 -20.400   7.799  0.00  0.00    -0.000 C 
ENDROOT
BRANCH   1   2
ATOM      2  C   LIG    1       26.336 -21.800   8.296  0.00  0.00    -0.000 C 
BRANCH   2   3
ATOM      3  C   LIG    1       26.503 -22.882   7.213  0.00  0.00    -0.000 C 
BRANCH   3   4
ATOM      4  C   LIG    1       25.231 -23.719   7.035  0.00  0.00    -0.000 C 
BRANCH   4   5
ATOM      5  C   LIG    1       24.168 -22.956   6.235  0.00  0.00    -0.000 C 
BRANCH   5   6
ATOM      6  C   LIG    1       23.220 -22.156   7.134  0.00  0.00    -0.000 C 
BRANCH   6   7
ATOM      7  C   LIG    1       23.110 -20.676   6.741  0.00  0.00    -0.000 C 
BRANCH   7   8
ATOM      8  C   LIG    1       22.638 -20.459   5.297  0.00  0.00    -0.000 C 
BRANCH   8  10
ATOM      9  C   LIG    1       24.405 -20.216   3.434  0.00  0.00    +0.004 C 
ATOM     10  C   LIG    1       23.538 -19.530   4.479  0.00  0.00    -0.003 C 
ENDBRANCH   8  10
ENDBRANCH   7   8
ENDBRANCH   6   7
ENDBRANCH   5   6
ENDBRANCH   4   5
ENDBRANCH   3   4
ENDBRANCH   2   3
ENDBRANCH   1   2
BRANCH   1  11
ATOM     11  C   LIG    1       26.848 -20.261   6.281  0.00  0.00    -0.000 C 
BRANCH  11  12
ATOM     12  C   LIG    1       28.242 -19.930   5.725  0.00  0.00    +0.000 C 
BRANCH  12  13
ATOM     13  C   LIG    1       29.180 -19.146   6.657  0.00  0.00    +0.000 C 
BRANCH  13  14
ATOM     14  C   LIG    1       30.385 -19.916   7.207  0.00  0.00    +0.011 C 
BRANCH  14  15
ATOM     15  C   LIG    1       30.143 -21.089   8.142  0.00  0.00    +0.120 C 
BRANCH  15  16
ATOM     16  C   LIG    1       31.194 -21.412   9.175  0.00  0.00    +0.305 C 
ATOM     17  O   LIG    1       32.210 -20.779   9.293  0.00  0.00    -0.251 OA
BRANCH  16  18
ATOM     18  O   LIG    1       30.862 -22.401  10.030  0.00  0.00    -0.481 OA
ATOM     19  H   LIG    1       31.551 -23.066  10.175  0.00  0.00    +0.295 HD
ENDBRANCH  16  18
ENDBRANCH  15  16
ENDBRANCH  14  15
ENDBRANCH  13  14
ENDBRANCH  12  13
ENDBRANCH  11  12
ENDBRANCH   1  11
TORSDOF 15
ENDMDL
MODEL 2
REMARK VINA RESULT:      -6.9      1.489      3.542
REMARK  Name = *****
REMARK                            x       y       z     vdW  Elec       q    Type
REMARK                         _______ _______ _______ _____ _____    ______ ____
ROOT
ATOM      1  C   LIG    1       26.163 -19.845   4.890  0.00  0.00    -0.000 C 
ENDROOT
BRANCH   1   2
ATOM      2  C   LIG    1       24.977 -20.287   4.032  0.00  0.00    -0.000 C 
BRANCH   2   3
ATOM      3  C   LIG    1       23.950 -19.163   3.804  0.00  0.00    -0.000 C 
BRANCH   3   4
ATOM      4  C   LIG    1       22.732 -19.300   4.725  0.00  0.00    -0.000 C 
BRANCH   4   5
ATOM      5  C   LIG    1       22.698 -20.675   5.404  0.00  0.00    -0.000 C 
BRANCH   5   6
ATOM      6  C   LIG    1       23.173 -20.621   6.860  0.00  0.00    -0.000 C 
BRANCH   6   7
ATOM      7  C   LIG    1       23.412 -22.008   7.475  0.00  0.00    -0.000 C 
BRANCH   7   8
ATOM      8  C   LIG    1       22.916 -23.163   6.594  0.00  0.00    -0.000 C 
BRANCH   8  10
ATOM      9  C   LIG    1       25.311 -24.101   6.772  0.00  0.00    +0.004 C 
ATOM     10  C   LIG    1       23.827 -24.392   6.606  0.00  0.00    -0.003 C 
ENDBRANCH   8  10
ENDBRANCH   7   8
ENDBRANCH   6   7
ENDBRANCH   5   6
ENDBRANCH   4   5
ENDBRANCH   3   4
ENDBRANCH   2   3
ENDBRANCH   1   2
BRANCH   1  11
ATOM     11  C   LIG    1       26.604 -20.845   5.963  0.00  0.00    -0.000 C 
BRANCH  11  12
ATOM     12  C   LIG    1       27.019 -20.286   7.334  0.00  0.00    +0.000 C 
BRANCH  12  13
ATOM     13  C   LIG    1       28.501 -20.441   7.714  0.00  0.00    +0.000 C 
BRANCH  13  14
ATOM     14  C   LIG    1       29.408 -19.247   7.400  0.00  0.00    +0.011 C 
BRANCH  14  15
ATOM     15  C   LIG    1       30.078 -18.511   8.549  0.00  0.00    +0.120 C 
BRANCH  15  16
ATOM     16  C   LIG    1       31.574 -18.630   8.702  0.00  0.00    +0.305 C 
ATOM     17  O   LIG    1       32.106 -19.592   9.192  0.00  0.00    -0.251 OA
BRANCH  16  18
ATOM     18  O   LIG    1       32.282 -17.622   8.151  0.00  0.00    -0.481 OA
ATOM     19  H   LIG    1       32.637 -17.806   7.269  0.00  0.00    +0.295 HD
ENDBRANCH  16  18
ENDBRANCH  15  16
ENDBRANCH  14  15
ENDBRANCH  13  14
ENDBRANCH  12  13
ENDBRANCH  11  12
ENDBRANCH   1  11
TORSDOF 15
ENDMDL
MODEL 3
REMARK VINA RESULT:      -6.9      1.300      2.135
REMARK  Name = *****
REMARK                            x       y       z     vdW  Elec       q    Type
REMARK                         _______ _______ _______ _____ _____    ______ ____
ROOT
ATOM      1  C   LIG    1       25.924 -21.964   8.388  0.00  0.00    -0.000 C 
ENDROOT
BRANCH   1   2
ATOM      2  C   LIG    1       25.940 -23.038   7.299  0.00  0.00    -0.000 C 
BRANCH   2   3
ATOM      3  C   LIG    1       24.528 -23.440   6.833  0.00  0.00    -0.000 C 
BRANCH   3   4
ATOM      4  C   LIG    1       23.467 -22.421   7.266  0.00  0.00    -0.000 C 
BRANCH   4   5
ATOM      5  C   LIG    1       22.890 -21.670   6.060  0.00  0.00    -0.000 C 
BRANCH   5   6
ATOM      6  C   LIG    1       23.266 -20.184   6.061  0.00  0.00    -0.000 C 
BRANCH   6   7
ATOM      7  C   LIG    1       22.500 -19.362   5.014  0.00  0.00    -0.000 C 
BRANCH   7   8
ATOM      8  C   LIG    1       23.259 -19.198   3.690  0.00  0.00    -0.000 C 
BRANCH   8  10
ATOM      9  C   LIG    1       25.606 -18.174   3.384  0.00  0.00    +0.004 C 
ATOM     10  C   LIG    1       24.774 -19.373   3.814  0.00  0.00    -0.003 C 
ENDBRANCH   8  10
ENDBRANCH   7   8
ENDBRANCH   6   7
ENDBRANCH   5   6
ENDBRANCH   4   5
ENDBRANCH   3   4
ENDBRANCH   2   3
ENDBRANCH   1   2
BRANCH   1  11
ATOM     11  C   LIG    1       26.669 -20.670   8.043  0.00  0.00    -0.000 C 
BRANCH  11  12
ATOM     12  C   LIG    1       26.961 -20.386   6.561  0.00  0.00    +0.000 C 
BRANCH  12  13
ATOM     13  C   LIG    1       28.401 -19.966   6.218  0.00  0.00    +0.000 C 
BRANCH  13  14
ATOM     14  C   LIG    1       29.425 -20.077   7.351  0.00  0.00    +0.011 C 
BRANCH  14  15
ATOM     15  C   LIG    1       30.850 -19.609   7.102  0.00  0.00    +0.120 C 
BRANCH  15  16
ATOM     16  C   LIG    1       31.552 -18.838   8.192  0.00  0.00    +0.305 C 
ATOM     17  O   LIG    1       31.607 -17.636   8.211  0.00  0.00    -0.251 OA
BRANCH  16  18
ATOM     18  O   LIG    1       32.026 -19.593   9.205  0.00  0.00    -0.481 OA
ATOM     19  H   LIG    1       31.425 -19.693   9.957  0.00  0.00    +0.295 HD
ENDBRANCH  16  18
ENDBRANCH  15  16
ENDBRANCH  14  15
ENDBRANCH  13  14
ENDBRANCH  12  13
ENDBRANCH  11  12
ENDBRANCH   1  11
TORSDOF 15
ENDMDL
MODEL 4
REMARK VINA RESULT:      -6.8      1.201      1.424
REMARK  Name = *****
REMARK                            x       y       z     vdW  Elec       q    Type
REMARK                         _______ _______ _______ _____ _____    ______ ____
ROOT
ATOM      1  C   LIG    1       26.963 -21.166   8.035  0.00  0.00    -0.000 C 
ENDROOT
BRANCH   1   2
ATOM      2  C   LIG    1       25.881 -22.215   8.299  0.00  0.00    -0.000 C 
BRANCH   2   3
ATOM      3  C   LIG    1       25.910 -23.373   7.285  0.00  0.00    -0.000 C 
BRANCH   3   4
ATOM      4  C   LIG    1       24.722 -23.320   6.316  0.00  0.00    -0.000 C 
BRANCH   4   5
ATOM      5  C   LIG    1       23.482 -22.714   6.986  0.00  0.00    -0.000 C 
BRANCH   5   6
ATOM      6  C   LIG    1       22.705 -21.785   6.048  0.00  0.00    -0.000 C 
BRANCH   6   7
ATOM      7  C   LIG    1       23.189 -20.328   6.094  0.00  0.00    -0.000 C 
BRANCH   7   8
ATOM      8  C   LIG    1       22.541 -19.433   5.029  0.00  0.00    -0.000 C 
BRANCH   8  10
ATOM      9  C   LIG    1       24.736 -19.907   3.763  0.00  0.00    +0.004 C 
ATOM     10  C   LIG    1       23.472 -19.068   3.870  0.00  0.00    -0.003 C 
ENDBRANCH   8  10
ENDBRANCH   7   8
ENDBRANCH   6   7
ENDBRANCH   5   6
ENDBRANCH   4   5
ENDBRANCH   3   4
ENDBRANCH   2   3
ENDBRANCH   1   2
BRANCH   1  11
ATOM     11  C   LIG    1       26.771 -20.333   6.765  0.00  0.00    -0.000 C 
BRANCH  11  12
ATOM     12  C   LIG    1       28.026 -19.954   5.961  0.00  0.00    +0.000 C 
BRANCH  12  13
ATOM     13  C   LIG    1       29.379 -20.296   6.607  0.00  0.00    +0.000 C 
BRANCH  13  14
ATOM     14  C   LIG    1       30.269 -19.107   6.984  0.00  0.00    +0.011 C 
BRANCH  14  15
ATOM     15  C   LIG    1       30.336 -18.672   8.438  0.00  0.00    +0.120 C 
BRANCH  15  16
ATOM     16  C   LIG    1       31.591 -18.969   9.219  0.00  0.00    +0.305 C 
ATOM     17  O   LIG    1       32.120 -18.163   9.939  0.00  0.00    -0.251 OA
BRANCH  16  18
ATOM     18  O   LIG    1       32.022 -20.245   9.134  0.00  0.00    -0.481 OA
ATOM     19  H   LIG    1       31.556 -20.874   9.704  0.00  0.00    +0.295 HD
ENDBRANCH  16  18
ENDBRANCH  15  16
ENDBRANCH  14  15
ENDBRANCH  13  14
ENDBRANCH  12  13
ENDBRANCH  11  12
ENDBRANCH   1  11
TORSDOF 15
ENDMDL
MODEL 5
REMARK VINA RESULT:      -6.6      1.511      3.717
REMARK  Name = *****
REMARK                            x       y       z     vdW  Elec       q    Type
REMARK                         _______ _______ _______ _____ _____    ______ ____
ROOT
ATOM      1  C   LIG    1       25.081 -20.677   4.399  0.00  0.00    -0.000 C 
ENDROOT
BRANCH   1   2
ATOM      2  C   LIG    1       23.735 -19.973   4.581  0.00  0.00    -0.000 C 
BRANCH   2   3
ATOM      3  C   LIG    1       22.763 -20.762   5.477  0.00  0.00    -0.000 C 
BRANCH   3   4
ATOM      4  C   LIG    1       23.175 -20.718   6.953  0.00  0.00    -0.000 C 
BRANCH   4   5
ATOM      5  C   LIG    1       23.601 -22.103   7.455  0.00  0.00    -0.000 C 
BRANCH   5   6
ATOM      6  C   LIG    1       22.845 -23.237   6.756  0.00  0.00    -0.000 C 
BRANCH   6   7
ATOM      7  C   LIG    1       23.698 -24.496   6.540  0.00  0.00    -0.000 C 
BRANCH   7   8
ATOM      8  C   LIG    1       25.186 -24.196   6.310  0.00  0.00    -0.000 C 
BRANCH   8  10
ATOM      9  C   LIG    1       25.591 -26.688   6.832  0.00  0.00    +0.004 C 
ATOM     10  C   LIG    1       26.046 -25.441   6.088  0.00  0.00    -0.003 C 
ENDBRANCH   8  10
ENDBRANCH   7   8
ENDBRANCH   6   7
ENDBRANCH   5   6
ENDBRANCH   4   5
ENDBRANCH   3   4
ENDBRANCH   2   3
ENDBRANCH   1   2
BRANCH   1  11
ATOM     11  C   LIG    1       26.278 -19.980   5.052  0.00  0.00    -0.000 C 
BRANCH  11  12
ATOM     12  C   LIG    1       26.877 -20.619   6.316  0.00  0.00    +0.000 C 
BRANCH  12  13
ATOM     13  C   LIG    1       28.365 -20.339   6.583  0.00  0.00    +0.000 C 
BRANCH  13  14
ATOM     14  C   LIG    1       28.721 -19.865   7.995  0.00  0.00    +0.011 C 
BRANCH  14  15
ATOM     15  C   LIG    1       29.879 -18.897   8.176  0.00  0.00    +0.120 C 
BRANCH  15  16
ATOM     16  C   LIG    1       31.284 -19.420   8.006  0.00  0.00    +0.305 C 
ATOM     17  O   LIG    1       31.843 -19.457   6.941  0.00  0.00    -0.251 OA
BRANCH  16  18
ATOM     18  O   LIG    1       31.910 -19.745   9.156  0.00  0.00    -0.481 OA
ATOM     19  H   LIG    1       31.447 -19.481   9.964  0.00  0.00    +0.295 HD
ENDBRANCH  16  18
ENDBRANCH  15  16
ENDBRANCH  14  15
ENDBRANCH  13  14
ENDBRANCH  12  13
ENDBRANCH  11  12
ENDBRANCH   1  11
TORSDOF 15
ENDMDL
MODEL 6
REMARK VINA RESULT:      -6.6      1.624      3.230
REMARK  Name = *****
REMARK                            x       y       z     vdW  Elec       q    Type
REMARK                         _______ _______ _______ _____ _____    ______ ____
ROOT
ATOM      1  C   LIG    1       27.280 -21.711   7.877  0.00  0.00    -0.000 C 
ENDROOT
BRANCH   1   2
ATOM      2  C   LIG    1       26.328 -20.611   8.350  0.00  0.00    -0.000 C 
BRANCH   2   3
ATOM      3  C   LIG    1       24.889 -20.804   7.840  0.00  0.00    -0.000 C 
BRANCH   3   4
ATOM      4  C   LIG    1       24.798 -20.683   6.314  0.00  0.00    -0.000 C 
BRANCH   4   5
ATOM      5  C   LIG    1       24.003 -21.846   5.708  0.00  0.00    -0.000 C 
BRANCH   5   6
ATOM      6  C   LIG    1       23.316 -22.704   6.775  0.00  0.00    -0.000 C 
BRANCH   6   7
ATOM      7  C   LIG    1       23.679 -24.194   6.686  0.00  0.00    -0.000 C 
BRANCH   7   8
ATOM      8  C   LIG    1       25.189 -24.453   6.607  0.00  0.00    -0.000 C 
BRANCH   8  10
ATOM      9  C   LIG    1       24.384 -26.835   6.036  0.00  0.00    +0.004 C 
ATOM     10  C   LIG    1       25.558 -25.911   6.324  0.00  0.00    -0.003 C 
ENDBRANCH   8  10
ENDBRANCH   7   8
ENDBRANCH   6   7
ENDBRANCH   5   6
ENDBRANCH   4   5
ENDBRANCH   3   4
ENDBRANCH   2   3
ENDBRANCH   1   2
BRANCH   1  11
ATOM     11  C   LIG    1       28.562 -21.220   7.197  0.00  0.00    -0.000 C 
BRANCH  11  12
ATOM     12  C   LIG    1       28.439 -20.073   6.181  0.00  0.00    +0.000 C 
BRANCH  12  13
ATOM     13  C   LIG    1       29.444 -18.918   6.331  0.00  0.00    +0.000 C 
BRANCH  13  14
ATOM     14  C   LIG    1       30.879 -19.314   6.691  0.00  0.00    +0.011 C 
BRANCH  14  15
ATOM     15  C   LIG    1       31.532 -18.681   7.909  0.00  0.00    +0.120 C 
BRANCH  15  16
ATOM     16  C   LIG    1       31.452 -19.413   9.226  0.00  0.00    +0.305 C 
ATOM     17  O   LIG    1       30.727 -19.068  10.123  0.00  0.00    -0.251 OA
BRANCH  16  18
ATOM     18  O   LIG    1       32.178 -20.548   9.288  0.00  0.00    -0.481 OA
ATOM     19  H   LIG    1       33.063 -20.449   9.669  0.00  0.00    +0.295 HD
ENDBRANCH  16  18
ENDBRANCH  15  16
ENDBRANCH  14  15
ENDBRANCH  13  14
ENDBRANCH  12  13
ENDBRANCH  11  12
ENDBRANCH   1  11
TORSDOF 15
ENDMDL
MODEL 7
REMARK VINA RESULT:      -6.6      2.009      2.471
REMARK  Name = *****
REMARK                            x       y       z     vdW  Elec       q    Type
REMARK                         _______ _______ _______ _____ _____    ______ ____
ROOT
ATOM      1  C   LIG    1       27.820 -20.832   6.931  0.00  0.00    -0.000 C 
ENDROOT
BRANCH   1   2
ATOM      2  C   LIG    1       26.927 -20.338   8.070  0.00  0.00    -0.000 C 
BRANCH   2   3
ATOM      3  C   LIG    1       25.971 -21.424   8.596  0.00  0.00    -0.000 C 
BRANCH   3   4
ATOM      4  C   LIG    1       25.396 -22.283   7.463  0.00  0.00    -0.000 C 
BRANCH   4   5
ATOM      5  C   LIG    1       23.865 -22.202   7.421  0.00  0.00    -0.000 C 
BRANCH   5   6
ATOM      6  C   LIG    1       23.364 -20.833   6.947  0.00  0.00    -0.000 C 
BRANCH   6   7
ATOM      7  C   LIG    1       22.746 -20.864   5.541  0.00  0.00    -0.000 C 
BRANCH   7   8
ATOM      8  C   LIG    1       23.729 -20.472   4.431  0.00  0.00    -0.000 C 
BRANCH   8  10
ATOM      9  C   LIG    1       22.282 -18.338   4.385  0.00  0.00    +0.004 C 
ATOM     10  C   LIG    1       23.539 -19.048   3.904  0.00  0.00    -0.003 C 
ENDBRANCH   8  10
ENDBRANCH   7   8
ENDBRANCH   6   7
ENDBRANCH   5   6
ENDBRANCH   4   5
ENDBRANCH   3   4
ENDBRANCH   2   3
ENDBRANCH   1   2
BRANCH   1  11
ATOM     11  C   LIG    1       28.257 -19.759   5.929  0.00  0.00    -0.000 C 
BRANCH  11  12
ATOM     12  C   LIG    1       29.579 -19.023   6.200  0.00  0.00    +0.000 C 
BRANCH  12  13
ATOM     13  C   LIG    1       30.500 -19.641   7.266  0.00  0.00    +0.000 C 
BRANCH  13  14
ATOM     14  C   LIG    1       31.200 -18.657   8.207  0.00  0.00    +0.011 C 
BRANCH  14  15
ATOM     15  C   LIG    1       30.371 -17.588   8.901  0.00  0.00    +0.120 C 
BRANCH  15  16
ATOM     16  C   LIG    1       30.429 -17.500  10.406  0.00  0.00    +0.305 C 
ATOM     17  O   LIG    1       30.148 -16.500  11.014  0.00  0.00    -0.251 OA
BRANCH  16  18
ATOM     18  O   LIG    1       30.718 -18.661  11.030  0.00  0.00    -0.481 OA
ATOM     19  H   LIG    1       29.999 -19.027  11.566  0.00  0.00    +0.295 HD
ENDBRANCH  16  18
ENDBRANCH  15  16
ENDBRANCH  14  15
ENDBRANCH  13  14
ENDBRANCH  12  13
ENDBRANCH  11  12
ENDBRANCH   1  11
TORSDOF 15
ENDMDL
MODEL 8
REMARK VINA RESULT:      -6.5      1.885      2.290
REMARK  Name = *****
REMARK                            x       y       z     vdW  Elec       q    Type
REMARK                         _______ _______ _______ _____ _____    ______ ____
ROOT
ATOM      1  C   LIG    1       26.875 -20.253   6.863  0.00  0.00    -0.000 C 
ENDROOT
BRANCH   1   2
ATOM      2  C   LIG    1       26.550 -20.645   8.305  0.00  0.00    -0.000 C 
BRANCH   2   3
ATOM      3  C   LIG    1       25.891 -22.032   8.414  0.00  0.00    -0.000 C 
BRANCH   3   4
ATOM      4  C   LIG    1       25.569 -22.627   7.038  0.00  0.00    -0.000 C 
BRANCH   4   5
ATOM      5  C   LIG    1       24.081 -22.982   6.918  0.00  0.00    -0.000 C 
BRANCH   5   6
ATOM      6  C   LIG    1       23.167 -21.838   7.370  0.00  0.00    -0.000 C 
BRANCH   6   7
ATOM      7  C   LIG    1       23.252 -20.598   6.468  0.00  0.00    -0.000 C 
BRANCH   7   8
ATOM      8  C   LIG    1       22.863 -20.873   5.009  0.00  0.00    -0.000 C 
BRANCH   8  10
ATOM      9  C   LIG    1       24.564 -19.397   3.752  0.00  0.00    +0.004 C 
ATOM     10  C   LIG    1       24.035 -20.797   4.027  0.00  0.00    -0.003 C 
ENDBRANCH   8  10
ENDBRANCH   7   8
ENDBRANCH   6   7
ENDBRANCH   5   6
ENDBRANCH   4   5
ENDBRANCH   3   4
ENDBRANCH   2   3
ENDBRANCH   1   2
BRANCH   1  11
ATOM     11  C   LIG    1       28.367 -20.186   6.523  0.00  0.00    -0.000 C 
BRANCH  11  12
ATOM     12  C   LIG    1       29.323 -21.095   7.312  0.00  0.00    +0.000 C 
BRANCH  12  13
ATOM     13  C   LIG    1       30.417 -20.388   8.130  0.00  0.00    +0.000 C 
BRANCH  13  14
ATOM     14  C   LIG    1       30.482 -18.864   7.996  0.00  0.00    +0.011 C 
BRANCH  14  15
ATOM     15  C   LIG    1       29.892 -18.003   9.101  0.00  0.00    +0.120 C 
BRANCH  15  16
ATOM     16  C   LIG    1       30.780 -17.607  10.254  0.00  0.00    +0.305 C 
ATOM     17  O   LIG    1       31.873 -18.078  10.428  0.00  0.00    -0.251 OA
BRANCH  16  18
ATOM     18  O   LIG    1       30.301 -16.604  11.019  0.00  0.00    -0.481 OA
ATOM     19  H   LIG    1       30.638 -15.724  10.799  0.00  0.00    +0.295 HD
ENDBRANCH  16  18
ENDBRANCH  15  16
ENDBRANCH  14  15
ENDBRANCH  13  14
ENDBRANCH  12  13
ENDBRANCH  11  12
ENDBRANCH   1  11
TORSDOF 15
ENDMDL
MODEL 9
REMARK VINA RESULT:      -6.3      1.109      2.216
REMARK  Name = *****
REMARK                            x       y       z     vdW  Elec       q    Type
REMARK                         _______ _______ _______ _____ _____    ______ ____
ROOT
ATOM      1  C   LIG    1       26.283 -23.052   7.173  0.00  0.00    -0.000 C 
ENDROOT
BRANCH   1   2
ATOM      2  C   LIG    1       25.476 -24.350   7.196  0.00  0.00    -0.000 C 
BRANCH   2   3
ATOM      3  C   LIG    1       24.173 -24.260   6.379  0.00  0.00    -0.000 C 
BRANCH   3   4
ATOM      4  C   LIG    1       23.991 -22.879   5.737  0.00  0.00    -0.000 C 
BRANCH   4   5
ATOM      5  C   LIG    1       22.934 -22.053   6.482  0.00  0.00    -0.000 C 
BRANCH   5   6
ATOM      6  C   LIG    1       23.121 -20.546   6.280  0.00  0.00    -0.000 C 
BRANCH   6   7
ATOM      7  C   LIG    1       24.158 -20.198   5.202  0.00  0.00    -0.000 C 
BRANCH   7   8
ATOM      8  C   LIG    1       23.604 -19.305   4.084  0.00  0.00    -0.000 C 
BRANCH   8  10
ATOM      9  C   LIG    1       21.148 -18.596   3.742  0.00  0.00    +0.004 C 
ATOM     10  C   LIG    1       22.442 -18.410   4.520  0.00  0.00    -0.003 C 
ENDBRANCH   8  10
ENDBRANCH   7   8
ENDBRANCH   6   7
ENDBRANCH   5   6
ENDBRANCH   4   5
ENDBRANCH   3   4
ENDBRANCH   2   3
ENDBRANCH   1   2
BRANCH   1  11
ATOM     11  C   LIG    1       26.103 -22.147   8.396  0.00  0.00    -0.000 C 
BRANCH  11  12
ATOM     12  C   LIG    1       26.356 -20.641   8.216  0.00  0.00    +0.000 C 
BRANCH  12  13
ATOM     13  C   LIG    1       27.487 -20.250   7.249  0.00  0.00    +0.000 C 
BRANCH  13  14
ATOM     14  C   LIG    1       28.862 -20.009   7.880  0.00  0.00    +0.011 C 
BRANCH  14  15
ATOM     15  C   LIG    1       29.838 -21.170   7.978  0.00  0.00    +0.120 C 
BRANCH  15  16
ATOM     16  C   LIG    1       31.077 -20.997   8.821  0.00  0.00    +0.305 C 
ATOM     17  O   LIG    1       31.194 -20.121   9.638  0.00  0.00    -0.251 OA
BRANCH  16  18
ATOM     18  O   LIG    1       32.007 -21.962   8.667  0.00  0.00    -0.481 OA
ATOM     19  H   LIG    1       31.971 -22.434   7.822  0.00  0.00    +0.295 HD
ENDBRANCH  16  18
ENDBRANCH  15  16
ENDBRANCH  14  15
ENDBRANCH  13  14
ENDBRANCH  12  13
ENDBRANCH  11  12
ENDBRANCH   1  11
TORSDOF 15
ENDMDL
