MODEL 1
REMARK VINA RESULT:      -8.1      0.000      0.000
REMARK  Name = *****
REMARK                            x       y       z     vdW  Elec       q    Type
REMARK                         _______ _______ _______ _____ _____    ______ ____
ROOT
ATOM      1  C   LIG    1       31.737 -18.032   9.016  0.00  0.00    +0.118 A 
ATOM      2  N   LIG    1       32.050 -19.340   8.996  0.00  0.00    -0.216 NA
ATOM      3  C   LIG    1       31.072 -20.215   8.675  0.00  0.00    +0.146 A 
ATOM      4  C   LIG    1       29.759 -19.825   8.364  0.00  0.00    +0.126 A 
ATOM      5  C   LIG    1       29.467 -18.462   8.396  0.00  0.00    +0.036 A 
ATOM      6  C   LIG    1       30.465 -17.553   8.735  0.00  0.00    +0.045 A 
ENDROOT
BRANCH   1   7
ATOM      7  N   LIG    1       32.756 -17.152   9.370  0.00  0.00    -0.343 N 
ATOM      8  H   LIG    1       33.388 -17.099   8.574  0.00  0.00    +0.144 HD
ATOM      9  H   LIG    1       32.390 -16.239   9.614  0.00  0.00    +0.144 HD
ENDBRANCH   1   7
BRANCH   3  10
ATOM     10  N   LIG    1       31.465 -21.560   8.621  0.00  0.00    -0.341 N 
ATOM     11  H   LIG    1       31.946 -21.698   7.737  0.00  0.00    +0.144 HD
ATOM     12  H   LIG    1       32.039 -21.790   9.427  0.00  0.00    +0.144 HD
ENDBRANCH   3  10
BRANCH   4  13
ATOM     13  N   LIG    1       28.766 -20.751   7.992  0.00  0.00    -0.146 NA
ATOM     14  N   LIG    1       27.631 -20.257   8.167  0.00  0.00    -0.149 NA
BRANCH  14  15
ATOM     15  C   LIG    1       26.612 -21.149   7.776  0.00  0.00    +0.086 A 
ATOM     16  C   LIG    1       26.869 -22.467   7.369  0.00  0.00    +0.029 A 
ATOM     17  C   LIG    1       25.823 -23.324   7.017  0.00  0.00    +0.002 A 
ATOM     18  C   LIG    1       24.505 -22.874   7.077  0.00  0.00    +0.000 A 
ATOM     19  C   LIG    1       24.233 -21.572   7.492  0.00  0.00    +0.002 A 
ATOM     20  C   LIG    1       25.282 -20.718   7.843  0.00  0.00    +0.029 A 
ENDBRANCH  14  15
ENDBRANCH   4  13
TORSDOF 4
ENDMDL
MODEL 2
REMARK VINA RESULT:      -8.0      2.464      3.221
REMARK  Name = *****
REMARK                            x       y       z     vdW  Elec       q    Type
REMARK                         _______ _______ _______ _____ _____    ______ ____
ROOT
ATOM      1  C   LIG    1       30.889 -19.340   7.450  0.00  0.00    +0.118 A 
ATOM      2  N   LIG    1       30.491 -18.571   6.421  0.00  0.00    -0.216 NA
ATOM      3  C   LIG    1       29.295 -18.846   5.857  0.00  0.00    +0.146 A 
ATOM      4  C   LIG    1       28.457 -19.885   6.292  0.00  0.00    +0.126 A 
ATOM      5  C   LIG    1       28.900 -20.665   7.360  0.00  0.00    +0.036 A 
ATOM      6  C   LIG    1       30.135 -20.397   7.941  0.00  0.00    +0.045 A 
ENDROOT
BRANCH   1   7
ATOM      7  N   LIG    1       32.135 -19.051   8.001  0.00  0.00    -0.343 N 
ATOM      8  H   LIG    1       32.223 -19.617   8.842  0.00  0.00    +0.144 HD
ATOM      9  H   LIG    1       32.884 -19.240   7.345  0.00  0.00    +0.144 HD
ENDBRANCH   1   7
BRANCH   3  10
ATOM     10  N   LIG    1       28.908 -17.982   4.822  0.00  0.00    -0.341 N 
ATOM     11  H   LIG    1       27.894 -18.011   4.768  0.00  0.00    +0.144 HD
ATOM     12  H   LIG    1       29.271 -17.049   4.990  0.00  0.00    +0.144 HD
ENDBRANCH   3  10
BRANCH   4  13
ATOM     13  N   LIG    1       27.195 -20.127   5.717  0.00  0.00    -0.146 NA
ATOM     14  N   LIG    1       26.357 -20.376   6.610  0.00  0.00    -0.149 NA
BRANCH  14  15
ATOM     15  C   LIG    1       25.074 -20.595   6.068  0.00  0.00    +0.086 A 
ATOM     16  C   LIG    1       24.002 -21.094   6.825  0.00  0.00    +0.029 A 
ATOM     17  C   LIG    1       22.741 -21.267   6.249  0.00  0.00    +0.002 A 
ATOM     18  C   LIG    1       22.534 -20.934   4.911  0.00  0.00    +0.000 A 
ATOM     19  C   LIG    1       23.585 -20.425   4.151  0.00  0.00    +0.002 A 
ATOM     20  C   LIG    1       24.845 -20.253   4.730  0.00  0.00    +0.029 A 
ENDBRANCH  14  15
ENDBRANCH   4  13
TORSDOF 4
ENDMDL
MODEL 3
REMARK VINA RESULT:      -7.6      2.976      6.895
REMARK  Name = *****
REMARK                            x       y       z     vdW  Elec       q    Type
REMARK                         _______ _______ _______ _____ _____    ______ ____
ROOT
ATOM      1  C   LIG    1       22.994 -21.338   5.600  0.00  0.00    +0.118 A 
ATOM      2  N   LIG    1       23.921 -20.894   4.732  0.00  0.00    -0.216 NA
ATOM      3  C   LIG    1       25.120 -20.522   5.229  0.00  0.00    +0.146 A 
ATOM      4  C   LIG    1       25.441 -20.577   6.595  0.00  0.00    +0.126 A 
ATOM      5  C   LIG    1       24.457 -21.039   7.468  0.00  0.00    +0.036 A 
ATOM      6  C   LIG    1       23.215 -21.417   6.968  0.00  0.00    +0.045 A 
ENDROOT
BRANCH   1   7
ATOM      7  N   LIG    1       21.759 -21.697   5.066  0.00  0.00    -0.343 N 
ATOM      8  H   LIG    1       21.089 -20.997   5.378  0.00  0.00    +0.144 HD
ATOM      9  H   LIG    1       21.794 -21.753   4.055  0.00  0.00    +0.144 HD
ENDBRANCH   1   7
BRANCH   3  10
ATOM     10  N   LIG    1       26.064 -20.114   4.274  0.00  0.00    -0.341 N 
ATOM     11  H   LIG    1       26.746 -19.534   4.754  0.00  0.00    +0.144 HD
ATOM     12  H   LIG    1       26.477 -20.924   3.822  0.00  0.00    +0.144 HD
ENDBRANCH   3  10
BRANCH   4  13
ATOM     13  N   LIG    1       26.712 -20.222   7.086  0.00  0.00    -0.146 NA
ATOM     14  N   LIG    1       27.586 -20.961   6.585  0.00  0.00    -0.149 NA
BRANCH  14  15
ATOM     15  C   LIG    1       28.876 -20.612   7.034  0.00  0.00    +0.086 A 
ATOM     16  C   LIG    1       29.599 -19.530   6.509  0.00  0.00    +0.029 A 
ATOM     17  C   LIG    1       30.864 -19.206   7.007  0.00  0.00    +0.002 A 
ATOM     18  C   LIG    1       31.417 -19.956   8.045  0.00  0.00    +0.000 A 
ATOM     19  C   LIG    1       30.705 -21.025   8.585  0.00  0.00    +0.002 A 
ATOM     20  C   LIG    1       29.441 -21.346   8.084  0.00  0.00    +0.029 A 
ENDBRANCH  14  15
ENDBRANCH   4  13
TORSDOF 4
ENDMDL
MODEL 4
REMARK VINA RESULT:      -7.6      2.899      6.806
REMARK  Name = *****
REMARK                            x       y       z     vdW  Elec       q    Type
REMARK                         _______ _______ _______ _____ _____    ______ ____
ROOT
ATOM      1  C   LIG    1       23.088 -21.372   5.725  0.00  0.00    +0.118 A 
ATOM      2  N   LIG    1       24.025 -20.963   4.851  0.00  0.00    -0.216 NA
ATOM      3  C   LIG    1       25.219 -20.573   5.349  0.00  0.00    +0.146 A 
ATOM      4  C   LIG    1       25.523 -20.577   6.719  0.00  0.00    +0.126 A 
ATOM      5  C   LIG    1       24.529 -21.005   7.598  0.00  0.00    +0.036 A 
ATOM      6  C   LIG    1       23.292 -21.400   7.097  0.00  0.00    +0.045 A 
ENDROOT
BRANCH   1   7
ATOM      7  N   LIG    1       21.859 -21.750   5.190  0.00  0.00    -0.343 N 
ATOM      8  H   LIG    1       21.721 -21.194   4.349  0.00  0.00    +0.144 HD
ATOM      9  H   LIG    1       21.831 -22.742   4.989  0.00  0.00    +0.144 HD
ENDBRANCH   1   7
BRANCH   3  10
ATOM     10  N   LIG    1       26.174 -20.203   4.391  0.00  0.00    -0.341 N 
ATOM     11  H   LIG    1       26.171 -20.918   3.670  0.00  0.00    +0.144 HD
ATOM     12  H   LIG    1       25.971 -19.275   4.032  0.00  0.00    +0.144 HD
ENDBRANCH   3  10
BRANCH   4  13
ATOM     13  N   LIG    1       26.789 -20.206   7.212  0.00  0.00    -0.146 NA
ATOM     14  N   LIG    1       27.663 -20.991   6.784  0.00  0.00    -0.149 NA
BRANCH  14  15
ATOM     15  C   LIG    1       28.948 -20.628   7.236  0.00  0.00    +0.086 A 
ATOM     16  C   LIG    1       29.639 -21.346   8.224  0.00  0.00    +0.029 A 
ATOM     17  C   LIG    1       30.923 -20.964   8.619  0.00  0.00    +0.002 A 
ATOM     18  C   LIG    1       31.537 -19.863   8.022  0.00  0.00    +0.000 A 
ATOM     19  C   LIG    1       30.869 -19.148   7.030  0.00  0.00    +0.002 A 
ATOM     20  C   LIG    1       29.584 -19.534   6.638  0.00  0.00    +0.029 A 
ENDBRANCH  14  15
ENDBRANCH   4  13
TORSDOF 4
ENDMDL
MODEL 5
REMARK VINA RESULT:      -7.4      5.687      7.462
REMARK  Name = *****
REMARK                            x       y       z     vdW  Elec       q    Type
REMARK                         _______ _______ _______ _____ _____    ______ ____
ROOT
ATOM      1  C   LIG    1       25.673 -26.646   6.631  0.00  0.00    +0.118 A 
ATOM      2  N   LIG    1       25.930 -25.541   7.353  0.00  0.00    -0.216 NA
ATOM      3  C   LIG    1       25.689 -24.344   6.777  0.00  0.00    +0.146 A 
ATOM      4  C   LIG    1       25.186 -24.201   5.473  0.00  0.00    +0.126 A 
ATOM      5  C   LIG    1       24.933 -25.366   4.750  0.00  0.00    +0.036 A 
ATOM      6  C   LIG    1       25.187 -26.605   5.331  0.00  0.00    +0.045 A 
ENDROOT
BRANCH   1   7
ATOM      7  N   LIG    1       25.949 -27.868   7.239  0.00  0.00    -0.343 N 
ATOM      8  H   LIG    1       26.458 -27.662   8.095  0.00  0.00    +0.144 HD
ATOM      9  H   LIG    1       25.101 -28.389   7.427  0.00  0.00    +0.144 HD
ENDBRANCH   1   7
BRANCH   3  10
ATOM     10  N   LIG    1       25.927 -23.227   7.592  0.00  0.00    -0.341 N 
ATOM     11  H   LIG    1       25.884 -22.405   6.998  0.00  0.00    +0.144 HD
ATOM     12  H   LIG    1       25.259 -23.202   8.356  0.00  0.00    +0.144 HD
ENDBRANCH   3  10
BRANCH   4  13
ATOM     13  N   LIG    1       24.903 -22.943   4.907  0.00  0.00    -0.146 NA
ATOM     14  N   LIG    1       24.021 -22.362   5.575  0.00  0.00    -0.149 NA
BRANCH  14  15
ATOM     15  C   LIG    1       23.735 -21.084   5.051  0.00  0.00    +0.086 A 
ATOM     16  C   LIG    1       22.584 -20.359   5.396  0.00  0.00    +0.029 A 
ATOM     17  C   LIG    1       22.358 -19.084   4.872  0.00  0.00    +0.002 A 
ATOM     18  C   LIG    1       23.287 -18.514   4.002  0.00  0.00    +0.000 A 
ATOM     19  C   LIG    1       24.441 -19.217   3.661  0.00  0.00    +0.002 A 
ATOM     20  C   LIG    1       24.663 -20.492   4.187  0.00  0.00    +0.029 A 
ENDBRANCH  14  15
ENDBRANCH   4  13
TORSDOF 4
ENDMDL
MODEL 6
REMARK VINA RESULT:      -7.4      2.312      3.133
REMARK  Name = *****
REMARK                            x       y       z     vdW  Elec       q    Type
REMARK                         _______ _______ _______ _____ _____    ______ ____
ROOT
ATOM      1  C   LIG    1       30.755 -20.070   8.101  0.00  0.00    +0.118 A 
ATOM      2  N   LIG    1       29.795 -20.942   8.458  0.00  0.00    -0.216 NA
ATOM      3  C   LIG    1       28.660 -20.960   7.726  0.00  0.00    +0.146 A 
ATOM      4  C   LIG    1       28.439 -20.121   6.622  0.00  0.00    +0.126 A 
ATOM      5  C   LIG    1       29.453 -19.227   6.280  0.00  0.00    +0.036 A 
ATOM      6  C   LIG    1       30.623 -19.193   7.033  0.00  0.00    +0.045 A 
ENDROOT
BRANCH   1   7
ATOM      7  N   LIG    1       31.907 -20.056   8.883  0.00  0.00    -0.343 N 
ATOM      8  H   LIG    1       31.703 -20.601   9.718  0.00  0.00    +0.144 HD
ATOM      9  H   LIG    1       32.702 -20.431   8.380  0.00  0.00    +0.144 HD
ENDBRANCH   1   7
BRANCH   3  10
ATOM     10  N   LIG    1       27.714 -21.921   8.111  0.00  0.00    -0.341 N 
ATOM     11  H   LIG    1       27.520 -22.497   7.297  0.00  0.00    +0.144 HD
ATOM     12  H   LIG    1       28.059 -22.455   8.903  0.00  0.00    +0.144 HD
ENDBRANCH   3  10
BRANCH   4  13
ATOM     13  N   LIG    1       27.264 -20.185   5.848  0.00  0.00    -0.146 NA
ATOM     14  N   LIG    1       26.270 -20.337   6.591  0.00  0.00    -0.149 NA
BRANCH  14  15
ATOM     15  C   LIG    1       25.072 -20.376   5.848  0.00  0.00    +0.086 A 
ATOM     16  C   LIG    1       23.820 -20.618   6.433  0.00  0.00    +0.029 A 
ATOM     17  C   LIG    1       22.657 -20.619   5.659  0.00  0.00    +0.002 A 
ATOM     18  C   LIG    1       22.732 -20.367   4.290  0.00  0.00    +0.000 A 
ATOM     19  C   LIG    1       23.967 -20.112   3.696  0.00  0.00    +0.002 A 
ATOM     20  C   LIG    1       25.128 -20.112   4.474  0.00  0.00    +0.029 A 
ENDBRANCH  14  15
ENDBRANCH   4  13
TORSDOF 4
ENDMDL
MODEL 7
REMARK VINA RESULT:      -7.4      2.793      6.984
REMARK  Name = *****
REMARK                            x       y       z     vdW  Elec       q    Type
REMARK                         _______ _______ _______ _____ _____    ______ ____
ROOT
ATOM      1  C   LIG    1       23.430 -23.353   6.816  0.00  0.00    +0.118 A 
ATOM      2  N   LIG    1       23.584 -22.176   7.449  0.00  0.00    -0.216 NA
ATOM      3  C   LIG    1       24.845 -21.759   7.699  0.00  0.00    +0.146 A 
ATOM      4  C   LIG    1       25.987 -22.488   7.330  0.00  0.00    +0.126 A 
ATOM      5  C   LIG    1       25.791 -23.704   6.678  0.00  0.00    +0.036 A 
ATOM      6  C   LIG    1       24.497 -24.148   6.424  0.00  0.00    +0.045 A 
ENDROOT
BRANCH   1   7
ATOM      7  N   LIG    1       22.121 -23.772   6.589  0.00  0.00    -0.343 N 
ATOM      8  H   LIG    1       21.691 -23.901   7.501  0.00  0.00    +0.144 HD
ATOM      9  H   LIG    1       21.609 -23.101   6.028  0.00  0.00    +0.144 HD
ENDBRANCH   1   7
BRANCH   3  10
ATOM     10  N   LIG    1       24.948 -20.504   8.316  0.00  0.00    -0.341 N 
ATOM     11  H   LIG    1       25.438 -20.640   9.195  0.00  0.00    +0.144 HD
ATOM     12  H   LIG    1       25.414 -19.847   7.699  0.00  0.00    +0.144 HD
ENDBRANCH   3  10
BRANCH   4  13
ATOM     13  N   LIG    1       27.292 -22.013   7.564  0.00  0.00    -0.146 NA
ATOM     14  N   LIG    1       27.537 -21.044   6.813  0.00  0.00    -0.149 NA
BRANCH  14  15
ATOM     15  C   LIG    1       28.828 -20.526   7.043  0.00  0.00    +0.086 A 
ATOM     16  C   LIG    1       29.340 -19.420   6.347  0.00  0.00    +0.029 A 
ATOM     17  C   LIG    1       30.615 -18.926   6.630  0.00  0.00    +0.002 A 
ATOM     18  C   LIG    1       31.391 -19.526   7.621  0.00  0.00    +0.000 A 
ATOM     19  C   LIG    1       30.891 -20.616   8.329  0.00  0.00    +0.002 A 
ATOM     20  C   LIG    1       29.614 -21.108   8.043  0.00  0.00    +0.029 A 
ENDBRANCH  14  15
ENDBRANCH   4  13
TORSDOF 4
ENDMDL
MODEL 8
REMARK VINA RESULT:      -6.8      4.671      8.266
REMARK  Name = *****
REMARK                            x       y       z     vdW  Elec       q    Type
REMARK                         _______ _______ _______ _____ _____    ______ ____
ROOT
ATOM      1  C   LIG    1       24.444 -28.186   5.685  0.00  0.00    +0.118 A 
ATOM      2  N   LIG    1       24.250 -27.104   4.910  0.00  0.00    -0.216 NA
ATOM      3  C   LIG    1       24.834 -25.947   5.289  0.00  0.00    +0.146 A 
ATOM      4  C   LIG    1       25.628 -25.823   6.441  0.00  0.00    +0.126 A 
ATOM      5  C   LIG    1       25.807 -26.963   7.224  0.00  0.00    +0.036 A 
ATOM      6  C   LIG    1       25.202 -28.158   6.848  0.00  0.00    +0.045 A 
ENDROOT
BRANCH   1   7
ATOM      7  N   LIG    1       23.814 -29.362   5.285  0.00  0.00    -0.343 N 
ATOM      8  H   LIG    1       24.549 -30.005   4.998  0.00  0.00    +0.144 HD
ATOM      9  H   LIG    1       23.249 -29.752   6.030  0.00  0.00    +0.144 HD
ENDBRANCH   1   7
BRANCH   3  10
ATOM     10  N   LIG    1       24.639 -24.864   4.419  0.00  0.00    -0.341 N 
ATOM     11  H   LIG    1       25.463 -24.273   4.483  0.00  0.00    +0.144 HD
ATOM     12  H   LIG    1       24.462 -25.199   3.477  0.00  0.00    +0.144 HD
ENDBRANCH   3  10
BRANCH   4  13
ATOM     13  N   LIG    1       26.262 -24.617   6.795  0.00  0.00    -0.146 NA
ATOM     14  N   LIG    1       25.408 -23.766   7.127  0.00  0.00    -0.149 NA
BRANCH  14  15
ATOM     15  C   LIG    1       26.013 -22.553   7.517  0.00  0.00    +0.086 A 
ATOM     16  C   LIG    1       25.384 -21.625   8.361  0.00  0.00    +0.029 A 
ATOM     17  C   LIG    1       26.035 -20.449   8.741  0.00  0.00    +0.002 A 
ATOM     18  C   LIG    1       27.329 -20.192   8.289  0.00  0.00    +0.000 A 
ATOM     19  C   LIG    1       27.971 -21.110   7.461  0.00  0.00    +0.002 A 
ATOM     20  C   LIG    1       27.316 -22.285   7.083  0.00  0.00    +0.029 A 
ENDBRANCH  14  15
ENDBRANCH   4  13
TORSDOF 4
ENDMDL
MODEL 9
REMARK VINA RESULT:      -6.8      2.025      6.583
REMARK  Name = *****
REMARK                            x       y       z     vdW  Elec       q    Type
REMARK                         _______ _______ _______ _____ _____    ______ ____
ROOT
ATOM      1  C   LIG    1       24.947 -22.737   6.276  0.00  0.00    +0.118 A 
ATOM      2  N   LIG    1       25.477 -21.793   5.478  0.00  0.00    -0.216 NA
ATOM      3  C   LIG    1       26.345 -20.918   6.030  0.00  0.00    +0.146 A 
ATOM      4  C   LIG    1       26.717 -20.950   7.384  0.00  0.00    +0.126 A 
ATOM      5  C   LIG    1       26.147 -21.939   8.185  0.00  0.00    +0.036 A 
ATOM      6  C   LIG    1       25.245 -22.840   7.628  0.00  0.00    +0.045 A 
ENDROOT
BRANCH   1   7
ATOM      7  N   LIG    1       24.039 -23.614   5.688  0.00  0.00    -0.343 N 
ATOM      8  H   LIG    1       23.461 -23.986   6.439  0.00  0.00    +0.144 HD
ATOM      9  H   LIG    1       23.479 -23.151   4.982  0.00  0.00    +0.144 HD
ENDBRANCH   1   7
BRANCH   3  10
ATOM     10  N   LIG    1       26.904 -19.987   5.142  0.00  0.00    -0.341 N 
ATOM     11  H   LIG    1       27.557 -19.419   5.673  0.00  0.00    +0.144 HD
ATOM     12  H   LIG    1       27.338 -20.466   4.360  0.00  0.00    +0.144 HD
ENDBRANCH   3  10
BRANCH   4  13
ATOM     13  N   LIG    1       27.655 -20.053   7.930  0.00  0.00    -0.146 NA
ATOM     14  N   LIG    1       28.805 -20.342   7.533  0.00  0.00    -0.149 NA
BRANCH  14  15
ATOM     15  C   LIG    1       29.767 -19.444   8.039  0.00  0.00    +0.086 A 
ATOM     16  C   LIG    1       31.080 -19.378   7.548  0.00  0.00    +0.029 A 
ATOM     17  C   LIG    1       31.989 -18.451   8.063  0.00  0.00    +0.002 A 
ATOM     18  C   LIG    1       31.593 -17.570   9.068  0.00  0.00    +0.000 A 
ATOM     19  C   LIG    1       30.288 -17.614   9.556  0.00  0.00    +0.002 A 
ATOM     20  C   LIG    1       29.381 -18.543   9.038  0.00  0.00    +0.029 A 
ENDBRANCH  14  15
ENDBRANCH   4  13
TORSDOF 4
ENDMDL
