MODEL 1
REMARK VINA RESULT:      -3.5      0.000      0.000
REMARK  Name = *****
REMARK                            x       y       z     vdW  Elec       q    Type
REMARK                         _______ _______ _______ _____ _____    ______ ____
ROOT
ATOM      1  C   LIG    1       26.572 -19.900   4.983  0.00  0.00    +0.083 C 
ENDROOT
BRANCH   1   6
ATOM      2 CL   LIG    1       26.463 -14.288   2.669  0.00  0.00    -0.084 Cl
ATOM      3  C   LIG    1       26.492 -15.887   3.304  0.00  0.00    +0.041 A 
ATOM      4  C   LIG    1       25.368 -16.705   3.180  0.00  0.00    +0.020 A 
ATOM      5  C   LIG    1       25.385 -18.004   3.704  0.00  0.00    +0.006 A 
ATOM      6  C   LIG    1       26.520 -18.496   4.363  0.00  0.00    -0.037 A 
ATOM      7  C   LIG    1       27.646 -17.651   4.471  0.00  0.00    +0.006 A 
ATOM      8  C   LIG    1       27.629 -16.358   3.942  0.00  0.00    +0.020 A 
ENDBRANCH   1   6
BRANCH   1   9
ATOM      9  C   LIG    1       25.163 -20.407   5.355  0.00  0.00    -0.019 A 
ATOM     10  C   LIG    1       24.247 -20.849   4.377  0.00  0.00    +0.045 A 
ATOM     11 CL   LIG    1       24.601 -20.833   2.686  0.00  0.00    -0.083 Cl
ATOM     12  C   LIG    1       22.992 -21.356   4.743  0.00  0.00    +0.020 A 
ATOM     13  C   LIG    1       22.626 -21.443   6.082  0.00  0.00    +0.001 A 
ATOM     14  C   LIG    1       23.504 -21.003   7.062  0.00  0.00    +0.000 A 
ATOM     15  C   LIG    1       24.748 -20.475   6.702  0.00  0.00    +0.006 A 
ENDBRANCH   1   9
BRANCH   1  16
ATOM     16  C   LIG    1       27.614 -20.018   6.139  0.00  0.00    +0.183 C 
ATOM     17 CL   LIG    1       29.312 -19.943   5.562  0.00  0.00    -0.104 Cl
ATOM     18 CL   LIG    1       27.433 -21.570   7.035  0.00  0.00    -0.104 Cl
ENDBRANCH   1  16
TORSDOF 3
ENDMDL
MODEL 2
REMARK VINA RESULT:      -3.2      2.557      4.070
REMARK  Name = *****
REMARK                            x       y       z     vdW  Elec       q    Type
REMARK                         _______ _______ _______ _____ _____    ______ ____
ROOT
ATOM      1  C   LIG    1       22.367 -18.678   4.781  0.00  0.00    +0.083 C 
ENDROOT
BRANCH   1   6
ATOM      2 CL   LIG    1       25.193 -13.456   3.514  0.00  0.00    -0.084 Cl
ATOM      3  C   LIG    1       24.375 -14.930   3.859  0.00  0.00    +0.041 A 
ATOM      4  C   LIG    1       23.150 -14.906   4.528  0.00  0.00    +0.020 A 
ATOM      5  C   LIG    1       22.486 -16.105   4.819  0.00  0.00    +0.006 A 
ATOM      6  C   LIG    1       23.042 -17.338   4.452  0.00  0.00    -0.037 A 
ATOM      7  C   LIG    1       24.279 -17.336   3.772  0.00  0.00    +0.006 A 
ATOM      8  C   LIG    1       24.936 -16.139   3.477  0.00  0.00    +0.020 A 
ENDBRANCH   1   6
BRANCH   1   9
ATOM      9  C   LIG    1       23.394 -19.730   5.249  0.00  0.00    -0.019 A 
ATOM     10  C   LIG    1       24.298 -20.341   4.354  0.00  0.00    +0.045 A 
ATOM     11 CL   LIG    1       24.315 -19.997   2.661  0.00  0.00    -0.083 Cl
ATOM     12  C   LIG    1       25.258 -21.254   4.811  0.00  0.00    +0.020 A 
ATOM     13  C   LIG    1       25.347 -21.572   6.162  0.00  0.00    +0.001 A 
ATOM     14  C   LIG    1       24.461 -20.994   7.061  0.00  0.00    +0.000 A 
ATOM     15  C   LIG    1       23.487 -20.099   6.608  0.00  0.00    +0.006 A 
ENDBRANCH   1   9
BRANCH   1  16
ATOM     16  C   LIG    1       21.419 -19.178   3.646  0.00  0.00    +0.183 C 
ATOM     17 CL   LIG    1       20.029 -18.080   3.360  0.00  0.00    -0.104 Cl
ATOM     18 CL   LIG    1       20.736 -20.802   4.024  0.00  0.00    -0.104 Cl
ENDBRANCH   1  16
TORSDOF 3
ENDMDL
MODEL 3
REMARK VINA RESULT:      -3.0      3.634      7.269
REMARK  Name = *****
REMARK                            x       y       z     vdW  Elec       q    Type
REMARK                         _______ _______ _______ _____ _____    ______ ____
ROOT
ATOM      1  C   LIG    1       24.796 -14.120   3.277  0.00  0.00    +0.083 C 
ENDROOT
BRANCH   1   6
ATOM      2 CL   LIG    1       22.299 -19.388   4.973  0.00  0.00    -0.084 Cl
ATOM      3  C   LIG    1       23.009 -17.890   4.514  0.00  0.00    +0.041 A 
ATOM      4  C   LIG    1       22.349 -16.693   4.797  0.00  0.00    +0.020 A 
ATOM      5  C   LIG    1       22.920 -15.471   4.417  0.00  0.00    +0.006 A 
ATOM      6  C   LIG    1       24.149 -15.433   3.744  0.00  0.00    -0.037 A 
ATOM      7  C   LIG    1       24.799 -16.657   3.475  0.00  0.00    +0.006 A 
ATOM      8  C   LIG    1       24.232 -17.874   3.861  0.00  0.00    +0.020 A 
ENDBRANCH   1   6
BRANCH   1   9
ATOM      9  C   LIG    1       26.055 -13.784   4.103  0.00  0.00    -0.019 A 
ATOM     10  C   LIG    1       27.328 -13.660   3.506  0.00  0.00    +0.045 A 
ATOM     11 CL   LIG    1       27.597 -13.903   1.816  0.00  0.00    -0.083 Cl
ATOM     12  C   LIG    1       28.448 -13.302   4.267  0.00  0.00    +0.020 A 
ATOM     13  C   LIG    1       28.329 -13.051   5.630  0.00  0.00    +0.001 A 
ATOM     14  C   LIG    1       27.090 -13.179   6.243  0.00  0.00    +0.000 A 
ATOM     15  C   LIG    1       25.973 -13.558   5.493  0.00  0.00    +0.006 A 
ENDBRANCH   1   9
BRANCH   1  16
ATOM     16  C   LIG    1       23.776 -12.943   3.169  0.00  0.00    +0.183 C 
ATOM     17 CL   LIG    1       24.150 -11.814   1.826  0.00  0.00    -0.104 Cl
ATOM     18 CL   LIG    1       23.733 -11.965   4.681  0.00  0.00    -0.104 Cl
ENDBRANCH   1  16
TORSDOF 3
ENDMDL
MODEL 4
REMARK VINA RESULT:      -2.9      2.665      6.682
REMARK  Name = *****
REMARK                            x       y       z     vdW  Elec       q    Type
REMARK                         _______ _______ _______ _____ _____    ______ ____
ROOT
ATOM      1  C   LIG    1       24.267 -15.204   3.396  0.00  0.00    +0.083 C 
ENDROOT
BRANCH   1   6
ATOM      2 CL   LIG    1       24.409 -21.232   4.103  0.00  0.00    -0.084 Cl
ATOM      3  C   LIG    1       24.366 -19.522   3.925  0.00  0.00    +0.041 A 
ATOM      4  C   LIG    1       23.196 -18.821   4.224  0.00  0.00    +0.020 A 
ATOM      5  C   LIG    1       23.155 -17.428   4.071  0.00  0.00    +0.006 A 
ATOM      6  C   LIG    1       24.277 -16.725   3.612  0.00  0.00    -0.037 A 
ATOM      7  C   LIG    1       25.449 -17.456   3.322  0.00  0.00    +0.006 A 
ATOM      8  C   LIG    1       25.491 -18.843   3.482  0.00  0.00    +0.020 A 
ENDBRANCH   1   6
BRANCH   1   9
ATOM      9  C   LIG    1       25.691 -14.613   3.460  0.00  0.00    -0.019 A 
ATOM     10  C   LIG    1       26.036 -13.422   2.788  0.00  0.00    +0.045 A 
ATOM     11 CL   LIG    1       24.915 -12.539   1.812  0.00  0.00    -0.083 Cl
ATOM     12  C   LIG    1       27.321 -12.875   2.904  0.00  0.00    +0.020 A 
ATOM     13  C   LIG    1       28.285 -13.493   3.694  0.00  0.00    +0.001 A 
ATOM     14  C   LIG    1       27.974 -14.673   4.356  0.00  0.00    +0.000 A 
ATOM     15  C   LIG    1       26.700 -15.235   4.226  0.00  0.00    +0.006 A 
ENDBRANCH   1   9
BRANCH   1  16
ATOM     16  C   LIG    1       23.232 -14.466   4.304  0.00  0.00    +0.183 C 
ATOM     17 CL   LIG    1       23.937 -13.063   5.172  0.00  0.00    -0.104 Cl
ATOM     18 CL   LIG    1       22.549 -15.568   5.554  0.00  0.00    -0.104 Cl
ENDBRANCH   1  16
TORSDOF 3
ENDMDL
MODEL 5
REMARK VINA RESULT:      -2.0      1.523      2.335
REMARK  Name = *****
REMARK                            x       y       z     vdW  Elec       q    Type
REMARK                         _______ _______ _______ _____ _____    ______ ____
ROOT
ATOM      1  C   LIG    1       27.096 -19.038   4.332  0.00  0.00    +0.083 C 
ENDROOT
BRANCH   1   6
ATOM      2 CL   LIG    1       26.041 -13.235   2.889  0.00  0.00    -0.084 Cl
ATOM      3  C   LIG    1       26.342 -14.874   3.320  0.00  0.00    +0.041 A 
ATOM      4  C   LIG    1       27.593 -15.243   3.817  0.00  0.00    +0.020 A 
ATOM      5  C   LIG    1       27.845 -16.578   4.160  0.00  0.00    +0.006 A 
ATOM      6  C   LIG    1       26.854 -17.557   4.002  0.00  0.00    -0.037 A 
ATOM      7  C   LIG    1       25.596 -17.157   3.502  0.00  0.00    +0.006 A 
ATOM      8  C   LIG    1       25.344 -15.824   3.168  0.00  0.00    +0.020 A 
ENDBRANCH   1   6
BRANCH   1   9
ATOM      9  C   LIG    1       25.775 -19.835   4.361  0.00  0.00    -0.019 A 
ATOM     10  C   LIG    1       25.281 -20.419   5.546  0.00  0.00    +0.045 A 
ATOM     11 CL   LIG    1       26.118 -20.326   7.055  0.00  0.00    -0.083 Cl
ATOM     12  C   LIG    1       24.052 -21.092   5.559  0.00  0.00    +0.020 A 
ATOM     13  C   LIG    1       23.287 -21.193   4.403  0.00  0.00    +0.001 A 
ATOM     14  C   LIG    1       23.756 -20.637   3.221  0.00  0.00    +0.000 A 
ATOM     15  C   LIG    1       24.992 -19.983   3.196  0.00  0.00    +0.006 A 
ENDBRANCH   1   9
BRANCH   1  16
ATOM     16  C   LIG    1       27.989 -19.243   5.596  0.00  0.00    +0.183 C 
ATOM     17 CL   LIG    1       29.467 -18.227   5.582  0.00  0.00    -0.104 Cl
ATOM     18 CL   LIG    1       28.529 -20.954   5.751  0.00  0.00    -0.104 Cl
ENDBRANCH   1  16
TORSDOF 3
ENDMDL
MODEL 6
REMARK VINA RESULT:      -1.8      0.899      1.316
REMARK  Name = *****
REMARK                            x       y       z     vdW  Elec       q    Type
REMARK                         _______ _______ _______ _____ _____    ______ ____
ROOT
ATOM      1  C   LIG    1       26.175 -19.630   4.234  0.00  0.00    +0.083 C 
ENDROOT
BRANCH   1   6
ATOM      2 CL   LIG    1       25.368 -13.723   3.084  0.00  0.00    -0.084 Cl
ATOM      3  C   LIG    1       25.586 -15.402   3.391  0.00  0.00    +0.041 A 
ATOM      4  C   LIG    1       24.478 -16.211   3.646  0.00  0.00    +0.020 A 
ATOM      5  C   LIG    1       24.652 -17.577   3.906  0.00  0.00    +0.006 A 
ATOM      6  C   LIG    1       25.933 -18.145   3.920  0.00  0.00    -0.037 A 
ATOM      7  C   LIG    1       27.037 -17.307   3.653  0.00  0.00    +0.006 A 
ATOM      8  C   LIG    1       26.861 -15.947   3.388  0.00  0.00    +0.020 A 
ENDBRANCH   1   6
BRANCH   1   9
ATOM      9  C   LIG    1       24.973 -20.256   4.970  0.00  0.00    -0.019 A 
ATOM     10  C   LIG    1       23.887 -20.828   4.275  0.00  0.00    +0.045 A 
ATOM     11 CL   LIG    1       23.786 -20.850   2.549  0.00  0.00    -0.083 Cl
ATOM     12  C   LIG    1       22.831 -21.439   4.965  0.00  0.00    +0.020 A 
ATOM     13  C   LIG    1       22.836 -21.503   6.354  0.00  0.00    +0.001 A 
ATOM     14  C   LIG    1       23.887 -20.937   7.062  0.00  0.00    +0.000 A 
ATOM     15  C   LIG    1       24.932 -20.306   6.380  0.00  0.00    +0.006 A 
ENDBRANCH   1   9
BRANCH   1  16
ATOM     16  C   LIG    1       27.550 -19.891   4.926  0.00  0.00    +0.183 C 
ATOM     17 CL   LIG    1       27.394 -20.756   6.489  0.00  0.00    -0.104 Cl
ATOM     18 CL   LIG    1       28.421 -18.351   5.263  0.00  0.00    -0.104 Cl
ENDBRANCH   1  16
TORSDOF 3
ENDMDL
MODEL 7
REMARK VINA RESULT:      -1.8      3.624      7.540
REMARK  Name = *****
REMARK                            x       y       z     vdW  Elec       q    Type
REMARK                         _______ _______ _______ _____ _____    ______ ____
ROOT
ATOM      1  C   LIG    1       24.959 -13.839   3.013  0.00  0.00    +0.083 C 
ENDROOT
BRANCH   1   6
ATOM      2 CL   LIG    1       22.864 -19.237   4.841  0.00  0.00    -0.084 Cl
ATOM      3  C   LIG    1       23.458 -17.715   4.302  0.00  0.00    +0.041 A 
ATOM      4  C   LIG    1       24.728 -17.627   3.730  0.00  0.00    +0.020 A 
ATOM      5  C   LIG    1       25.218 -16.387   3.298  0.00  0.00    +0.006 A 
ATOM      6  C   LIG    1       24.449 -15.224   3.440  0.00  0.00    -0.037 A 
ATOM      7  C   LIG    1       23.165 -15.340   4.016  0.00  0.00    +0.006 A 
ATOM      8  C   LIG    1       22.676 -16.578   4.440  0.00  0.00    +0.020 A 
ENDBRANCH   1   6
BRANCH   1   9
ATOM      9  C   LIG    1       26.280 -13.479   3.723  0.00  0.00    -0.019 A 
ATOM     10  C   LIG    1       26.391 -13.461   5.129  0.00  0.00    +0.045 A 
ATOM     11 CL   LIG    1       25.061 -13.805   6.179  0.00  0.00    -0.083 Cl
ATOM     12  C   LIG    1       27.616 -13.183   5.752  0.00  0.00    +0.020 A 
ATOM     13  C   LIG    1       28.753 -12.926   4.994  0.00  0.00    +0.001 A 
ATOM     14  C   LIG    1       28.667 -12.925   3.609  0.00  0.00    +0.000 A 
ATOM     15  C   LIG    1       27.444 -13.180   2.982  0.00  0.00    +0.006 A 
ENDBRANCH   1   9
BRANCH   1  16
ATOM     16  C   LIG    1       23.863 -12.731   3.108  0.00  0.00    +0.183 C 
ATOM     17 CL   LIG    1       24.020 -11.480   1.831  0.00  0.00    -0.104 Cl
ATOM     18 CL   LIG    1       23.928 -11.874   4.692  0.00  0.00    -0.104 Cl
ENDBRANCH   1  16
TORSDOF 3
ENDMDL
MODEL 8
REMARK VINA RESULT:      -1.7      1.738      2.622
REMARK  Name = *****
REMARK                            x       y       z     vdW  Elec       q    Type
REMARK                         _______ _______ _______ _____ _____    ______ ____
ROOT
ATOM      1  C   LIG    1       25.718 -18.788   3.668  0.00  0.00    +0.083 C 
ENDROOT
BRANCH   1   6
ATOM      2 CL   LIG    1       27.667 -13.038   3.584  0.00  0.00    -0.084 Cl
ATOM      3  C   LIG    1       27.118 -14.668   3.631  0.00  0.00    +0.041 A 
ATOM      4  C   LIG    1       27.989 -15.685   4.023  0.00  0.00    +0.020 A 
ATOM      5  C   LIG    1       27.548 -17.014   4.053  0.00  0.00    +0.006 A 
ATOM      6  C   LIG    1       26.236 -17.341   3.684  0.00  0.00    -0.037 A 
ATOM      7  C   LIG    1       25.372 -16.294   3.297  0.00  0.00    +0.006 A 
ATOM      8  C   LIG    1       25.812 -14.969   3.274  0.00  0.00    +0.020 A 
ENDBRANCH   1   6
BRANCH   1   9
ATOM      9  C   LIG    1       24.196 -18.847   3.912  0.00  0.00    -0.019 A 
ATOM     10  C   LIG    1       23.477 -20.060   3.849  0.00  0.00    +0.045 A 
ATOM     11 CL   LIG    1       24.221 -21.572   3.465  0.00  0.00    -0.083 Cl
ATOM     12  C   LIG    1       22.104 -20.098   4.127  0.00  0.00    +0.020 A 
ATOM     13  C   LIG    1       21.420 -18.939   4.479  0.00  0.00    +0.001 A 
ATOM     14  C   LIG    1       22.102 -17.732   4.536  0.00  0.00    +0.000 A 
ATOM     15  C   LIG    1       23.467 -17.684   4.238  0.00  0.00    +0.006 A 
ENDBRANCH   1   9
BRANCH   1  16
ATOM     16  C   LIG    1       26.546 -19.742   4.586  0.00  0.00    +0.183 C 
ATOM     17 CL   LIG    1       25.704 -20.144   6.119  0.00  0.00    -0.104 Cl
ATOM     18 CL   LIG    1       28.132 -19.014   5.034  0.00  0.00    -0.104 Cl
ENDBRANCH   1  16
TORSDOF 3
ENDMDL
MODEL 9
REMARK VINA RESULT:      -1.5      2.156      3.199
REMARK  Name = *****
REMARK                            x       y       z     vdW  Elec       q    Type
REMARK                         _______ _______ _______ _____ _____    ______ ____
ROOT
ATOM      1  C   LIG    1       25.365 -17.638   3.247  0.00  0.00    +0.083 C 
ENDROOT
BRANCH   1   6
ATOM      2 CL   LIG    1       23.991 -11.819   4.304  0.00  0.00    -0.084 Cl
ATOM      3  C   LIG    1       24.398 -13.467   4.019  0.00  0.00    +0.041 A 
ATOM      4  C   LIG    1       25.598 -13.786   3.381  0.00  0.00    +0.020 A 
ATOM      5  C   LIG    1       25.928 -15.126   3.138  0.00  0.00    +0.006 A 
ATOM      6  C   LIG    1       25.061 -16.158   3.523  0.00  0.00    -0.037 A 
ATOM      7  C   LIG    1       23.857 -15.810   4.172  0.00  0.00    +0.006 A 
ATOM      8  C   LIG    1       23.533 -14.473   4.419  0.00  0.00    +0.020 A 
ENDBRANCH   1   6
BRANCH   1   9
ATOM      9  C   LIG    1       24.236 -18.554   3.763  0.00  0.00    -0.019 A 
ATOM     10  C   LIG    1       24.177 -19.925   3.433  0.00  0.00    +0.045 A 
ATOM     11 CL   LIG    1       25.334 -20.691   2.403  0.00  0.00    -0.083 Cl
ATOM     12  C   LIG    1       23.173 -20.749   3.957  0.00  0.00    +0.020 A 
ATOM     13  C   LIG    1       22.214 -20.234   4.824  0.00  0.00    +0.001 A 
ATOM     14  C   LIG    1       22.243 -18.887   5.154  0.00  0.00    +0.000 A 
ATOM     15  C   LIG    1       23.229 -18.054   4.617  0.00  0.00    +0.006 A 
ENDBRANCH   1   9
BRANCH   1  16
ATOM     16  C   LIG    1       26.793 -18.065   3.714  0.00  0.00    +0.183 C 
ATOM     17 CL   LIG    1       26.764 -19.285   5.029  0.00  0.00    -0.104 Cl
ATOM     18 CL   LIG    1       27.735 -16.657   4.326  0.00  0.00    -0.104 Cl
ENDBRANCH   1  16
TORSDOF 3
ENDMDL
