MODEL 1
REMARK VINA RESULT:      -7.0      0.000      0.000
REMARK  Name = *****
REMARK                            x       y       z     vdW  Elec       q    Type
REMARK                         _______ _______ _______ _____ _____    ______ ____
ROOT
ATOM      1  C   LIG    1       24.982 -21.761   6.626  0.00  0.00    +0.056 C 
ENDROOT
BRANCH   1   2
ATOM      2  C   LIG    1       24.353 -20.754   5.690  0.00  0.00    -0.046 A 
ATOM      3  C   LIG    1       25.083 -20.237   4.610  0.00  0.00    +0.003 A 
ATOM      4  C   LIG    1       24.507 -19.311   3.740  0.00  0.00    +0.000 A 
ATOM      5  C   LIG    1       23.195 -18.887   3.942  0.00  0.00    +0.000 A 
ATOM      6  C   LIG    1       22.462 -19.385   5.016  0.00  0.00    +0.000 A 
ATOM      7  C   LIG    1       23.037 -20.312   5.888  0.00  0.00    +0.003 A 
ENDBRANCH   1   2
BRANCH   1   9
ATOM      8  C   LIG    1       23.295 -23.688   6.760  0.00  0.00    +0.027 C 
ATOM      9  C   LIG    1       24.703 -23.261   6.320  0.00  0.00    +0.015 C 
ATOM     10  C   LIG    1       25.750 -24.184   6.960  0.00  0.00    +0.027 C 
BRANCH   9  11
ATOM     11  N   LIG    1       24.774 -23.441   4.855  0.00  0.00    -0.325 NA
ATOM     12  H   LIG    1       23.833 -23.524   4.471  0.00  0.00    +0.119 HD
ATOM     13  H   LIG    1       25.179 -22.608   4.425  0.00  0.00    +0.119 HD
ENDBRANCH   9  11
ENDBRANCH   1   9
TORSDOF 3
ENDMDL
MODEL 2
REMARK VINA RESULT:      -7.0      0.012      1.455
REMARK  Name = *****
REMARK                            x       y       z     vdW  Elec       q    Type
REMARK                         _______ _______ _______ _____ _____    ______ ____
ROOT
ATOM      1  C   LIG    1       24.984 -21.750   6.625  0.00  0.00    +0.056 C 
ENDROOT
BRANCH   1   2
ATOM      2  C   LIG    1       24.359 -20.744   5.684  0.00  0.00    -0.046 A 
ATOM      3  C   LIG    1       23.039 -20.315   5.881  0.00  0.00    +0.003 A 
ATOM      4  C   LIG    1       22.458 -19.384   5.018  0.00  0.00    +0.000 A 
ATOM      5  C   LIG    1       23.188 -18.876   3.946  0.00  0.00    +0.000 A 
ATOM      6  C   LIG    1       24.497 -19.302   3.734  0.00  0.00    +0.000 A 
ATOM      7  C   LIG    1       25.081 -20.233   4.596  0.00  0.00    +0.003 A 
ENDBRANCH   1   2
BRANCH   1   9
ATOM      8  C   LIG    1       23.292 -23.671   6.762  0.00  0.00    +0.027 C 
ATOM      9  C   LIG    1       24.702 -23.250   6.324  0.00  0.00    +0.015 C 
ATOM     10  C   LIG    1       25.745 -24.173   6.971  0.00  0.00    +0.027 C 
BRANCH   9  11
ATOM     11  N   LIG    1       24.777 -23.436   4.860  0.00  0.00    -0.325 NA
ATOM     12  H   LIG    1       25.199 -22.613   4.429  0.00  0.00    +0.119 HD
ATOM     13  H   LIG    1       25.399 -24.216   4.644  0.00  0.00    +0.119 HD
ENDBRANCH   9  11
ENDBRANCH   1   9
TORSDOF 3
ENDMDL
MODEL 3
REMARK VINA RESULT:      -6.5      1.577      4.697
REMARK  Name = *****
REMARK                            x       y       z     vdW  Elec       q    Type
REMARK                         _______ _______ _______ _____ _____    ______ ____
ROOT
ATOM      1  C   LIG    1       23.188 -21.251   6.629  0.00  0.00    +0.056 C 
ENDROOT
BRANCH   1   2
ATOM      2  C   LIG    1       23.940 -22.562   6.681  0.00  0.00    -0.046 A 
ATOM      3  C   LIG    1       23.265 -23.775   6.484  0.00  0.00    +0.003 A 
ATOM      4  C   LIG    1       23.954 -24.988   6.527  0.00  0.00    +0.000 A 
ATOM      5  C   LIG    1       25.326 -25.002   6.770  0.00  0.00    +0.000 A 
ATOM      6  C   LIG    1       26.007 -23.804   6.976  0.00  0.00    +0.000 A 
ATOM      7  C   LIG    1       25.319 -22.590   6.934  0.00  0.00    +0.003 A 
ENDBRANCH   1   2
BRANCH   1   9
ATOM      8  C   LIG    1       23.914 -20.991   4.183  0.00  0.00    +0.027 C 
ATOM      9  C   LIG    1       22.807 -20.726   5.214  0.00  0.00    +0.015 C 
ATOM     10  C   LIG    1       22.458 -19.230   5.230  0.00  0.00    +0.027 C 
BRANCH   9  11
ATOM     11  N   LIG    1       21.609 -21.467   4.767  0.00  0.00    -0.325 NA
ATOM     12  H   LIG    1       21.796 -21.915   3.871  0.00  0.00    +0.119 HD
ATOM     13  H   LIG    1       21.408 -22.223   5.423  0.00  0.00    +0.119 HD
ENDBRANCH   9  11
ENDBRANCH   1   9
TORSDOF 3
ENDMDL
MODEL 4
REMARK VINA RESULT:      -6.5      1.601      4.595
REMARK  Name = *****
REMARK                            x       y       z     vdW  Elec       q    Type
REMARK                         _______ _______ _______ _____ _____    ______ ____
ROOT
ATOM      1  C   LIG    1       23.171 -21.451   6.675  0.00  0.00    +0.056 C 
ENDROOT
BRANCH   1   2
ATOM      2  C   LIG    1       23.933 -22.758   6.694  0.00  0.00    -0.046 A 
ATOM      3  C   LIG    1       25.309 -22.771   6.960  0.00  0.00    +0.003 A 
ATOM      4  C   LIG    1       26.017 -23.974   6.984  0.00  0.00    +0.000 A 
ATOM      5  C   LIG    1       25.357 -25.176   6.736  0.00  0.00    +0.000 A 
ATOM      6  C   LIG    1       23.992 -25.175   6.462  0.00  0.00    +0.000 A 
ATOM      7  C   LIG    1       23.282 -23.973   6.438  0.00  0.00    +0.003 A 
ENDBRANCH   1   2
BRANCH   1   9
ATOM      8  C   LIG    1       23.931 -21.144   4.245  0.00  0.00    +0.027 C 
ATOM      9  C   LIG    1       22.823 -20.872   5.273  0.00  0.00    +0.015 C 
ATOM     10  C   LIG    1       22.523 -19.367   5.330  0.00  0.00    +0.027 C 
BRANCH   9  11
ATOM     11  N   LIG    1       21.606 -21.559   4.793  0.00  0.00    -0.325 NA
ATOM     12  H   LIG    1       21.284 -22.223   5.498  0.00  0.00    +0.119 HD
ATOM     13  H   LIG    1       20.851 -20.882   4.679  0.00  0.00    +0.119 HD
ENDBRANCH   9  11
ENDBRANCH   1   9
TORSDOF 3
ENDMDL
MODEL 5
REMARK VINA RESULT:      -6.4      1.822      2.599
REMARK  Name = *****
REMARK                            x       y       z     vdW  Elec       q    Type
REMARK                         _______ _______ _______ _____ _____    ______ ____
ROOT
ATOM      1  C   LIG    1       24.084 -21.610   7.182  0.00  0.00    +0.056 C 
ENDROOT
BRANCH   1   2
ATOM      2  C   LIG    1       23.871 -20.772   5.941  0.00  0.00    -0.046 A 
ATOM      3  C   LIG    1       22.800 -19.871   5.870  0.00  0.00    +0.003 A 
ATOM      4  C   LIG    1       22.600 -19.092   4.729  0.00  0.00    +0.000 A 
ATOM      5  C   LIG    1       23.467 -19.209   3.644  0.00  0.00    +0.000 A 
ATOM      6  C   LIG    1       24.530 -20.108   3.699  0.00  0.00    +0.000 A 
ATOM      7  C   LIG    1       24.731 -20.889   4.840  0.00  0.00    +0.003 A 
ENDBRANCH   1   2
BRANCH   1   9
ATOM      8  C   LIG    1       26.343 -20.411   7.369  0.00  0.00    +0.027 C 
ATOM      9  C   LIG    1       25.535 -21.663   7.742  0.00  0.00    +0.015 C 
ATOM     10  C   LIG    1       26.284 -22.922   7.282  0.00  0.00    +0.027 C 
BRANCH   9  11
ATOM     11  N   LIG    1       25.446 -21.701   9.217  0.00  0.00    -0.325 NA
ATOM     12  H   LIG    1       24.469 -21.760   9.502  0.00  0.00    +0.119 HD
ATOM     13  H   LIG    1       25.892 -22.550   9.566  0.00  0.00    +0.119 HD
ENDBRANCH   9  11
ENDBRANCH   1   9
TORSDOF 3
ENDMDL
MODEL 6
REMARK VINA RESULT:      -6.2      1.606      4.430
REMARK  Name = *****
REMARK                            x       y       z     vdW  Elec       q    Type
REMARK                         _______ _______ _______ _____ _____    ______ ____
ROOT
ATOM      1  C   LIG    1       23.154 -20.336   6.518  0.00  0.00    +0.056 C 
ENDROOT
BRANCH   1   2
ATOM      2  C   LIG    1       24.333 -21.211   6.884  0.00  0.00    -0.046 A 
ATOM      3  C   LIG    1       24.207 -22.607   6.881  0.00  0.00    +0.003 A 
ATOM      4  C   LIG    1       25.291 -23.420   7.214  0.00  0.00    +0.000 A 
ATOM      5  C   LIG    1       26.513 -22.846   7.558  0.00  0.00    +0.000 A 
ATOM      6  C   LIG    1       26.649 -21.460   7.574  0.00  0.00    +0.000 A 
ATOM      7  C   LIG    1       25.565 -20.645   7.241  0.00  0.00    +0.003 A 
ENDBRANCH   1   2
BRANCH   1   9
ATOM      8  C   LIG    1       23.983 -20.615   4.107  0.00  0.00    +0.027 C 
ATOM      9  C   LIG    1       22.790 -20.261   5.007  0.00  0.00    +0.015 C 
ATOM     10  C   LIG    1       22.234 -18.884   4.617  0.00  0.00    +0.027 C 
BRANCH   9  11
ATOM     11  N   LIG    1       21.737 -21.265   4.749  0.00  0.00    -0.325 NA
ATOM     12  H   LIG    1       20.965 -21.130   5.401  0.00  0.00    +0.119 HD
ATOM     13  H   LIG    1       21.346 -21.122   3.817  0.00  0.00    +0.119 HD
ENDBRANCH   9  11
ENDBRANCH   1   9
TORSDOF 3
ENDMDL
MODEL 7
REMARK VINA RESULT:      -6.2      1.604      4.326
REMARK  Name = *****
REMARK                            x       y       z     vdW  Elec       q    Type
REMARK                         _______ _______ _______ _____ _____    ______ ____
ROOT
ATOM      1  C   LIG    1       23.147 -20.328   6.495  0.00  0.00    +0.056 C 
ENDROOT
BRANCH   1   2
ATOM      2  C   LIG    1       24.314 -21.217   6.864  0.00  0.00    -0.046 A 
ATOM      3  C   LIG    1       25.547 -20.656   7.223  0.00  0.00    +0.003 A 
ATOM      4  C   LIG    1       26.626 -21.471   7.568  0.00  0.00    +0.000 A 
ATOM      5  C   LIG    1       26.485 -22.857   7.554  0.00  0.00    +0.000 A 
ATOM      6  C   LIG    1       25.267 -23.427   7.191  0.00  0.00    +0.000 A 
ATOM      7  C   LIG    1       24.187 -22.613   6.845  0.00  0.00    +0.003 A 
ENDBRANCH   1   2
BRANCH   1   9
ATOM      8  C   LIG    1       23.967 -20.619   4.082  0.00  0.00    +0.027 C 
ATOM      9  C   LIG    1       22.777 -20.261   4.985  0.00  0.00    +0.015 C 
ATOM     10  C   LIG    1       22.220 -18.886   4.589  0.00  0.00    +0.027 C 
BRANCH   9  11
ATOM     11  N   LIG    1       21.723 -21.266   4.736  0.00  0.00    -0.325 NA
ATOM     12  H   LIG    1       21.860 -22.069   5.350  0.00  0.00    +0.119 HD
ATOM     13  H   LIG    1       20.812 -20.877   4.980  0.00  0.00    +0.119 HD
ENDBRANCH   9  11
ENDBRANCH   1   9
TORSDOF 3
ENDMDL
MODEL 8
REMARK VINA RESULT:      -6.2      2.311      3.401
REMARK  Name = *****
REMARK                            x       y       z     vdW  Elec       q    Type
REMARK                         _______ _______ _______ _____ _____    ______ ____
ROOT
ATOM      1  C   LIG    1       24.710 -21.169   6.790  0.00  0.00    +0.056 C 
ENDROOT
BRANCH   1   2
ATOM      2  C   LIG    1       26.130 -20.646   6.800  0.00  0.00    -0.046 A 
ATOM      3  C   LIG    1       26.747 -20.247   5.607  0.00  0.00    +0.003 A 
ATOM      4  C   LIG    1       28.055 -19.760   5.610  0.00  0.00    +0.000 A 
ATOM      5  C   LIG    1       28.762 -19.671   6.807  0.00  0.00    +0.000 A 
ATOM      6  C   LIG    1       28.163 -20.072   7.999  0.00  0.00    +0.000 A 
ATOM      7  C   LIG    1       26.855 -20.560   7.997  0.00  0.00    +0.003 A 
ENDBRANCH   1   2
BRANCH   1   9
ATOM      8  C   LIG    1       23.134 -23.192   6.797  0.00  0.00    +0.027 C 
ATOM      9  C   LIG    1       24.527 -22.669   6.418  0.00  0.00    +0.015 C 
ATOM     10  C   LIG    1       25.607 -23.556   7.055  0.00  0.00    +0.027 C 
BRANCH   9  11
ATOM     11  N   LIG    1       24.653 -22.786   4.950  0.00  0.00    -0.325 NA
ATOM     12  H   LIG    1       25.554 -22.414   4.650  0.00  0.00    +0.119 HD
ATOM     13  H   LIG    1       24.653 -23.771   4.682  0.00  0.00    +0.119 HD
ENDBRANCH   9  11
ENDBRANCH   1   9
TORSDOF 3
ENDMDL
MODEL 9
REMARK VINA RESULT:      -6.2      2.300      3.537
REMARK  Name = *****
REMARK                            x       y       z     vdW  Elec       q    Type
REMARK                         _______ _______ _______ _____ _____    ______ ____
ROOT
ATOM      1  C   LIG    1       24.729 -21.227   6.869  0.00  0.00    +0.056 C 
ENDROOT
BRANCH   1   2
ATOM      2  C   LIG    1       26.138 -20.679   6.826  0.00  0.00    -0.046 A 
ATOM      3  C   LIG    1       26.889 -20.561   8.004  0.00  0.00    +0.003 A 
ATOM      4  C   LIG    1       28.191 -20.061   7.970  0.00  0.00    +0.000 A 
ATOM      5  C   LIG    1       28.756 -19.668   6.758  0.00  0.00    +0.000 A 
ATOM      6  C   LIG    1       28.017 -19.773   5.582  0.00  0.00    +0.000 A 
ATOM      7  C   LIG    1       26.714 -20.273   5.614  0.00  0.00    +0.003 A 
ENDBRANCH   1   2
BRANCH   1   9
ATOM      8  C   LIG    1       23.152 -23.247   6.758  0.00  0.00    +0.027 C 
ATOM      9  C   LIG    1       24.543 -22.700   6.405  0.00  0.00    +0.015 C 
ATOM     10  C   LIG    1       25.627 -23.625   6.979  0.00  0.00    +0.027 C 
BRANCH   9  11
ATOM     11  N   LIG    1       24.660 -22.725   4.932  0.00  0.00    -0.325 NA
ATOM     12  H   LIG    1       24.131 -21.950   4.531  0.00  0.00    +0.119 HD
ATOM     13  H   LIG    1       25.632 -22.571   4.661  0.00  0.00    +0.119 HD
ENDBRANCH   9  11
ENDBRANCH   1   9
TORSDOF 3
ENDMDL
