MODEL 1
REMARK VINA RESULT:      -5.7      0.000      0.000
REMARK  Name = *****
REMARK                            x       y       z     vdW  Elec       q    Type
REMARK                         _______ _______ _______ _____ _____    ______ ____
ROOT
ATOM      1  N   LIG    1       25.974 -18.978   4.510  0.00  0.00    -0.298 N 
ATOM      2  C   LIG    1       24.654 -19.458   4.751  0.00  0.00    +0.048 A 
ATOM      3  C   LIG    1       24.411 -20.614   5.517  0.00  0.00    +0.034 A 
ATOM      4  C   LIG    1       23.106 -21.112   5.673  0.00  0.00    +0.017 A 
ATOM      5  C   LIG    1       22.018 -20.456   5.104  0.00  0.00    +0.001 A 
ATOM      6  C   LIG    1       22.229 -19.275   4.407  0.00  0.00    +0.002 A 
ATOM      7  S   LIG    1       25.703 -21.572   6.276  0.00  0.00    -0.086 S 
ATOM      8  C   LIG    1       27.102 -20.484   6.123  0.00  0.00    +0.034 A 
ATOM      9  C   LIG    1       28.235 -20.834   6.881  0.00  0.00    +0.017 A 
ATOM     10  C   LIG    1       29.388 -20.063   6.838  0.00  0.00    +0.001 A 
ATOM     11  C   LIG    1       29.416 -18.932   6.027  0.00  0.00    +0.002 A 
ATOM     12  C   LIG    1       28.296 -18.590   5.257  0.00  0.00    +0.024 A 
ATOM     13  C   LIG    1       23.526 -18.774   4.251  0.00  0.00    +0.024 A 
ATOM     14  C   LIG    1       27.115 -19.358   5.272  0.00  0.00    +0.048 A 
ENDROOT
BRANCH   1  15
ATOM     15  C   LIG    1       26.235 -18.466   3.133  0.00  0.00    +0.112 C 
BRANCH  15  16
ATOM     16  C   LIG    1       25.924 -16.967   2.951  0.00  0.00    +0.035 C 
BRANCH  16  17
ATOM     17  C   LIG    1       26.893 -16.063   3.727  0.00  0.00    +0.086 C 
BRANCH  17  22
ATOM     18  C   LIG    1       24.234 -12.367   5.075  0.00  0.00    +0.105 C 
ATOM     19  N   LIG    1       25.349 -12.737   4.207  0.00  0.00    -0.303 NA
ATOM     20  C   LIG    1       24.921 -13.722   3.195  0.00  0.00    +0.099 C 
ATOM     21  C   LIG    1       26.100 -14.205   2.316  0.00  0.00    +0.100 C 
ATOM     22  N   LIG    1       27.238 -14.787   3.068  0.00  0.00    -0.300 NA
ATOM     23  C   LIG    1       27.635 -13.785   4.096  0.00  0.00    +0.100 C 
ATOM     24  C   LIG    1       26.476 -13.270   4.994  0.00  0.00    +0.099 C 
ENDBRANCH  17  22
ENDBRANCH  16  17
ENDBRANCH  15  16
ENDBRANCH   1  15
TORSDOF 4
ENDMDL
MODEL 2
REMARK VINA RESULT:      -3.7      0.925      1.720
REMARK  Name = *****
REMARK                            x       y       z     vdW  Elec       q    Type
REMARK                         _______ _______ _______ _____ _____    ______ ____
ROOT
ATOM      1  N   LIG    1       25.923 -18.745   4.474  0.00  0.00    -0.298 N 
ATOM      2  C   LIG    1       24.608 -19.269   4.637  0.00  0.00    +0.048 A 
ATOM      3  C   LIG    1       24.376 -20.527   5.226  0.00  0.00    +0.034 A 
ATOM      4  C   LIG    1       23.076 -21.057   5.303  0.00  0.00    +0.017 A 
ATOM      5  C   LIG    1       21.982 -20.337   4.833  0.00  0.00    +0.001 A 
ATOM      6  C   LIG    1       22.181 -19.065   4.315  0.00  0.00    +0.002 A 
ATOM      7  S   LIG    1       25.677 -21.571   5.842  0.00  0.00    -0.086 S 
ATOM      8  C   LIG    1       27.064 -20.458   5.853  0.00  0.00    +0.034 A 
ATOM      9  C   LIG    1       28.199 -20.902   6.556  0.00  0.00    +0.017 A 
ATOM     10  C   LIG    1       29.344 -20.121   6.630  0.00  0.00    +0.001 A 
ATOM     11  C   LIG    1       29.361 -18.884   5.993  0.00  0.00    +0.002 A 
ATOM     12  C   LIG    1       28.239 -18.445   5.278  0.00  0.00    +0.024 A 
ATOM     13  C   LIG    1       23.473 -18.532   4.239  0.00  0.00    +0.024 A 
ATOM     14  C   LIG    1       27.066 -19.220   5.176  0.00  0.00    +0.048 A 
ENDROOT
BRANCH   1  15
ATOM     15  C   LIG    1       26.180 -18.035   3.187  0.00  0.00    +0.112 C 
BRANCH  15  16
ATOM     16  C   LIG    1       26.460 -16.527   3.347  0.00  0.00    +0.035 C 
BRANCH  16  17
ATOM     17  C   LIG    1       25.251 -15.659   2.966  0.00  0.00    +0.086 C 
BRANCH  17  22
ATOM     18  C   LIG    1       29.092 -12.926   3.543  0.00  0.00    +0.105 C 
ATOM     19  N   LIG    1       27.679 -13.029   3.898  0.00  0.00    -0.303 NA
ATOM     20  C   LIG    1       27.424 -14.251   4.685  0.00  0.00    +0.099 C 
ATOM     21  C   LIG    1       25.920 -14.438   5.000  0.00  0.00    +0.100 C 
ATOM     22  N   LIG    1       25.035 -14.466   3.811  0.00  0.00    -0.300 NA
ATOM     23  C   LIG    1       25.328 -13.236   3.024  0.00  0.00    +0.100 C 
ATOM     24  C   LIG    1       26.829 -13.010   2.693  0.00  0.00    +0.099 C 
ENDBRANCH  17  22
ENDBRANCH  16  17
ENDBRANCH  15  16
ENDBRANCH   1  15
TORSDOF 4
ENDMDL
