MODEL 1
REMARK VINA RESULT:      -6.1      0.000      0.000
REMARK  Name = *****
REMARK                            x       y       z     vdW  Elec       q    Type
REMARK                         _______ _______ _______ _____ _____    ______ ____
ROOT
ATOM      1  C   LIG    1       23.520 -33.088   6.236  0.00  0.00    +0.011 C 
ATOM      2  C   LIG    1       23.609 -32.334   7.558  0.00  0.00    +0.026 C 
ATOM      3  C   LIG    1       24.488 -31.044   7.625  0.00  0.00    +0.134 C 
ATOM      4  C   LIG    1       25.642 -31.392   8.634  0.00  0.00    +0.010 C 
ATOM      5  C   LIG    1       24.972 -32.390   9.609  0.00  0.00    +0.005 C 
ATOM      6  C   LIG    1       24.117 -31.768  10.753  0.00  0.00    +0.034 C 
ATOM      7  C   LIG    1       24.827 -30.595  11.478  0.00  0.00    +0.153 C 
ATOM      8  C   LIG    1       25.388 -29.564  10.473  0.00  0.00    +0.154 C 
ATOM      9  F   LIG    1       25.944 -31.158  12.077  0.00  0.00    -0.238 F 
ATOM     10  C   LIG    1       23.921 -29.973  12.641  0.00  0.00    +0.044 C 
ATOM     11  C   LIG    1       23.011 -31.069  13.223  0.00  0.00    -0.053 C 
ATOM     12  C   LIG    1       21.736 -30.872  13.602  0.00  0.00    +0.051 C 
ATOM     13  C   LIG    1       21.070 -29.569  13.394  0.00  0.00    +0.179 C 
ATOM     14  C   LIG    1       21.795 -28.574  12.578  0.00  0.00    +0.047 C 
ATOM     15  O   LIG    1       19.947 -29.351  13.822  0.00  0.00    -0.288 OA
ATOM     16  C   LIG    1       23.595 -32.447  13.211  0.00  0.00    +0.032 C 
ATOM     17  C   LIG    1       24.816 -29.459  13.798  0.00  0.00    +0.023 C 
ATOM     18  C   LIG    1       23.073 -28.772  12.220  0.00  0.00    -0.009 C 
ATOM     19  C   LIG    1       23.734 -32.900  11.757  0.00  0.00    +0.011 C 
ATOM     20  C   LIG    1       26.815 -32.110   7.906  0.00  0.00    +0.015 C 
ATOM     21  C   LIG    1       26.266 -30.212   9.403  0.00  0.00    +0.044 C 
ATOM     22  C   LIG    1       24.130 -33.267   8.672  0.00  0.00    +0.011 C 
ENDROOT
BRANCH   3  23
ATOM     23  O   LIG    1       23.636 -30.052   8.216  0.00  0.00    -0.380 OA
ATOM     24  H   LIG    1       23.211 -30.447   9.005  0.00  0.00    +0.211 HD
ENDBRANCH   3  23
BRANCH   3  25
ATOM     25  C   LIG    1       25.041 -30.479   6.283  0.00  0.00    +0.190 C 
ATOM     26  O   LIG    1       25.914 -31.041   5.618  0.00  0.00    -0.292 OA
BRANCH  25  27
ATOM     27  C   LIG    1       24.455 -29.164   5.784  0.00  0.00    +0.233 C 
BRANCH  27  28
ATOM     28  O   LIG    1       23.130 -29.367   5.322  0.00  0.00    -0.387 OA
ATOM     29  H   LIG    1       22.943 -28.643   4.696  0.00  0.00    +0.210 HD
ENDBRANCH  27  28
ENDBRANCH  25  27
ENDBRANCH   3  25
BRANCH   8  30
ATOM     30  O   LIG    1       26.202 -28.586  11.137  0.00  0.00    -0.389 OA
ATOM     31  H   LIG    1       27.103 -28.956  11.181  0.00  0.00    +0.210 HD
ENDBRANCH   8  30
TORSDOF 5
ENDMDL
MODEL 2
REMARK VINA RESULT:      -6.0      2.088      6.057
REMARK  Name = *****
REMARK                            x       y       z     vdW  Elec       q    Type
REMARK                         _______ _______ _______ _____ _____    ______ ____
ROOT
ATOM      1  C   LIG    1       20.267 -28.749  13.469  0.00  0.00    +0.011 C 
ATOM      2  C   LIG    1       21.283 -29.139  12.401  0.00  0.00    +0.026 C 
ATOM      3  C   LIG    1       21.081 -30.485  11.634  0.00  0.00    +0.134 C 
ATOM      4  C   LIG    1       22.318 -31.369  12.034  0.00  0.00    +0.010 C 
ATOM      5  C   LIG    1       23.437 -30.326  12.271  0.00  0.00    +0.005 C 
ATOM      6  C   LIG    1       24.178 -29.809  11.002  0.00  0.00    +0.034 C 
ATOM      7  C   LIG    1       24.602 -30.946  10.036  0.00  0.00    +0.153 C 
ATOM      8  C   LIG    1       23.427 -31.904   9.738  0.00  0.00    +0.154 C 
ATOM      9  F   LIG    1       25.516 -31.707  10.747  0.00  0.00    -0.238 F 
ATOM     10  C   LIG    1       25.352 -30.382   8.740  0.00  0.00    +0.044 C 
ATOM     11  C   LIG    1       26.095 -29.085   9.102  0.00  0.00    -0.053 C 
ATOM     12  C   LIG    1       26.186 -28.013   8.295  0.00  0.00    +0.051 C 
ATOM     13  C   LIG    1       25.478 -27.972   6.999  0.00  0.00    +0.179 C 
ATOM     14  C   LIG    1       24.518 -29.061   6.730  0.00  0.00    +0.047 C 
ATOM     15  O   LIG    1       25.632 -27.045   6.217  0.00  0.00    -0.288 OA
ATOM     16  C   LIG    1       26.609 -29.022  10.507  0.00  0.00    +0.032 C 
ATOM     17  C   LIG    1       26.416 -31.399   8.254  0.00  0.00    +0.023 C 
ATOM     18  C   LIG    1       24.447 -30.134   7.532  0.00  0.00    -0.009 C 
ATOM     19  C   LIG    1       25.412 -28.968  11.456  0.00  0.00    +0.011 C 
ATOM     20  C   LIG    1       22.047 -32.128  13.365  0.00  0.00    +0.015 C 
ATOM     21  C   LIG    1       22.767 -32.430  11.012  0.00  0.00    +0.044 C 
ATOM     22  C   LIG    1       22.701 -29.198  13.008  0.00  0.00    +0.011 C 
ENDROOT
BRANCH   3  23
ATOM     23  O   LIG    1       21.189 -30.134  10.247  0.00  0.00    -0.380 OA
ATOM     24  H   LIG    1       22.068 -30.422   9.927  0.00  0.00    +0.211 HD
ENDBRANCH   3  23
BRANCH   3  25
ATOM     25  C   LIG    1       19.736 -31.240  11.846  0.00  0.00    +0.190 C 
ATOM     26  O   LIG    1       19.261 -31.482  12.958  0.00  0.00    -0.292 OA
BRANCH  25  27
ATOM     27  C   LIG    1       18.982 -31.689  10.601  0.00  0.00    +0.233 C 
BRANCH  27  28
ATOM     28  O   LIG    1       18.539 -30.559   9.867  0.00  0.00    -0.387 OA
ATOM     29  H   LIG    1       18.877 -30.671   8.959  0.00  0.00    +0.210 HD
ENDBRANCH  27  28
ENDBRANCH  25  27
ENDBRANCH   3  25
BRANCH   8  30
ATOM     30  O   LIG    1       23.871 -33.051   9.000  0.00  0.00    -0.389 OA
ATOM     31  H   LIG    1       23.131 -33.317   8.423  0.00  0.00    +0.210 HD
ENDBRANCH   8  30
TORSDOF 5
ENDMDL
MODEL 3
REMARK VINA RESULT:      -5.9      1.993      6.507
REMARK  Name = *****
REMARK                            x       y       z     vdW  Elec       q    Type
REMARK                         _______ _______ _______ _____ _____    ______ ____
ROOT
ATOM      1  C   LIG    1       21.168 -26.900  14.285  0.00  0.00    +0.011 C 
ATOM      2  C   LIG    1       22.027 -27.665  13.285  0.00  0.00    +0.026 C 
ATOM      3  C   LIG    1       21.738 -29.184  13.060  0.00  0.00    +0.134 C 
ATOM      4  C   LIG    1       23.032 -29.921  13.561  0.00  0.00    +0.010 C 
ATOM      5  C   LIG    1       24.158 -28.899  13.270  0.00  0.00    +0.005 C 
ATOM      6  C   LIG    1       24.703 -28.870  11.811  0.00  0.00    +0.034 C 
ATOM      7  C   LIG    1       25.002 -30.282  11.242  0.00  0.00    +0.153 C 
ATOM      8  C   LIG    1       23.811 -31.243  11.455  0.00  0.00    +0.154 C 
ATOM      9  F   LIG    1       26.020 -30.788  12.036  0.00  0.00    -0.238 F 
ATOM     10  C   LIG    1       25.551 -30.219   9.740  0.00  0.00    +0.044 C 
ATOM     11  C   LIG    1       26.319 -28.902   9.531  0.00  0.00    -0.053 C 
ATOM     12  C   LIG    1       26.277 -28.173   8.402  0.00  0.00    +0.051 C 
ATOM     13  C   LIG    1       25.391 -28.550   7.282  0.00  0.00    +0.179 C 
ATOM     14  C   LIG    1       24.419 -29.632   7.537  0.00  0.00    +0.047 C 
ATOM     15  O   LIG    1       25.419 -27.951   6.217  0.00  0.00    -0.288 OA
ATOM     16  C   LIG    1       27.026 -28.383  10.744  0.00  0.00    +0.032 C 
ATOM     17  C   LIG    1       26.550 -31.377   9.488  0.00  0.00    +0.023 C 
ATOM     18  C   LIG    1       24.480 -30.365   8.659  0.00  0.00    -0.009 C 
ATOM     19  C   LIG    1       25.976 -27.969  11.774  0.00  0.00    +0.011 C 
ATOM     20  C   LIG    1       22.965 -30.172  15.096  0.00  0.00    +0.015 C 
ATOM     21  C   LIG    1       23.347 -31.281  12.911  0.00  0.00    +0.044 C 
ATOM     22  C   LIG    1       23.518 -27.563  13.673  0.00  0.00    +0.011 C 
ENDROOT
BRANCH   3  23
ATOM     23  O   LIG    1       21.642 -29.329  11.635  0.00  0.00    -0.380 OA
ATOM     24  H   LIG    1       22.265 -28.698  11.222  0.00  0.00    +0.211 HD
ENDBRANCH   3  23
BRANCH   3  25
ATOM     25  C   LIG    1       20.448 -29.775  13.702  0.00  0.00    +0.190 C 
ATOM     26  O   LIG    1       19.950 -29.344  14.744  0.00  0.00    -0.292 OA
BRANCH  25  27
ATOM     27  C   LIG    1       19.781 -30.941  12.984  0.00  0.00    +0.233 C 
BRANCH  27  28
ATOM     28  O   LIG    1       19.106 -30.477  11.826  0.00  0.00    -0.387 OA
ATOM     29  H   LIG    1       19.009 -31.248  11.237  0.00  0.00    +0.210 HD
ENDBRANCH  27  28
ENDBRANCH  25  27
ENDBRANCH   3  25
BRANCH   8  30
ATOM     30  O   LIG    1       24.163 -32.588  11.099  0.00  0.00    -0.389 OA
ATOM     31  H   LIG    1       23.370 -32.986  10.694  0.00  0.00    +0.210 HD
ENDBRANCH   8  30
TORSDOF 5
ENDMDL
MODEL 4
REMARK VINA RESULT:      -5.2      2.409      3.851
REMARK  Name = *****
REMARK                            x       y       z     vdW  Elec       q    Type
REMARK                         _______ _______ _______ _____ _____    ______ ____
ROOT
ATOM      1  C   LIG    1       24.045 -30.584   7.322  0.00  0.00    +0.011 C 
ATOM      2  C   LIG    1       24.385 -30.096   8.725  0.00  0.00    +0.026 C 
ATOM      3  C   LIG    1       25.583 -30.761   9.478  0.00  0.00    +0.134 C 
ATOM      4  C   LIG    1       24.935 -31.473  10.720  0.00  0.00    +0.010 C 
ATOM      5  C   LIG    1       23.714 -30.579  11.045  0.00  0.00    +0.005 C 
ATOM      6  C   LIG    1       24.000 -29.302  11.888  0.00  0.00    +0.034 C 
ATOM      7  C   LIG    1       24.900 -29.572  13.123  0.00  0.00    +0.153 C 
ATOM      8  C   LIG    1       26.164 -30.373  12.737  0.00  0.00    +0.154 C 
ATOM      9  F   LIG    1       24.165 -30.425  13.931  0.00  0.00    -0.238 F 
ATOM     10  C   LIG    1       25.182 -28.240  13.963  0.00  0.00    +0.044 C 
ATOM     11  C   LIG    1       23.986 -27.283  13.822  0.00  0.00    -0.053 C 
ATOM     12  C   LIG    1       24.093 -25.947  13.712  0.00  0.00    +0.051 C 
ATOM     13  C   LIG    1       25.415 -25.292  13.625  0.00  0.00    +0.179 C 
ATOM     14  C   LIG    1       26.586 -26.176  13.461  0.00  0.00    +0.047 C 
ATOM     15  O   LIG    1       25.525 -24.075  13.624  0.00  0.00    -0.288 OA
ATOM     16  C   LIG    1       22.656 -27.953  13.663  0.00  0.00    +0.032 C 
ATOM     17  C   LIG    1       25.323 -28.578  15.469  0.00  0.00    +0.023 C 
ATOM     18  C   LIG    1       26.471 -27.507  13.589  0.00  0.00    -0.009 C 
ATOM     19  C   LIG    1       22.637 -28.673  12.315  0.00  0.00    +0.011 C 
ATOM     20  C   LIG    1       24.431 -32.896  10.340  0.00  0.00    +0.015 C 
ATOM     21  C   LIG    1       25.831 -31.647  11.961  0.00  0.00    +0.044 C 
ATOM     22  C   LIG    1       23.161 -30.240   9.654  0.00  0.00    +0.011 C 
ENDROOT
BRANCH   3  23
ATOM     23  O   LIG    1       26.382 -29.660   9.936  0.00  0.00    -0.380 OA
ATOM     24  H   LIG    1       26.351 -29.649  10.915  0.00  0.00    +0.211 HD
ENDBRANCH   3  23
BRANCH   3  25
ATOM     25  C   LIG    1       26.497 -31.726   8.666  0.00  0.00    +0.190 C 
ATOM     26  O   LIG    1       27.400 -32.393   9.175  0.00  0.00    -0.292 OA
BRANCH  25  27
ATOM     27  C   LIG    1       26.241 -31.839   7.169  0.00  0.00    +0.233 C 
BRANCH  27  28
ATOM     28  O   LIG    1       27.400 -32.325   6.513  0.00  0.00    -0.387 OA
ATOM     29  H   LIG    1       27.091 -32.775   5.705  0.00  0.00    +0.210 HD
ENDBRANCH  27  28
ENDBRANCH  25  27
ENDBRANCH   3  25
BRANCH   8  30
ATOM     30  O   LIG    1       26.892 -30.781  13.904  0.00  0.00    -0.389 OA
ATOM     31  H   LIG    1       27.836 -30.628  13.712  0.00  0.00    +0.210 HD
ENDBRANCH   8  30
TORSDOF 5
ENDMDL
MODEL 5
REMARK VINA RESULT:      -4.8      2.340      3.674
REMARK  Name = *****
REMARK                            x       y       z     vdW  Elec       q    Type
REMARK                         _______ _______ _______ _____ _____    ______ ____
ROOT
ATOM      1  C   LIG    1       25.530 -30.622   5.053  0.00  0.00    +0.011 C 
ATOM      2  C   LIG    1       25.452 -30.752   6.569  0.00  0.00    +0.026 C 
ATOM      3  C   LIG    1       26.190 -31.947   7.256  0.00  0.00    +0.134 C 
ATOM      4  C   LIG    1       25.047 -32.814   7.897  0.00  0.00    +0.010 C 
ATOM      5  C   LIG    1       23.960 -31.768   8.246  0.00  0.00    +0.005 C 
ATOM      6  C   LIG    1       24.157 -30.987   9.578  0.00  0.00    +0.034 C 
ATOM      7  C   LIG    1       24.524 -31.903  10.776  0.00  0.00    +0.153 C 
ATOM      8  C   LIG    1       25.686 -32.858  10.423  0.00  0.00    +0.154 C 
ATOM      9  F   LIG    1       23.423 -32.726  10.956  0.00  0.00    -0.238 F 
ATOM     10  C   LIG    1       24.728 -31.071  12.127  0.00  0.00    +0.044 C 
ATOM     11  C   LIG    1       23.833 -29.820  12.097  0.00  0.00    -0.053 C 
ATOM     12  C   LIG    1       24.199 -28.616  12.573  0.00  0.00    +0.051 C 
ATOM     13  C   LIG    1       25.563 -28.382  13.090  0.00  0.00    +0.179 C 
ATOM     14  C   LIG    1       26.550 -29.458  12.874  0.00  0.00    +0.047 C 
ATOM     15  O   LIG    1       25.874 -27.322  13.612  0.00  0.00    -0.288 OA
ATOM     16  C   LIG    1       22.543 -29.983  11.356  0.00  0.00    +0.032 C 
ATOM     17  C   LIG    1       24.289 -31.919  13.348  0.00  0.00    +0.023 C 
ATOM     18  C   LIG    1       26.173 -30.661  12.416  0.00  0.00    -0.009 C 
ATOM     19  C   LIG    1       22.859 -30.172   9.873  0.00  0.00    +0.011 C 
ATOM     20  C   LIG    1       24.466 -33.817   6.858  0.00  0.00    +0.015 C 
ATOM     21  C   LIG    1       25.424 -33.644   9.138  0.00  0.00    +0.044 C 
ATOM     22  C   LIG    1       23.979 -30.838   7.024  0.00  0.00    +0.011 C 
ENDROOT
BRANCH   3  23
ATOM     23  O   LIG    1       26.961 -31.344   8.305  0.00  0.00    -0.380 OA
ATOM     24  H   LIG    1       27.666 -31.972   8.564  0.00  0.00    +0.211 HD
ENDBRANCH   3  23
BRANCH   3  25
ATOM     25  C   LIG    1       27.145 -32.805   6.375  0.00  0.00    +0.190 C 
ATOM     26  O   LIG    1       27.015 -32.931   5.156  0.00  0.00    -0.292 OA
BRANCH  25  27
ATOM     27  C   LIG    1       28.298 -33.512   7.078  0.00  0.00    +0.233 C 
BRANCH  27  28
ATOM     28  O   LIG    1       29.364 -33.726   6.168  0.00  0.00    -0.387 OA
ATOM     29  H   LIG    1       29.838 -34.519   6.480  0.00  0.00    +0.210 HD
ENDBRANCH  27  28
ENDBRANCH  25  27
ENDBRANCH   3  25
BRANCH   8  30
ATOM     30  O   LIG    1       25.894 -33.825  11.463  0.00  0.00    -0.389 OA
ATOM     31  H   LIG    1       26.528 -34.479  11.114  0.00  0.00    +0.210 HD
ENDBRANCH   8  30
TORSDOF 5
ENDMDL
MODEL 6
REMARK VINA RESULT:      -4.8      2.058      3.030
REMARK  Name = *****
REMARK                            x       y       z     vdW  Elec       q    Type
REMARK                         _______ _______ _______ _____ _____    ______ ____
ROOT
ATOM      1  C   LIG    1       23.918 -32.016   7.507  0.00  0.00    +0.011 C 
ATOM      2  C   LIG    1       23.637 -31.366   8.857  0.00  0.00    +0.026 C 
ATOM      3  C   LIG    1       24.847 -31.005   9.778  0.00  0.00    +0.134 C 
ATOM      4  C   LIG    1       24.673 -31.914  11.049  0.00  0.00    +0.010 C 
ATOM      5  C   LIG    1       23.137 -32.076  11.162  0.00  0.00    +0.005 C 
ATOM      6  C   LIG    1       22.369 -30.911  11.852  0.00  0.00    +0.034 C 
ATOM      7  C   LIG    1       23.029 -30.443  13.176  0.00  0.00    +0.153 C 
ATOM      8  C   LIG    1       24.542 -30.187  12.995  0.00  0.00    +0.154 C 
ATOM      9  F   LIG    1       22.947 -31.533  14.029  0.00  0.00    -0.238 F 
ATOM     10  C   LIG    1       22.221 -29.240  13.856  0.00  0.00    +0.044 C 
ATOM     11  C   LIG    1       20.729 -29.361  13.501  0.00  0.00    -0.053 C 
ATOM     12  C   LIG    1       19.929 -28.315  13.228  0.00  0.00    +0.051 C 
ATOM     13  C   LIG    1       20.467 -26.940  13.158  0.00  0.00    +0.179 C 
ATOM     14  C   LIG    1       21.936 -26.798  13.200  0.00  0.00    +0.047 C 
ATOM     15  O   LIG    1       19.733 -25.975  13.008  0.00  0.00    -0.288 OA
ATOM     16  C   LIG    1       20.231 -30.762  13.329  0.00  0.00    +0.032 C 
ATOM     17  C   LIG    1       22.333 -29.327  15.399  0.00  0.00    +0.023 C 
ATOM     18  C   LIG    1       22.724 -27.843  13.490  0.00  0.00    -0.009 C 
ATOM     19  C   LIG    1       20.893 -31.360  12.088  0.00  0.00    +0.011 C 
ATOM     20  C   LIG    1       25.312 -33.314  10.819  0.00  0.00    +0.015 C 
ATOM     21  C   LIG    1       25.263 -31.378  12.367  0.00  0.00    +0.044 C 
ATOM     22  C   LIG    1       22.707 -32.264   9.700  0.00  0.00    +0.011 C 
ENDROOT
BRANCH   3  23
ATOM     23  O   LIG    1       24.626 -29.637  10.151  0.00  0.00    -0.380 OA
ATOM     24  H   LIG    1       25.288 -29.085   9.687  0.00  0.00    +0.211 HD
ENDBRANCH   3  23
BRANCH   3  25
ATOM     25  C   LIG    1       26.276 -31.124   9.171  0.00  0.00    +0.190 C 
ATOM     26  O   LIG    1       26.568 -31.918   8.274  0.00  0.00    -0.292 OA
BRANCH  25  27
ATOM     27  C   LIG    1       27.351 -30.198   9.726  0.00  0.00    +0.233 C 
BRANCH  27  28
ATOM     28  O   LIG    1       27.215 -28.904   9.162  0.00  0.00    -0.387 OA
ATOM     29  H   LIG    1       26.261 -28.770   9.008  0.00  0.00    +0.210 HD
ENDBRANCH  27  28
ENDBRANCH  25  27
ENDBRANCH   3  25
BRANCH   8  30
ATOM     30  O   LIG    1       25.177 -29.939  14.258  0.00  0.00    -0.389 OA
ATOM     31  H   LIG    1       25.875 -29.277  14.094  0.00  0.00    +0.210 HD
ENDBRANCH   8  30
TORSDOF 5
ENDMDL
MODEL 7
REMARK VINA RESULT:      -4.7      1.930      2.408
REMARK  Name = *****
REMARK                            x       y       z     vdW  Elec       q    Type
REMARK                         _______ _______ _______ _____ _____    ______ ____
ROOT
ATOM      1  C   LIG    1       25.686 -32.102   6.492  0.00  0.00    +0.011 C 
ATOM      2  C   LIG    1       24.857 -31.893   7.754  0.00  0.00    +0.026 C 
ATOM      3  C   LIG    1       24.636 -30.434   8.269  0.00  0.00    +0.134 C 
ATOM      4  C   LIG    1       25.356 -30.384   9.665  0.00  0.00    +0.010 C 
ATOM      5  C   LIG    1       25.213 -31.834  10.190  0.00  0.00    +0.005 C 
ATOM      6  C   LIG    1       23.858 -32.191  10.868  0.00  0.00    +0.034 C 
ATOM      7  C   LIG    1       23.386 -31.125  11.892  0.00  0.00    +0.153 C 
ATOM      8  C   LIG    1       23.440 -29.702  11.293  0.00  0.00    +0.154 C 
ATOM      9  F   LIG    1       24.345 -31.131  12.893  0.00  0.00    -0.238 F 
ATOM     10  C   LIG    1       21.988 -31.517  12.564  0.00  0.00    +0.044 C 
ATOM     11  C   LIG    1       21.861 -33.049  12.626  0.00  0.00    -0.053 C 
ATOM     12  C   LIG    1       20.718 -33.723  12.411  0.00  0.00    +0.051 C 
ATOM     13  C   LIG    1       19.484 -33.023  11.997  0.00  0.00    +0.179 C 
ATOM     14  C   LIG    1       19.618 -31.596  11.639  0.00  0.00    +0.047 C 
ATOM     15  O   LIG    1       18.419 -33.613  11.895  0.00  0.00    -0.288 OA
ATOM     16  C   LIG    1       23.154 -33.784  12.802  0.00  0.00    +0.032 C 
ATOM     17  C   LIG    1       21.931 -30.994  14.022  0.00  0.00    +0.023 C 
ATOM     18  C   LIG    1       20.757 -30.928  11.873  0.00  0.00    -0.009 C 
ATOM     19  C   LIG    1       23.993 -33.593  11.540  0.00  0.00    +0.011 C 
ATOM     20  C   LIG    1       26.868 -30.057   9.495  0.00  0.00    +0.015 C 
ATOM     21  C   LIG    1       24.806 -29.375  10.690  0.00  0.00    +0.044 C 
ATOM     22  C   LIG    1       25.470 -32.677   8.933  0.00  0.00    +0.011 C 
ENDROOT
BRANCH   3  23
ATOM     23  O   LIG    1       23.219 -30.330   8.472  0.00  0.00    -0.380 OA
ATOM     24  H   LIG    1       22.845 -29.797   7.741  0.00  0.00    +0.211 HD
ENDBRANCH   3  23
BRANCH   3  25
ATOM     25  C   LIG    1       25.085 -29.267   7.342  0.00  0.00    +0.190 C 
ATOM     26  O   LIG    1       25.703 -28.279   7.745  0.00  0.00    -0.292 OA
BRANCH  25  27
ATOM     27  C   LIG    1       24.738 -29.375   5.862  0.00  0.00    +0.233 C 
BRANCH  27  28
ATOM     28  O   LIG    1       23.332 -29.451   5.697  0.00  0.00    -0.387 OA
ATOM     29  H   LIG    1       22.964 -29.671   6.573  0.00  0.00    +0.210 HD
ENDBRANCH  27  28
ENDBRANCH  25  27
ENDBRANCH   3  25
BRANCH   8  30
ATOM     30  O   LIG    1       23.185 -28.709  12.298  0.00  0.00    -0.389 OA
ATOM     31  H   LIG    1       23.052 -29.189  13.137  0.00  0.00    +0.210 HD
ENDBRANCH   8  30
TORSDOF 5
ENDMDL
MODEL 8
REMARK VINA RESULT:      -4.7      1.607      6.582
REMARK  Name = *****
REMARK                            x       y       z     vdW  Elec       q    Type
REMARK                         _______ _______ _______ _____ _____    ______ ____
ROOT
ATOM      1  C   LIG    1       21.517 -26.668  13.625  0.00  0.00    +0.011 C 
ATOM      2  C   LIG    1       22.186 -27.763  12.802  0.00  0.00    +0.026 C 
ATOM      3  C   LIG    1       21.744 -29.244  13.029  0.00  0.00    +0.134 C 
ATOM      4  C   LIG    1       23.019 -29.965  13.599  0.00  0.00    +0.010 C 
ATOM      5  C   LIG    1       24.187 -29.192  12.940  0.00  0.00    +0.005 C 
ATOM      6  C   LIG    1       24.560 -29.612  11.488  0.00  0.00    +0.034 C 
ATOM      7  C   LIG    1       24.669 -31.149  11.305  0.00  0.00    +0.153 C 
ATOM      8  C   LIG    1       23.433 -31.877  11.878  0.00  0.00    +0.154 C 
ATOM      9  F   LIG    1       25.725 -31.539  12.115  0.00  0.00    -0.238 F 
ATOM     10  C   LIG    1       25.046 -31.548   9.802  0.00  0.00    +0.044 C 
ATOM     11  C   LIG    1       25.894 -30.431   9.172  0.00  0.00    -0.053 C 
ATOM     12  C   LIG    1       25.786 -30.026   7.894  0.00  0.00    +0.051 C 
ATOM     13  C   LIG    1       24.748 -30.582   7.003  0.00  0.00    +0.179 C 
ATOM     14  C   LIG    1       23.722 -31.440   7.630  0.00  0.00    +0.047 C 
ATOM     15  O   LIG    1       24.704 -30.294   5.816  0.00  0.00    -0.288 OA
ATOM     16  C   LIG    1       26.779 -29.693  10.129  0.00  0.00    +0.032 C 
ATOM     17  C   LIG    1       25.906 -32.838   9.791  0.00  0.00    +0.023 C 
ATOM     18  C   LIG    1       23.848 -31.852   8.900  0.00  0.00    -0.009 C 
ATOM     19  C   LIG    1       25.894 -28.904  11.093  0.00  0.00    +0.011 C 
ATOM     20  C   LIG    1       23.108 -29.792  15.143  0.00  0.00    +0.015 C 
ATOM     21  C   LIG    1       23.139 -31.475  13.323  0.00  0.00    +0.044 C 
ATOM     22  C   LIG    1       23.715 -27.733  13.015  0.00  0.00    +0.011 C 
ENDROOT
BRANCH   3  23
ATOM     23  O   LIG    1       21.472 -29.749  11.714  0.00  0.00    -0.380 OA
ATOM     24  H   LIG    1       21.066 -29.030  11.189  0.00  0.00    +0.211 HD
ENDBRANCH   3  23
BRANCH   3  25
ATOM     25  C   LIG    1       20.490 -29.493  13.919  0.00  0.00    +0.190 C 
ATOM     26  O   LIG    1       20.313 -28.947  15.010  0.00  0.00    -0.292 OA
BRANCH  25  27
ATOM     27  C   LIG    1       19.438 -30.460  13.391  0.00  0.00    +0.233 C 
BRANCH  27  28
ATOM     28  O   LIG    1       19.051 -31.363  14.414  0.00  0.00    -0.387 OA
ATOM     29  H   LIG    1       19.058 -30.854  15.247  0.00  0.00    +0.210 HD
ENDBRANCH  27  28
ENDBRANCH  25  27
ENDBRANCH   3  25
BRANCH   8  30
ATOM     30  O   LIG    1       23.625 -33.299  11.876  0.00  0.00    -0.389 OA
ATOM     31  H   LIG    1       22.751 -33.699  12.046  0.00  0.00    +0.210 HD
ENDBRANCH   8  30
TORSDOF 5
ENDMDL
MODEL 9
REMARK VINA RESULT:      -4.4      1.713      2.054
REMARK  Name = *****
REMARK                            x       y       z     vdW  Elec       q    Type
REMARK                         _______ _______ _______ _____ _____    ______ ____
ROOT
ATOM      1  C   LIG    1       23.272 -32.796   8.253  0.00  0.00    +0.011 C 
ATOM      2  C   LIG    1       23.717 -31.812   9.328  0.00  0.00    +0.026 C 
ATOM      3  C   LIG    1       24.641 -30.621   8.915  0.00  0.00    +0.134 C 
ATOM      4  C   LIG    1       25.991 -30.872   9.679  0.00  0.00    +0.010 C 
ATOM      5  C   LIG    1       25.538 -31.594  10.972  0.00  0.00    +0.005 C 
ATOM      6  C   LIG    1       25.020 -30.685  12.124  0.00  0.00    +0.034 C 
ATOM      7  C   LIG    1       25.937 -29.464  12.400  0.00  0.00    +0.153 C 
ATOM      8  C   LIG    1       26.278 -28.706  11.098  0.00  0.00    +0.154 C 
ATOM      9  F   LIG    1       27.141 -30.002  12.829  0.00  0.00    -0.238 F 
ATOM     10  C   LIG    1       25.373 -28.546  13.583  0.00  0.00    +0.044 C 
ATOM     11  C   LIG    1       24.587 -29.417  14.577  0.00  0.00    -0.053 C 
ATOM     12  C   LIG    1       23.454 -29.031  15.191  0.00  0.00    +0.051 C 
ATOM     13  C   LIG    1       22.816 -27.738  14.872  0.00  0.00    +0.179 C 
ATOM     14  C   LIG    1       23.361 -26.993  13.720  0.00  0.00    +0.047 C 
ATOM     15  O   LIG    1       21.843 -27.336  15.493  0.00  0.00    -0.288 OA
ATOM     16  C   LIG    1       25.089 -30.820  14.722  0.00  0.00    +0.032 C 
ATOM     17  C   LIG    1       26.547 -27.902  14.365  0.00  0.00    +0.023 C 
ATOM     18  C   LIG    1       24.501 -27.376  13.125  0.00  0.00    -0.009 C 
ATOM     19  C   LIG    1       24.846 -31.558  13.406  0.00  0.00    +0.011 C 
ATOM     20  C   LIG    1       26.916 -31.826   8.868  0.00  0.00    +0.015 C 
ATOM     21  C   LIG    1       26.836 -29.629  10.015  0.00  0.00    +0.044 C 
ATOM     22  C   LIG    1       24.454 -32.555  10.463  0.00  0.00    +0.011 C 
ENDROOT
BRANCH   3  23
ATOM     23  O   LIG    1       24.005 -29.458   9.464  0.00  0.00    -0.380 OA
ATOM     24  H   LIG    1       24.668 -28.969   9.993  0.00  0.00    +0.211 HD
ENDBRANCH   3  23
BRANCH   3  25
ATOM     25  C   LIG    1       24.871 -30.382   7.394  0.00  0.00    +0.190 C 
ATOM     26  O   LIG    1       25.595 -29.489   6.949  0.00  0.00    -0.292 OA
BRANCH  25  27
ATOM     27  C   LIG    1       24.160 -31.316   6.423  0.00  0.00    +0.233 C 
BRANCH  27  28
ATOM     28  O   LIG    1       23.246 -30.583   5.625  0.00  0.00    -0.387 OA
ATOM     29  H   LIG    1       22.582 -30.214   6.236  0.00  0.00    +0.210 HD
ENDBRANCH  27  28
ENDBRANCH  25  27
ENDBRANCH   3  25
BRANCH   8  30
ATOM     30  O   LIG    1       27.272 -27.698  11.333  0.00  0.00    -0.389 OA
ATOM     31  H   LIG    1       26.817 -26.837  11.274  0.00  0.00    +0.210 HD
ENDBRANCH   8  30
TORSDOF 5
ENDMDL
