MODEL 1
REMARK VINA RESULT:      -6.8      0.000      0.000
REMARK  Name = *****
REMARK                            x       y       z     vdW  Elec       q    Type
REMARK                         _______ _______ _______ _____ _____    ______ ____
ROOT
ATOM      1  C   LIG    1       30.146 -19.724   8.053  0.00  0.00    +0.186 A 
ATOM      2  C   LIG    1       31.148 -20.282   8.832  0.00  0.00    +0.171 A 
ATOM      3  N   LIG    1       32.104 -19.322   9.164  0.00  0.00    -0.229 NA
ATOM      4  C   LIG    1       31.699 -18.219   8.578  0.00  0.00    +0.199 A 
ATOM      5  N   LIG    1       30.538 -18.414   7.893  0.00  0.00    -0.328 N 
ATOM      6  H   LIG    1       30.024 -17.730   7.357  0.00  0.00    +0.168 HD
ENDROOT
BRANCH   2   7
ATOM      7  C   LIG    1       31.228 -21.671   9.276  0.00  0.00    +0.264 C 
ATOM      8  O   LIG    1       30.676 -22.126  10.268  0.00  0.00    -0.269 OA
ATOM      9  N   LIG    1       31.998 -22.464   8.470  0.00  0.00    -0.324 N 
ATOM     10  H   LIG    1       32.106 -23.438   8.703  0.00  0.00    +0.145 HD
ATOM     11  H   LIG    1       32.440 -22.067   7.650  0.00  0.00    +0.145 HD
ENDBRANCH   2   7
BRANCH   1  13
ATOM     12  N   LIG    1       27.975 -20.110   8.167  0.00  0.00    -0.077 NA
ATOM     13  N   LIG    1       29.018 -20.226   7.495  0.00  0.00    -0.113 NA
BRANCH  12  15
ATOM     14  C   LIG    1       25.604 -20.732   8.282  0.00  0.00    +0.153 C 
ATOM     15  N   LIG    1       26.869 -20.650   7.556  0.00  0.00    -0.243 N 
ATOM     16  C   LIG    1       26.793 -20.382   6.132  0.00  0.00    +0.153 C 
ENDBRANCH  12  15
ENDBRANCH   1  13
TORSDOF 3
ENDMDL
MODEL 2
REMARK VINA RESULT:      -6.4      1.641      2.847
REMARK  Name = *****
REMARK                            x       y       z     vdW  Elec       q    Type
REMARK                         _______ _______ _______ _____ _____    ______ ____
ROOT
ATOM      1  C   LIG    1       30.015 -20.591   8.167  0.00  0.00    +0.186 A 
ATOM      2  C   LIG    1       31.062 -19.830   8.666  0.00  0.00    +0.171 A 
ATOM      3  N   LIG    1       32.041 -20.650   9.227  0.00  0.00    -0.229 NA
ATOM      4  C   LIG    1       31.582 -21.873   9.091  0.00  0.00    +0.199 A 
ATOM      5  N   LIG    1       30.368 -21.886   8.472  0.00  0.00    -0.328 N 
ATOM      6  H   LIG    1       29.805 -22.694   8.253  0.00  0.00    +0.168 HD
ENDROOT
BRANCH   2   7
ATOM      7  C   LIG    1       31.173 -18.375   8.622  0.00  0.00    +0.264 C 
ATOM      8  O   LIG    1       32.109 -17.753   8.139  0.00  0.00    -0.269 OA
ATOM      9  N   LIG    1       30.110 -17.724   9.185  0.00  0.00    -0.324 N 
ATOM     10  H   LIG    1       30.104 -16.716   9.197  0.00  0.00    +0.145 HD
ATOM     11  H   LIG    1       29.343 -18.259   9.574  0.00  0.00    +0.145 HD
ENDBRANCH   2   7
BRANCH   1  13
ATOM     12  N   LIG    1       27.809 -20.654   8.091  0.00  0.00    -0.077 NA
ATOM     13  N   LIG    1       28.859 -20.274   7.536  0.00  0.00    -0.113 NA
BRANCH  12  15
ATOM     14  C   LIG    1       26.682 -20.322   5.938  0.00  0.00    +0.153 C 
ATOM     15  N   LIG    1       26.672 -20.316   7.398  0.00  0.00    -0.243 N 
ATOM     16  C   LIG    1       25.442 -20.727   8.048  0.00  0.00    +0.153 C 
ENDBRANCH  12  15
ENDBRANCH   1  13
TORSDOF 3
ENDMDL
MODEL 3
REMARK VINA RESULT:      -6.3      1.779      4.507
REMARK  Name = *****
REMARK                            x       y       z     vdW  Elec       q    Type
REMARK                         _______ _______ _______ _____ _____    ______ ____
ROOT
ATOM      1  C   LIG    1       30.832 -19.334   8.609  0.00  0.00    +0.186 A 
ATOM      2  C   LIG    1       30.522 -20.675   8.435  0.00  0.00    +0.171 A 
ATOM      3  N   LIG    1       29.589 -20.834   7.411  0.00  0.00    -0.229 NA
ATOM      4  C   LIG    1       29.325 -19.617   6.996  0.00  0.00    +0.199 A 
ATOM      5  N   LIG    1       30.037 -18.686   7.691  0.00  0.00    -0.328 N 
ATOM      6  H   LIG    1       30.013 -17.684   7.569  0.00  0.00    +0.168 HD
ENDROOT
BRANCH   2   7
ATOM      7  C   LIG    1       31.078 -21.796   9.186  0.00  0.00    +0.264 C 
ATOM      8  O   LIG    1       30.773 -22.097  10.333  0.00  0.00    -0.269 OA
ATOM      9  N   LIG    1       32.005 -22.521   8.489  0.00  0.00    -0.324 N 
ATOM     10  H   LIG    1       32.439 -23.315   8.934  0.00  0.00    +0.145 HD
ATOM     11  H   LIG    1       32.238 -22.258   7.540  0.00  0.00    +0.145 HD
ENDBRANCH   2   7
BRANCH   1  13
ATOM     12  N   LIG    1       31.318 -17.529   9.785  0.00  0.00    -0.077 NA
ATOM     13  N   LIG    1       31.667 -18.678   9.450  0.00  0.00    -0.113 NA
BRANCH  12  15
ATOM     14  C   LIG    1       33.024 -15.802  10.135  0.00  0.00    +0.153 C 
ATOM     15  N   LIG    1       32.212 -16.911  10.626  0.00  0.00    -0.243 N 
ATOM     16  C   LIG    1       31.769 -16.839  12.006  0.00  0.00    +0.153 C 
ENDBRANCH  12  15
ENDBRANCH   1  13
TORSDOF 3
ENDMDL
MODEL 4
REMARK VINA RESULT:      -6.1      2.477      5.200
REMARK  Name = *****
REMARK                            x       y       z     vdW  Elec       q    Type
REMARK                         _______ _______ _______ _____ _____    ______ ____
ROOT
ATOM      1  C   LIG    1       31.379 -19.802   8.749  0.00  0.00    +0.186 A 
ATOM      2  C   LIG    1       30.346 -20.161   7.895  0.00  0.00    +0.171 A 
ATOM      3  N   LIG    1       30.005 -21.501   8.074  0.00  0.00    -0.229 NA
ATOM      4  C   LIG    1       30.828 -21.945   8.996  0.00  0.00    +0.199 A 
ATOM      5  N   LIG    1       31.676 -20.966   9.421  0.00  0.00    -0.328 N 
ATOM      6  H   LIG    1       32.402 -21.049  10.117  0.00  0.00    +0.168 HD
ENDROOT
BRANCH   2   7
ATOM      7  C   LIG    1       29.674 -19.290   6.936  0.00  0.00    +0.264 C 
ATOM      8  O   LIG    1       30.121 -18.235   6.507  0.00  0.00    -0.269 OA
ATOM      9  N   LIG    1       28.453 -19.756   6.530  0.00  0.00    -0.324 N 
ATOM     10  H   LIG    1       27.921 -19.216   5.866  0.00  0.00    +0.145 HD
ATOM     11  H   LIG    1       28.105 -20.635   6.892  0.00  0.00    +0.145 HD
ENDBRANCH   2   7
BRANCH   1  13
ATOM     12  N   LIG    1       32.011 -18.191  10.120  0.00  0.00    -0.077 NA
ATOM     13  N   LIG    1       32.046 -18.642   8.959  0.00  0.00    -0.113 NA
BRANCH  12  15
ATOM     14  C   LIG    1       32.419 -15.894   9.362  0.00  0.00    +0.153 C 
ATOM     15  N   LIG    1       32.692 -17.007  10.267  0.00  0.00    -0.243 N 
ATOM     16  C   LIG    1       33.000 -16.672  11.645  0.00  0.00    +0.153 C 
ENDBRANCH  12  15
ENDBRANCH   1  13
TORSDOF 3
ENDMDL
MODEL 5
REMARK VINA RESULT:      -6.1      1.704      2.153
REMARK  Name = *****
REMARK                            x       y       z     vdW  Elec       q    Type
REMARK                         _______ _______ _______ _____ _____    ______ ____
ROOT
ATOM      1  C   LIG    1       29.075 -20.181   7.331  0.00  0.00    +0.186 A 
ATOM      2  C   LIG    1       30.415 -19.927   7.586  0.00  0.00    +0.171 A 
ATOM      3  N   LIG    1       30.907 -18.961   6.708  0.00  0.00    -0.229 NA
ATOM      4  C   LIG    1       29.894 -18.659   5.929  0.00  0.00    +0.199 A 
ATOM      5  N   LIG    1       28.780 -19.372   6.257  0.00  0.00    -0.328 N 
ATOM      6  H   LIG    1       27.876 -19.328   5.811  0.00  0.00    +0.168 HD
ENDROOT
BRANCH   2   7
ATOM      7  C   LIG    1       31.232 -20.550   8.622  0.00  0.00    +0.264 C 
ATOM      8  O   LIG    1       32.032 -19.962   9.338  0.00  0.00    -0.269 OA
ATOM      9  N   LIG    1       31.033 -21.898   8.745  0.00  0.00    -0.324 N 
ATOM     10  H   LIG    1       31.557 -22.408   9.439  0.00  0.00    +0.145 HD
ATOM     11  H   LIG    1       30.362 -22.363   8.147  0.00  0.00    +0.145 HD
ENDBRANCH   2   7
BRANCH   1  13
ATOM     12  N   LIG    1       27.398 -21.601   7.114  0.00  0.00    -0.077 NA
ATOM     13  N   LIG    1       28.166 -21.009   7.898  0.00  0.00    -0.113 NA
BRANCH  12  15
ATOM     14  C   LIG    1       25.514 -21.836   8.668  0.00  0.00    +0.153 C 
ATOM     15  N   LIG    1       26.490 -22.414   7.748  0.00  0.00    -0.243 N 
ATOM     16  C   LIG    1       26.050 -23.542   6.948  0.00  0.00    +0.153 C 
ENDBRANCH  12  15
ENDBRANCH   1  13
TORSDOF 3
ENDMDL
MODEL 6
REMARK VINA RESULT:      -6.0      3.055      4.652
REMARK  Name = *****
REMARK                            x       y       z     vdW  Elec       q    Type
REMARK                         _______ _______ _______ _____ _____    ______ ____
ROOT
ATOM      1  C   LIG    1       26.769 -20.368   6.135  0.00  0.00    +0.186 A 
ATOM      2  C   LIG    1       26.985 -20.686   7.467  0.00  0.00    +0.171 A 
ATOM      3  N   LIG    1       28.348 -20.838   7.721  0.00  0.00    -0.229 NA
ATOM      4  C   LIG    1       28.936 -20.641   6.563  0.00  0.00    +0.199 A 
ATOM      5  N   LIG    1       28.030 -20.367   5.582  0.00  0.00    -0.328 N 
ATOM      6  H   LIG    1       28.223 -20.182   4.609  0.00  0.00    +0.168 HD
ENDROOT
BRANCH   2   7
ATOM      7  C   LIG    1       25.963 -20.839   8.498  0.00  0.00    +0.264 C 
ATOM      8  O   LIG    1       26.002 -20.332   9.611  0.00  0.00    -0.269 OA
ATOM      9  N   LIG    1       24.909 -21.624   8.117  0.00  0.00    -0.324 N 
ATOM     10  H   LIG    1       24.157 -21.781   8.769  0.00  0.00    +0.145 HD
ATOM     11  H   LIG    1       24.895 -22.028   7.189  0.00  0.00    +0.145 HD
ENDBRANCH   2   7
BRANCH   1  13
ATOM     12  N   LIG    1       24.900 -21.094   5.210  0.00  0.00    -0.077 NA
ATOM     13  N   LIG    1       25.651 -20.120   5.412  0.00  0.00    -0.113 NA
BRANCH  12  15
ATOM     14  C   LIG    1       22.458 -20.931   5.037  0.00  0.00    +0.153 C 
ATOM     15  N   LIG    1       23.791 -20.783   4.460  0.00  0.00    -0.243 N 
ATOM     16  C   LIG    1       23.991 -19.673   3.546  0.00  0.00    +0.153 C 
ENDBRANCH  12  15
ENDBRANCH   1  13
TORSDOF 3
ENDMDL
MODEL 7
REMARK VINA RESULT:      -6.0      5.490      6.596
REMARK  Name = *****
REMARK                            x       y       z     vdW  Elec       q    Type
REMARK                         _______ _______ _______ _____ _____    ______ ____
ROOT
ATOM      1  C   LIG    1       24.943 -22.556   5.523  0.00  0.00    +0.186 A 
ATOM      2  C   LIG    1       25.202 -22.866   6.850  0.00  0.00    +0.171 A 
ATOM      3  N   LIG    1       25.390 -24.239   7.006  0.00  0.00    -0.229 NA
ATOM      4  C   LIG    1       25.224 -24.746   5.805  0.00  0.00    +0.199 A 
ATOM      5  N   LIG    1       24.945 -23.777   4.888  0.00  0.00    -0.328 N 
ATOM      6  H   LIG    1       24.773 -23.905   3.902  0.00  0.00    +0.168 HD
ENDROOT
BRANCH   2   7
ATOM      7  C   LIG    1       25.285 -21.921   7.959  0.00  0.00    +0.264 C 
ATOM      8  O   LIG    1       26.097 -21.976   8.873  0.00  0.00    -0.269 OA
ATOM      9  N   LIG    1       24.350 -20.924   7.906  0.00  0.00    -0.324 N 
ATOM     10  H   LIG    1       24.337 -20.227   8.633  0.00  0.00    +0.145 HD
ATOM     11  H   LIG    1       23.691 -20.895   7.137  0.00  0.00    +0.145 HD
ENDBRANCH   2   7
BRANCH   1  13
ATOM     12  N   LIG    1       23.531 -20.971   4.915  0.00  0.00    -0.077 NA
ATOM     13  N   LIG    1       24.704 -21.392   4.874  0.00  0.00    -0.113 NA
BRANCH  12  15
ATOM     14  C   LIG    1       22.335 -18.843   4.672  0.00  0.00    +0.153 C 
ATOM     15  N   LIG    1       23.348 -19.796   4.227  0.00  0.00    -0.243 N 
ATOM     16  C   LIG    1       24.570 -19.243   3.671  0.00  0.00    +0.153 C 
ENDBRANCH  12  15
ENDBRANCH   1  13
TORSDOF 3
ENDMDL
MODEL 8
REMARK VINA RESULT:      -5.9      2.939      5.902
REMARK  Name = *****
REMARK                            x       y       z     vdW  Elec       q    Type
REMARK                         _______ _______ _______ _____ _____    ______ ____
ROOT
ATOM      1  C   LIG    1       26.395 -20.456   5.906  0.00  0.00    +0.186 A 
ATOM      2  C   LIG    1       25.064 -20.638   6.252  0.00  0.00    +0.171 A 
ATOM      3  N   LIG    1       24.240 -20.463   5.141  0.00  0.00    -0.229 NA
ATOM      4  C   LIG    1       25.053 -20.159   4.155  0.00  0.00    +0.199 A 
ATOM      5  N   LIG    1       26.351 -20.132   4.569  0.00  0.00    -0.328 N 
ATOM      6  H   LIG    1       27.164 -19.922   4.009  0.00  0.00    +0.168 HD
ENDROOT
BRANCH   2   7
ATOM      7  C   LIG    1       24.553 -20.977   7.577  0.00  0.00    +0.264 C 
ATOM      8  O   LIG    1       23.450 -21.456   7.806  0.00  0.00    -0.269 OA
ATOM      9  N   LIG    1       25.431 -20.711   8.591  0.00  0.00    -0.324 N 
ATOM     10  H   LIG    1       25.158 -20.916   9.540  0.00  0.00    +0.145 HD
ATOM     11  H   LIG    1       26.340 -20.320   8.378  0.00  0.00    +0.145 HD
ENDBRANCH   2   7
BRANCH   1  13
ATOM     12  N   LIG    1       28.582 -20.165   6.003  0.00  0.00    -0.077 NA
ATOM     13  N   LIG    1       27.552 -20.522   6.607  0.00  0.00    -0.113 NA
BRANCH  12  15
ATOM     14  C   LIG    1       30.655 -19.146   6.828  0.00  0.00    +0.153 C 
ATOM     15  N   LIG    1       29.723 -20.268   6.761  0.00  0.00    -0.243 N 
ATOM     16  C   LIG    1       29.560 -21.059   7.967  0.00  0.00    +0.153 C 
ENDBRANCH  12  15
ENDBRANCH   1  13
TORSDOF 3
ENDMDL
MODEL 9
REMARK VINA RESULT:      -5.9      2.715      5.534
REMARK  Name = *****
REMARK                            x       y       z     vdW  Elec       q    Type
REMARK                         _______ _______ _______ _____ _____    ______ ____
ROOT
ATOM      1  C   LIG    1       26.702 -20.620   7.817  0.00  0.00    +0.186 A 
ATOM      2  C   LIG    1       25.991 -20.588   6.627  0.00  0.00    +0.171 A 
ATOM      3  N   LIG    1       24.688 -21.047   6.822  0.00  0.00    -0.229 NA
ATOM      4  C   LIG    1       24.625 -21.370   8.093  0.00  0.00    +0.199 A 
ATOM      5  N   LIG    1       25.810 -21.142   8.726  0.00  0.00    -0.328 N 
ATOM      6  H   LIG    1       26.023 -21.309   9.698  0.00  0.00    +0.168 HD
ENDROOT
BRANCH   2   7
ATOM      7  C   LIG    1       26.489 -20.136   5.332  0.00  0.00    +0.264 C 
ATOM      8  O   LIG    1       25.791 -19.765   4.398  0.00  0.00    -0.269 OA
ATOM      9  N   LIG    1       27.853 -20.157   5.228  0.00  0.00    -0.324 N 
ATOM     10  H   LIG    1       28.282 -19.859   4.366  0.00  0.00    +0.145 HD
ATOM     11  H   LIG    1       28.412 -20.462   6.016  0.00  0.00    +0.145 HD
ENDBRANCH   2   7
BRANCH   1  13
ATOM     12  N   LIG    1       28.831 -21.172   8.017  0.00  0.00    -0.077 NA
ATOM     13  N   LIG    1       27.971 -20.279   8.147  0.00  0.00    -0.113 NA
BRANCH  12  15
ATOM     14  C   LIG    1       31.005 -21.719   9.014  0.00  0.00    +0.153 C 
ATOM     15  N   LIG    1       30.094 -20.771   8.379  0.00  0.00    -0.243 N 
ATOM     16  C   LIG    1       30.684 -19.797   7.479  0.00  0.00    +0.153 C 
ENDBRANCH  12  15
ENDBRANCH   1  13
TORSDOF 3
ENDMDL
