MODEL 1
REMARK VINA RESULT:      -9.2      0.000      0.000
REMARK  Name = *****
REMARK                            x       y       z     vdW  Elec       q    Type
REMARK                         _______ _______ _______ _____ _____    ______ ____
ROOT
ATOM      1  N   LIG    1       25.710 -22.946   6.170  0.00  0.00    -0.299 N 
ATOM      2  C   LIG    1       25.322 -24.318   6.152  0.00  0.00    +0.037 A 
ATOM      3  C   LIG    1       24.016 -24.819   6.370  0.00  0.00    -0.026 A 
ATOM      4  C   LIG    1       23.802 -26.215   6.307  0.00  0.00    +0.005 A 
ATOM      5  C   LIG    1       24.837 -27.112   6.076  0.00  0.00    +0.000 A 
ATOM      6  C   LIG    1       26.113 -26.621   5.813  0.00  0.00    +0.002 A 
ATOM      7  C   LIG    1       22.781 -23.972   6.587  0.00  0.00    +0.041 C 
ATOM      8  C   LIG    1       22.967 -22.643   7.313  0.00  0.00    +0.041 C 
ATOM      9  C   LIG    1       23.587 -21.640   6.378  0.00  0.00    -0.026 A 
ATOM     10  C   LIG    1       22.857 -20.493   6.019  0.00  0.00    +0.005 A 
ATOM     11  C   LIG    1       23.305 -19.668   4.988  0.00  0.00    +0.000 A 
ATOM     12  C   LIG    1       24.469 -19.987   4.303  0.00  0.00    +0.002 A 
ATOM     13  C   LIG    1       25.237 -21.082   4.703  0.00  0.00    +0.024 A 
ATOM     14  C   LIG    1       26.321 -25.247   5.804  0.00  0.00    +0.024 A 
ATOM     15  C   LIG    1       24.826 -21.898   5.771  0.00  0.00    +0.037 A 
ENDROOT
BRANCH   1  16
ATOM     16  C   LIG    1       26.389 -22.542   7.465  0.00  0.00    +0.115 C 
BRANCH  16  18
ATOM     17  C   LIG    1       26.297 -20.255   8.676  0.00  0.00    +0.010 C 
ATOM     18  C   LIG    1       26.915 -21.080   7.533  0.00  0.00    +0.018 C 
BRANCH  18  19
ATOM     19  C   LIG    1       28.464 -21.010   7.687  0.00  0.00    +0.088 C 
BRANCH  19  20
ATOM     20  N   LIG    1       29.223 -20.454   6.553  0.00  0.00    -0.308 NA
ATOM     21  C   LIG    1       30.363 -19.676   7.052  0.00  0.00    +0.104 C 
ATOM     22  C   LIG    1       28.395 -19.610   5.689  0.00  0.00    +0.104 C 
ENDBRANCH  19  20
ENDBRANCH  18  19
ENDBRANCH  16  18
ENDBRANCH   1  16
TORSDOF 4
ENDMDL
MODEL 2
REMARK VINA RESULT:      -9.0      1.071      1.534
REMARK  Name = *****
REMARK                            x       y       z     vdW  Elec       q    Type
REMARK                         _______ _______ _______ _____ _____    ______ ____
ROOT
ATOM      1  N   LIG    1       25.526 -21.911   5.857  0.00  0.00    -0.299 N 
ATOM      2  C   LIG    1       25.169 -23.269   6.104  0.00  0.00    +0.037 A 
ATOM      3  C   LIG    1       23.889 -23.740   6.482  0.00  0.00    -0.026 A 
ATOM      4  C   LIG    1       23.705 -25.127   6.681  0.00  0.00    +0.005 A 
ATOM      5  C   LIG    1       24.747 -26.038   6.554  0.00  0.00    +0.000 A 
ATOM      6  C   LIG    1       25.994 -25.585   6.135  0.00  0.00    +0.002 A 
ATOM      7  C   LIG    1       22.648 -22.885   6.615  0.00  0.00    +0.041 C 
ATOM      8  C   LIG    1       22.842 -21.445   7.082  0.00  0.00    +0.041 C 
ATOM      9  C   LIG    1       23.387 -20.617   5.950  0.00  0.00    -0.026 A 
ATOM     10  C   LIG    1       22.612 -19.562   5.436  0.00  0.00    +0.005 A 
ATOM     11  C   LIG    1       22.985 -18.929   4.250  0.00  0.00    +0.000 A 
ATOM     12  C   LIG    1       24.117 -19.349   3.567  0.00  0.00    +0.002 A 
ATOM     13  C   LIG    1       24.930 -20.345   4.111  0.00  0.00    +0.024 A 
ATOM     14  C   LIG    1       26.170 -24.232   5.870  0.00  0.00    +0.024 A 
ATOM     15  C   LIG    1       24.597 -20.962   5.328  0.00  0.00    +0.037 A 
ENDROOT
BRANCH   1  16
ATOM     16  C   LIG    1       26.264 -21.273   7.018  0.00  0.00    +0.115 C 
BRANCH  16  18
ATOM     17  C   LIG    1       28.018 -19.890   5.708  0.00  0.00    +0.010 C 
ATOM     18  C   LIG    1       27.770 -20.964   6.782  0.00  0.00    +0.018 C 
BRANCH  18  19
ATOM     19  C   LIG    1       28.495 -20.506   8.082  0.00  0.00    +0.088 C 
BRANCH  19  20
ATOM     20  N   LIG    1       29.873 -20.002   7.935  0.00  0.00    -0.308 NA
ATOM     21  C   LIG    1       30.813 -20.940   8.560  0.00  0.00    +0.104 C 
ATOM     22  C   LIG    1       30.045 -18.671   8.521  0.00  0.00    +0.104 C 
ENDBRANCH  19  20
ENDBRANCH  18  19
ENDBRANCH  16  18
ENDBRANCH   1  16
TORSDOF 4
ENDMDL
MODEL 3
REMARK VINA RESULT:      -8.5      1.478      5.328
REMARK  Name = *****
REMARK                            x       y       z     vdW  Elec       q    Type
REMARK                         _______ _______ _______ _____ _____    ______ ____
ROOT
ATOM      1  N   LIG    1       25.126 -21.441   6.131  0.00  0.00    -0.299 N 
ATOM      2  C   LIG    1       26.449 -21.132   6.561  0.00  0.00    +0.037 A 
ATOM      3  C   LIG    1       27.340 -20.227   5.936  0.00  0.00    -0.026 A 
ATOM      4  C   LIG    1       28.621 -20.031   6.502  0.00  0.00    +0.005 A 
ATOM      5  C   LIG    1       29.047 -20.725   7.628  0.00  0.00    +0.000 A 
ATOM      6  C   LIG    1       28.157 -21.578   8.274  0.00  0.00    +0.002 A 
ATOM      7  C   LIG    1       27.012 -19.366   4.737  0.00  0.00    +0.041 C 
ATOM      8  C   LIG    1       26.036 -19.941   3.714  0.00  0.00    +0.041 C 
ATOM      9  C   LIG    1       24.634 -19.863   4.254  0.00  0.00    -0.026 A 
ATOM     10  C   LIG    1       23.689 -19.054   3.597  0.00  0.00    +0.005 A 
ATOM     11  C   LIG    1       22.459 -18.781   4.196  0.00  0.00    +0.000 A 
ATOM     12  C   LIG    1       22.170 -19.299   5.451  0.00  0.00    +0.002 A 
ATOM     13  C   LIG    1       23.074 -20.162   6.075  0.00  0.00    +0.024 A 
ATOM     14  C   LIG    1       26.871 -21.727   7.766  0.00  0.00    +0.024 A 
ATOM     15  C   LIG    1       24.297 -20.486   5.466  0.00  0.00    +0.037 A 
ENDROOT
BRANCH   1  16
ATOM     16  C   LIG    1       25.039 -22.760   5.388  0.00  0.00    +0.115 C 
BRANCH  16  18
ATOM     17  C   LIG    1       23.107 -23.838   6.734  0.00  0.00    +0.010 C 
ATOM     18  C   LIG    1       24.551 -23.981   6.219  0.00  0.00    +0.018 C 
BRANCH  18  19
ATOM     19  C   LIG    1       24.635 -25.316   5.422  0.00  0.00    +0.088 C 
BRANCH  19  20
ATOM     20  N   LIG    1       24.672 -26.562   6.210  0.00  0.00    -0.308 NA
ATOM     21  C   LIG    1       25.933 -26.640   6.958  0.00  0.00    +0.104 C 
ATOM     22  C   LIG    1       24.523 -27.755   5.374  0.00  0.00    +0.104 C 
ENDBRANCH  19  20
ENDBRANCH  18  19
ENDBRANCH  16  18
ENDBRANCH   1  16
TORSDOF 4
ENDMDL
MODEL 4
REMARK VINA RESULT:      -6.3      1.458      5.458
REMARK  Name = *****
REMARK                            x       y       z     vdW  Elec       q    Type
REMARK                         _______ _______ _______ _____ _____    ______ ____
ROOT
ATOM      1  N   LIG    1       26.065 -20.897   6.483  0.00  0.00    -0.299 N 
ATOM      2  C   LIG    1       27.280 -20.153   6.446  0.00  0.00    +0.037 A 
ATOM      3  C   LIG    1       27.699 -19.288   5.405  0.00  0.00    -0.026 A 
ATOM      4  C   LIG    1       28.937 -18.618   5.533  0.00  0.00    +0.005 A 
ATOM      5  C   LIG    1       29.772 -18.807   6.628  0.00  0.00    +0.000 A 
ATOM      6  C   LIG    1       29.342 -19.617   7.675  0.00  0.00    +0.002 A 
ATOM      7  C   LIG    1       26.887 -18.944   4.177  0.00  0.00    +0.041 C 
ATOM      8  C   LIG    1       25.962 -20.027   3.627  0.00  0.00    +0.041 C 
ATOM      9  C   LIG    1       24.742 -20.139   4.500  0.00  0.00    -0.026 A 
ATOM     10  C   LIG    1       23.480 -19.830   3.960  0.00  0.00    +0.005 A 
ATOM     11  C   LIG    1       22.370 -19.704   4.795  0.00  0.00    +0.000 A 
ATOM     12  C   LIG    1       22.511 -19.869   6.165  0.00  0.00    +0.002 A 
ATOM     13  C   LIG    1       23.745 -20.248   6.699  0.00  0.00    +0.024 A 
ATOM     14  C   LIG    1       28.096 -20.228   7.592  0.00  0.00    +0.024 A 
ATOM     15  C   LIG    1       24.864 -20.427   5.869  0.00  0.00    +0.037 A 
ENDROOT
BRANCH   1  16
ATOM     16  C   LIG    1       26.256 -22.357   6.123  0.00  0.00    +0.115 C 
BRANCH  16  18
ATOM     17  C   LIG    1       25.755 -22.772   8.630  0.00  0.00    +0.010 C 
ATOM     18  C   LIG    1       26.310 -23.353   7.316  0.00  0.00    +0.018 C 
BRANCH  18  19
ATOM     19  C   LIG    1       25.540 -24.675   7.025  0.00  0.00    +0.088 C 
BRANCH  19  20
ATOM     20  N   LIG    1       24.464 -24.613   6.019  0.00  0.00    -0.308 NA
ATOM     21  C   LIG    1       23.215 -24.175   6.654  0.00  0.00    +0.104 C 
ATOM     22  C   LIG    1       24.250 -25.899   5.352  0.00  0.00    +0.104 C 
ENDBRANCH  19  20
ENDBRANCH  18  19
ENDBRANCH  16  18
ENDBRANCH   1  16
TORSDOF 4
ENDMDL
MODEL 5
REMARK VINA RESULT:      -6.2      1.618      5.458
REMARK  Name = *****
REMARK                            x       y       z     vdW  Elec       q    Type
REMARK                         _______ _______ _______ _____ _____    ______ ____
ROOT
ATOM      1  N   LIG    1       25.221 -21.468   5.197  0.00  0.00    -0.299 N 
ATOM      2  C   LIG    1       24.149 -20.597   4.846  0.00  0.00    +0.037 A 
ATOM      3  C   LIG    1       23.250 -19.976   5.746  0.00  0.00    -0.026 A 
ATOM      4  C   LIG    1       22.243 -19.130   5.229  0.00  0.00    +0.005 A 
ATOM      5  C   LIG    1       22.083 -18.918   3.864  0.00  0.00    +0.000 A 
ATOM      6  C   LIG    1       22.995 -19.487   2.980  0.00  0.00    +0.002 A 
ATOM      7  C   LIG    1       23.320 -20.070   7.255  0.00  0.00    +0.041 C 
ATOM      8  C   LIG    1       23.847 -21.374   7.847  0.00  0.00    +0.041 C 
ATOM      9  C   LIG    1       25.343 -21.429   7.695  0.00  0.00    -0.026 A 
ATOM     10  C   LIG    1       26.150 -21.445   8.846  0.00  0.00    +0.005 A 
ATOM     11  C   LIG    1       27.530 -21.266   8.741  0.00  0.00    +0.000 A 
ATOM     12  C   LIG    1       28.107 -21.057   7.497  0.00  0.00    +0.002 A 
ATOM     13  C   LIG    1       27.321 -21.114   6.344  0.00  0.00    +0.024 A 
ATOM     14  C   LIG    1       24.031 -20.266   3.483  0.00  0.00    +0.024 A 
ATOM     15  C   LIG    1       25.938 -21.340   6.426  0.00  0.00    +0.037 A 
ENDROOT
BRANCH   1  16
ATOM     16  C   LIG    1       24.889 -22.932   4.978  0.00  0.00    +0.115 C 
BRANCH  16  18
ATOM     17  C   LIG    1       23.479 -24.490   6.491  0.00  0.00    +0.010 C 
ATOM     18  C   LIG    1       24.845 -23.820   6.253  0.00  0.00    +0.018 C 
BRANCH  18  19
ATOM     19  C   LIG    1       25.922 -24.945   6.235  0.00  0.00    +0.088 C 
BRANCH  19  20
ATOM     20  N   LIG    1       25.443 -26.324   6.034  0.00  0.00    -0.308 NA
ATOM     21  C   LIG    1       25.950 -27.187   7.107  0.00  0.00    +0.104 C 
ATOM     22  C   LIG    1       25.844 -26.870   4.735  0.00  0.00    +0.104 C 
ENDBRANCH  19  20
ENDBRANCH  18  19
ENDBRANCH  16  18
ENDBRANCH   1  16
TORSDOF 4
ENDMDL
