MODEL 1
REMARK VINA RESULT:      -7.7      0.000      0.000
REMARK  Name = *****
REMARK                            x       y       z     vdW  Elec       q    Type
REMARK                         _______ _______ _______ _____ _____    ______ ____
ROOT
ATOM      1  C   LIG    1       24.128 -32.705   9.465  0.00  0.00    +0.015 C 
ATOM      2  C   LIG    1       24.535 -31.265   9.066  0.00  0.00    +0.008 C 
ATOM      3  C   LIG    1       25.218 -31.336   7.668  0.00  0.00    +0.183 C 
ATOM      4  C   LIG    1       26.657 -31.812   8.000  0.00  0.00    +0.045 C 
ATOM      5  C   LIG    1       26.900 -31.487   9.492  0.00  0.00    +0.008 C 
ATOM      6  C   LIG    1       25.694 -30.640   9.870  0.00  0.00    +0.002 C 
ATOM      7  C   LIG    1       25.425 -30.273  11.334  0.00  0.00    -0.003 C 
ATOM      8  C   LIG    1       25.326 -31.429  12.342  0.00  0.00    +0.008 C 
ATOM      9  C   LIG    1       25.022 -30.931  13.761  0.00  0.00    +0.032 C 
ATOM     10  C   LIG    1       23.800 -30.038  13.760  0.00  0.00    -0.060 C 
ATOM     11  C   LIG    1       23.864 -28.829  12.832  0.00  0.00    -0.007 C 
ATOM     12  C   LIG    1       25.016 -27.883  13.286  0.00  0.00    +0.016 C 
ATOM     13  C   LIG    1       22.579 -27.949  12.910  0.00  0.00    +0.019 C 
ATOM     14  C   LIG    1       21.285 -28.686  13.216  0.00  0.00    +0.080 C 
ATOM     15  C   LIG    1       21.451 -29.621  14.382  0.00  0.00    +0.156 C 
ATOM     16  O   LIG    1       20.534 -29.867  15.163  0.00  0.00    -0.293 OA
ATOM     17  C   LIG    1       22.724 -30.364  14.497  0.00  0.00    +0.046 C 
ATOM     18  C   LIG    1       24.174 -29.328  11.376  0.00  0.00    +0.002 C 
ATOM     19  C   LIG    1       22.979 -29.980  10.635  0.00  0.00    +0.005 C 
ATOM     20  C   LIG    1       23.307 -30.350   9.176  0.00  0.00    +0.011 C 
ENDROOT
BRANCH   3  21
ATOM     21  O   LIG    1       25.265 -30.015   7.075  0.00  0.00    -0.461 OA
BRANCH  21  22
ATOM     22  C   LIG    1       25.170 -29.946   5.717  0.00  0.00    +0.307 C 
ATOM     23  O   LIG    1       25.631 -30.773   4.941  0.00  0.00    -0.251 OA
BRANCH  22  24
ATOM     24  C   LIG    1       24.411 -28.696   5.319  0.00  0.00    +0.121 C 
BRANCH  24  25
ATOM     25  C   LIG    1       24.426 -27.627   6.419  0.00  0.00    +0.015 C 
BRANCH  25  26
ATOM     26  C   LIG    1       24.740 -26.219   5.893  0.00  0.00    -0.010 C 
ATOM     27  C   LIG    1       23.757 -25.142   6.362  0.00  0.00    +0.003 C 
ATOM     28  C   LIG    1       24.574 -23.862   6.334  0.00  0.00    +0.000 C 
ATOM     29  C   LIG    1       25.910 -24.306   6.904  0.00  0.00    +0.000 C 
ATOM     30  C   LIG    1       26.126 -25.706   6.331  0.00  0.00    +0.003 C 
ENDBRANCH  25  26
ENDBRANCH  24  25
ENDBRANCH  22  24
ENDBRANCH  21  22
ENDBRANCH   3  21
TORSDOF 5
ENDMDL
MODEL 2
REMARK VINA RESULT:      -7.6      1.168      1.445
REMARK  Name = *****
REMARK                            x       y       z     vdW  Elec       q    Type
REMARK                         _______ _______ _______ _____ _____    ______ ____
ROOT
ATOM      1  C   LIG    1       24.766 -31.917  10.751  0.00  0.00    +0.015 C 
ATOM      2  C   LIG    1       24.698 -30.469  10.207  0.00  0.00    +0.008 C 
ATOM      3  C   LIG    1       25.586 -30.400   8.929  0.00  0.00    +0.183 C 
ATOM      4  C   LIG    1       27.022 -30.279   9.502  0.00  0.00    +0.045 C 
ATOM      5  C   LIG    1       26.882 -29.761  10.952  0.00  0.00    +0.008 C 
ATOM      6  C   LIG    1       25.409 -29.392  11.054  0.00  0.00    +0.002 C 
ATOM      7  C   LIG    1       24.787 -29.027  12.406  0.00  0.00    -0.003 C 
ATOM      8  C   LIG    1       24.935 -30.047  13.546  0.00  0.00    +0.008 C 
ATOM      9  C   LIG    1       24.242 -29.577  14.832  0.00  0.00    +0.032 C 
ATOM     10  C   LIG    1       22.802 -29.205  14.553  0.00  0.00    -0.060 C 
ATOM     11  C   LIG    1       22.589 -28.143  13.480  0.00  0.00    -0.007 C 
ATOM     12  C   LIG    1       23.238 -26.801  13.936  0.00  0.00    +0.016 C 
ATOM     13  C   LIG    1       21.082 -27.797  13.272  0.00  0.00    +0.019 C 
ATOM     14  C   LIG    1       20.100 -28.933  13.515  0.00  0.00    +0.080 C 
ATOM     15  C   LIG    1       20.388 -29.636  14.813  0.00  0.00    +0.156 C 
ATOM     16  O   LIG    1       19.501 -30.137  15.500  0.00  0.00    -0.293 OA
ATOM     17  C   LIG    1       21.803 -29.841  15.189  0.00  0.00    +0.046 C 
ATOM     18  C   LIG    1       23.294 -28.614  12.158  0.00  0.00    +0.002 C 
ATOM     19  C   LIG    1       22.549 -29.723  11.373  0.00  0.00    +0.005 C 
ATOM     20  C   LIG    1       23.226 -30.067  10.034  0.00  0.00    +0.011 C 
ENDROOT
BRANCH   3  21
ATOM     21  O   LIG    1       25.262 -29.213   8.167  0.00  0.00    -0.461 OA
BRANCH  21  22
ATOM     22  C   LIG    1       24.811 -29.401   6.895  0.00  0.00    +0.307 C 
ATOM     23  O   LIG    1       24.202 -30.390   6.508  0.00  0.00    -0.251 OA
BRANCH  22  24
ATOM     24  C   LIG    1       25.179 -28.206   6.038  0.00  0.00    +0.121 C 
BRANCH  24  25
ATOM     25  C   LIG    1       24.046 -27.176   5.953  0.00  0.00    +0.015 C 
BRANCH  25  26
ATOM     26  C   LIG    1       24.546 -25.740   5.739  0.00  0.00    -0.010 C 
ATOM     27  C   LIG    1       23.697 -24.672   6.436  0.00  0.00    +0.003 C 
ATOM     28  C   LIG    1       24.670 -23.530   6.678  0.00  0.00    +0.000 C 
ATOM     29  C   LIG    1       25.927 -24.253   7.130  0.00  0.00    +0.000 C 
ATOM     30  C   LIG    1       25.977 -25.514   6.268  0.00  0.00    +0.003 C 
ENDBRANCH  25  26
ENDBRANCH  24  25
ENDBRANCH  22  24
ENDBRANCH  21  22
ENDBRANCH   3  21
TORSDOF 5
ENDMDL
MODEL 3
REMARK VINA RESULT:      -7.3      1.393      2.156
REMARK  Name = *****
REMARK                            x       y       z     vdW  Elec       q    Type
REMARK                         _______ _______ _______ _____ _____    ______ ____
ROOT
ATOM      1  C   LIG    1       23.683 -32.110   6.935  0.00  0.00    +0.015 C 
ATOM      2  C   LIG    1       24.704 -30.959   7.107  0.00  0.00    +0.008 C 
ATOM      3  C   LIG    1       25.360 -30.697   5.718  0.00  0.00    +0.183 C 
ATOM      4  C   LIG    1       26.421 -31.824   5.609  0.00  0.00    +0.045 C 
ATOM      5  C   LIG    1       26.702 -32.313   7.049  0.00  0.00    +0.008 C 
ATOM      6  C   LIG    1       25.975 -31.294   7.915  0.00  0.00    +0.002 C 
ATOM      7  C   LIG    1       25.817 -31.522   9.423  0.00  0.00    -0.003 C 
ATOM      8  C   LIG    1       25.164 -32.839   9.870  0.00  0.00    +0.008 C 
ATOM      9  C   LIG    1       25.035 -32.928  11.396  0.00  0.00    +0.032 C 
ATOM     10  C   LIG    1       24.335 -31.703  11.943  0.00  0.00    -0.060 C 
ATOM     11  C   LIG    1       24.975 -30.364  11.594  0.00  0.00    -0.007 C 
ATOM     12  C   LIG    1       26.401 -30.287  12.220  0.00  0.00    +0.016 C 
ATOM     13  C   LIG    1       24.210 -29.156  12.216  0.00  0.00    +0.019 C 
ATOM     14  C   LIG    1       22.708 -29.334  12.381  0.00  0.00    +0.080 C 
ATOM     15  C   LIG    1       22.381 -30.654  13.022  0.00  0.00    +0.156 C 
ATOM     16  O   LIG    1       21.410 -30.804  13.759  0.00  0.00    -0.293 OA
ATOM     17  C   LIG    1       23.188 -31.831  12.632  0.00  0.00    +0.046 C 
ATOM     18  C   LIG    1       25.111 -30.261  10.033  0.00  0.00    +0.002 C 
ATOM     19  C   LIG    1       23.793 -29.960   9.276  0.00  0.00    +0.005 C 
ATOM     20  C   LIG    1       24.003 -29.761   7.763  0.00  0.00    +0.011 C 
ENDROOT
BRANCH   3  21
ATOM     21  O   LIG    1       26.017 -29.406   5.719  0.00  0.00    -0.461 OA
BRANCH  21  22
ATOM     22  C   LIG    1       25.310 -28.355   5.218  0.00  0.00    +0.307 C 
ATOM     23  O   LIG    1       24.199 -28.438   4.709  0.00  0.00    -0.251 OA
BRANCH  22  24
ATOM     24  C   LIG    1       26.104 -27.075   5.387  0.00  0.00    +0.121 C 
BRANCH  24  25
ATOM     25  C   LIG    1       25.616 -26.235   6.574  0.00  0.00    +0.015 C 
BRANCH  25  26
ATOM     26  C   LIG    1       25.121 -24.840   6.168  0.00  0.00    -0.010 C 
ATOM     27  C   LIG    1       23.667 -24.553   6.558  0.00  0.00    +0.003 C 
ATOM     28  C   LIG    1       23.618 -23.041   6.704  0.00  0.00    +0.000 C 
ATOM     29  C   LIG    1       24.919 -22.734   7.423  0.00  0.00    +0.000 C 
ATOM     30  C   LIG    1       25.935 -23.699   6.812  0.00  0.00    +0.003 C 
ENDBRANCH  25  26
ENDBRANCH  24  25
ENDBRANCH  22  24
ENDBRANCH  21  22
ENDBRANCH   3  21
TORSDOF 5
ENDMDL
MODEL 4
REMARK VINA RESULT:      -7.3      2.573      7.897
REMARK  Name = *****
REMARK                            x       y       z     vdW  Elec       q    Type
REMARK                         _______ _______ _______ _____ _____    ______ ____
ROOT
ATOM      1  C   LIG    1       26.818 -27.050   5.163  0.00  0.00    +0.015 C 
ATOM      2  C   LIG    1       25.706 -27.178   6.233  0.00  0.00    +0.008 C 
ATOM      3  C   LIG    1       25.386 -28.693   6.405  0.00  0.00    +0.183 C 
ATOM      4  C   LIG    1       24.466 -29.000   5.194  0.00  0.00    +0.045 C 
ATOM      5  C   LIG    1       23.883 -27.648   4.722  0.00  0.00    +0.008 C 
ATOM      6  C   LIG    1       24.305 -26.681   5.818  0.00  0.00    +0.002 C 
ATOM      7  C   LIG    1       24.112 -25.170   5.644  0.00  0.00    -0.003 C 
ATOM      8  C   LIG    1       24.730 -24.522   4.396  0.00  0.00    +0.008 C 
ATOM      9  C   LIG    1       24.494 -23.006   4.358  0.00  0.00    +0.032 C 
ATOM     10  C   LIG    1       24.953 -22.364   5.649  0.00  0.00    -0.060 C 
ATOM     11  C   LIG    1       24.321 -22.915   6.924  0.00  0.00    -0.007 C 
ATOM     12  C   LIG    1       22.785 -22.650   6.902  0.00  0.00    +0.016 C 
ATOM     13  C   LIG    1       24.827 -22.185   8.205  0.00  0.00    +0.019 C 
ATOM     14  C   LIG    1       26.253 -21.659   8.152  0.00  0.00    +0.080 C 
ATOM     15  C   LIG    1       26.510 -20.900   6.880  0.00  0.00    +0.156 C 
ATOM     16  O   LIG    1       27.283 -19.947   6.828  0.00  0.00    -0.293 OA
ATOM     17  C   LIG    1       25.906 -21.417   5.633  0.00  0.00    +0.046 C 
ATOM     18  C   LIG    1       24.558 -24.467   6.973  0.00  0.00    +0.002 C 
ATOM     19  C   LIG    1       25.994 -24.902   7.359  0.00  0.00    +0.005 C 
ATOM     20  C   LIG    1       26.141 -26.428   7.500  0.00  0.00    +0.011 C 
ENDROOT
BRANCH   3  21
ATOM     21  O   LIG    1       24.658 -28.906   7.638  0.00  0.00    -0.461 OA
BRANCH  21  22
ATOM     22  C   LIG    1       24.564 -30.191   8.083  0.00  0.00    +0.307 C 
ATOM     23  O   LIG    1       23.544 -30.868   8.055  0.00  0.00    -0.251 OA
BRANCH  22  24
ATOM     24  C   LIG    1       25.907 -30.648   8.616  0.00  0.00    +0.121 C 
BRANCH  24  25
ATOM     25  C   LIG    1       25.983 -30.583  10.147  0.00  0.00    +0.015 C 
BRANCH  25  26
ATOM     26  C   LIG    1       25.626 -29.201  10.713  0.00  0.00    -0.010 C 
ATOM     27  C   LIG    1       25.210 -29.218  12.188  0.00  0.00    +0.003 C 
ATOM     28  C   LIG    1       25.569 -27.828  12.686  0.00  0.00    +0.000 C 
ATOM     29  C   LIG    1       26.919 -27.580  12.037  0.00  0.00    +0.000 C 
ATOM     30  C   LIG    1       26.796 -28.200  10.645  0.00  0.00    +0.003 C 
ENDBRANCH  25  26
ENDBRANCH  24  25
ENDBRANCH  22  24
ENDBRANCH  21  22
ENDBRANCH   3  21
TORSDOF 5
ENDMDL
MODEL 5
REMARK VINA RESULT:      -7.2      2.893      7.058
REMARK  Name = *****
REMARK                            x       y       z     vdW  Elec       q    Type
REMARK                         _______ _______ _______ _____ _____    ______ ____
ROOT
ATOM      1  C   LIG    1       28.177 -29.307  12.844  0.00  0.00    +0.015 C 
ATOM      2  C   LIG    1       26.971 -28.343  12.734  0.00  0.00    +0.008 C 
ATOM      3  C   LIG    1       27.131 -27.255  13.837  0.00  0.00    +0.183 C 
ATOM      4  C   LIG    1       26.634 -27.974  15.118  0.00  0.00    +0.045 C 
ATOM      5  C   LIG    1       25.755 -29.158  14.653  0.00  0.00    +0.008 C 
ATOM      6  C   LIG    1       25.603 -28.917  13.158  0.00  0.00    +0.002 C 
ATOM      7  C   LIG    1       24.970 -29.983  12.256  0.00  0.00    -0.003 C 
ATOM      8  C   LIG    1       25.590 -31.389  12.287  0.00  0.00    +0.008 C 
ATOM      9  C   LIG    1       24.888 -32.349  11.318  0.00  0.00    +0.032 C 
ATOM     10  C   LIG    1       24.835 -31.756   9.927  0.00  0.00    -0.060 C 
ATOM     11  C   LIG    1       24.166 -30.390   9.815  0.00  0.00    -0.007 C 
ATOM     12  C   LIG    1       22.667 -30.506  10.227  0.00  0.00    +0.016 C 
ATOM     13  C   LIG    1       24.129 -29.861   8.349  0.00  0.00    +0.019 C 
ATOM     14  C   LIG    1       25.286 -30.288   7.459  0.00  0.00    +0.080 C 
ATOM     15  C   LIG    1       25.541 -31.766   7.564  0.00  0.00    +0.156 C 
ATOM     16  O   LIG    1       25.956 -32.431   6.618  0.00  0.00    -0.293 OA
ATOM     17  C   LIG    1       25.411 -32.397   8.896  0.00  0.00    +0.046 C 
ATOM     18  C   LIG    1       24.878 -29.398  10.804  0.00  0.00    +0.002 C 
ATOM     19  C   LIG    1       26.264 -28.886  10.338  0.00  0.00    +0.005 C 
ATOM     20  C   LIG    1       26.866 -27.835  11.289  0.00  0.00    +0.011 C 
ENDROOT
BRANCH   3  21
ATOM     21  O   LIG    1       26.272 -26.127  13.545  0.00  0.00    -0.461 OA
BRANCH  21  22
ATOM     22  C   LIG    1       25.886 -25.358  14.601  0.00  0.00    +0.307 C 
ATOM     23  O   LIG    1       26.631 -24.636  15.251  0.00  0.00    -0.251 OA
BRANCH  22  24
ATOM     24  C   LIG    1       24.400 -25.533  14.846  0.00  0.00    +0.121 C 
BRANCH  24  25
ATOM     25  C   LIG    1       23.638 -25.921  13.572  0.00  0.00    +0.015 C 
BRANCH  25  26
ATOM     26  C   LIG    1       22.377 -26.752  13.849  0.00  0.00    -0.010 C 
ATOM     27  C   LIG    1       22.065 -27.792  12.768  0.00  0.00    +0.003 C 
ATOM     28  C   LIG    1       21.294 -28.871  13.509  0.00  0.00    +0.000 C 
ATOM     29  C   LIG    1       22.061 -28.993  14.814  0.00  0.00    +0.000 C 
ATOM     30  C   LIG    1       22.462 -27.558  15.160  0.00  0.00    +0.003 C 
ENDBRANCH  25  26
ENDBRANCH  24  25
ENDBRANCH  22  24
ENDBRANCH  21  22
ENDBRANCH   3  21
TORSDOF 5
ENDMDL
MODEL 6
REMARK VINA RESULT:      -7.1      2.609      7.962
REMARK  Name = *****
REMARK                            x       y       z     vdW  Elec       q    Type
REMARK                         _______ _______ _______ _____ _____    ______ ____
ROOT
ATOM      1  C   LIG    1       26.839 -27.059   5.083  0.00  0.00    +0.015 C 
ATOM      2  C   LIG    1       25.766 -27.205   6.189  0.00  0.00    +0.008 C 
ATOM      3  C   LIG    1       25.463 -28.723   6.359  0.00  0.00    +0.183 C 
ATOM      4  C   LIG    1       24.504 -29.027   5.178  0.00  0.00    +0.045 C 
ATOM      5  C   LIG    1       23.894 -27.676   4.740  0.00  0.00    +0.008 C 
ATOM      6  C   LIG    1       24.348 -26.715   5.829  0.00  0.00    +0.002 C 
ATOM      7  C   LIG    1       24.138 -25.204   5.674  0.00  0.00    -0.003 C 
ATOM      8  C   LIG    1       24.708 -24.540   4.411  0.00  0.00    +0.008 C 
ATOM      9  C   LIG    1       24.459 -23.026   4.395  0.00  0.00    +0.032 C 
ATOM     10  C   LIG    1       24.959 -22.392   5.675  0.00  0.00    -0.060 C 
ATOM     11  C   LIG    1       24.376 -22.958   6.966  0.00  0.00    -0.007 C 
ATOM     12  C   LIG    1       22.838 -22.705   7.000  0.00  0.00    +0.016 C 
ATOM     13  C   LIG    1       24.921 -22.235   8.235  0.00  0.00    +0.019 C 
ATOM     14  C   LIG    1       26.340 -21.699   8.137  0.00  0.00    +0.080 C 
ATOM     15  C   LIG    1       26.547 -20.927   6.864  0.00  0.00    +0.156 C 
ATOM     16  O   LIG    1       27.311 -19.967   6.793  0.00  0.00    -0.293 OA
ATOM     17  C   LIG    1       25.904 -21.438   5.633  0.00  0.00    +0.046 C 
ATOM     18  C   LIG    1       24.625 -24.509   6.993  0.00  0.00    +0.002 C 
ATOM     19  C   LIG    1       26.077 -24.936   7.325  0.00  0.00    +0.005 C 
ATOM     20  C   LIG    1       26.240 -26.463   7.447  0.00  0.00    +0.011 C 
ENDROOT
BRANCH   3  21
ATOM     21  O   LIG    1       24.780 -28.953   7.615  0.00  0.00    -0.461 OA
BRANCH  21  22
ATOM     22  C   LIG    1       25.195 -30.018   8.357  0.00  0.00    +0.307 C 
ATOM     23  O   LIG    1       25.568 -31.089   7.894  0.00  0.00    -0.251 OA
BRANCH  22  24
ATOM     24  C   LIG    1       25.125 -29.675   9.832  0.00  0.00    +0.121 C 
BRANCH  24  25
ATOM     25  C   LIG    1       26.300 -28.801  10.286  0.00  0.00    +0.015 C 
BRANCH  25  26
ATOM     26  C   LIG    1       26.282 -28.494  11.791  0.00  0.00    -0.010 C 
ATOM     27  C   LIG    1       26.769 -27.086  12.147  0.00  0.00    +0.003 C 
ATOM     28  C   LIG    1       26.059 -26.772  13.454  0.00  0.00    +0.000 C 
ATOM     29  C   LIG    1       24.660 -27.307  13.209  0.00  0.00    +0.000 C 
ATOM     30  C   LIG    1       24.873 -28.593  12.409  0.00  0.00    +0.003 C 
ENDBRANCH  25  26
ENDBRANCH  24  25
ENDBRANCH  22  24
ENDBRANCH  21  22
ENDBRANCH   3  21
TORSDOF 5
ENDMDL
MODEL 7
REMARK VINA RESULT:      -7.1      4.584      8.938
REMARK  Name = *****
REMARK                            x       y       z     vdW  Elec       q    Type
REMARK                         _______ _______ _______ _____ _____    ______ ____
ROOT
ATOM      1  C   LIG    1       23.251 -22.713   7.200  0.00  0.00    +0.015 C 
ATOM      2  C   LIG    1       24.740 -22.549   6.810  0.00  0.00    +0.008 C 
ATOM      3  C   LIG    1       25.007 -21.030   6.587  0.00  0.00    +0.183 C 
ATOM      4  C   LIG    1       24.449 -20.778   5.161  0.00  0.00    +0.045 C 
ATOM      5  C   LIG    1       24.396 -22.151   4.454  0.00  0.00    +0.008 C 
ATOM      6  C   LIG    1       25.138 -23.071   5.413  0.00  0.00    +0.002 C 
ATOM      7  C   LIG    1       25.138 -24.589   5.197  0.00  0.00    -0.003 C 
ATOM      8  C   LIG    1       23.772 -25.284   5.088  0.00  0.00    +0.008 C 
ATOM      9  C   LIG    1       23.911 -26.801   4.907  0.00  0.00    +0.032 C 
ATOM     10  C   LIG    1       24.789 -27.387   5.991  0.00  0.00    -0.060 C 
ATOM     11  C   LIG    1       26.188 -26.789   6.105  0.00  0.00    -0.007 C 
ATOM     12  C   LIG    1       26.983 -27.064   4.793  0.00  0.00    +0.016 C 
ATOM     13  C   LIG    1       27.036 -27.464   7.226  0.00  0.00    +0.019 C 
ATOM     14  C   LIG    1       26.260 -27.982   8.427  0.00  0.00    +0.080 C 
ATOM     15  C   LIG    1       25.066 -28.790   7.999  0.00  0.00    +0.156 C 
ATOM     16  O   LIG    1       24.646 -29.740   8.656  0.00  0.00    -0.293 OA
ATOM     17  C   LIG    1       24.305 -28.328   6.819  0.00  0.00    +0.046 C 
ATOM     18  C   LIG    1       26.057 -25.235   6.292  0.00  0.00    +0.002 C 
ATOM     19  C   LIG    1       25.619 -24.776   7.705  0.00  0.00    +0.005 C 
ATOM     20  C   LIG    1       25.614 -23.244   7.863  0.00  0.00    +0.011 C 
ENDROOT
BRANCH   3  21
ATOM     21  O   LIG    1       26.431 -20.772   6.607  0.00  0.00    -0.461 OA
BRANCH  21  22
ATOM     22  C   LIG    1       26.992 -20.506   7.820  0.00  0.00    +0.307 C 
ATOM     23  O   LIG    1       26.367 -20.198   8.827  0.00  0.00    -0.251 OA
BRANCH  22  24
ATOM     24  C   LIG    1       28.499 -20.648   7.731  0.00  0.00    +0.121 C 
BRANCH  24  25
ATOM     25  C   LIG    1       29.103 -19.794   6.610  0.00  0.00    +0.015 C 
BRANCH  25  26
ATOM     26  C   LIG    1       30.042 -18.694   7.124  0.00  0.00    -0.010 C 
ATOM     27  C   LIG    1       29.596 -18.058   8.445  0.00  0.00    +0.003 C 
ATOM     28  C   LIG    1       30.892 -17.573   9.074  0.00  0.00    +0.000 C 
ATOM     29  C   LIG    1       31.847 -18.719   8.795  0.00  0.00    +0.000 C 
ATOM     30  C   LIG    1       31.473 -19.200   7.393  0.00  0.00    +0.003 C 
ENDBRANCH  25  26
ENDBRANCH  24  25
ENDBRANCH  22  24
ENDBRANCH  21  22
ENDBRANCH   3  21
TORSDOF 5
ENDMDL
MODEL 8
REMARK VINA RESULT:      -6.7      3.498      8.111
REMARK  Name = *****
REMARK                            x       y       z     vdW  Elec       q    Type
REMARK                         _______ _______ _______ _____ _____    ______ ____
ROOT
ATOM      1  C   LIG    1       26.839 -27.043   5.212  0.00  0.00    +0.015 C 
ATOM      2  C   LIG    1       25.725 -27.166   6.279  0.00  0.00    +0.008 C 
ATOM      3  C   LIG    1       25.420 -28.682   6.474  0.00  0.00    +0.183 C 
ATOM      4  C   LIG    1       24.508 -29.018   5.265  0.00  0.00    +0.045 C 
ATOM      5  C   LIG    1       23.912 -27.679   4.770  0.00  0.00    +0.008 C 
ATOM      6  C   LIG    1       24.320 -26.691   5.852  0.00  0.00    +0.002 C 
ATOM      7  C   LIG    1       24.111 -25.185   5.654  0.00  0.00    -0.003 C 
ATOM      8  C   LIG    1       24.728 -24.549   4.398  0.00  0.00    +0.008 C 
ATOM      9  C   LIG    1       24.476 -23.037   4.336  0.00  0.00    +0.032 C 
ATOM     10  C   LIG    1       24.923 -22.370   5.619  0.00  0.00    -0.060 C 
ATOM     11  C   LIG    1       24.292 -22.908   6.899  0.00  0.00    -0.007 C 
ATOM     12  C   LIG    1       22.754 -22.660   6.868  0.00  0.00    +0.016 C 
ATOM     13  C   LIG    1       24.785 -22.152   8.171  0.00  0.00    +0.019 C 
ATOM     14  C   LIG    1       26.206 -21.613   8.115  0.00  0.00    +0.080 C 
ATOM     15  C   LIG    1       26.459 -20.871   6.832  0.00  0.00    +0.156 C 
ATOM     16  O   LIG    1       27.223 -19.911   6.768  0.00  0.00    -0.293 OA
ATOM     17  C   LIG    1       25.866 -21.414   5.591  0.00  0.00    +0.046 C 
ATOM     18  C   LIG    1       24.545 -24.456   6.974  0.00  0.00    +0.002 C 
ATOM     19  C   LIG    1       25.985 -24.870   7.372  0.00  0.00    +0.005 C 
ATOM     20  C   LIG    1       26.147 -26.392   7.536  0.00  0.00    +0.011 C 
ENDROOT
BRANCH   3  21
ATOM     21  O   LIG    1       24.690 -28.883   7.708  0.00  0.00    -0.461 OA
BRANCH  21  22
ATOM     22  C   LIG    1       25.248 -29.724   8.623  0.00  0.00    +0.307 C 
ATOM     23  O   LIG    1       26.342 -29.561   9.148  0.00  0.00    -0.251 OA
BRANCH  22  24
ATOM     24  C   LIG    1       24.311 -30.886   8.890  0.00  0.00    +0.121 C 
BRANCH  24  25
ATOM     25  C   LIG    1       25.056 -32.221   9.019  0.00  0.00    +0.015 C 
BRANCH  25  26
ATOM     26  C   LIG    1       25.302 -32.911   7.670  0.00  0.00    -0.010 C 
ATOM     27  C   LIG    1       24.308 -32.515   6.574  0.00  0.00    +0.003 C 
ATOM     28  C   LIG    1       25.083 -32.721   5.283  0.00  0.00    +0.000 C 
ATOM     29  C   LIG    1       26.455 -32.169   5.627  0.00  0.00    +0.000 C 
ATOM     30  C   LIG    1       26.690 -32.597   7.076  0.00  0.00    +0.003 C 
ENDBRANCH  25  26
ENDBRANCH  24  25
ENDBRANCH  22  24
ENDBRANCH  21  22
ENDBRANCH   3  21
TORSDOF 5
ENDMDL
MODEL 9
REMARK VINA RESULT:      -6.6      3.910      6.562
REMARK  Name = *****
REMARK                            x       y       z     vdW  Elec       q    Type
REMARK                         _______ _______ _______ _____ _____    ______ ____
ROOT
ATOM      1  C   LIG    1       24.230 -32.606  11.179  0.00  0.00    +0.015 C 
ATOM      2  C   LIG    1       23.596 -31.553  12.120  0.00  0.00    +0.008 C 
ATOM      3  C   LIG    1       22.070 -31.855  12.210  0.00  0.00    +0.183 C 
ATOM      4  C   LIG    1       21.510 -31.243  10.899  0.00  0.00    +0.045 C 
ATOM      5  C   LIG    1       22.550 -30.208  10.411  0.00  0.00    +0.008 C 
ATOM      6  C   LIG    1       23.525 -30.111  11.575  0.00  0.00    +0.002 C 
ATOM      7  C   LIG    1       24.843 -29.343  11.428  0.00  0.00    -0.003 C 
ATOM      8  C   LIG    1       25.771 -29.752  10.274  0.00  0.00    +0.008 C 
ATOM      9  C   LIG    1       27.067 -28.931  10.258  0.00  0.00    +0.032 C 
ATOM     10  C   LIG    1       27.745 -28.983  11.610  0.00  0.00    -0.060 C 
ATOM     11  C   LIG    1       26.900 -28.519  12.792  0.00  0.00    -0.007 C 
ATOM     12  C   LIG    1       26.535 -27.015  12.616  0.00  0.00    +0.016 C 
ATOM     13  C   LIG    1       27.678 -28.578  14.142  0.00  0.00    +0.019 C 
ATOM     14  C   LIG    1       28.728 -29.673  14.257  0.00  0.00    +0.080 C 
ATOM     15  C   LIG    1       29.615 -29.709  13.044  0.00  0.00    +0.156 C 
ATOM     16  O   LIG    1       30.798 -30.036  13.103  0.00  0.00    -0.293 OA
ATOM     17  C   LIG    1       28.991 -29.473  11.724  0.00  0.00    +0.046 C 
ATOM     18  C   LIG    1       25.570 -29.355  12.818  0.00  0.00    +0.002 C 
ATOM     19  C   LIG    1       25.714 -30.806  13.341  0.00  0.00    +0.005 C 
ATOM     20  C   LIG    1       24.365 -31.541  13.449  0.00  0.00    +0.011 C 
ENDROOT
BRANCH   3  21
ATOM     21  O   LIG    1       21.499 -31.172  13.352  0.00  0.00    -0.461 OA
BRANCH  21  22
ATOM     22  C   LIG    1       20.142 -31.058  13.385  0.00  0.00    +0.307 C 
ATOM     23  O   LIG    1       19.357 -31.957  13.109  0.00  0.00    -0.251 OA
BRANCH  22  24
ATOM     24  C   LIG    1       19.755 -29.656  13.815  0.00  0.00    +0.121 C 
BRANCH  24  25
ATOM     25  C   LIG    1       20.526 -28.576  13.046  0.00  0.00    +0.015 C 
BRANCH  25  26
ATOM     26  C   LIG    1       21.309 -27.623  13.961  0.00  0.00    -0.010 C 
ATOM     27  C   LIG    1       22.500 -28.275  14.670  0.00  0.00    +0.003 C 
ATOM     28  C   LIG    1       23.457 -27.120  14.916  0.00  0.00    +0.000 C 
ATOM     29  C   LIG    1       23.379 -26.340  13.616  0.00  0.00    +0.000 C 
ATOM     30  C   LIG    1       21.908 -26.419  13.207  0.00  0.00    +0.003 C 
ENDBRANCH  25  26
ENDBRANCH  24  25
ENDBRANCH  22  24
ENDBRANCH  21  22
ENDBRANCH   3  21
TORSDOF 5
ENDMDL
