MODEL 1
REMARK VINA RESULT:      -7.5      0.000      0.000
REMARK  Name = *****
REMARK                            x       y       z     vdW  Elec       q    Type
REMARK                         _______ _______ _______ _____ _____    ______ ____
ROOT
ATOM      1  N   LIG    1       28.418 -20.131   7.141  0.00  0.00    -0.287 NA
ATOM      2  C   LIG    1       28.062 -21.411   7.769  0.00  0.00    +0.108 C 
ATOM      3  C   LIG    1       26.541 -21.583   7.992  0.00  0.00    +0.039 C 
ATOM      4  C   LIG    1       26.257 -22.982   8.565  0.00  0.00    +0.030 C 
ATOM      5  C   LIG    1       25.872 -21.449   6.618  0.00  0.00    +0.108 C 
ATOM      6  N   LIG    1       26.228 -20.220   5.920  0.00  0.00    -0.287 NA
ATOM      7  C   LIG    1       27.649 -19.869   5.900  0.00  0.00    +0.171 C 
ENDROOT
BRANCH   3   8
ATOM      8  N   LIG    1       25.977 -20.577   8.924  0.00  0.00    -0.323 NA
ATOM      9  H   LIG    1       26.711 -20.195   9.492  0.00  0.00    +0.119 HD
ATOM     10  H   LIG    1       25.681 -19.788   8.324  0.00  0.00    +0.119 HD
ENDBRANCH   3   8
BRANCH   1  11
ATOM     11  C   LIG    1       29.882 -20.065   6.829  0.00  0.00    +0.089 C 
BRANCH  11  12
ATOM     12  C   LIG    1       30.868 -19.228   7.730  0.00  0.00    +0.003 C 
BRANCH  12  13
ATOM     13  C   LIG    1       31.546 -20.028   8.866  0.00  0.00    +0.001 C 
ATOM     14  C   LIG    1       31.261 -21.516   8.935  0.00  0.00    +0.004 C 
ENDBRANCH  12  13
BRANCH  12  15
ATOM     15  C   LIG    1       30.091 -18.017   8.374  0.00  0.00    +0.005 C 
BRANCH  15  16
ATOM     16  C   LIG    1       30.280 -17.873   9.901  0.00  0.00    +0.000 C 
BRANCH  16  18
ATOM     17  C   LIG    1       32.278 -16.297   9.608  0.00  0.00    +0.004 C 
ATOM     18  C   LIG    1       30.978 -16.579  10.346  0.00  0.00    -0.003 C 
ENDBRANCH  16  18
ENDBRANCH  15  16
ENDBRANCH  12  15
ENDBRANCH  11  12
ENDBRANCH   1  11
BRANCH   6  19
ATOM     19  C   LIG    1       25.583 -20.156   4.583  0.00  0.00    +0.089 C 
BRANCH  19  20
ATOM     20  C   LIG    1       24.016 -20.113   4.438  0.00  0.00    +0.003 C 
BRANCH  20  21
ATOM     21  C   LIG    1       23.578 -18.740   3.855  0.00  0.00    +0.001 C 
ATOM     22  C   LIG    1       22.206 -18.257   4.328  0.00  0.00    +0.004 C 
ENDBRANCH  20  21
BRANCH  20  23
ATOM     23  C   LIG    1       23.184 -20.477   5.695  0.00  0.00    +0.005 C 
BRANCH  23  24
ATOM     24  C   LIG    1       22.446 -21.827   5.676  0.00  0.00    +0.000 C 
BRANCH  24  25
ATOM     25  C   LIG    1       22.687 -22.669   6.940  0.00  0.00    -0.003 C 
ATOM     26  C   LIG    1       23.228 -24.062   6.648  0.00  0.00    +0.004 C 
ENDBRANCH  24  25
ENDBRANCH  23  24
ENDBRANCH  20  23
ENDBRANCH  19  20
ENDBRANCH   6  19
TORSDOF 13
ENDMDL
MODEL 2
REMARK VINA RESULT:      -7.3      2.992      7.107
REMARK  Name = *****
REMARK                            x       y       z     vdW  Elec       q    Type
REMARK                         _______ _______ _______ _____ _____    ______ ____
ROOT
ATOM      1  N   LIG    1       23.851 -21.612   6.970  0.00  0.00    -0.287 NA
ATOM      2  C   LIG    1       25.015 -20.719   7.057  0.00  0.00    +0.108 C 
ATOM      3  C   LIG    1       26.172 -21.299   7.905  0.00  0.00    +0.039 C 
ATOM      4  C   LIG    1       27.376 -20.342   7.863  0.00  0.00    +0.030 C 
ATOM      5  C   LIG    1       26.563 -22.638   7.266  0.00  0.00    +0.108 C 
ATOM      6  N   LIG    1       25.438 -23.550   7.103  0.00  0.00    -0.287 NA
ATOM      7  C   LIG    1       24.214 -22.983   6.536  0.00  0.00    +0.171 C 
ENDROOT
BRANCH   3   8
ATOM      8  N   LIG    1       25.798 -21.512   9.324  0.00  0.00    -0.323 NA
ATOM      9  H   LIG    1       24.813 -21.356   9.440  0.00  0.00    +0.119 HD
ATOM     10  H   LIG    1       25.917 -22.527   9.486  0.00  0.00    +0.119 HD
ENDBRANCH   3   8
BRANCH   1  11
ATOM     11  C   LIG    1       22.813 -21.065   6.038  0.00  0.00    +0.089 C 
BRANCH  11  12
ATOM     12  C   LIG    1       23.184 -19.982   4.955  0.00  0.00    +0.003 C 
BRANCH  12  13
ATOM     13  C   LIG    1       22.016 -19.059   4.534  0.00  0.00    +0.001 C 
ATOM     14  C   LIG    1       22.271 -17.565   4.548  0.00  0.00    +0.004 C 
ENDBRANCH  12  13
BRANCH  12  15
ATOM     15  C   LIG    1       23.738 -20.698   3.664  0.00  0.00    +0.005 C 
BRANCH  15  16
ATOM     16  C   LIG    1       24.860 -19.925   2.934  0.00  0.00    +0.000 C 
BRANCH  16  18
ATOM     17  C   LIG    1       25.829 -17.583   3.304  0.00  0.00    +0.004 C 
ATOM     18  C   LIG    1       25.699 -19.004   3.833  0.00  0.00    -0.003 C 
ENDBRANCH  16  18
ENDBRANCH  15  16
ENDBRANCH  12  15
ENDBRANCH  11  12
ENDBRANCH   1  11
BRANCH   6  19
ATOM     19  C   LIG    1       25.863 -24.815   6.449  0.00  0.00    +0.089 C 
BRANCH  19  20
ATOM     20  C   LIG    1       25.295 -26.205   6.920  0.00  0.00    +0.003 C 
BRANCH  20  21
ATOM     21  C   LIG    1       26.468 -27.155   7.294  0.00  0.00    +0.001 C 
ATOM     22  C   LIG    1       26.188 -28.074   8.485  0.00  0.00    +0.004 C 
ENDBRANCH  20  21
BRANCH  20  23
ATOM     23  C   LIG    1       24.286 -26.909   5.974  0.00  0.00    +0.005 C 
BRANCH  23  24
ATOM     24  C   LIG    1       24.821 -28.081   5.133  0.00  0.00    +0.000 C 
BRANCH  24  25
ATOM     25  C   LIG    1       24.235 -29.441   5.546  0.00  0.00    -0.003 C 
ATOM     26  C   LIG    1       25.286 -30.529   5.716  0.00  0.00    +0.004 C 
ENDBRANCH  24  25
ENDBRANCH  23  24
ENDBRANCH  20  23
ENDBRANCH  19  20
ENDBRANCH   6  19
TORSDOF 13
ENDMDL
MODEL 3
REMARK VINA RESULT:      -7.3      2.105      3.818
REMARK  Name = *****
REMARK                            x       y       z     vdW  Elec       q    Type
REMARK                         _______ _______ _______ _____ _____    ______ ____
ROOT
ATOM      1  N   LIG    1       27.279 -21.070   7.358  0.00  0.00    -0.287 NA
ATOM      2  C   LIG    1       26.860 -22.478   7.354  0.00  0.00    +0.108 C 
ATOM      3  C   LIG    1       25.362 -22.672   7.021  0.00  0.00    +0.039 C 
ATOM      4  C   LIG    1       25.037 -24.174   6.949  0.00  0.00    +0.030 C 
ATOM      5  C   LIG    1       25.126 -22.033   5.646  0.00  0.00    +0.108 C 
ATOM      6  N   LIG    1       25.572 -20.647   5.569  0.00  0.00    -0.287 NA
ATOM      7  C   LIG    1       26.899 -20.356   6.115  0.00  0.00    +0.171 C 
ENDROOT
BRANCH   3   8
ATOM      8  N   LIG    1       24.463 -22.050   8.023  0.00  0.00    -0.323 NA
ATOM      9  H   LIG    1       24.874 -21.201   8.364  0.00  0.00    +0.119 HD
ATOM     10  H   LIG    1       23.635 -21.736   7.486  0.00  0.00    +0.119 HD
ENDBRANCH   3   8
BRANCH   1  11
ATOM     11  C   LIG    1       28.759 -20.942   7.559  0.00  0.00    +0.089 C 
BRANCH  11  12
ATOM     12  C   LIG    1       29.450 -19.528   7.637  0.00  0.00    +0.003 C 
BRANCH  12  13
ATOM     13  C   LIG    1       30.158 -19.080   6.337  0.00  0.00    +0.001 C 
ATOM     14  C   LIG    1       29.361 -18.225   5.370  0.00  0.00    +0.004 C 
ENDBRANCH  12  13
BRANCH  12  15
ATOM     15  C   LIG    1       30.509 -19.524   8.804  0.00  0.00    +0.005 C 
BRANCH  15  16
ATOM     16  C   LIG    1       31.655 -18.502   8.626  0.00  0.00    +0.000 C 
BRANCH  16  18
ATOM     17  C   LIG    1       30.434 -17.208  10.469  0.00  0.00    +0.004 C 
ATOM     18  C   LIG    1       31.425 -17.149   9.316  0.00  0.00    -0.003 C 
ENDBRANCH  16  18
ENDBRANCH  15  16
ENDBRANCH  12  15
ENDBRANCH  11  12
ENDBRANCH   1  11
BRANCH   6  19
ATOM     19  C   LIG    1       25.354 -20.088   4.210  0.00  0.00    +0.089 C 
BRANCH  19  20
ATOM     20  C   LIG    1       24.846 -18.612   4.010  0.00  0.00    +0.003 C 
BRANCH  20  21
ATOM     21  C   LIG    1       23.387 -18.624   3.473  0.00  0.00    +0.001 C 
ATOM     22  C   LIG    1       22.309 -18.598   4.558  0.00  0.00    +0.004 C 
ENDBRANCH  20  21
BRANCH  20  23
ATOM     23  C   LIG    1       25.743 -17.668   3.167  0.00  0.00    +0.005 C 
BRANCH  23  24
ATOM     24  C   LIG    1       25.576 -16.156   3.400  0.00  0.00    +0.000 C 
BRANCH  24  25
ATOM     25  C   LIG    1       26.913 -15.397   3.438  0.00  0.00    -0.003 C 
ATOM     26  C   LIG    1       26.851 -14.096   4.226  0.00  0.00    +0.004 C 
ENDBRANCH  24  25
ENDBRANCH  23  24
ENDBRANCH  20  23
ENDBRANCH  19  20
ENDBRANCH   6  19
TORSDOF 13
ENDMDL
MODEL 4
REMARK VINA RESULT:      -7.2      2.546      5.802
REMARK  Name = *****
REMARK                            x       y       z     vdW  Elec       q    Type
REMARK                         _______ _______ _______ _____ _____    ______ ____
ROOT
ATOM      1  N   LIG    1       26.309 -20.224   5.811  0.00  0.00    -0.287 NA
ATOM      2  C   LIG    1       27.759 -20.176   6.049  0.00  0.00    +0.108 C 
ATOM      3  C   LIG    1       28.169 -20.709   7.443  0.00  0.00    +0.039 C 
ATOM      4  C   LIG    1       29.702 -20.707   7.568  0.00  0.00    +0.030 C 
ATOM      5  C   LIG    1       27.651 -22.150   7.538  0.00  0.00    +0.108 C 
ATOM      6  N   LIG    1       26.226 -22.271   7.259  0.00  0.00    -0.287 NA
ATOM      7  C   LIG    1       25.729 -21.563   6.078  0.00  0.00    +0.171 C 
ENDROOT
BRANCH   3   8
ATOM      8  N   LIG    1       27.612 -19.902   8.556  0.00  0.00    -0.323 NA
ATOM      9  H   LIG    1       28.345 -19.662   9.198  0.00  0.00    +0.119 HD
ATOM     10  H   LIG    1       27.342 -18.999   8.128  0.00  0.00    +0.119 HD
ENDBRANCH   3   8
BRANCH   1  11
ATOM     11  C   LIG    1       25.975 -19.820   4.407  0.00  0.00    +0.089 C 
BRANCH  11  12
ATOM     12  C   LIG    1       24.929 -18.678   4.117  0.00  0.00    +0.003 C 
BRANCH  12  13
ATOM     13  C   LIG    1       23.542 -19.174   3.644  0.00  0.00    +0.001 C 
ATOM     14  C   LIG    1       22.338 -18.763   4.469  0.00  0.00    +0.004 C 
ENDBRANCH  12  13
BRANCH  12  15
ATOM     15  C   LIG    1       25.505 -17.702   3.022  0.00  0.00    +0.005 C 
BRANCH  15  16
ATOM     16  C   LIG    1       26.555 -16.697   3.547  0.00  0.00    +0.000 C 
BRANCH  16  18
ATOM     17  C   LIG    1       27.349 -14.284   3.215  0.00  0.00    +0.004 C 
ATOM     18  C   LIG    1       26.162 -15.219   3.402  0.00  0.00    -0.003 C 
ENDBRANCH  16  18
ENDBRANCH  15  16
ENDBRANCH  12  15
ENDBRANCH  11  12
ENDBRANCH   1  11
BRANCH   6  19
ATOM     19  C   LIG    1       25.784 -23.687   7.329  0.00  0.00    +0.089 C 
BRANCH  19  20
ATOM     20  C   LIG    1       24.986 -24.350   6.146  0.00  0.00    +0.003 C 
BRANCH  20  21
ATOM     21  C   LIG    1       23.503 -24.562   6.562  0.00  0.00    +0.001 C 
ATOM     22  C   LIG    1       22.713 -23.270   6.781  0.00  0.00    +0.004 C 
ENDBRANCH  20  21
BRANCH  20  23
ATOM     23  C   LIG    1       25.584 -25.645   5.533  0.00  0.00    +0.005 C 
BRANCH  23  24
ATOM     24  C   LIG    1       26.230 -26.643   6.509  0.00  0.00    +0.000 C 
BRANCH  24  25
ATOM     25  C   LIG    1       25.349 -27.871   6.794  0.00  0.00    -0.003 C 
ATOM     26  C   LIG    1       24.328 -28.153   5.700  0.00  0.00    +0.004 C 
ENDBRANCH  24  25
ENDBRANCH  23  24
ENDBRANCH  20  23
ENDBRANCH  19  20
ENDBRANCH   6  19
TORSDOF 13
ENDMDL
MODEL 5
REMARK VINA RESULT:      -7.1      3.028      5.097
REMARK  Name = *****
REMARK                            x       y       z     vdW  Elec       q    Type
REMARK                         _______ _______ _______ _____ _____    ______ ____
ROOT
ATOM      1  N   LIG    1       26.607 -21.532   6.776  0.00  0.00    -0.287 NA
ATOM      2  C   LIG    1       25.370 -20.739   6.743  0.00  0.00    +0.108 C 
ATOM      3  C   LIG    1       24.315 -21.288   5.754  0.00  0.00    +0.039 C 
ATOM      4  C   LIG    1       23.026 -20.454   5.855  0.00  0.00    +0.030 C 
ATOM      5  C   LIG    1       24.021 -22.734   6.176  0.00  0.00    +0.108 C 
ATOM      6  N   LIG    1       25.217 -23.560   6.278  0.00  0.00    -0.287 NA
ATOM      7  C   LIG    1       26.354 -22.977   6.992  0.00  0.00    +0.171 C 
ENDROOT
BRANCH   3   8
ATOM      8  N   LIG    1       24.776 -21.262   4.345  0.00  0.00    -0.323 NA
ATOM      9  H   LIG    1       23.982 -21.224   3.731  0.00  0.00    +0.119 HD
ATOM     10  H   LIG    1       25.234 -20.342   4.227  0.00  0.00    +0.119 HD
ENDBRANCH   3   8
BRANCH   1  11
ATOM     11  C   LIG    1       27.542 -21.037   7.837  0.00  0.00    +0.089 C 
BRANCH  11  12
ATOM     12  C   LIG    1       28.688 -20.010   7.495  0.00  0.00    +0.003 C 
BRANCH  12  13
ATOM     13  C   LIG    1       28.902 -19.758   5.984  0.00  0.00    +0.001 C 
ATOM     14  C   LIG    1       29.351 -18.371   5.567  0.00  0.00    +0.004 C 
ENDBRANCH  12  13
BRANCH  12  15
ATOM     15  C   LIG    1       30.048 -20.515   8.109  0.00  0.00    +0.005 C 
BRANCH  15  16
ATOM     16  C   LIG    1       30.872 -19.423   8.827  0.00  0.00    +0.000 C 
BRANCH  16  18
ATOM     17  C   LIG    1       30.652 -17.397  10.379  0.00  0.00    +0.004 C 
ATOM     18  C   LIG    1       30.086 -18.153   9.186  0.00  0.00    -0.003 C 
ENDBRANCH  16  18
ENDBRANCH  15  16
ENDBRANCH  12  15
ENDBRANCH  11  12
ENDBRANCH   1  11
BRANCH   6  19
ATOM     19  C   LIG    1       24.881 -24.937   6.723  0.00  0.00    +0.089 C 
BRANCH  19  20
ATOM     20  C   LIG    1       25.824 -26.152   6.388  0.00  0.00    +0.003 C 
BRANCH  20  21
ATOM     21  C   LIG    1       25.776 -26.453   4.863  0.00  0.00    +0.001 C 
ATOM     22  C   LIG    1       26.794 -27.491   4.387  0.00  0.00    +0.004 C 
ENDBRANCH  20  21
BRANCH  20  23
ATOM     23  C   LIG    1       25.623 -27.447   7.219  0.00  0.00    +0.005 C 
BRANCH  23  24
ATOM     24  C   LIG    1       24.426 -28.338   6.842  0.00  0.00    +0.000 C 
BRANCH  24  25
ATOM     25  C   LIG    1       24.689 -29.836   7.069  0.00  0.00    -0.003 C 
ATOM     26  C   LIG    1       25.266 -30.543   5.851  0.00  0.00    +0.004 C 
ENDBRANCH  24  25
ENDBRANCH  23  24
ENDBRANCH  20  23
ENDBRANCH  19  20
ENDBRANCH   6  19
TORSDOF 13
ENDMDL
MODEL 6
REMARK VINA RESULT:      -7.1      3.097      8.256
REMARK  Name = *****
REMARK                            x       y       z     vdW  Elec       q    Type
REMARK                         _______ _______ _______ _____ _____    ______ ____
ROOT
ATOM      1  N   LIG    1       24.664 -23.664   6.607  0.00  0.00    -0.287 NA
ATOM      2  C   LIG    1       23.935 -22.616   5.879  0.00  0.00    +0.108 C 
ATOM      3  C   LIG    1       23.959 -21.243   6.594  0.00  0.00    +0.039 C 
ATOM      4  C   LIG    1       23.255 -20.192   5.719  0.00  0.00    +0.030 C 
ATOM      5  C   LIG    1       25.434 -20.858   6.767  0.00  0.00    +0.108 C 
ATOM      6  N   LIG    1       26.224 -21.884   7.437  0.00  0.00    -0.287 NA
ATOM      7  C   LIG    1       26.044 -23.258   6.966  0.00  0.00    +0.171 C 
ENDROOT
BRANCH   3   8
ATOM      8  N   LIG    1       23.289 -21.270   7.917  0.00  0.00    -0.323 NA
ATOM      9  H   LIG    1       23.972 -21.151   8.643  0.00  0.00    +0.119 HD
ATOM     10  H   LIG    1       22.725 -20.403   7.952  0.00  0.00    +0.119 HD
ENDBRANCH   3   8
BRANCH   1  11
ATOM     11  C   LIG    1       24.720 -24.936   5.817  0.00  0.00    +0.089 C 
BRANCH  11  12
ATOM     12  C   LIG    1       25.255 -26.271   6.462  0.00  0.00    +0.003 C 
BRANCH  12  13
ATOM     13  C   LIG    1       26.659 -26.705   5.983  0.00  0.00    +0.001 C 
ATOM     14  C   LIG    1       26.769 -27.285   4.586  0.00  0.00    +0.004 C 
ENDBRANCH  12  13
BRANCH  12  15
ATOM     15  C   LIG    1       24.245 -27.442   6.160  0.00  0.00    +0.005 C 
BRANCH  15  16
ATOM     16  C   LIG    1       24.522 -28.745   6.943  0.00  0.00    +0.000 C 
BRANCH  16  18
ATOM     17  C   LIG    1       25.464 -30.643   5.503  0.00  0.00    +0.004 C 
ATOM     18  C   LIG    1       24.234 -30.039   6.166  0.00  0.00    -0.003 C 
ENDBRANCH  16  18
ENDBRANCH  15  16
ENDBRANCH  12  15
ENDBRANCH  11  12
ENDBRANCH   1  11
BRANCH   6  19
ATOM     19  C   LIG    1       27.648 -21.477   7.548  0.00  0.00    +0.089 C 
BRANCH  19  20
ATOM     20  C   LIG    1       28.096 -19.996   7.255  0.00  0.00    +0.003 C 
BRANCH  20  21
ATOM     21  C   LIG    1       28.585 -19.874   5.783  0.00  0.00    +0.001 C 
ATOM     22  C   LIG    1       29.099 -18.486   5.397  0.00  0.00    +0.004 C 
ENDBRANCH  20  21
BRANCH  20  23
ATOM     23  C   LIG    1       29.117 -19.363   8.236  0.00  0.00    +0.005 C 
BRANCH  23  24
ATOM     24  C   LIG    1       30.520 -19.994   8.285  0.00  0.00    +0.000 C 
BRANCH  24  25
ATOM     25  C   LIG    1       31.578 -19.073   8.913  0.00  0.00    -0.003 C 
ATOM     26  C   LIG    1       30.999 -18.063   9.894  0.00  0.00    +0.004 C 
ENDBRANCH  24  25
ENDBRANCH  23  24
ENDBRANCH  20  23
ENDBRANCH  19  20
ENDBRANCH   6  19
TORSDOF 13
ENDMDL
MODEL 7
REMARK VINA RESULT:      -7.0      2.221      7.043
REMARK  Name = *****
REMARK                            x       y       z     vdW  Elec       q    Type
REMARK                         _______ _______ _______ _____ _____    ______ ____
ROOT
ATOM      1  N   LIG    1       25.340 -21.061   4.522  0.00  0.00    -0.287 NA
ATOM      2  C   LIG    1       24.173 -21.722   5.122  0.00  0.00    +0.108 C 
ATOM      3  C   LIG    1       24.545 -22.732   6.235  0.00  0.00    +0.039 C 
ATOM      4  C   LIG    1       23.262 -23.302   6.865  0.00  0.00    +0.030 C 
ATOM      5  C   LIG    1       25.332 -21.953   7.296  0.00  0.00    +0.108 C 
ATOM      6  N   LIG    1       26.475 -21.230   6.753  0.00  0.00    -0.287 NA
ATOM      7  C   LIG    1       26.238 -20.454   5.535  0.00  0.00    +0.171 C 
ENDROOT
BRANCH   3   8
ATOM      8  N   LIG    1       25.361 -23.865   5.736  0.00  0.00    -0.323 NA
ATOM      9  H   LIG    1       25.307 -24.629   6.384  0.00  0.00    +0.119 HD
ATOM     10  H   LIG    1       24.864 -24.207   4.895  0.00  0.00    +0.119 HD
ENDBRANCH   3   8
BRANCH   1  11
ATOM     11  C   LIG    1       24.924 -20.004   3.544  0.00  0.00    +0.089 C 
BRANCH  11  12
ATOM     12  C   LIG    1       24.756 -18.503   3.993  0.00  0.00    +0.003 C 
BRANCH  12  13
ATOM     13  C   LIG    1       23.329 -17.931   3.819  0.00  0.00    +0.001 C 
ATOM     14  C   LIG    1       22.200 -18.651   4.529  0.00  0.00    +0.004 C 
ENDBRANCH  12  13
BRANCH  12  15
ATOM     15  C   LIG    1       25.755 -17.595   3.180  0.00  0.00    +0.005 C 
BRANCH  15  16
ATOM     16  C   LIG    1       25.558 -16.077   3.389  0.00  0.00    +0.000 C 
BRANCH  16  18
ATOM     17  C   LIG    1       26.833 -14.018   2.555  0.00  0.00    +0.004 C 
ATOM     18  C   LIG    1       26.856 -15.258   3.438  0.00  0.00    -0.003 C 
ENDBRANCH  16  18
ENDBRANCH  15  16
ENDBRANCH  12  15
ENDBRANCH  11  12
ENDBRANCH   1  11
BRANCH   6  19
ATOM     19  C   LIG    1       27.181 -20.467   7.814  0.00  0.00    +0.089 C 
BRANCH  19  20
ATOM     20  C   LIG    1       28.672 -19.999   7.624  0.00  0.00    +0.003 C 
BRANCH  20  21
ATOM     21  C   LIG    1       29.604 -21.239   7.516  0.00  0.00    +0.001 C 
ATOM     22  C   LIG    1       30.435 -21.521   8.769  0.00  0.00    +0.004 C 
ENDBRANCH  20  21
BRANCH  20  23
ATOM     23  C   LIG    1       29.223 -18.975   8.651  0.00  0.00    +0.005 C 
BRANCH  23  24
ATOM     24  C   LIG    1       30.349 -18.043   8.169  0.00  0.00    +0.000 C 
BRANCH  24  25
ATOM     25  C   LIG    1       31.076 -17.325   9.319  0.00  0.00    -0.003 C 
ATOM     26  C   LIG    1       30.343 -17.413  10.650  0.00  0.00    +0.004 C 
ENDBRANCH  24  25
ENDBRANCH  23  24
ENDBRANCH  20  23
ENDBRANCH  19  20
ENDBRANCH   6  19
TORSDOF 13
ENDMDL
MODEL 8
REMARK VINA RESULT:      -6.7      3.001      4.982
REMARK  Name = *****
REMARK                            x       y       z     vdW  Elec       q    Type
REMARK                         _______ _______ _______ _____ _____    ______ ____
ROOT
ATOM      1  N   LIG    1       26.762 -21.670   6.911  0.00  0.00    -0.287 NA
ATOM      2  C   LIG    1       25.579 -20.798   6.899  0.00  0.00    +0.108 C 
ATOM      3  C   LIG    1       24.517 -21.218   5.855  0.00  0.00    +0.039 C 
ATOM      4  C   LIG    1       23.281 -20.310   5.978  0.00  0.00    +0.030 C 
ATOM      5  C   LIG    1       24.122 -22.665   6.180  0.00  0.00    +0.108 C 
ATOM      6  N   LIG    1       25.261 -23.571   6.258  0.00  0.00    -0.287 NA
ATOM      7  C   LIG    1       26.413 -23.106   7.032  0.00  0.00    +0.171 C 
ENDROOT
BRANCH   3   8
ATOM      8  N   LIG    1       25.016 -21.136   4.461  0.00  0.00    -0.323 NA
ATOM      9  H   LIG    1       26.019 -21.109   4.462  0.00  0.00    +0.119 HD
ATOM     10  H   LIG    1       24.786 -22.052   4.036  0.00  0.00    +0.119 HD
ENDBRANCH   3   8
BRANCH   1  11
ATOM     11  C   LIG    1       27.699 -21.301   8.021  0.00  0.00    +0.089 C 
BRANCH  11  12
ATOM     12  C   LIG    1       29.248 -21.167   7.765  0.00  0.00    +0.003 C 
BRANCH  12  13
ATOM     13  C   LIG    1       30.132 -21.383   9.016  0.00  0.00    +0.001 C 
ATOM     14  C   LIG    1       31.306 -22.334   8.882  0.00  0.00    +0.004 C 
ENDBRANCH  12  13
BRANCH  12  15
ATOM     15  C   LIG    1       29.563 -19.738   7.178  0.00  0.00    +0.005 C 
BRANCH  15  16
ATOM     16  C   LIG    1       31.056 -19.343   7.220  0.00  0.00    +0.000 C 
BRANCH  16  18
ATOM     17  C   LIG    1       30.239 -17.778   9.076  0.00  0.00    +0.004 C 
ATOM     18  C   LIG    1       31.389 -18.176   8.161  0.00  0.00    -0.003 C 
ENDBRANCH  16  18
ENDBRANCH  15  16
ENDBRANCH  12  15
ENDBRANCH  11  12
ENDBRANCH   1  11
BRANCH   6  19
ATOM     19  C   LIG    1       24.828 -24.948   6.609  0.00  0.00    +0.089 C 
BRANCH  19  20
ATOM     20  C   LIG    1       25.763 -26.186   6.347  0.00  0.00    +0.003 C 
BRANCH  20  21
ATOM     21  C   LIG    1       25.790 -26.516   4.827  0.00  0.00    +0.001 C 
ATOM     22  C   LIG    1       26.905 -27.474   4.404  0.00  0.00    +0.004 C 
ENDBRANCH  20  21
BRANCH  20  23
ATOM     23  C   LIG    1       25.494 -27.461   7.190  0.00  0.00    +0.005 C 
BRANCH  23  24
ATOM     24  C   LIG    1       24.385 -28.404   6.691  0.00  0.00    +0.000 C 
BRANCH  24  25
ATOM     25  C   LIG    1       24.702 -29.890   6.925  0.00  0.00    -0.003 C 
ATOM     26  C   LIG    1       25.366 -30.565   5.732  0.00  0.00    +0.004 C 
ENDBRANCH  24  25
ENDBRANCH  23  24
ENDBRANCH  20  23
ENDBRANCH  19  20
ENDBRANCH   6  19
TORSDOF 13
ENDMDL
MODEL 9
REMARK VINA RESULT:      -6.7      1.704      5.613
REMARK  Name = *****
REMARK                            x       y       z     vdW  Elec       q    Type
REMARK                         _______ _______ _______ _____ _____    ______ ____
ROOT
ATOM      1  N   LIG    1       28.853 -21.149   7.061  0.00  0.00    -0.287 NA
ATOM      2  C   LIG    1       29.494 -20.286   8.064  0.00  0.00    +0.108 C 
ATOM      3  C   LIG    1       30.370 -19.172   7.444  0.00  0.00    +0.039 C 
ATOM      4  C   LIG    1       30.922 -18.267   8.559  0.00  0.00    +0.030 C 
ATOM      5  C   LIG    1       29.458 -18.350   6.524  0.00  0.00    +0.108 C 
ATOM      6  N   LIG    1       28.752 -19.159   5.539  0.00  0.00    -0.287 NA
ATOM      7  C   LIG    1       28.113 -20.379   6.033  0.00  0.00    +0.171 C 
ENDROOT
BRANCH   3   8
ATOM      8  N   LIG    1       31.516 -19.704   6.668  0.00  0.00    -0.323 NA
ATOM      9  H   LIG    1       31.506 -20.707   6.696  0.00  0.00    +0.119 HD
ATOM     10  H   LIG    1       31.306 -19.473   5.682  0.00  0.00    +0.119 HD
ENDBRANCH   3   8
BRANCH   1  11
ATOM     11  C   LIG    1       27.918 -22.128   7.704  0.00  0.00    +0.089 C 
BRANCH  11  12
ATOM     12  C   LIG    1       26.434 -22.286   7.198  0.00  0.00    +0.003 C 
BRANCH  12  13
ATOM     13  C   LIG    1       25.367 -21.626   8.102  0.00  0.00    +0.001 C 
ATOM     14  C   LIG    1       25.801 -20.434   8.933  0.00  0.00    +0.004 C 
ENDBRANCH  12  13
BRANCH  12  15
ATOM     15  C   LIG    1       26.085 -23.817   7.059  0.00  0.00    +0.005 C 
BRANCH  15  16
ATOM     16  C   LIG    1       25.067 -24.144   5.944  0.00  0.00    +0.000 C 
BRANCH  16  18
ATOM     17  C   LIG    1       22.682 -23.615   6.715  0.00  0.00    +0.004 C 
ATOM     18  C   LIG    1       23.721 -24.693   6.440  0.00  0.00    -0.003 C 
ENDBRANCH  16  18
ENDBRANCH  15  16
ENDBRANCH  12  15
ENDBRANCH  11  12
ENDBRANCH   1  11
BRANCH   6  19
ATOM     19  C   LIG    1       27.858 -18.320   4.698  0.00  0.00    +0.089 C 
BRANCH  19  20
ATOM     20  C   LIG    1       26.580 -18.930   4.012  0.00  0.00    +0.003 C 
BRANCH  20  21
ATOM     21  C   LIG    1       25.817 -17.819   3.236  0.00  0.00    +0.001 C 
ATOM     22  C   LIG    1       26.400 -16.414   3.399  0.00  0.00    +0.004 C 
ENDBRANCH  20  21
BRANCH  20  23
ATOM     23  C   LIG    1       25.616 -19.742   4.916  0.00  0.00    +0.005 C 
BRANCH  23  24
ATOM     24  C   LIG    1       24.748 -20.810   4.227  0.00  0.00    +0.000 C 
BRANCH  24  25
ATOM     25  C   LIG    1       23.240 -20.601   4.446  0.00  0.00    -0.003 C 
ATOM     26  C   LIG    1       22.894 -20.090   5.838  0.00  0.00    +0.004 C 
ENDBRANCH  24  25
ENDBRANCH  23  24
ENDBRANCH  20  23
ENDBRANCH  19  20
ENDBRANCH   6  19
TORSDOF 13
ENDMDL
