MODEL 1
REMARK VINA RESULT:       2.8      0.000      0.000
REMARK  Name = *****
REMARK                            x       y       z     vdW  Elec       q    Type
REMARK                         _______ _______ _______ _____ _____    ______ ____
ROOT
ATOM      1  C   LIG    1       26.608 -14.454   4.773  0.00  0.00    -0.043 A 
ATOM      2  C   LIG    1       25.261 -14.466   4.391  0.00  0.00    +0.021 A 
ATOM      3  C   LIG    1       24.664 -15.639   3.895  0.00  0.00    +0.057 A 
ATOM      4  I   LIG    1       22.586 -15.586   3.616  0.00  0.00    -0.040 I 
ATOM      5  C   LIG    1       25.416 -16.812   3.718  0.00  0.00    +0.154 A 
ATOM      6  C   LIG    1       26.757 -16.801   4.151  0.00  0.00    +0.057 A 
ATOM      7  I   LIG    1       27.938 -18.532   4.352  0.00  0.00    -0.040 I 
ATOM      8  C   LIG    1       27.362 -15.616   4.597  0.00  0.00    +0.021 A 
ENDROOT
BRANCH   1   9
ATOM      9  C   LIG    1       27.199 -13.294   5.546  0.00  0.00    +0.065 C 
BRANCH   9  10
ATOM     10  CA  LIG    1       28.522 -12.761   4.949  0.00  0.00    +0.165 C 
BRANCH  10  11
ATOM     11  N   LIG    1       28.996 -11.461   5.520  0.00  0.00    -0.318 NA
ATOM     12  H1  LIG    1       29.488 -11.663   6.400  0.00  0.00    +0.119 HD
ATOM     13  H2  LIG    1       29.719 -11.076   4.908  0.00  0.00    +0.119 HD
ENDBRANCH  10  11
BRANCH  10  14
ATOM     14  C   LIG    1       28.490 -12.617   3.407  0.00  0.00    +0.322 C 
ATOM     15  O   LIG    1       27.695 -11.985   2.761  0.00  0.00    -0.249 OA
BRANCH  14  16
ATOM     16  OXT LIG    1       29.475 -13.382   2.850  0.00  0.00    -0.479 OA
ATOM     17  HXT LIG    1       30.246 -12.782   2.701  0.00  0.00    +0.295 HD
ENDBRANCH  14  16
ENDBRANCH  10  14
ENDBRANCH   9  10
ENDBRANCH   1   9
BRANCH   5  18
ATOM     18  O   LIG    1       24.811 -17.931   3.163  0.00  0.00    -0.454 OA
BRANCH  18  19
ATOM     19  C   LIG    1       24.325 -18.912   4.022  0.00  0.00    +0.130 A 
ATOM     20  C   LIG    1       25.145 -19.680   4.851  0.00  0.00    +0.064 A 
ATOM     21  C   LIG    1       24.605 -20.552   5.798  0.00  0.00    +0.058 A 
ATOM     22  I   LIG    1       25.942 -21.541   7.062  0.00  0.00    -0.040 I 
ATOM     23  C   LIG    1       23.227 -20.729   5.874  0.00  0.00    +0.130 A 
ATOM     24  C   LIG    1       22.395 -20.053   4.982  0.00  0.00    +0.050 A 
ATOM     25  C   LIG    1       22.939 -19.128   4.071  0.00  0.00    +0.050 A 
BRANCH  23  26
ATOM     26  O   LIG    1       22.698 -21.571   6.810  0.00  0.00    -0.506 OA
ATOM     27  H   LIG    1       22.110 -21.075   7.400  0.00  0.00    +0.292 HD
ENDBRANCH  23  26
ENDBRANCH  18  19
ENDBRANCH   5  18
TORSDOF 8
ENDMDL
MODEL 2
REMARK VINA RESULT:       2.8      3.246      7.575
REMARK  Name = *****
REMARK                            x       y       z     vdW  Elec       q    Type
REMARK                         _______ _______ _______ _____ _____    ______ ____
ROOT
ATOM      1  C   LIG    1       25.594 -20.021   4.659  0.00  0.00    -0.043 A 
ATOM      2  C   LIG    1       26.947 -19.751   4.895  0.00  0.00    +0.021 A 
ATOM      3  C   LIG    1       27.510 -18.516   4.527  0.00  0.00    +0.057 A 
ATOM      4  I   LIG    1       29.469 -18.149   5.179  0.00  0.00    -0.040 I 
ATOM      5  C   LIG    1       26.744 -17.544   3.864  0.00  0.00    +0.154 A 
ATOM      6  C   LIG    1       25.372 -17.807   3.675  0.00  0.00    +0.057 A 
ATOM      7  I   LIG    1       23.972 -16.355   3.078  0.00  0.00    -0.040 I 
ATOM      8  C   LIG    1       24.828 -19.059   3.998  0.00  0.00    +0.021 A 
ENDROOT
BRANCH   1   9
ATOM      9  C   LIG    1       24.909 -21.223   5.274  0.00  0.00    +0.065 C 
BRANCH   9  10
ATOM     10  CA  LIG    1       23.555 -21.572   4.613  0.00  0.00    +0.165 C 
BRANCH  10  11
ATOM     11  N   LIG    1       23.551 -21.528   3.117  0.00  0.00    -0.318 NA
ATOM     12  H1  LIG    1       23.705 -22.484   2.773  0.00  0.00    +0.119 HD
ATOM     13  H2  LIG    1       22.610 -21.291   2.797  0.00  0.00    +0.119 HD
ENDBRANCH  10  11
BRANCH  10  14
ATOM     14  C   LIG    1       22.380 -20.698   5.116  0.00  0.00    +0.322 C 
ATOM     15  O   LIG    1       21.453 -20.294   4.462  0.00  0.00    -0.249 OA
BRANCH  14  16
ATOM     16  OXT LIG    1       22.570 -20.376   6.430  0.00  0.00    -0.479 OA
ATOM     17  HXT LIG    1       21.684 -20.123   6.788  0.00  0.00    +0.295 HD
ENDBRANCH  14  16
ENDBRANCH  10  14
ENDBRANCH   9  10
ENDBRANCH   1   9
BRANCH   5  18
ATOM     18  O   LIG    1       27.350 -16.363   3.455  0.00  0.00    -0.454 OA
BRANCH  18  19
ATOM     19  C   LIG    1       26.776 -15.158   3.847  0.00  0.00    +0.130 A 
ATOM     20  C   LIG    1       26.070 -14.324   2.977  0.00  0.00    +0.064 A 
ATOM     21  C   LIG    1       25.391 -13.197   3.443  0.00  0.00    +0.058 A 
ATOM     22  I   LIG    1       24.267 -12.113   2.055  0.00  0.00    -0.040 I 
ATOM     23  C   LIG    1       25.477 -12.840   4.785  0.00  0.00    +0.130 A 
ATOM     24  C   LIG    1       26.266 -13.598   5.652  0.00  0.00    +0.050 A 
ATOM     25  C   LIG    1       26.897 -14.768   5.190  0.00  0.00    +0.050 A 
BRANCH  23  26
ATOM     26  O   LIG    1       24.801 -11.746   5.244  0.00  0.00    -0.506 OA
ATOM     27  H   LIG    1       25.426 -11.118   5.638  0.00  0.00    +0.292 HD
ENDBRANCH  23  26
ENDBRANCH  18  19
ENDBRANCH   5  18
TORSDOF 8
ENDMDL
MODEL 3
REMARK VINA RESULT:       2.9      2.111      2.707
REMARK  Name = *****
REMARK                            x       y       z     vdW  Elec       q    Type
REMARK                         _______ _______ _______ _____ _____    ______ ____
ROOT
ATOM      1  C   LIG    1       27.319 -15.309   3.739  0.00  0.00    -0.043 A 
ATOM      2  C   LIG    1       26.124 -15.865   3.268  0.00  0.00    +0.021 A 
ATOM      3  C   LIG    1       25.868 -17.241   3.402  0.00  0.00    +0.057 A 
ATOM      4  I   LIG    1       23.938 -17.888   2.897  0.00  0.00    -0.040 I 
ATOM      5  C   LIG    1       26.827 -18.102   3.960  0.00  0.00    +0.154 A 
ATOM      6  C   LIG    1       28.005 -17.524   4.474  0.00  0.00    +0.057 A 
ATOM      7  I   LIG    1       29.378 -18.550   5.696  0.00  0.00    -0.040 I 
ATOM      8  C   LIG    1       28.277 -16.159   4.293  0.00  0.00    +0.021 A 
ENDROOT
BRANCH   1   9
ATOM      9  C   LIG    1       27.505 -13.810   3.845  0.00  0.00    +0.065 C 
BRANCH   9  10
ATOM     10  CA  LIG    1       26.392 -13.101   4.651  0.00  0.00    +0.165 C 
BRANCH  10  11
ATOM     11  N   LIG    1       26.197 -13.610   6.045  0.00  0.00    -0.318 NA
ATOM     12  H1  LIG    1       27.031 -13.360   6.591  0.00  0.00    +0.119 HD
ATOM     13  H2  LIG    1       25.438 -13.084   6.484  0.00  0.00    +0.119 HD
ENDBRANCH  10  11
BRANCH  10  14
ATOM     14  C   LIG    1       25.014 -13.117   3.944  0.00  0.00    +0.322 C 
ATOM     15  O   LIG    1       23.990 -13.578   4.376  0.00  0.00    -0.249 OA
BRANCH  14  16
ATOM     16  OXT LIG    1       25.129 -12.580   2.692  0.00  0.00    -0.479 OA
ATOM     17  HXT LIG    1       25.795 -13.130   2.211  0.00  0.00    +0.295 HD
ENDBRANCH  14  16
ENDBRANCH  10  14
ENDBRANCH   9  10
ENDBRANCH   1   9
BRANCH   5  18
ATOM     18  O   LIG    1       26.569 -19.465   4.014  0.00  0.00    -0.454 OA
BRANCH  18  19
ATOM     19  C   LIG    1       25.491 -19.901   4.779  0.00  0.00    +0.130 A 
ATOM     20  C   LIG    1       24.178 -19.937   4.304  0.00  0.00    +0.064 A 
ATOM     21  C   LIG    1       23.151 -20.514   5.054  0.00  0.00    +0.058 A 
ATOM     22  I   LIG    1       21.261 -20.618   4.170  0.00  0.00    -0.040 I 
ATOM     23  C   LIG    1       23.411 -20.993   6.334  0.00  0.00    +0.130 A 
ATOM     24  C   LIG    1       24.693 -20.869   6.871  0.00  0.00    +0.050 A 
ATOM     25  C   LIG    1       25.738 -20.344   6.087  0.00  0.00    +0.050 A 
BRANCH  23  26
ATOM     26  O   LIG    1       22.410 -21.571   7.062  0.00  0.00    -0.506 OA
ATOM     27  H   LIG    1       21.669 -20.951   7.146  0.00  0.00    +0.292 HD
ENDBRANCH  23  26
ENDBRANCH  18  19
ENDBRANCH   5  18
TORSDOF 8
ENDMDL
MODEL 4
REMARK VINA RESULT:       3.3      2.307      3.365
REMARK  Name = *****
REMARK                            x       y       z     vdW  Elec       q    Type
REMARK                         _______ _______ _______ _____ _____    ______ ____
ROOT
ATOM      1  C   LIG    1       27.470 -15.683   3.866  0.00  0.00    -0.043 A 
ATOM      2  C   LIG    1       28.254 -16.351   4.814  0.00  0.00    +0.021 A 
ATOM      3  C   LIG    1       28.060 -17.720   5.074  0.00  0.00    +0.057 A 
ATOM      4  I   LIG    1       29.473 -18.647   6.316  0.00  0.00    -0.040 I 
ATOM      5  C   LIG    1       27.039 -18.438   4.430  0.00  0.00    +0.154 A 
ATOM      6  C   LIG    1       26.289 -17.768   3.443  0.00  0.00    +0.057 A 
ATOM      7  I   LIG    1       25.002 -18.738   2.089  0.00  0.00    -0.040 I 
ATOM      8  C   LIG    1       26.452 -16.392   3.224  0.00  0.00    +0.021 A 
ENDROOT
BRANCH   1   9
ATOM      9  C   LIG    1       27.827 -14.294   3.383  0.00  0.00    +0.065 C 
BRANCH   9  10
ATOM     10  CA  LIG    1       26.824 -13.204   3.829  0.00  0.00    +0.165 C 
BRANCH  10  11
ATOM     11  N   LIG    1       26.470 -13.226   5.283  0.00  0.00    -0.318 NA
ATOM     12  H1  LIG    1       25.483 -13.500   5.364  0.00  0.00    +0.119 HD
ATOM     13  H2  LIG    1       26.983 -13.986   5.736  0.00  0.00    +0.119 HD
ENDBRANCH  10  11
BRANCH  10  14
ATOM     14  C   LIG    1       25.504 -13.213   3.020  0.00  0.00    +0.322 C 
ATOM     15  O   LIG    1       25.360 -12.872   1.874  0.00  0.00    -0.249 OA
BRANCH  14  16
ATOM     16  OXT LIG    1       24.471 -13.608   3.822  0.00  0.00    -0.479 OA
ATOM     17  HXT LIG    1       23.747 -13.909   3.220  0.00  0.00    +0.295 HD
ENDBRANCH  14  16
ENDBRANCH  10  14
ENDBRANCH   9  10
ENDBRANCH   1   9
BRANCH   5  18
ATOM     18  O   LIG    1       26.833 -19.771   4.760  0.00  0.00    -0.454 OA
BRANCH  18  19
ATOM     19  C   LIG    1       25.616 -20.127   5.334  0.00  0.00    +0.130 A 
ATOM     20  C   LIG    1       24.379 -19.732   4.819  0.00  0.00    +0.064 A 
ATOM     21  C   LIG    1       23.184 -20.228   5.342  0.00  0.00    +0.058 A 
ATOM     22  I   LIG    1       21.413 -19.657   4.393  0.00  0.00    -0.040 I 
ATOM     23  C   LIG    1       23.207 -21.069   6.450  0.00  0.00    +0.130 A 
ATOM     24  C   LIG    1       24.426 -21.390   7.048  0.00  0.00    +0.050 A 
ATOM     25  C   LIG    1       25.632 -20.939   6.479  0.00  0.00    +0.050 A 
BRANCH  23  26
ATOM     26  O   LIG    1       22.038 -21.566   6.953  0.00  0.00    -0.506 OA
ATOM     27  H   LIG    1       22.034 -21.474   7.919  0.00  0.00    +0.292 HD
ENDBRANCH  23  26
ENDBRANCH  18  19
ENDBRANCH   5  18
TORSDOF 8
ENDMDL
MODEL 5
REMARK VINA RESULT:       4.0      3.972      6.890
REMARK  Name = *****
REMARK                            x       y       z     vdW  Elec       q    Type
REMARK                         _______ _______ _______ _____ _____    ______ ____
ROOT
ATOM      1  C   LIG    1       24.879 -19.926   4.403  0.00  0.00    -0.043 A 
ATOM      2  C   LIG    1       23.481 -19.918   4.348  0.00  0.00    +0.021 A 
ATOM      3  C   LIG    1       22.780 -18.756   3.978  0.00  0.00    +0.057 A 
ATOM      4  I   LIG    1       20.715 -18.962   3.679  0.00  0.00    -0.040 I 
ATOM      5  C   LIG    1       23.463 -17.558   3.708  0.00  0.00    +0.154 A 
ATOM      6  C   LIG    1       24.872 -17.591   3.719  0.00  0.00    +0.057 A 
ATOM      7  I   LIG    1       26.086 -16.046   2.965  0.00  0.00    -0.040 I 
ATOM      8  C   LIG    1       25.563 -18.738   4.138  0.00  0.00    +0.021 A 
ENDROOT
BRANCH   1   9
ATOM      9  C   LIG    1       25.658 -21.217   4.540  0.00  0.00    +0.065 C 
BRANCH   9  10
ATOM     10  CA  LIG    1       26.285 -21.418   5.939  0.00  0.00    +0.165 C 
BRANCH  10  11
ATOM     11  N   LIG    1       25.559 -20.745   7.062  0.00  0.00    -0.318 NA
ATOM     12  H1  LIG    1       24.596 -20.562   6.751  0.00  0.00    +0.119 HD
ATOM     13  H2  LIG    1       25.454 -21.409   7.832  0.00  0.00    +0.119 HD
ENDBRANCH  10  11
BRANCH  10  14
ATOM     14  C   LIG    1       27.772 -20.995   6.016  0.00  0.00    +0.322 C 
ATOM     15  O   LIG    1       28.544 -21.238   6.906  0.00  0.00    -0.249 OA
BRANCH  14  16
ATOM     16  OXT LIG    1       28.090 -20.223   4.934  0.00  0.00    -0.479 OA
ATOM     17  HXT LIG    1       28.165 -19.294   5.265  0.00  0.00    +0.295 HD
ENDBRANCH  14  16
ENDBRANCH  10  14
ENDBRANCH   9  10
ENDBRANCH   1   9
BRANCH   5  18
ATOM     18  O   LIG    1       22.737 -16.413   3.411  0.00  0.00    -0.454 OA
BRANCH  18  19
ATOM     19  C   LIG    1       23.207 -15.193   3.887  0.00  0.00    +0.130 A 
ATOM     20  C   LIG    1       23.677 -14.175   3.054  0.00  0.00    +0.064 A 
ATOM     21  C   LIG    1       24.005 -12.916   3.562  0.00  0.00    +0.058 A 
ATOM     22  I   LIG    1       24.570 -11.447   2.189  0.00  0.00    -0.040 I 
ATOM     23  C   LIG    1       23.944 -12.683   4.932  0.00  0.00    +0.130 A 
ATOM     24  C   LIG    1       23.581 -13.719   5.793  0.00  0.00    +0.050 A 
ATOM     25  C   LIG    1       23.191 -14.966   5.272  0.00  0.00    +0.050 A 
BRANCH  23  26
ATOM     26  O   LIG    1       24.252 -11.447   5.427  0.00  0.00    -0.506 OA
ATOM     27  H   LIG    1       25.171 -11.440   5.737  0.00  0.00    +0.292 HD
ENDBRANCH  23  26
ENDBRANCH  18  19
ENDBRANCH   5  18
TORSDOF 8
ENDMDL
MODEL 6
REMARK VINA RESULT:       4.4      3.795      6.786
REMARK  Name = *****
REMARK                            x       y       z     vdW  Elec       q    Type
REMARK                         _______ _______ _______ _____ _____    ______ ____
ROOT
ATOM      1  C   LIG    1       25.595 -19.953   4.243  0.00  0.00    -0.043 A 
ATOM      2  C   LIG    1       26.182 -18.734   3.887  0.00  0.00    +0.021 A 
ATOM      3  C   LIG    1       25.388 -17.618   3.564  0.00  0.00    +0.057 A 
ATOM      4  I   LIG    1       26.393 -15.795   3.311  0.00  0.00    -0.040 I 
ATOM      5  C   LIG    1       23.987 -17.715   3.537  0.00  0.00    +0.154 A 
ATOM      6  C   LIG    1       23.406 -18.932   3.944  0.00  0.00    +0.057 A 
ATOM      7  I   LIG    1       21.358 -19.172   4.361  0.00  0.00    -0.040 I 
ATOM      8  C   LIG    1       24.202 -20.056   4.216  0.00  0.00    +0.021 A 
ENDROOT
BRANCH   1   9
ATOM      9  C   LIG    1       26.411 -21.079   4.843  0.00  0.00    +0.065 C 
BRANCH   9  10
ATOM     10  CA  LIG    1       26.810 -20.839   6.318  0.00  0.00    +0.165 C 
BRANCH  10  11
ATOM     11  N   LIG    1       25.936 -19.878   7.062  0.00  0.00    -0.318 NA
ATOM     12  H1  LIG    1       25.130 -19.656   6.464  0.00  0.00    +0.119 HD
ATOM     13  H2  LIG    1       25.530 -20.358   7.868  0.00  0.00    +0.119 HD
ENDBRANCH  10  11
BRANCH  10  14
ATOM     14  C   LIG    1       28.278 -20.377   6.492  0.00  0.00    +0.322 C 
ATOM     15  O   LIG    1       28.675 -19.242   6.526  0.00  0.00    -0.249 OA
BRANCH  14  16
ATOM     16  OXT LIG    1       29.103 -21.465   6.537  0.00  0.00    -0.479 OA
ATOM     17  HXT LIG    1       29.018 -21.918   5.662  0.00  0.00    +0.295 HD
ENDBRANCH  14  16
ENDBRANCH  10  14
ENDBRANCH   9  10
ENDBRANCH   1   9
BRANCH   5  18
ATOM     18  O   LIG    1       23.238 -16.613   3.148  0.00  0.00    -0.454 OA
BRANCH  18  19
ATOM     19  C   LIG    1       23.566 -15.371   3.681  0.00  0.00    +0.130 A 
ATOM     20  C   LIG    1       23.960 -14.280   2.902  0.00  0.00    +0.064 A 
ATOM     21  C   LIG    1       24.143 -13.016   3.464  0.00  0.00    +0.058 A 
ATOM     22  I   LIG    1       24.604 -11.447   2.164  0.00  0.00    -0.040 I 
ATOM     23  C   LIG    1       24.012 -12.841   4.839  0.00  0.00    +0.130 A 
ATOM     24  C   LIG    1       23.725 -13.939   5.650  0.00  0.00    +0.050 A 
ATOM     25  C   LIG    1       23.480 -15.199   5.072  0.00  0.00    +0.050 A 
BRANCH  23  26
ATOM     26  O   LIG    1       24.177 -11.601   5.387  0.00  0.00    -0.506 OA
ATOM     27  H   LIG    1       23.904 -10.923   4.748  0.00  0.00    +0.292 HD
ENDBRANCH  23  26
ENDBRANCH  18  19
ENDBRANCH   5  18
TORSDOF 8
ENDMDL
MODEL 7
REMARK VINA RESULT:       4.5      1.854      2.224
REMARK  Name = *****
REMARK                            x       y       z     vdW  Elec       q    Type
REMARK                         _______ _______ _______ _____ _____    ______ ____
ROOT
ATOM      1  C   LIG    1       26.354 -14.048   4.303  0.00  0.00    -0.043 A 
ATOM      2  C   LIG    1       25.101 -14.487   3.861  0.00  0.00    +0.021 A 
ATOM      3  C   LIG    1       24.893 -15.831   3.502  0.00  0.00    +0.057 A 
ATOM      4  I   LIG    1       22.912 -16.401   3.116  0.00  0.00    -0.040 I 
ATOM      5  C   LIG    1       25.951 -16.755   3.525  0.00  0.00    +0.154 A 
ATOM      6  C   LIG    1       27.195 -16.314   4.018  0.00  0.00    +0.057 A 
ATOM      7  I   LIG    1       28.783 -17.603   4.512  0.00  0.00    -0.040 I 
ATOM      8  C   LIG    1       27.410 -14.962   4.326  0.00  0.00    +0.021 A 
ENDROOT
BRANCH   1   9
ATOM      9  C   LIG    1       26.537 -12.686   4.938  0.00  0.00    +0.065 C 
BRANCH   9  10
ATOM     10  CA  LIG    1       25.283 -11.786   4.847  0.00  0.00    +0.165 C 
BRANCH  10  11
ATOM     11  N   LIG    1       24.199 -12.108   5.827  0.00  0.00    -0.318 NA
ATOM     12  H1  LIG    1       23.373 -12.414   5.297  0.00  0.00    +0.119 HD
ATOM     13  H2  LIG    1       24.475 -12.932   6.365  0.00  0.00    +0.119 HD
ENDBRANCH  10  11
BRANCH  10  14
ATOM     14  C   LIG    1       24.649 -11.752   3.434  0.00  0.00    +0.322 C 
ATOM     15  O   LIG    1       25.231 -11.631   2.388  0.00  0.00    -0.249 OA
BRANCH  14  16
ATOM     16  OXT LIG    1       23.287 -11.812   3.535  0.00  0.00    -0.479 OA
ATOM     17  HXT LIG    1       23.056 -11.448   4.424  0.00  0.00    +0.295 HD
ENDBRANCH  14  16
ENDBRANCH  10  14
ENDBRANCH   9  10
ENDBRANCH   1   9
BRANCH   5  18
ATOM     18  O   LIG    1       25.725 -18.057   3.099  0.00  0.00    -0.454 OA
BRANCH  18  19
ATOM     19  C   LIG    1       25.284 -18.989   4.034  0.00  0.00    +0.130 A 
ATOM     20  C   LIG    1       26.147 -19.757   4.819  0.00  0.00    +0.064 A 
ATOM     21  C   LIG    1       25.663 -20.574   5.842  0.00  0.00    +0.058 A 
ATOM     22  I   LIG    1       27.071 -21.567   7.022  0.00  0.00    -0.040 I 
ATOM     23  C   LIG    1       24.291 -20.697   6.042  0.00  0.00    +0.130 A 
ATOM     24  C   LIG    1       23.407 -20.023   5.199  0.00  0.00    +0.050 A 
ATOM     25  C   LIG    1       23.901 -19.152   4.210  0.00  0.00    +0.050 A 
BRANCH  23  26
ATOM     26  O   LIG    1       23.818 -21.486   7.052  0.00  0.00    -0.506 OA
ATOM     27  H   LIG    1       22.854 -21.564   6.981  0.00  0.00    +0.292 HD
ENDBRANCH  23  26
ENDBRANCH  18  19
ENDBRANCH   5  18
TORSDOF 8
ENDMDL
MODEL 8
REMARK VINA RESULT:       4.6      2.627      3.695
REMARK  Name = *****
REMARK                            x       y       z     vdW  Elec       q    Type
REMARK                         _______ _______ _______ _____ _____    ______ ____
ROOT
ATOM      1  C   LIG    1       23.667 -14.808   4.341  0.00  0.00    -0.043 A 
ATOM      2  C   LIG    1       24.923 -15.375   4.097  0.00  0.00    +0.021 A 
ATOM      3  C   LIG    1       25.053 -16.746   3.815  0.00  0.00    +0.057 A 
ATOM      4  I   LIG    1       26.950 -17.403   3.211  0.00  0.00    -0.040 I 
ATOM      5  C   LIG    1       23.931 -17.593   3.824  0.00  0.00    +0.154 A 
ATOM      6  C   LIG    1       22.667 -17.003   4.022  0.00  0.00    +0.057 A 
ATOM      7  I   LIG    1       20.844 -17.998   3.681  0.00  0.00    -0.040 I 
ATOM      8  C   LIG    1       22.549 -15.645   4.353  0.00  0.00    +0.021 A 
ENDROOT
BRANCH   1   9
ATOM      9  C   LIG    1       23.472 -13.307   4.386  0.00  0.00    +0.065 C 
BRANCH   9  10
ATOM     10  CA  LIG    1       24.255 -12.546   3.291  0.00  0.00    +0.165 C 
BRANCH  10  11
ATOM     11  N   LIG    1       23.874 -12.890   1.885  0.00  0.00    -0.318 NA
ATOM     12  H1  LIG    1       24.327 -13.781   1.644  0.00  0.00    +0.119 HD
ATOM     13  H2  LIG    1       22.874 -13.098   1.856  0.00  0.00    +0.119 HD
ENDBRANCH  10  11
BRANCH  10  14
ATOM     14  C   LIG    1       25.791 -12.694   3.416  0.00  0.00    +0.322 C 
ATOM     15  O   LIG    1       26.447 -12.560   4.416  0.00  0.00    -0.249 OA
BRANCH  14  16
ATOM     16  OXT LIG    1       26.335 -12.936   2.186  0.00  0.00    -0.479 OA
ATOM     17  HXT LIG    1       27.315 -12.974   2.314  0.00  0.00    +0.295 HD
ENDBRANCH  14  16
ENDBRANCH  10  14
ENDBRANCH   9  10
ENDBRANCH   1   9
BRANCH   5  18
ATOM     18  O   LIG    1       24.105 -18.953   3.607  0.00  0.00    -0.454 OA
BRANCH  18  19
ATOM     19  C   LIG    1       25.032 -19.632   4.392  0.00  0.00    +0.130 A 
ATOM     20  C   LIG    1       26.351 -19.206   4.563  0.00  0.00    +0.064 A 
ATOM     21  C   LIG    1       27.205 -19.837   5.470  0.00  0.00    +0.058 A 
ATOM     22  I   LIG    1       29.109 -19.016   5.723  0.00  0.00    -0.040 I 
ATOM     23  C   LIG    1       26.772 -20.963   6.163  0.00  0.00    +0.130 A 
ATOM     24  C   LIG    1       25.494 -21.471   5.927  0.00  0.00    +0.050 A 
ATOM     25  C   LIG    1       24.616 -20.795   5.059  0.00  0.00    +0.050 A 
BRANCH  23  26
ATOM     26  O   LIG    1       27.603 -21.572   7.061  0.00  0.00    -0.506 OA
ATOM     27  H   LIG    1       27.384 -21.277   7.959  0.00  0.00    +0.292 HD
ENDBRANCH  23  26
ENDBRANCH  18  19
ENDBRANCH   5  18
TORSDOF 8
ENDMDL
MODEL 9
REMARK VINA RESULT:       4.7      2.207      2.516
REMARK  Name = *****
REMARK                            x       y       z     vdW  Elec       q    Type
REMARK                         _______ _______ _______ _____ _____    ______ ____
ROOT
ATOM      1  C   LIG    1       25.881 -14.370   3.068  0.00  0.00    -0.043 A 
ATOM      2  C   LIG    1       24.957 -13.608   3.792  0.00  0.00    +0.021 A 
ATOM      3  C   LIG    1       23.869 -14.218   4.440  0.00  0.00    +0.057 A 
ATOM      4  I   LIG    1       22.724 -12.996   5.702  0.00  0.00    -0.040 I 
ATOM      5  C   LIG    1       23.649 -15.602   4.331  0.00  0.00    +0.154 A 
ATOM      6  C   LIG    1       24.611 -16.365   3.641  0.00  0.00    +0.057 A 
ATOM      7  I   LIG    1       24.698 -18.467   3.696  0.00  0.00    -0.040 I 
ATOM      8  C   LIG    1       25.666 -15.745   2.954  0.00  0.00    +0.021 A 
ENDROOT
BRANCH   1   9
ATOM      9  C   LIG    1       27.190 -13.780   2.588  0.00  0.00    +0.065 C 
BRANCH   9  10
ATOM     10  CA  LIG    1       28.344 -13.918   3.607  0.00  0.00    +0.165 C 
BRANCH  10  11
ATOM     11  N   LIG    1       28.300 -15.154   4.451  0.00  0.00    -0.318 NA
ATOM     12  H1  LIG    1       29.260 -15.509   4.541  0.00  0.00    +0.119 HD
ATOM     13  H2  LIG    1       28.035 -14.893   5.404  0.00  0.00    +0.119 HD
ENDBRANCH  10  11
BRANCH  10  14
ATOM     14  C   LIG    1       28.478 -12.701   4.556  0.00  0.00    +0.322 C 
ATOM     15  O   LIG    1       29.148 -11.719   4.374  0.00  0.00    -0.249 OA
BRANCH  14  16
ATOM     16  OXT LIG    1       27.765 -12.924   5.700  0.00  0.00    -0.479 OA
ATOM     17  HXT LIG    1       27.627 -12.041   6.121  0.00  0.00    +0.295 HD
ENDBRANCH  14  16
ENDBRANCH  10  14
ENDBRANCH   9  10
ENDBRANCH   1   9
BRANCH   5  18
ATOM     18  O   LIG    1       22.527 -16.161   4.928  0.00  0.00    -0.454 OA
BRANCH  18  19
ATOM     19  C   LIG    1       22.312 -17.527   4.777  0.00  0.00    +0.130 A 
ATOM     20  C   LIG    1       22.929 -18.494   5.573  0.00  0.00    +0.064 A 
ATOM     21  C   LIG    1       22.577 -19.842   5.481  0.00  0.00    +0.058 A 
ATOM     22  I   LIG    1       23.484 -21.163   6.821  0.00  0.00    -0.040 I 
ATOM     23  C   LIG    1       21.653 -20.255   4.526  0.00  0.00    +0.130 A 
ATOM     24  C   LIG    1       21.104 -19.320   3.647  0.00  0.00    +0.050 A 
ATOM     25  C   LIG    1       21.415 -17.954   3.785  0.00  0.00    +0.050 A 
BRANCH  23  26
ATOM     26  O   LIG    1       21.298 -21.571   4.446  0.00  0.00    -0.506 OA
ATOM     27  H   LIG    1       22.038 -22.127   4.736  0.00  0.00    +0.292 HD
ENDBRANCH  23  26
ENDBRANCH  18  19
ENDBRANCH   5  18
TORSDOF 8
ENDMDL
