MODEL 1
REMARK VINA RESULT:      -7.3      0.000      0.000
REMARK  Name = *****
REMARK                            x       y       z     vdW  Elec       q    Type
REMARK                         _______ _______ _______ _____ _____    ______ ____
ROOT
ATOM      1  C   LIG    1       26.256 -20.875   6.794  0.00  0.00    +0.068 C 
ATOM      2  C   LIG    1       24.798 -21.241   6.469  0.00  0.00    +0.097 C 
ATOM      3  C   LIG    1       24.299 -20.503   5.227  0.00  0.00    +0.065 C 
ATOM      4  C   LIG    1       25.190 -20.040   4.315  0.00  0.00    +0.016 C 
ATOM      5  C   LIG    1       24.825 -19.226   3.101  0.00  0.00    +0.061 C 
ATOM      6  N   LIG    1       26.550 -20.255   4.524  0.00  0.00    -0.319 N 
ATOM      7  H   LIG    1       27.184 -19.771   3.886  0.00  0.00    +0.152 HD
ATOM      8  C   LIG    1       27.084 -20.463   5.802  0.00  0.00    +0.045 C 
ENDROOT
BRANCH   2   9
ATOM      9  C   LIG    1       24.623 -22.771   6.332  0.00  0.00    -0.017 A 
ATOM     10  C   LIG    1       23.483 -23.467   6.778  0.00  0.00    +0.045 A 
ATOM     11 CL   LIG    1       22.124 -22.693   7.517  0.00  0.00    -0.083 Cl
ATOM     12  C   LIG    1       23.384 -24.860   6.624  0.00  0.00    +0.020 A 
ATOM     13  C   LIG    1       24.403 -25.583   6.010  0.00  0.00    +0.001 A 
ATOM     14  C   LIG    1       25.538 -24.920   5.565  0.00  0.00    +0.000 A 
ATOM     15  C   LIG    1       25.649 -23.535   5.729  0.00  0.00    +0.006 A 
ENDBRANCH   2   9
BRANCH   1  16
ATOM     16  C   LIG    1       26.663 -20.956   8.217  0.00  0.00    +0.338 C 
ATOM     17  O   LIG    1       26.089 -20.434   9.173  0.00  0.00    -0.245 OA
BRANCH  16  18
ATOM     18  O   LIG    1       27.815 -21.646   8.306  0.00  0.00    -0.462 OA
BRANCH  18  20
ATOM     19  C   LIG    1       30.157 -21.862   8.774  0.00  0.00    +0.048 C 
ATOM     20  C   LIG    1       28.950 -20.941   8.802  0.00  0.00    +0.229 C 
ENDBRANCH  18  20
ENDBRANCH  16  18
ENDBRANCH   1  16
BRANCH   3  21
ATOM     21  C   LIG    1       22.830 -20.280   5.196  0.00  0.00    +0.337 C 
ATOM     22  O   LIG    1       22.026 -21.090   4.765  0.00  0.00    -0.245 OA
BRANCH  21  23
ATOM     23  O   LIG    1       22.529 -19.041   5.646  0.00  0.00    -0.465 OA
ATOM     24  C   LIG    1       22.062 -18.108   4.677  0.00  0.00    +0.280 C 
ENDBRANCH  21  23
ENDBRANCH   3  21
BRANCH   8  25
ATOM     25  C   LIG    1       28.562 -20.156   5.942  0.00  0.00    +0.211 C 
BRANCH  25  26
ATOM     26  O   LIG    1       28.779 -18.822   5.470  0.00  0.00    -0.373 OA
BRANCH  26  27
ATOM     27  C   LIG    1       29.826 -18.185   6.209  0.00  0.00    +0.175 C 
BRANCH  27  28
ATOM     28  C   LIG    1       30.907 -19.216   6.545  0.00  0.00    +0.106 C 
BRANCH  28  29
ATOM     29  N   LIG    1       31.790 -18.752   7.618  0.00  0.00    -0.328 NA
ATOM     30  H   LIG    1       32.727 -19.123   7.477  0.00  0.00    +0.118 HD
ATOM     31  H   LIG    1       31.863 -17.734   7.546  0.00  0.00    +0.118 HD
ENDBRANCH  28  29
ENDBRANCH  27  28
ENDBRANCH  26  27
ENDBRANCH  25  26
ENDBRANCH   8  25
TORSDOF 11
ENDMDL
MODEL 2
REMARK VINA RESULT:      -6.0      8.313     11.557
REMARK  Name = *****
REMARK                            x       y       z     vdW  Elec       q    Type
REMARK                         _______ _______ _______ _____ _____    ______ ____
ROOT
ATOM      1  C   LIG    1       24.615 -30.181  10.582  0.00  0.00    +0.068 C 
ATOM      2  C   LIG    1       24.758 -30.054  12.108  0.00  0.00    +0.097 C 
ATOM      3  C   LIG    1       26.223 -29.927  12.525  0.00  0.00    +0.065 C 
ATOM      4  C   LIG    1       27.140 -29.475  11.634  0.00  0.00    +0.016 C 
ATOM      5  C   LIG    1       28.620 -29.389  11.900  0.00  0.00    +0.061 C 
ATOM      6  N   LIG    1       26.726 -29.125  10.351  0.00  0.00    -0.319 N 
ATOM      7  H   LIG    1       27.468 -28.924   9.679  0.00  0.00    +0.152 HD
ATOM      8  C   LIG    1       25.567 -29.656   9.771  0.00  0.00    +0.045 C 
ENDROOT
BRANCH   2   9
ATOM      9  C   LIG    1       23.906 -28.885  12.655  0.00  0.00    -0.017 A 
ATOM     10  C   LIG    1       22.540 -29.001  12.978  0.00  0.00    +0.045 A 
ATOM     11 CL   LIG    1       21.648 -30.475  12.822  0.00  0.00    -0.083 Cl
ATOM     12  C   LIG    1       21.821 -27.900  13.471  0.00  0.00    +0.020 A 
ATOM     13  C   LIG    1       22.446 -26.672  13.671  0.00  0.00    +0.001 A 
ATOM     14  C   LIG    1       23.791 -26.532  13.357  0.00  0.00    +0.000 A 
ATOM     15  C   LIG    1       24.508 -27.620  12.851  0.00  0.00    +0.006 A 
ENDBRANCH   2   9
BRANCH   1  16
ATOM     16  C   LIG    1       23.436 -30.927  10.082  0.00  0.00    +0.338 C 
ATOM     17  O   LIG    1       22.474 -30.455   9.477  0.00  0.00    -0.245 OA
BRANCH  16  18
ATOM     18  O   LIG    1       23.543 -32.217  10.453  0.00  0.00    -0.462 OA
BRANCH  18  20
ATOM     19  C   LIG    1       25.355 -33.775  10.253  0.00  0.00    +0.048 C 
ATOM     20  C   LIG    1       24.199 -33.095   9.541  0.00  0.00    +0.229 C 
ENDBRANCH  18  20
ENDBRANCH  16  18
ENDBRANCH   1  16
BRANCH   3  21
ATOM     21  C   LIG    1       26.515 -30.422  13.896  0.00  0.00    +0.337 C 
ATOM     22  O   LIG    1       26.577 -29.706  14.880  0.00  0.00    -0.245 OA
BRANCH  21  23
ATOM     23  O   LIG    1       26.764 -31.751  13.876  0.00  0.00    -0.465 OA
ATOM     24  C   LIG    1       26.263 -32.508  14.974  0.00  0.00    +0.280 C 
ENDBRANCH  21  23
ENDBRANCH   3  21
BRANCH   8  25
ATOM     25  C   LIG    1       25.526 -29.617   8.256  0.00  0.00    +0.211 C 
BRANCH  25  26
ATOM     26  O   LIG    1       25.633 -28.249   7.851  0.00  0.00    -0.373 OA
BRANCH  26  27
ATOM     27  C   LIG    1       24.990 -28.039   6.590  0.00  0.00    +0.175 C 
BRANCH  27  28
ATOM     28  C   LIG    1       24.652 -29.396   5.963  0.00  0.00    +0.106 C 
BRANCH  28  29
ATOM     29  N   LIG    1       23.300 -29.415   5.401  0.00  0.00    -0.328 NA
ATOM     30  H   LIG    1       23.157 -28.592   4.820  0.00  0.00    +0.118 HD
ATOM     31  H   LIG    1       23.229 -30.227   4.783  0.00  0.00    +0.118 HD
ENDBRANCH  28  29
ENDBRANCH  27  28
ENDBRANCH  26  27
ENDBRANCH  25  26
ENDBRANCH   8  25
TORSDOF 11
ENDMDL
MODEL 3
REMARK VINA RESULT:      -6.0      8.203     11.369
REMARK  Name = *****
REMARK                            x       y       z     vdW  Elec       q    Type
REMARK                         _______ _______ _______ _____ _____    ______ ____
ROOT
ATOM      1  C   LIG    1       25.230 -30.260   9.473  0.00  0.00    +0.068 C 
ATOM      2  C   LIG    1       24.189 -30.078  10.590  0.00  0.00    +0.097 C 
ATOM      3  C   LIG    1       23.247 -31.277  10.679  0.00  0.00    +0.065 C 
ATOM      4  C   LIG    1       23.642 -32.481  10.195  0.00  0.00    +0.016 C 
ATOM      5  C   LIG    1       22.772 -33.711  10.147  0.00  0.00    +0.061 C 
ATOM      6  N   LIG    1       24.908 -32.604   9.630  0.00  0.00    -0.319 N 
ATOM      7  H   LIG    1       25.106 -33.488   9.157  0.00  0.00    +0.152 HD
ATOM      8  C   LIG    1       25.592 -31.509   9.087  0.00  0.00    +0.045 C 
ENDROOT
BRANCH   2   9
ATOM      9  C   LIG    1       24.871 -29.786  11.948  0.00  0.00    -0.017 A 
ATOM     10  C   LIG    1       24.388 -28.844  12.875  0.00  0.00    +0.045 A 
ATOM     11 CL   LIG    1       22.956 -27.907  12.622  0.00  0.00    -0.083 Cl
ATOM     12  C   LIG    1       25.054 -28.625  14.093  0.00  0.00    +0.020 A 
ATOM     13  C   LIG    1       26.198 -29.348  14.419  0.00  0.00    +0.001 A 
ATOM     14  C   LIG    1       26.696 -30.281  13.519  0.00  0.00    +0.000 A 
ATOM     15  C   LIG    1       26.045 -30.492  12.299  0.00  0.00    +0.006 A 
ENDBRANCH   2   9
BRANCH   1  16
ATOM     16  C   LIG    1       25.753 -29.025   8.841  0.00  0.00    +0.338 C 
ATOM     17  O   LIG    1       26.645 -28.299   9.280  0.00  0.00    -0.245 OA
BRANCH  16  18
ATOM     18  O   LIG    1       25.049 -28.772   7.722  0.00  0.00    -0.462 OA
BRANCH  18  20
ATOM     19  C   LIG    1       24.367 -27.115   6.127  0.00  0.00    +0.048 C 
ATOM     20  C   LIG    1       25.536 -27.730   6.879  0.00  0.00    +0.229 C 
ENDBRANCH  18  20
ENDBRANCH  16  18
ENDBRANCH   1  16
BRANCH   3  21
ATOM     21  C   LIG    1       21.903 -30.962  11.229  0.00  0.00    +0.337 C 
ATOM     22  O   LIG    1       21.613 -31.044  12.410  0.00  0.00    -0.245 OA
BRANCH  21  23
ATOM     23  O   LIG    1       21.047 -30.641  10.232  0.00  0.00    -0.465 OA
ATOM     24  C   LIG    1       19.702 -31.084  10.381  0.00  0.00    +0.280 C 
ENDBRANCH  21  23
ENDBRANCH   3  21
BRANCH   8  25
ATOM     25  C   LIG    1       26.664 -31.854   8.072  0.00  0.00    +0.211 C 
BRANCH  25  26
ATOM     26  O   LIG    1       26.055 -32.643   7.045  0.00  0.00    -0.373 OA
BRANCH  26  27
ATOM     27  C   LIG    1       25.548 -31.810   5.997  0.00  0.00    +0.175 C 
BRANCH  27  28
ATOM     28  C   LIG    1       24.018 -31.880   5.992  0.00  0.00    +0.106 C 
BRANCH  28  29
ATOM     29  N   LIG    1       23.412 -30.556   5.831  0.00  0.00    -0.328 NA
ATOM     30  H   LIG    1       22.476 -30.650   5.442  0.00  0.00    +0.118 HD
ATOM     31  H   LIG    1       23.304 -30.144   6.761  0.00  0.00    +0.118 HD
ENDBRANCH  28  29
ENDBRANCH  27  28
ENDBRANCH  26  27
ENDBRANCH  25  26
ENDBRANCH   8  25
TORSDOF 11
ENDMDL
MODEL 4
REMARK VINA RESULT:      -5.8      9.253     11.449
REMARK  Name = *****
REMARK                            x       y       z     vdW  Elec       q    Type
REMARK                         _______ _______ _______ _____ _____    ______ ____
ROOT
ATOM      1  C   LIG    1       24.594 -31.491  11.143  0.00  0.00    +0.068 C 
ATOM      2  C   LIG    1       23.355 -31.639  10.244  0.00  0.00    +0.097 C 
ATOM      3  C   LIG    1       22.155 -30.888  10.816  0.00  0.00    +0.065 C 
ATOM      4  C   LIG    1       22.352 -29.858  11.676  0.00  0.00    +0.016 C 
ATOM      5  C   LIG    1       21.250 -29.100  12.371  0.00  0.00    +0.061 C 
ATOM      6  N   LIG    1       23.653 -29.497  12.017  0.00  0.00    -0.319 N 
ATOM      7  H   LIG    1       23.747 -28.813  12.770  0.00  0.00    +0.152 HD
ATOM      8  C   LIG    1       24.722 -30.399  11.938  0.00  0.00    +0.045 C 
ENDROOT
BRANCH   2   9
ATOM      9  C   LIG    1       23.662 -31.204   8.792  0.00  0.00    -0.017 A 
ATOM     10  C   LIG    1       23.579 -32.070   7.685  0.00  0.00    +0.045 A 
ATOM     11 CL   LIG    1       23.102 -33.728   7.808  0.00  0.00    -0.083 Cl
ATOM     12  C   LIG    1       23.871 -31.612   6.389  0.00  0.00    +0.020 A 
ATOM     13  C   LIG    1       24.231 -30.286   6.166  0.00  0.00    +0.001 A 
ATOM     14  C   LIG    1       24.323 -29.414   7.242  0.00  0.00    +0.000 A 
ATOM     15  C   LIG    1       24.048 -29.867   8.536  0.00  0.00    +0.006 A 
ENDBRANCH   2   9
BRANCH   1  16
ATOM     16  C   LIG    1       25.576 -32.601  11.114  0.00  0.00    +0.338 C 
ATOM     17  O   LIG    1       25.609 -33.568  11.875  0.00  0.00    -0.245 OA
BRANCH  16  18
ATOM     18  O   LIG    1       26.486 -32.358  10.153  0.00  0.00    -0.462 OA
BRANCH  18  20
ATOM     19  C   LIG    1       27.132 -32.748   7.876  0.00  0.00    +0.048 C 
ATOM     20  C   LIG    1       26.683 -33.383   9.181  0.00  0.00    +0.229 C 
ENDBRANCH  18  20
ENDBRANCH  16  18
ENDBRANCH   1  16
BRANCH   3  21
ATOM     21  C   LIG    1       20.835 -31.449  10.423  0.00  0.00    +0.337 C 
ATOM     22  O   LIG    1       19.880 -30.772  10.083  0.00  0.00    -0.245 OA
BRANCH  21  23
ATOM     23  O   LIG    1       20.834 -32.794  10.561  0.00  0.00    -0.465 OA
ATOM     24  C   LIG    1       19.946 -33.519   9.715  0.00  0.00    +0.280 C 
ENDBRANCH  21  23
ENDBRANCH   3  21
BRANCH   8  25
ATOM     25  C   LIG    1       25.918 -30.063  12.807  0.00  0.00    +0.211 C 
BRANCH  25  26
ATOM     26  O   LIG    1       26.238 -28.684  12.594  0.00  0.00    -0.373 OA
BRANCH  26  27
ATOM     27  C   LIG    1       27.389 -28.553  11.754  0.00  0.00    +0.175 C 
BRANCH  27  28
ATOM     28  C   LIG    1       26.935 -28.366  10.303  0.00  0.00    +0.106 C 
BRANCH  28  29
ATOM     29  N   LIG    1       27.366 -29.476   9.449  0.00  0.00    -0.328 NA
ATOM     30  H   LIG    1       26.568 -30.067   9.225  0.00  0.00    +0.118 HD
ATOM     31  H   LIG    1       27.698 -29.083   8.566  0.00  0.00    +0.118 HD
ENDBRANCH  28  29
ENDBRANCH  27  28
ENDBRANCH  26  27
ENDBRANCH  25  26
ENDBRANCH   8  25
TORSDOF 11
ENDMDL
MODEL 5
REMARK VINA RESULT:      -5.7      8.408     11.623
REMARK  Name = *****
REMARK                            x       y       z     vdW  Elec       q    Type
REMARK                         _______ _______ _______ _____ _____    ______ ____
ROOT
ATOM      1  C   LIG    1       24.456 -31.263   9.195  0.00  0.00    +0.068 C 
ATOM      2  C   LIG    1       25.414 -31.022   8.016  0.00  0.00    +0.097 C 
ATOM      3  C   LIG    1       25.219 -32.061   6.914  0.00  0.00    +0.065 C 
ATOM      4  C   LIG    1       24.039 -32.722   6.812  0.00  0.00    +0.016 C 
ATOM      5  C   LIG    1       23.758 -33.825   5.825  0.00  0.00    +0.061 C 
ATOM      6  N   LIG    1       23.019 -32.433   7.715  0.00  0.00    -0.319 N 
ATOM      7  H   LIG    1       22.205 -33.050   7.687  0.00  0.00    +0.152 HD
ATOM      8  C   LIG    1       23.276 -31.896   8.983  0.00  0.00    +0.045 C 
ENDROOT
BRANCH   2   9
ATOM      9  C   LIG    1       25.281 -29.580   7.472  0.00  0.00    -0.017 A 
ATOM     10  C   LIG    1       25.943 -28.471   8.033  0.00  0.00    +0.045 A 
ATOM     11 CL   LIG    1       27.008 -28.587   9.392  0.00  0.00    -0.083 Cl
ATOM     12  C   LIG    1       25.781 -27.186   7.492  0.00  0.00    +0.020 A 
ATOM     13  C   LIG    1       24.975 -26.980   6.375  0.00  0.00    +0.001 A 
ATOM     14  C   LIG    1       24.309 -28.057   5.806  0.00  0.00    +0.000 A 
ATOM     15  C   LIG    1       24.456 -29.336   6.350  0.00  0.00    +0.006 A 
ENDBRANCH   2   9
BRANCH   1  16
ATOM     16  C   LIG    1       24.915 -30.814  10.530  0.00  0.00    +0.338 C 
ATOM     17  O   LIG    1       25.740 -31.379  11.249  0.00  0.00    -0.245 OA
BRANCH  16  18
ATOM     18  O   LIG    1       24.235 -29.707  10.880  0.00  0.00    -0.462 OA
BRANCH  18  20
ATOM     19  C   LIG    1       24.854 -28.191  12.634  0.00  0.00    +0.048 C 
ATOM     20  C   LIG    1       24.091 -29.456  12.277  0.00  0.00    +0.229 C 
ENDBRANCH  18  20
ENDBRANCH  16  18
ENDBRANCH   1  16
BRANCH   3  21
ATOM     21  C   LIG    1       26.429 -32.315   6.088  0.00  0.00    +0.337 C 
ATOM     22  O   LIG    1       27.461 -32.798   6.522  0.00  0.00    -0.245 OA
BRANCH  21  23
ATOM     23  O   LIG    1       26.239 -31.877   4.823  0.00  0.00    -0.465 OA
ATOM     24  C   LIG    1       26.598 -32.775   3.778  0.00  0.00    +0.280 C 
ENDBRANCH  21  23
ENDBRANCH   3  21
BRANCH   8  25
ATOM     25  C   LIG    1       22.189 -32.126  10.015  0.00  0.00    +0.211 C 
BRANCH  25  26
ATOM     26  O   LIG    1       21.359 -30.961  10.043  0.00  0.00    -0.373 OA
BRANCH  26  27
ATOM     27  C   LIG    1       20.061 -31.273  10.560  0.00  0.00    +0.175 C 
BRANCH  27  28
ATOM     28  C   LIG    1       19.984 -30.840  12.027  0.00  0.00    +0.106 C 
BRANCH  28  29
ATOM     29  N   LIG    1       20.313 -29.422  12.196  0.00  0.00    -0.328 NA
ATOM     30  H   LIG    1       20.531 -29.009  11.292  0.00  0.00    +0.118 HD
ATOM     31  H   LIG    1       19.478 -28.946  12.544  0.00  0.00    +0.118 HD
ENDBRANCH  28  29
ENDBRANCH  27  28
ENDBRANCH  26  27
ENDBRANCH  25  26
ENDBRANCH   8  25
TORSDOF 11
ENDMDL
MODEL 6
REMARK VINA RESULT:      -5.7      8.937     11.435
REMARK  Name = *****
REMARK                            x       y       z     vdW  Elec       q    Type
REMARK                         _______ _______ _______ _____ _____    ______ ____
ROOT
ATOM      1  C   LIG    1       25.482 -29.732  11.039  0.00  0.00    +0.068 C 
ATOM      2  C   LIG    1       25.827 -29.140  12.416  0.00  0.00    +0.097 C 
ATOM      3  C   LIG    1       24.663 -28.330  12.984  0.00  0.00    +0.065 C 
ATOM      4  C   LIG    1       23.400 -28.573  12.555  0.00  0.00    +0.016 C 
ATOM      5  C   LIG    1       22.187 -27.785  12.975  0.00  0.00    +0.061 C 
ATOM      6  N   LIG    1       23.185 -29.567  11.603  0.00  0.00    -0.319 N 
ATOM      7  H   LIG    1       22.243 -29.618  11.211  0.00  0.00    +0.152 HD
ATOM      8  C   LIG    1       24.188 -29.981  10.718  0.00  0.00    +0.045 C 
ENDROOT
BRANCH   2   9
ATOM      9  C   LIG    1       26.290 -30.242  13.399  0.00  0.00    -0.017 A 
ATOM     10  C   LIG    1       27.418 -30.118  14.232  0.00  0.00    +0.045 A 
ATOM     11 CL   LIG    1       28.418 -28.707  14.275  0.00  0.00    -0.083 Cl
ATOM     12  C   LIG    1       27.786 -31.156  15.104  0.00  0.00    +0.020 A 
ATOM     13  C   LIG    1       27.033 -32.324  15.179  0.00  0.00    +0.001 A 
ATOM     14  C   LIG    1       25.918 -32.471  14.365  0.00  0.00    +0.000 A 
ATOM     15  C   LIG    1       25.555 -31.447  13.484  0.00  0.00    +0.006 A 
ENDBRANCH   2   9
BRANCH   1  16
ATOM     16  C   LIG    1       26.614 -29.959  10.109  0.00  0.00    +0.338 C 
ATOM     17  O   LIG    1       27.098 -29.136   9.331  0.00  0.00    -0.245 OA
BRANCH  16  18
ATOM     18  O   LIG    1       27.002 -31.245  10.193  0.00  0.00    -0.462 OA
BRANCH  18  20
ATOM     19  C   LIG    1       26.561 -33.359   9.149  0.00  0.00    +0.048 C 
ATOM     20  C   LIG    1       27.126 -31.961   8.966  0.00  0.00    +0.229 C 
ENDBRANCH  18  20
ENDBRANCH  16  18
ENDBRANCH   1  16
BRANCH   3  21
ATOM     21  C   LIG    1       25.067 -27.251  13.924  0.00  0.00    +0.337 C 
ATOM     22  O   LIG    1       25.080 -27.372  15.137  0.00  0.00    -0.245 OA
BRANCH  21  23
ATOM     23  O   LIG    1       25.349 -26.115  13.246  0.00  0.00    -0.465 OA
ATOM     24  C   LIG    1       25.288 -24.901  13.987  0.00  0.00    +0.280 C 
ENDBRANCH  21  23
ENDBRANCH   3  21
BRANCH   8  25
ATOM     25  C   LIG    1       23.696 -30.643   9.446  0.00  0.00    +0.211 C 
BRANCH  25  26
ATOM     26  O   LIG    1       23.869 -29.713   8.373  0.00  0.00    -0.373 OA
BRANCH  26  27
ATOM     27  C   LIG    1       24.415 -30.361   7.221  0.00  0.00    +0.175 C 
BRANCH  27  28
ATOM     28  C   LIG    1       24.525 -29.349   6.076  0.00  0.00    +0.106 C 
BRANCH  28  29
ATOM     29  N   LIG    1       23.294 -29.282   5.286  0.00  0.00    -0.328 NA
ATOM     30  H   LIG    1       23.514 -29.025   4.326  0.00  0.00    +0.118 HD
ATOM     31  H   LIG    1       22.889 -30.220   5.255  0.00  0.00    +0.118 HD
ENDBRANCH  28  29
ENDBRANCH  27  28
ENDBRANCH  26  27
ENDBRANCH  25  26
ENDBRANCH   8  25
TORSDOF 11
ENDMDL
MODEL 7
REMARK VINA RESULT:      -5.6      8.313     11.547
REMARK  Name = *****
REMARK                            x       y       z     vdW  Elec       q    Type
REMARK                         _______ _______ _______ _____ _____    ______ ____
ROOT
ATOM      1  C   LIG    1       23.830 -30.719  10.329  0.00  0.00    +0.068 C 
ATOM      2  C   LIG    1       24.121 -30.638  11.837  0.00  0.00    +0.097 C 
ATOM      3  C   LIG    1       25.553 -30.181  12.108  0.00  0.00    +0.065 C 
ATOM      4  C   LIG    1       26.224 -29.474  11.165  0.00  0.00    +0.016 C 
ATOM      5  C   LIG    1       27.663 -29.044  11.281  0.00  0.00    +0.061 C 
ATOM      6  N   LIG    1       25.589 -29.170   9.963  0.00  0.00    -0.319 N 
ATOM      7  H   LIG    1       26.177 -28.761   9.235  0.00  0.00    +0.152 HD
ATOM      8  C   LIG    1       24.527 -29.937   9.467  0.00  0.00    +0.045 C 
ENDROOT
BRANCH   2   9
ATOM      9  C   LIG    1       23.088 -29.741  12.559  0.00  0.00    -0.017 A 
ATOM     10  C   LIG    1       22.005 -30.244  13.304  0.00  0.00    +0.045 A 
ATOM     11 CL   LIG    1       21.705 -31.934  13.523  0.00  0.00    -0.083 Cl
ATOM     12  C   LIG    1       21.101 -29.376  13.938  0.00  0.00    +0.020 A 
ATOM     13  C   LIG    1       21.266 -27.995  13.859  0.00  0.00    +0.001 A 
ATOM     14  C   LIG    1       22.324 -27.475  13.127  0.00  0.00    +0.000 A 
ATOM     15  C   LIG    1       23.219 -28.335  12.482  0.00  0.00    +0.006 A 
ENDBRANCH   2   9
BRANCH   1  16
ATOM     16  C   LIG    1       22.809 -31.703   9.898  0.00  0.00    +0.338 C 
ATOM     17  O   LIG    1       23.015 -32.867   9.553  0.00  0.00    -0.245 OA
BRANCH  16  18
ATOM     18  O   LIG    1       21.603 -31.106   9.877  0.00  0.00    -0.462 OA
BRANCH  18  20
ATOM     19  C   LIG    1       19.256 -31.022  10.365  0.00  0.00    +0.048 C 
ATOM     20  C   LIG    1       20.481 -31.911  10.234  0.00  0.00    +0.229 C 
ENDBRANCH  18  20
ENDBRANCH  16  18
ENDBRANCH   1  16
BRANCH   3  21
ATOM     21  C   LIG    1       26.116 -30.658  13.398  0.00  0.00    +0.337 C 
ATOM     22  O   LIG    1       26.523 -31.792  13.587  0.00  0.00    -0.245 OA
BRANCH  21  23
ATOM     23  O   LIG    1       26.048 -29.684  14.333  0.00  0.00    -0.465 OA
ATOM     24  C   LIG    1       27.263 -29.361  15.004  0.00  0.00    +0.280 C 
ENDBRANCH  21  23
ENDBRANCH   3  21
BRANCH   8  25
ATOM     25  C   LIG    1       24.297 -29.832   7.972  0.00  0.00    +0.211 C 
BRANCH  25  26
ATOM     26  O   LIG    1       25.424 -29.160   7.403  0.00  0.00    -0.373 OA
BRANCH  26  27
ATOM     27  C   LIG    1       25.002 -28.115   6.521  0.00  0.00    +0.175 C 
BRANCH  27  28
ATOM     28  C   LIG    1       25.899 -26.890   6.722  0.00  0.00    +0.106 C 
BRANCH  28  29
ATOM     29  N   LIG    1       26.887 -26.755   5.649  0.00  0.00    -0.328 NA
ATOM     30  H   LIG    1       26.618 -27.336   4.859  0.00  0.00    +0.118 HD
ATOM     31  H   LIG    1       26.867 -25.786   5.323  0.00  0.00    +0.118 HD
ENDBRANCH  28  29
ENDBRANCH  27  28
ENDBRANCH  26  27
ENDBRANCH  25  26
ENDBRANCH   8  25
TORSDOF 11
ENDMDL
MODEL 8
REMARK VINA RESULT:      -5.6      9.612     12.501
REMARK  Name = *****
REMARK                            x       y       z     vdW  Elec       q    Type
REMARK                         _______ _______ _______ _____ _____    ______ ____
ROOT
ATOM      1  C   LIG    1       23.457 -31.058  12.064  0.00  0.00    +0.068 C 
ATOM      2  C   LIG    1       24.487 -29.918  12.144  0.00  0.00    +0.097 C 
ATOM      3  C   LIG    1       25.100 -29.621  10.776  0.00  0.00    +0.065 C 
ATOM      4  C   LIG    1       24.430 -29.964   9.648  0.00  0.00    +0.016 C 
ATOM      5  C   LIG    1       24.968 -29.801   8.251  0.00  0.00    +0.061 C 
ATOM      6  N   LIG    1       23.184 -30.577   9.758  0.00  0.00    -0.319 N 
ATOM      7  H   LIG    1       22.784 -30.939   8.891  0.00  0.00    +0.152 HD
ATOM      8  C   LIG    1       22.805 -31.295  10.899  0.00  0.00    +0.045 C 
ENDROOT
BRANCH   2   9
ATOM      9  C   LIG    1       23.870 -28.651  12.781  0.00  0.00    -0.017 A 
ATOM     10  C   LIG    1       24.571 -27.799  13.656  0.00  0.00    +0.045 A 
ATOM     11 CL   LIG    1       26.220 -28.053  14.112  0.00  0.00    -0.083 Cl
ATOM     12  C   LIG    1       23.954 -26.662  14.201  0.00  0.00    +0.020 A 
ATOM     13  C   LIG    1       22.639 -26.339  13.875  0.00  0.00    +0.001 A 
ATOM     14  C   LIG    1       21.926 -27.165  13.018  0.00  0.00    +0.000 A 
ATOM     15  C   LIG    1       22.531 -28.307  12.483  0.00  0.00    +0.006 A 
ENDBRANCH   2   9
BRANCH   1  16
ATOM     16  C   LIG    1       23.270 -31.875  13.286  0.00  0.00    +0.338 C 
ATOM     17  O   LIG    1       23.619 -33.044  13.446  0.00  0.00    -0.245 OA
BRANCH  16  18
ATOM     18  O   LIG    1       22.589 -31.154  14.197  0.00  0.00    -0.462 OA
BRANCH  18  20
ATOM     19  C   LIG    1       20.561 -30.203  15.054  0.00  0.00    +0.048 C 
ATOM     20  C   LIG    1       21.172 -31.307  14.207  0.00  0.00    +0.229 C 
ENDBRANCH  18  20
ENDBRANCH  16  18
ENDBRANCH   1  16
BRANCH   3  21
ATOM     21  C   LIG    1       26.469 -29.044  10.830  0.00  0.00    +0.337 C 
ATOM     22  O   LIG    1       26.727 -27.877  10.589  0.00  0.00    -0.245 OA
BRANCH  21  23
ATOM     23  O   LIG    1       27.376 -30.005  11.118  0.00  0.00    -0.465 OA
ATOM     24  C   LIG    1       28.577 -29.576  11.752  0.00  0.00    +0.280 C 
ENDBRANCH  21  23
ENDBRANCH   3  21
BRANCH   8  25
ATOM     25  C   LIG    1       21.702 -32.314  10.684  0.00  0.00    +0.211 C 
BRANCH  25  26
ATOM     26  O   LIG    1       20.708 -31.713   9.849  0.00  0.00    -0.373 OA
BRANCH  26  27
ATOM     27  C   LIG    1       19.724 -31.035  10.636  0.00  0.00    +0.175 C 
BRANCH  27  28
ATOM     28  C   LIG    1       18.328 -31.500  10.209  0.00  0.00    +0.106 C 
BRANCH  28  29
ATOM     29  N   LIG    1       17.671 -30.523   9.337  0.00  0.00    -0.328 NA
ATOM     30  H   LIG    1       18.167 -29.636   9.379  0.00  0.00    +0.118 HD
ATOM     31  H   LIG    1       17.749 -30.859   8.374  0.00  0.00    +0.118 HD
ENDBRANCH  28  29
ENDBRANCH  27  28
ENDBRANCH  26  27
ENDBRANCH  25  26
ENDBRANCH   8  25
TORSDOF 11
ENDMDL
MODEL 9
REMARK VINA RESULT:      -5.5      9.642     12.347
REMARK  Name = *****
REMARK                            x       y       z     vdW  Elec       q    Type
REMARK                         _______ _______ _______ _____ _____    ______ ____
ROOT
ATOM      1  C   LIG    1       22.353 -28.496  13.221  0.00  0.00    +0.068 C 
ATOM      2  C   LIG    1       22.832 -29.911  12.857  0.00  0.00    +0.097 C 
ATOM      3  C   LIG    1       21.660 -30.884  12.735  0.00  0.00    +0.065 C 
ATOM      4  C   LIG    1       20.416 -30.412  12.476  0.00  0.00    +0.016 C 
ATOM      5  C   LIG    1       19.173 -31.261  12.419  0.00  0.00    +0.061 C 
ATOM      6  N   LIG    1       20.229 -29.041  12.318  0.00  0.00    -0.319 N 
ATOM      7  H   LIG    1       19.260 -28.722  12.263  0.00  0.00    +0.152 HD
ATOM      8  C   LIG    1       21.102 -28.100  12.879  0.00  0.00    +0.045 C 
ENDROOT
BRANCH   2   9
ATOM      9  C   LIG    1       23.698 -29.897  11.576  0.00  0.00    -0.017 A 
ATOM     10  C   LIG    1       25.095 -29.717  11.581  0.00  0.00    +0.045 A 
ATOM     11 CL   LIG    1       26.021 -29.511  13.028  0.00  0.00    -0.083 Cl
ATOM     12  C   LIG    1       25.825 -29.714  10.382  0.00  0.00    +0.020 A 
ATOM     13  C   LIG    1       25.188 -29.908   9.159  0.00  0.00    +0.001 A 
ATOM     14  C   LIG    1       23.812 -30.083   9.127  0.00  0.00    +0.000 A 
ATOM     15  C   LIG    1       23.078 -30.072  10.317  0.00  0.00    +0.006 A 
ENDBRANCH   2   9
BRANCH   1  16
ATOM     16  C   LIG    1       23.300 -27.646  13.981  0.00  0.00    +0.338 C 
ATOM     17  O   LIG    1       23.515 -27.693  15.193  0.00  0.00    -0.245 OA
BRANCH  16  18
ATOM     18  O   LIG    1       23.858 -26.752  13.145  0.00  0.00    -0.462 OA
BRANCH  18  20
ATOM     19  C   LIG    1       26.096 -25.892  13.222  0.00  0.00    +0.048 C 
ATOM     20  C   LIG    1       24.674 -25.742  13.734  0.00  0.00    +0.229 C 
ENDBRANCH  18  20
ENDBRANCH  16  18
ENDBRANCH   1  16
BRANCH   3  21
ATOM     21  C   LIG    1       22.009 -32.302  13.015  0.00  0.00    +0.337 C 
ATOM     22  O   LIG    1       22.237 -33.132  12.152  0.00  0.00    -0.245 OA
BRANCH  21  23
ATOM     23  O   LIG    1       21.970 -32.545  14.345  0.00  0.00    -0.465 OA
ATOM     24  C   LIG    1       21.092 -33.580  14.777  0.00  0.00    +0.280 C 
ENDBRANCH  21  23
ENDBRANCH   3  21
BRANCH   8  25
ATOM     25  C   LIG    1       20.516 -26.716  13.083  0.00  0.00    +0.211 C 
BRANCH  25  26
ATOM     26  O   LIG    1       19.653 -26.770  14.223  0.00  0.00    -0.373 OA
BRANCH  26  27
ATOM     27  C   LIG    1       18.397 -26.146  13.941  0.00  0.00    +0.175 C 
BRANCH  27  28
ATOM     28  C   LIG    1       17.261 -27.070  14.392  0.00  0.00    +0.106 C 
BRANCH  28  29
ATOM     29  N   LIG    1       17.537 -28.471  14.069  0.00  0.00    -0.328 NA
ATOM     30  H   LIG    1       18.078 -28.897  14.818  0.00  0.00    +0.118 HD
ATOM     31  H   LIG    1       16.643 -28.967  14.033  0.00  0.00    +0.118 HD
ENDBRANCH  28  29
ENDBRANCH  27  28
ENDBRANCH  26  27
ENDBRANCH  25  26
ENDBRANCH   8  25
TORSDOF 11
ENDMDL
