MODEL 1
REMARK VINA RESULT:      -1.1      0.000      0.000
REMARK  Name = *****
REMARK                            x       y       z     vdW  Elec       q    Type
REMARK                         _______ _______ _______ _____ _____    ______ ____
ROOT
ATOM      1  C   LIG    1       27.580 -12.873   5.129  0.00  0.00    +0.027 C 
ATOM      2  C   LIG    1       26.638 -14.044   4.760  0.00  0.00    +0.086 C 
ENDROOT
BRANCH   2   3
ATOM      3  N   LIG    1       25.339 -13.498   4.249  0.00  0.00    -0.297 NA
ATOM      4  C   LIG    1       24.840 -14.089   3.011  0.00  0.00    +0.085 C 
ATOM      5  C   LIG    1       24.246 -15.494   3.175  0.00  0.00    +0.019 C 
ATOM      6  C   LIG    1       23.481 -15.681   4.500  0.00  0.00    -0.004 C 
ATOM      7  C   LIG    1       23.037 -14.318   5.030  0.00  0.00    +0.019 C 
ATOM      8  C   LIG    1       24.260 -13.407   5.255  0.00  0.00    +0.085 C 
BRANCH   6   9
ATOM      9  C   LIG    1       22.356 -16.746   4.473  0.00  0.00    +0.038 C 
BRANCH   9  10
ATOM     10  C   LIG    1       22.769 -18.200   4.462  0.00  0.00    -0.047 A 
ATOM     11  C   LIG    1       22.434 -19.060   5.515  0.00  0.00    +0.003 A 
ATOM     12  C   LIG    1       22.902 -20.373   5.551  0.00  0.00    +0.000 A 
ATOM     13  C   LIG    1       23.642 -20.875   4.488  0.00  0.00    +0.000 A 
ATOM     14  C   LIG    1       23.909 -20.065   3.388  0.00  0.00    +0.000 A 
ATOM     15  C   LIG    1       23.486 -18.732   3.379  0.00  0.00    +0.003 A 
ENDBRANCH   9  10
ENDBRANCH   6   9
ENDBRANCH   2   3
BRANCH   2  16
ATOM     16  C   LIG    1       27.412 -14.997   3.748  0.00  0.00    +0.161 C 
BRANCH  16  17
ATOM     17  C   LIG    1       27.600 -16.457   4.170  0.00  0.00    -0.017 A 
ATOM     18  C   LIG    1       26.695 -17.459   3.790  0.00  0.00    +0.010 A 
ATOM     19  C   LIG    1       26.868 -18.787   4.192  0.00  0.00    +0.046 A 
ATOM     20  C   LIG    1       27.971 -19.137   4.962  0.00  0.00    +0.117 A 
ATOM     21  C   LIG    1       28.917 -18.187   5.310  0.00  0.00    +0.046 A 
ATOM     22  C   LIG    1       28.734 -16.858   4.910  0.00  0.00    +0.010 A 
BRANCH  20  23
ATOM     23  O   LIG    1       28.089 -20.436   5.357  0.00  0.00    -0.507 OA
ATOM     24  H   LIG    1       28.529 -20.453   6.224  0.00  0.00    +0.292 HD
ENDBRANCH  20  23
ENDBRANCH  16  17
BRANCH  16  25
ATOM     25  O   LIG    1       28.698 -14.418   3.479  0.00  0.00    -0.386 OA
ATOM     26  H   LIG    1       28.546 -13.615   2.956  0.00  0.00    +0.210 HD
ENDBRANCH  16  25
ENDBRANCH   2  16
TORSDOF 7
ENDMDL
MODEL 2
REMARK VINA RESULT:      -0.0      2.576      6.605
REMARK  Name = *****
REMARK                            x       y       z     vdW  Elec       q    Type
REMARK                         _______ _______ _______ _____ _____    ______ ____
ROOT
ATOM      1  C   LIG    1       22.328 -20.653   5.427  0.00  0.00    +0.027 C 
ATOM      2  C   LIG    1       23.366 -19.573   5.038  0.00  0.00    +0.086 C 
ENDROOT
BRANCH   2   3
ATOM      3  N   LIG    1       24.576 -20.232   4.450  0.00  0.00    -0.297 NA
ATOM      4  C   LIG    1       24.940 -19.813   3.100  0.00  0.00    +0.085 C 
ATOM      5  C   LIG    1       25.592 -18.427   3.022  0.00  0.00    +0.019 C 
ATOM      6  C   LIG    1       26.516 -18.119   4.217  0.00  0.00    -0.004 C 
ATOM      7  C   LIG    1       26.979 -19.430   4.853  0.00  0.00    +0.019 C 
ATOM      8  C   LIG    1       25.766 -20.252   5.328  0.00  0.00    +0.085 C 
BRANCH   6   9
ATOM      9  C   LIG    1       27.661 -17.116   3.930  0.00  0.00    +0.038 C 
BRANCH   9  10
ATOM     10  C   LIG    1       27.299 -15.652   3.828  0.00  0.00    -0.047 A 
ATOM     11  C   LIG    1       26.889 -15.086   2.614  0.00  0.00    +0.003 A 
ATOM     12  C   LIG    1       26.654 -13.717   2.500  0.00  0.00    +0.000 A 
ATOM     13  C   LIG    1       26.740 -12.902   3.622  0.00  0.00    +0.000 A 
ATOM     14  C   LIG    1       27.055 -13.459   4.858  0.00  0.00    +0.000 A 
ATOM     15  C   LIG    1       27.345 -14.824   4.959  0.00  0.00    +0.003 A 
ENDBRANCH   9  10
ENDBRANCH   6   9
ENDBRANCH   2   3
BRANCH   2  16
ATOM     16  C   LIG    1       22.645 -18.518   4.089  0.00  0.00    +0.161 C 
BRANCH  16  17
ATOM     17  C   LIG    1       22.824 -17.037   4.431  0.00  0.00    -0.017 A 
ATOM     18  C   LIG    1       23.619 -16.187   3.646  0.00  0.00    +0.010 A 
ATOM     19  C   LIG    1       23.786 -14.839   3.975  0.00  0.00    +0.046 A 
ATOM     20  C   LIG    1       23.136 -14.311   5.083  0.00  0.00    +0.117 A 
ATOM     21  C   LIG    1       22.297 -15.104   5.850  0.00  0.00    +0.046 A 
ATOM     22  C   LIG    1       22.139 -16.455   5.521  0.00  0.00    +0.010 A 
BRANCH  20  23
ATOM     23  O   LIG    1       23.347 -12.999   5.386  0.00  0.00    -0.507 OA
ATOM     24  H   LIG    1       23.767 -12.573   4.620  0.00  0.00    +0.292 HD
ENDBRANCH  20  23
ENDBRANCH  16  17
BRANCH  16  25
ATOM     25  O   LIG    1       21.243 -18.826   4.057  0.00  0.00    -0.386 OA
ATOM     26  H   LIG    1       20.800 -18.199   4.651  0.00  0.00    +0.210 HD
ENDBRANCH  16  25
ENDBRANCH   2  16
TORSDOF 7
ENDMDL
MODEL 3
REMARK VINA RESULT:       0.4      2.239      4.995
REMARK  Name = *****
REMARK                            x       y       z     vdW  Elec       q    Type
REMARK                         _______ _______ _______ _____ _____    ______ ____
ROOT
ATOM      1  C   LIG    1       22.892 -14.906   3.657  0.00  0.00    +0.027 C 
ATOM      2  C   LIG    1       23.813 -16.092   4.027  0.00  0.00    +0.086 C 
ENDROOT
BRANCH   2   3
ATOM      3  N   LIG    1       23.129 -17.381   3.686  0.00  0.00    -0.297 NA
ATOM      4  C   LIG    1       23.930 -18.354   2.948  0.00  0.00    +0.085 C 
ATOM      5  C   LIG    1       24.985 -19.077   3.795  0.00  0.00    +0.019 C 
ATOM      6  C   LIG    1       24.514 -19.374   5.232  0.00  0.00    -0.004 C 
ATOM      7  C   LIG    1       22.986 -19.390   5.275  0.00  0.00    +0.019 C 
ATOM      8  C   LIG    1       22.424 -18.032   4.810  0.00  0.00    +0.085 C 
BRANCH   6   9
ATOM      9  C   LIG    1       25.178 -20.599   5.909  0.00  0.00    +0.038 C 
BRANCH   9  10
ATOM     10  C   LIG    1       26.664 -20.529   6.178  0.00  0.00    -0.047 A 
ATOM     11  C   LIG    1       27.424 -19.419   5.787  0.00  0.00    +0.003 A 
ATOM     12  C   LIG    1       28.809 -19.401   5.945  0.00  0.00    +0.000 A 
ATOM     13  C   LIG    1       29.448 -20.459   6.582  0.00  0.00    +0.000 A 
ATOM     14  C   LIG    1       28.700 -21.530   7.062  0.00  0.00    +0.000 A 
ATOM     15  C   LIG    1       27.318 -21.572   6.851  0.00  0.00    +0.003 A 
ENDBRANCH   9  10
ENDBRANCH   6   9
ENDBRANCH   2   3
BRANCH   2  16
ATOM     16  C   LIG    1       25.217 -15.866   3.315  0.00  0.00    +0.161 C 
BRANCH  16  17
ATOM     17  C   LIG    1       26.159 -14.833   3.941  0.00  0.00    -0.017 A 
ATOM     18  C   LIG    1       25.830 -14.154   5.125  0.00  0.00    +0.010 A 
ATOM     19  C   LIG    1       26.690 -13.204   5.681  0.00  0.00    +0.046 A 
ATOM     20  C   LIG    1       27.910 -12.937   5.074  0.00  0.00    +0.117 A 
ATOM     21  C   LIG    1       28.296 -13.627   3.936  0.00  0.00    +0.046 A 
ATOM     22  C   LIG    1       27.427 -14.572   3.379  0.00  0.00    +0.010 A 
BRANCH  20  23
ATOM     23  O   LIG    1       28.708 -11.983   5.632  0.00  0.00    -0.507 OA
ATOM     24  H   LIG    1       28.292 -11.681   6.457  0.00  0.00    +0.292 HD
ENDBRANCH  20  23
ENDBRANCH  16  17
BRANCH  16  25
ATOM     25  O   LIG    1       24.975 -15.508   1.945  0.00  0.00    -0.386 OA
ATOM     26  H   LIG    1       25.190 -14.566   1.854  0.00  0.00    +0.210 HD
ENDBRANCH  16  25
ENDBRANCH   2  16
TORSDOF 7
ENDMDL
MODEL 4
REMARK VINA RESULT:       0.7      2.564      5.744
REMARK  Name = *****
REMARK                            x       y       z     vdW  Elec       q    Type
REMARK                         _______ _______ _______ _____ _____    ______ ____
ROOT
ATOM      1  C   LIG    1       21.170 -18.645   3.231  0.00  0.00    +0.027 C 
ATOM      2  C   LIG    1       22.705 -18.693   3.421  0.00  0.00    +0.086 C 
ENDROOT
BRANCH   2   3
ATOM      3  N   LIG    1       23.088 -17.855   4.603  0.00  0.00    -0.297 NA
ATOM      4  C   LIG    1       24.506 -17.525   4.720  0.00  0.00    +0.085 C 
ATOM      5  C   LIG    1       24.989 -16.453   3.736  0.00  0.00    +0.019 C 
ATOM      6  C   LIG    1       23.944 -15.351   3.473  0.00  0.00    -0.004 C 
ATOM      7  C   LIG    1       22.960 -15.293   4.642  0.00  0.00    +0.019 C 
ATOM      8  C   LIG    1       22.255 -16.653   4.814  0.00  0.00    +0.085 C 
BRANCH   6   9
ATOM      9  C   LIG    1       24.522 -13.972   3.065  0.00  0.00    +0.038 C 
BRANCH   9  10
ATOM     10  C   LIG    1       25.864 -13.579   3.638  0.00  0.00    -0.047 A 
ATOM     11  C   LIG    1       26.973 -13.360   2.810  0.00  0.00    +0.003 A 
ATOM     12  C   LIG    1       28.233 -13.098   3.346  0.00  0.00    +0.000 A 
ATOM     13  C   LIG    1       28.387 -12.962   4.720  0.00  0.00    +0.000 A 
ATOM     14  C   LIG    1       27.281 -13.085   5.556  0.00  0.00    +0.000 A 
ATOM     15  C   LIG    1       26.029 -13.403   5.020  0.00  0.00    +0.003 A 
ENDBRANCH   9  10
ENDBRANCH   6   9
ENDBRANCH   2   3
BRANCH   2  16
ATOM     16  C   LIG    1       23.142 -20.221   3.508  0.00  0.00    +0.161 C 
BRANCH  16  17
ATOM     17  C   LIG    1       24.285 -20.565   4.466  0.00  0.00    -0.017 A 
ATOM     18  C   LIG    1       25.608 -20.173   4.211  0.00  0.00    +0.010 A 
ATOM     19  C   LIG    1       26.647 -20.504   5.085  0.00  0.00    +0.046 A 
ATOM     20  C   LIG    1       26.372 -21.213   6.248  0.00  0.00    +0.117 A 
ATOM     21  C   LIG    1       25.071 -21.569   6.564  0.00  0.00    +0.046 A 
ATOM     22  C   LIG    1       24.036 -21.241   5.681  0.00  0.00    +0.010 A 
BRANCH  20  23
ATOM     23  O   LIG    1       27.416 -21.541   7.060  0.00  0.00    -0.507 OA
ATOM     24  H   LIG    1       27.954 -20.743   7.203  0.00  0.00    +0.292 HD
ENDBRANCH  20  23
ENDBRANCH  16  17
BRANCH  16  25
ATOM     25  O   LIG    1       23.487 -20.667   2.187  0.00  0.00    -0.386 OA
ATOM     26  H   LIG    1       23.486 -19.885   1.613  0.00  0.00    +0.210 HD
ENDBRANCH  16  25
ENDBRANCH   2  16
TORSDOF 7
ENDMDL
MODEL 5
REMARK VINA RESULT:       1.7      2.152      4.385
REMARK  Name = *****
REMARK                            x       y       z     vdW  Elec       q    Type
REMARK                         _______ _______ _______ _____ _____    ______ ____
ROOT
ATOM      1  C   LIG    1       25.910 -13.560   5.889  0.00  0.00    +0.027 C 
ATOM      2  C   LIG    1       25.530 -12.653   4.694  0.00  0.00    +0.086 C 
ENDROOT
BRANCH   2   3
ATOM      3  N   LIG    1       26.451 -12.931   3.544  0.00  0.00    -0.297 NA
ATOM      4  C   LIG    1       27.851 -13.164   3.887  0.00  0.00    +0.085 C 
ATOM      5  C   LIG    1       28.129 -14.537   4.511  0.00  0.00    +0.019 C 
ATOM      6  C   LIG    1       27.269 -15.665   3.909  0.00  0.00    -0.004 C 
ATOM      7  C   LIG    1       26.793 -15.256   2.515  0.00  0.00    +0.019 C 
ATOM      8  C   LIG    1       25.971 -13.954   2.592  0.00  0.00    +0.085 C 
BRANCH   6   9
ATOM      9  C   LIG    1       27.893 -17.082   3.972  0.00  0.00    +0.038 C 
BRANCH   9  10
ATOM     10  C   LIG    1       26.955 -18.251   4.169  0.00  0.00    -0.047 A 
ATOM     11  C   LIG    1       25.819 -18.416   3.367  0.00  0.00    +0.003 A 
ATOM     12  C   LIG    1       24.902 -19.436   3.617  0.00  0.00    +0.000 A 
ATOM     13  C   LIG    1       25.154 -20.365   4.619  0.00  0.00    +0.000 A 
ATOM     14  C   LIG    1       26.324 -20.275   5.367  0.00  0.00    +0.000 A 
ATOM     15  C   LIG    1       27.214 -19.217   5.152  0.00  0.00    +0.003 A 
ENDBRANCH   9  10
ENDBRANCH   6   9
ENDBRANCH   2   3
BRANCH   2  16
ATOM     16  C   LIG    1       23.984 -12.868   4.386  0.00  0.00    +0.161 C 
BRANCH  16  17
ATOM     17  C   LIG    1       23.430 -14.286   4.554  0.00  0.00    -0.017 A 
ATOM     18  C   LIG    1       23.773 -15.323   3.673  0.00  0.00    +0.010 A 
ATOM     19  C   LIG    1       23.251 -16.610   3.827  0.00  0.00    +0.046 A 
ATOM     20  C   LIG    1       22.396 -16.888   4.886  0.00  0.00    +0.117 A 
ATOM     21  C   LIG    1       22.079 -15.905   5.811  0.00  0.00    +0.046 A 
ATOM     22  C   LIG    1       22.599 -14.616   5.647  0.00  0.00    +0.010 A 
BRANCH  20  23
ATOM     23  O   LIG    1       21.887 -18.148   4.986  0.00  0.00    -0.507 OA
ATOM     24  H   LIG    1       21.784 -18.362   5.929  0.00  0.00    +0.292 HD
ENDBRANCH  20  23
ENDBRANCH  16  17
BRANCH  16  25
ATOM     25  O   LIG    1       23.725 -12.419   3.047  0.00  0.00    -0.386 OA
ATOM     26  H   LIG    1       22.837 -12.729   2.809  0.00  0.00    +0.210 HD
ENDBRANCH  16  25
ENDBRANCH   2  16
TORSDOF 7
ENDMDL
