MODEL 1
REMARK VINA RESULT:      -8.5      0.000      0.000
REMARK  Name = *****
REMARK                            x       y       z     vdW  Elec       q    Type
REMARK                         _______ _______ _______ _____ _____    ______ ____
ROOT
ATOM      1  C   UNK A  0       25.294 -28.332   6.686  0.00  0.00    +0.027 A 
ATOM      2  C   UNK A  0       26.131 -27.405   7.314  0.00  0.00    +0.024 A 
ATOM      3  C   UNK A  0       26.033 -26.037   7.056  0.00  0.00    +0.015 A 
ATOM      4  C   UNK A  0       25.095 -25.552   6.134  0.00  0.00    +0.037 A 
ATOM      5  C   UNK A  0       24.339 -26.472   5.405  0.00  0.00    +0.015 A 
ATOM      6  C   UNK A  0       24.452 -27.850   5.672  0.00  0.00    +0.024 A 
ENDROOT
BRANCH   4   7
ATOM      7  C   UNK A  0       24.949 -24.084   5.909  0.00  0.00    +0.245 C 
ATOM      8  N   GLU A  1       24.952 -23.306   7.060  0.00  0.00    -0.298 N 
ATOM      9  H   GLU A  1       24.901 -23.764   7.971  0.00  0.00    +0.150 HD
ATOM     10  O   UNK A  0       24.827 -23.610   4.787  0.00  0.00    -0.270 OA
BRANCH   8  11
ATOM     11  CA  GLU A  1       24.845 -21.842   7.080  0.00  0.00    +0.182 C 
BRANCH  11  12
ATOM     12  C   GLU A  1       25.672 -21.327   8.274  0.00  0.00    +0.325 C 
ATOM     13  O   GLU A  1       25.607 -21.757   9.414  0.00  0.00    -0.249 OA
BRANCH  12  14
ATOM     14  OXT GLU A  1       26.455 -20.263   7.953  0.00  0.00    -0.479 OA
ATOM     15  HXT GLU A  1       25.983 -19.428   8.153  0.00  0.00    +0.295 HD
ENDBRANCH  12  14
ENDBRANCH  11  12
BRANCH  11  16
ATOM     16  CB  GLU A  1       23.391 -21.374   7.185  0.00  0.00    +0.045 C 
BRANCH  16  17
ATOM     17  CG  GLU A  1       23.051 -20.266   6.182  0.00  0.00    +0.123 C 
BRANCH  17  18
ATOM     18  CD  GLU A  1       23.686 -20.468   4.837  0.00  0.00    +0.305 C 
ATOM     19  OE1 GLU A  1       24.606 -19.798   4.380  0.00  0.00    -0.251 OA
BRANCH  18  20
ATOM     20  OE2 GLU A  1       23.110 -21.425   4.090  0.00  0.00    -0.481 OA
ATOM     21  HE2 GLU A  1       22.659 -20.934   3.371  0.00  0.00    +0.295 HD
ENDBRANCH  18  20
ENDBRANCH  17  18
ENDBRANCH  16  17
ENDBRANCH  11  16
ENDBRANCH   8  11
ENDBRANCH   4   7
BRANCH   1  22
ATOM     22  N   UNK A  0       25.381 -29.716   6.934  0.00  0.00    -0.342 N 
ATOM     23  H   UNK A  0       25.937 -30.187   6.215  0.00  0.00    +0.146 HD
BRANCH  22  24
ATOM     24  C   UNK A  0       24.093 -30.432   7.075  0.00  0.00    +0.125 C 
BRANCH  24  27
ATOM     25  C   UNK A  0       26.440 -33.002   8.073  0.00  0.00    +0.130 C 
ATOM     26  N   UNK A  0       25.646 -32.415   6.993  0.00  0.00    -0.320 N 
ATOM     27  C   UNK A  0       24.282 -31.940   7.396  0.00  0.00    +0.107 C 
ATOM     28  C   UNK A  0       23.197 -32.760   6.645  0.00  0.00    +0.127 C 
ATOM     29  N   UNK A  0       23.476 -32.757   5.209  0.00  0.00    -0.326 N 
ATOM     30  H   UNK A  0       22.832 -33.270   4.614  0.00  0.00    +0.148 HD
ATOM     31  C   UNK A  0       24.785 -32.942   4.753  0.00  0.00    +0.149 C 
ATOM     32  N   UNK A  0       24.940 -33.250   3.425  0.00  0.00    -0.199 NA
ATOM     33  C   UNK A  0       26.134 -33.366   2.951  0.00  0.00    +0.195 C 
ATOM     34  N   UNK A  0       27.243 -33.267   3.720  0.00  0.00    -0.294 N 
ATOM     35  H   UNK A  0       28.150 -33.470   3.338  0.00  0.00    +0.172 HD
ATOM     36  C   UNK A  0       27.184 -33.099   5.070  0.00  0.00    +0.276 C 
ATOM     37  O   UNK A  0       28.208 -33.181   5.744  0.00  0.00    -0.266 OA
ATOM     38  C   UNK A  0       25.820 -32.810   5.634  0.00  0.00    +0.135 C 
BRANCH  33  39
ATOM     39  N   UNK A  0       26.334 -33.588   1.628  0.00  0.00    -0.329 N 
ATOM     40  H   UNK A  0       25.512 -33.858   1.104  0.00  0.00    +0.145 HD
ATOM     41  H   UNK A  0       27.106 -34.231   1.479  0.00  0.00    +0.145 HD
ENDBRANCH  33  39
ENDBRANCH  24  27
ENDBRANCH  22  24
ENDBRANCH   1  22
TORSDOF 12
ENDMDL
MODEL 2
REMARK VINA RESULT:      -8.5      2.865      4.957
REMARK  Name = *****
REMARK                            x       y       z     vdW  Elec       q    Type
REMARK                         _______ _______ _______ _____ _____    ______ ____
ROOT
ATOM      1  C   UNK A  0       25.430 -27.653   6.084  0.00  0.00    +0.027 A 
ATOM      2  C   UNK A  0       26.282 -26.772   6.757  0.00  0.00    +0.024 A 
ATOM      3  C   UNK A  0       25.982 -25.414   6.882  0.00  0.00    +0.015 A 
ATOM      4  C   UNK A  0       24.815 -24.887   6.311  0.00  0.00    +0.037 A 
ATOM      5  C   UNK A  0       24.019 -25.725   5.529  0.00  0.00    +0.015 A 
ATOM      6  C   UNK A  0       24.335 -27.092   5.408  0.00  0.00    +0.024 A 
ENDROOT
BRANCH   4   7
ATOM      7  C   UNK A  0       24.467 -23.449   6.502  0.00  0.00    +0.245 C 
ATOM      8  N   GLU A  1       25.479 -22.549   6.191  0.00  0.00    -0.298 N 
ATOM      9  H   GLU A  1       26.419 -22.901   6.003  0.00  0.00    +0.150 HD
ATOM     10  O   UNK A  0       23.369 -23.097   6.913  0.00  0.00    -0.270 OA
BRANCH   8  11
ATOM     11  CA  GLU A  1       25.356 -21.089   6.280  0.00  0.00    +0.182 C 
BRANCH  11  12
ATOM     12  C   GLU A  1       25.566 -20.513   4.866  0.00  0.00    +0.325 C 
ATOM     13  O   GLU A  1       24.741 -20.533   3.967  0.00  0.00    -0.249 OA
BRANCH  12  14
ATOM     14  OXT GLU A  1       26.822 -20.028   4.676  0.00  0.00    -0.479 OA
ATOM     15  HXT GLU A  1       27.241 -19.838   5.540  0.00  0.00    +0.295 HD
ENDBRANCH  12  14
ENDBRANCH  11  12
BRANCH  11  16
ATOM     16  CB  GLU A  1       26.362 -20.487   7.265  0.00  0.00    +0.045 C 
BRANCH  16  17
ATOM     17  CG  GLU A  1       27.258 -21.545   7.918  0.00  0.00    +0.123 C 
BRANCH  17  18
ATOM     18  CD  GLU A  1       28.718 -21.344   7.632  0.00  0.00    +0.305 C 
ATOM     19  OE1 GLU A  1       29.604 -21.293   8.479  0.00  0.00    -0.251 OA
BRANCH  18  20
ATOM     20  OE2 GLU A  1       29.006 -21.134   6.336  0.00  0.00    -0.481 OA
ATOM     21  HE2 GLU A  1       28.361 -21.690   5.850  0.00  0.00    +0.295 HD
ENDBRANCH  18  20
ENDBRANCH  17  18
ENDBRANCH  16  17
ENDBRANCH  11  16
ENDBRANCH   8  11
ENDBRANCH   4   7
BRANCH   1  22
ATOM     22  N   UNK A  0       25.718 -29.025   5.948  0.00  0.00    -0.342 N 
ATOM     23  H   UNK A  0       25.901 -29.269   4.972  0.00  0.00    +0.146 HD
BRANCH  22  24
ATOM     24  C   UNK A  0       24.699 -29.956   6.482  0.00  0.00    +0.125 C 
BRANCH  24  27
ATOM     25  C   UNK A  0       24.581 -33.380   7.658  0.00  0.00    +0.130 C 
ATOM     26  N   UNK A  0       24.262 -31.976   7.925  0.00  0.00    -0.320 N 
ATOM     27  C   UNK A  0       25.300 -30.994   7.470  0.00  0.00    +0.107 C 
ATOM     28  C   UNK A  0       25.889 -30.245   8.697  0.00  0.00    +0.127 C 
ATOM     29  N   UNK A  0       24.806 -29.698   9.513  0.00  0.00    -0.326 N 
ATOM     30  H   UNK A  0       25.073 -29.189  10.351  0.00  0.00    +0.148 HD
ATOM     31  C   UNK A  0       23.671 -30.471   9.776  0.00  0.00    +0.149 C 
ATOM     32  N   UNK A  0       22.851 -30.044  10.790  0.00  0.00    -0.199 NA
ATOM     33  C   UNK A  0       21.762 -30.695  11.021  0.00  0.00    +0.195 C 
ATOM     34  N   UNK A  0       21.423 -31.822  10.355  0.00  0.00    -0.294 N 
ATOM     35  H   UNK A  0       20.622 -32.361  10.635  0.00  0.00    +0.172 HD
ATOM     36  C   UNK A  0       22.238 -32.397   9.427  0.00  0.00    +0.276 C 
ATOM     37  O   UNK A  0       21.964 -33.504   8.971  0.00  0.00    -0.266 OA
ATOM     38  C   UNK A  0       23.441 -31.589   9.025  0.00  0.00    +0.135 C 
BRANCH  33  39
ATOM     39  N   UNK A  0       20.883 -30.260  11.959  0.00  0.00    -0.329 N 
ATOM     40  H   UNK A  0       20.857 -30.801  12.814  0.00  0.00    +0.145 HD
ATOM     41  H   UNK A  0       19.957 -30.137  11.561  0.00  0.00    +0.145 HD
ENDBRANCH  33  39
ENDBRANCH  24  27
ENDBRANCH  22  24
ENDBRANCH   1  22
TORSDOF 12
ENDMDL
MODEL 3
REMARK VINA RESULT:      -8.4      3.193      5.080
REMARK  Name = *****
REMARK                            x       y       z     vdW  Elec       q    Type
REMARK                         _______ _______ _______ _____ _____    ______ ____
ROOT
ATOM      1  C   UNK A  0       25.239 -27.894   6.660  0.00  0.00    +0.027 A 
ATOM      2  C   UNK A  0       26.158 -26.981   7.186  0.00  0.00    +0.024 A 
ATOM      3  C   UNK A  0       26.062 -25.613   6.925  0.00  0.00    +0.015 A 
ATOM      4  C   UNK A  0       25.042 -25.114   6.104  0.00  0.00    +0.037 A 
ATOM      5  C   UNK A  0       24.193 -26.023   5.469  0.00  0.00    +0.015 A 
ATOM      6  C   UNK A  0       24.303 -27.401   5.737  0.00  0.00    +0.024 A 
ENDROOT
BRANCH   4   7
ATOM      7  C   UNK A  0       24.905 -23.645   5.880  0.00  0.00    +0.245 C 
ATOM      8  N   GLU A  1       24.977 -22.864   7.027  0.00  0.00    -0.298 N 
ATOM      9  H   GLU A  1       24.967 -23.317   7.941  0.00  0.00    +0.150 HD
ATOM     10  O   UNK A  0       24.732 -23.173   4.765  0.00  0.00    -0.270 OA
BRANCH   8  11
ATOM     11  CA  GLU A  1       24.892 -21.398   7.046  0.00  0.00    +0.182 C 
BRANCH  11  12
ATOM     12  C   GLU A  1       25.846 -20.886   8.143  0.00  0.00    +0.325 C 
ATOM     13  O   GLU A  1       26.817 -20.171   7.955  0.00  0.00    -0.249 OA
BRANCH  12  14
ATOM     14  OXT GLU A  1       25.545 -21.377   9.374  0.00  0.00    -0.479 OA
ATOM     15  HXT GLU A  1       24.582 -21.538   9.444  0.00  0.00    +0.295 HD
ENDBRANCH  12  14
ENDBRANCH  11  12
BRANCH  11  16
ATOM     16  CB  GLU A  1       23.463 -20.910   7.299  0.00  0.00    +0.045 C 
BRANCH  16  17
ATOM     17  CG  GLU A  1       22.974 -19.930   6.228  0.00  0.00    +0.123 C 
BRANCH  17  18
ATOM     18  CD  GLU A  1       22.903 -20.536   4.856  0.00  0.00    +0.305 C 
ATOM     19  OE1 GLU A  1       23.474 -20.104   3.861  0.00  0.00    -0.251 OA
BRANCH  18  20
ATOM     20  OE2 GLU A  1       22.075 -21.590   4.758  0.00  0.00    -0.481 OA
ATOM     21  HE2 GLU A  1       21.901 -21.851   5.686  0.00  0.00    +0.295 HD
ENDBRANCH  18  20
ENDBRANCH  17  18
ENDBRANCH  16  17
ENDBRANCH  11  16
ENDBRANCH   8  11
ENDBRANCH   4   7
BRANCH   1  22
ATOM     22  N   UNK A  0       25.321 -29.277   6.912  0.00  0.00    -0.342 N 
ATOM     23  H   UNK A  0       25.343 -29.812   6.040  0.00  0.00    +0.146 HD
BRANCH  22  24
ATOM     24  C   UNK A  0       24.265 -29.842   7.782  0.00  0.00    +0.125 C 
BRANCH  24  27
ATOM     25  C   UNK A  0       23.659 -31.570  10.906  0.00  0.00    +0.130 C 
ATOM     26  N   UNK A  0       24.397 -30.517  10.207  0.00  0.00    -0.320 N 
ATOM     27  C   UNK A  0       24.824 -30.863   8.811  0.00  0.00    +0.107 C 
ATOM     28  C   UNK A  0       26.375 -30.875   8.725  0.00  0.00    +0.127 C 
ATOM     29  N   UNK A  0       26.914 -29.629   9.267  0.00  0.00    -0.326 N 
ATOM     30  H   UNK A  0       27.925 -29.527   9.267  0.00  0.00    +0.148 HD
ATOM     31  C   UNK A  0       26.388 -29.097  10.449  0.00  0.00    +0.149 C 
ATOM     32  N   UNK A  0       27.129 -28.126  11.074  0.00  0.00    -0.199 NA
ATOM     33  C   UNK A  0       26.648 -27.567  12.132  0.00  0.00    +0.195 C 
ATOM     34  N   UNK A  0       25.476 -27.941  12.694  0.00  0.00    -0.294 N 
ATOM     35  H   UNK A  0       25.187 -27.558  13.577  0.00  0.00    +0.172 HD
ATOM     36  C   UNK A  0       24.739 -28.986  12.223  0.00  0.00    +0.276 C 
ATOM     37  O   UNK A  0       23.772 -29.393  12.863  0.00  0.00    -0.266 OA
ATOM     38  C   UNK A  0       25.189 -29.563  10.909  0.00  0.00    +0.135 C 
BRANCH  33  39
ATOM     39  N   UNK A  0       27.308 -26.547  12.735  0.00  0.00    -0.329 N 
ATOM     40  H   UNK A  0       26.846 -25.647  12.697  0.00  0.00    +0.145 HD
ATOM     41  H   UNK A  0       28.269 -26.492  12.410  0.00  0.00    +0.145 HD
ENDBRANCH  33  39
ENDBRANCH  24  27
ENDBRANCH  22  24
ENDBRANCH   1  22
TORSDOF 12
ENDMDL
MODEL 4
REMARK VINA RESULT:      -8.3      3.150      5.233
REMARK  Name = *****
REMARK                            x       y       z     vdW  Elec       q    Type
REMARK                         _______ _______ _______ _____ _____    ______ ____
ROOT
ATOM      1  C   UNK A  0       25.227 -27.651   6.511  0.00  0.00    +0.027 A 
ATOM      2  C   UNK A  0       26.081 -26.751   7.155  0.00  0.00    +0.024 A 
ATOM      3  C   UNK A  0       25.850 -25.375   7.127  0.00  0.00    +0.015 A 
ATOM      4  C   UNK A  0       24.755 -24.850   6.427  0.00  0.00    +0.037 A 
ATOM      5  C   UNK A  0       23.966 -25.722   5.674  0.00  0.00    +0.015 A 
ATOM      6  C   UNK A  0       24.212 -27.108   5.708  0.00  0.00    +0.024 A 
ENDROOT
BRANCH   4   7
ATOM      7  C   UNK A  0       24.476 -23.385   6.453  0.00  0.00    +0.245 C 
ATOM      8  N   GLU A  1       25.490 -22.581   5.947  0.00  0.00    -0.298 N 
ATOM      9  H   GLU A  1       26.397 -22.997   5.732  0.00  0.00    +0.150 HD
ATOM     10  O   UNK A  0       23.430 -22.932   6.900  0.00  0.00    -0.270 OA
BRANCH   8  11
ATOM     11  CA  GLU A  1       25.427 -21.117   5.851  0.00  0.00    +0.182 C 
BRANCH  11  12
ATOM     12  C   GLU A  1       24.996 -20.758   4.415  0.00  0.00    +0.325 C 
ATOM     13  O   GLU A  1       23.957 -21.110   3.883  0.00  0.00    -0.249 OA
BRANCH  12  14
ATOM     14  OXT GLU A  1       25.942 -20.049   3.744  0.00  0.00    -0.479 OA
ATOM     15  HXT GLU A  1       26.745 -20.596   3.621  0.00  0.00    +0.295 HD
ENDBRANCH  12  14
ENDBRANCH  11  12
BRANCH  11  16
ATOM     16  CB  GLU A  1       26.768 -20.462   6.195  0.00  0.00    +0.045 C 
BRANCH  16  17
ATOM     17  CG  GLU A  1       27.238 -20.785   7.617  0.00  0.00    +0.123 C 
BRANCH  17  18
ATOM     18  CD  GLU A  1       28.685 -21.180   7.688  0.00  0.00    +0.305 C 
ATOM     19  OE1 GLU A  1       29.281 -21.503   8.711  0.00  0.00    -0.251 OA
BRANCH  18  20
ATOM     20  OE2 GLU A  1       29.345 -21.081   6.522  0.00  0.00    -0.481 OA
ATOM     21  HE2 GLU A  1       30.289 -21.027   6.780  0.00  0.00    +0.295 HD
ENDBRANCH  18  20
ENDBRANCH  17  18
ENDBRANCH  16  17
ENDBRANCH  11  16
ENDBRANCH   8  11
ENDBRANCH   4   7
BRANCH   1  22
ATOM     22  N   UNK A  0       25.445 -29.043   6.529  0.00  0.00    -0.342 N 
ATOM     23  H   UNK A  0       25.905 -29.356   5.670  0.00  0.00    +0.146 HD
BRANCH  22  24
ATOM     24  C   UNK A  0       24.249 -29.884   6.754  0.00  0.00    +0.125 C 
BRANCH  24  27
ATOM     25  C   UNK A  0       23.093 -31.633   9.707  0.00  0.00    +0.130 C 
ATOM     26  N   UNK A  0       24.072 -30.712   9.128  0.00  0.00    -0.320 N 
ATOM     27  C   UNK A  0       24.521 -31.055   7.739  0.00  0.00    +0.107 C 
ATOM     28  C   UNK A  0       26.040 -31.375   7.742  0.00  0.00    +0.127 C 
ATOM     29  N   UNK A  0       26.775 -30.297   8.402  0.00  0.00    -0.326 N 
ATOM     30  H   UNK A  0       27.784 -30.401   8.468  0.00  0.00    +0.148 HD
ATOM     31  C   UNK A  0       26.282 -29.739   9.586  0.00  0.00    +0.149 C 
ATOM     32  N   UNK A  0       27.154 -28.976  10.321  0.00  0.00    -0.199 NA
ATOM     33  C   UNK A  0       26.718 -28.393  11.386  0.00  0.00    +0.195 C 
ATOM     34  N   UNK A  0       25.459 -28.556  11.851  0.00  0.00    -0.294 N 
ATOM     35  H   UNK A  0       25.189 -28.173  12.741  0.00  0.00    +0.172 HD
ATOM     36  C   UNK A  0       24.566 -29.401  11.266  0.00  0.00    +0.276 C 
ATOM     37  O   UNK A  0       23.494 -29.641  11.817  0.00  0.00    -0.266 OA
ATOM     38  C   UNK A  0       24.985 -29.979   9.942  0.00  0.00    +0.135 C 
BRANCH  33  39
ATOM     39  N   UNK A  0       27.523 -27.564  12.097  0.00  0.00    -0.329 N 
ATOM     40  H   UNK A  0       27.761 -27.882  13.028  0.00  0.00    +0.145 HD
ATOM     41  H   UNK A  0       27.156 -26.617  12.103  0.00  0.00    +0.145 HD
ENDBRANCH  33  39
ENDBRANCH  24  27
ENDBRANCH  22  24
ENDBRANCH   1  22
TORSDOF 12
ENDMDL
MODEL 5
REMARK VINA RESULT:      -8.2      2.877      4.593
REMARK  Name = *****
REMARK                            x       y       z     vdW  Elec       q    Type
REMARK                         _______ _______ _______ _____ _____    ______ ____
ROOT
ATOM      1  C   UNK A  0       24.581 -25.525   6.312  0.00  0.00    +0.027 A 
ATOM      2  C   UNK A  0       23.668 -24.493   6.555  0.00  0.00    +0.024 A 
ATOM      3  C   UNK A  0       24.090 -23.208   6.900  0.00  0.00    +0.015 A 
ATOM      4  C   UNK A  0       25.455 -22.919   7.035  0.00  0.00    +0.037 A 
ATOM      5  C   UNK A  0       26.373 -23.965   6.921  0.00  0.00    +0.015 A 
ATOM      6  C   UNK A  0       25.933 -25.258   6.576  0.00  0.00    +0.024 A 
ENDROOT
BRANCH   4   7
ATOM      7  C   UNK A  0       25.904 -21.529   7.341  0.00  0.00    +0.245 C 
ATOM      8  N   GLU A  1       27.265 -21.298   7.181  0.00  0.00    -0.298 N 
ATOM      9  H   GLU A  1       27.889 -22.089   7.018  0.00  0.00    +0.150 HD
ATOM     10  O   UNK A  0       25.123 -20.664   7.715  0.00  0.00    -0.270 OA
BRANCH   8  11
ATOM     11  CA  GLU A  1       27.924 -20.006   7.402  0.00  0.00    +0.182 C 
BRANCH  11  12
ATOM     12  C   GLU A  1       28.422 -19.492   6.036  0.00  0.00    +0.325 C 
ATOM     13  O   GLU A  1       27.877 -19.700   4.965  0.00  0.00    -0.249 OA
BRANCH  12  14
ATOM     14  OXT GLU A  1       29.604 -18.826   6.123  0.00  0.00    -0.479 OA
ATOM     15  HXT GLU A  1       29.571 -18.015   5.577  0.00  0.00    +0.295 HD
ENDBRANCH  12  14
ENDBRANCH  11  12
BRANCH  11  16
ATOM     16  CB  GLU A  1       29.085 -20.116   8.395  0.00  0.00    +0.045 C 
BRANCH  16  17
ATOM     17  CG  GLU A  1       29.910 -21.393   8.203  0.00  0.00    +0.123 C 
BRANCH  17  18
ATOM     18  CD  GLU A  1       31.292 -21.299   8.783  0.00  0.00    +0.305 C 
ATOM     19  OE1 GLU A  1       31.809 -20.276   9.219  0.00  0.00    -0.251 OA
BRANCH  18  20
ATOM     20  OE2 GLU A  1       31.996 -22.443   8.726  0.00  0.00    -0.481 OA
ATOM     21  HE2 GLU A  1       31.858 -22.768   7.811  0.00  0.00    +0.295 HD
ENDBRANCH  18  20
ENDBRANCH  17  18
ENDBRANCH  16  17
ENDBRANCH  11  16
ENDBRANCH   8  11
ENDBRANCH   4   7
BRANCH   1  22
ATOM     22  N   UNK A  0       24.172 -26.827   5.964  0.00  0.00    -0.342 N 
ATOM     23  H   UNK A  0       23.189 -26.983   6.204  0.00  0.00    +0.146 HD
BRANCH  22  24
ATOM     24  C   UNK A  0       24.975 -27.932   6.532  0.00  0.00    +0.125 C 
BRANCH  24  27
ATOM     25  C   UNK A  0       24.115 -30.059   9.334  0.00  0.00    +0.130 C 
ATOM     26  N   UNK A  0       24.812 -29.936   8.053  0.00  0.00    -0.320 N 
ATOM     27  C   UNK A  0       24.096 -29.118   7.019  0.00  0.00    +0.107 C 
ATOM     28  C   UNK A  0       23.729 -30.011   5.804  0.00  0.00    +0.127 C 
ATOM     29  N   UNK A  0       24.913 -30.733   5.339  0.00  0.00    -0.326 N 
ATOM     30  H   UNK A  0       24.791 -31.356   4.547  0.00  0.00    +0.148 HD
ATOM     31  C   UNK A  0       25.783 -31.316   6.266  0.00  0.00    +0.149 C 
ATOM     32  N   UNK A  0       26.678 -32.236   5.781  0.00  0.00    -0.199 NA
ATOM     33  C   UNK A  0       27.538 -32.750   6.594  0.00  0.00    +0.195 C 
ATOM     34  N   UNK A  0       27.554 -32.475   7.918  0.00  0.00    -0.294 N 
ATOM     35  H   UNK A  0       28.168 -32.976   8.537  0.00  0.00    +0.172 HD
ATOM     36  C   UNK A  0       26.620 -31.682   8.513  0.00  0.00    +0.276 C 
ATOM     37  O   UNK A  0       26.577 -31.596   9.738  0.00  0.00    -0.266 OA
ATOM     38  C   UNK A  0       25.697 -30.948   7.579  0.00  0.00    +0.135 C 
BRANCH  33  39
ATOM     39  N   UNK A  0       28.493 -33.600   6.142  0.00  0.00    -0.329 N 
ATOM     40  H   UNK A  0       28.238 -34.579   6.139  0.00  0.00    +0.145 HD
ATOM     41  H   UNK A  0       29.377 -33.441   6.616  0.00  0.00    +0.145 HD
ENDBRANCH  33  39
ENDBRANCH  24  27
ENDBRANCH  22  24
ENDBRANCH   1  22
TORSDOF 12
ENDMDL
MODEL 6
REMARK VINA RESULT:      -8.2      2.663     10.765
REMARK  Name = *****
REMARK                            x       y       z     vdW  Elec       q    Type
REMARK                         _______ _______ _______ _____ _____    ______ ____
ROOT
ATOM      1  C   UNK A  0       25.247 -26.145   5.663  0.00  0.00    +0.027 A 
ATOM      2  C   UNK A  0       24.200 -26.716   6.392  0.00  0.00    +0.024 A 
ATOM      3  C   UNK A  0       24.030 -28.100   6.469  0.00  0.00    +0.015 A 
ATOM      4  C   UNK A  0       24.903 -28.963   5.792  0.00  0.00    +0.037 A 
ATOM      5  C   UNK A  0       25.875 -28.408   4.958  0.00  0.00    +0.015 A 
ATOM      6  C   UNK A  0       26.033 -27.011   4.887  0.00  0.00    +0.024 A 
ENDROOT
BRANCH   4   7
ATOM      7  C   UNK A  0       24.756 -30.442   5.929  0.00  0.00    +0.245 C 
ATOM      8  N   GLU A  1       25.876 -31.183   5.575  0.00  0.00    -0.298 N 
ATOM      9  H   GLU A  1       26.658 -30.716   5.115  0.00  0.00    +0.150 HD
ATOM     10  O   UNK A  0       23.715 -30.956   6.316  0.00  0.00    -0.270 OA
BRANCH   8  11
ATOM     11  CA  GLU A  1       25.968 -32.646   5.651  0.00  0.00    +0.182 C 
BRANCH  11  12
ATOM     12  C   GLU A  1       27.402 -33.004   6.089  0.00  0.00    +0.325 C 
ATOM     13  O   GLU A  1       28.246 -33.527   5.379  0.00  0.00    -0.249 OA
BRANCH  12  14
ATOM     14  OXT GLU A  1       27.632 -32.746   7.404  0.00  0.00    -0.479 OA
ATOM     15  HXT GLU A  1       28.284 -32.022   7.493  0.00  0.00    +0.295 HD
ENDBRANCH  12  14
ENDBRANCH  11  12
BRANCH  11  16
ATOM     16  CB  GLU A  1       25.627 -33.313   4.315  0.00  0.00    +0.045 C 
BRANCH  16  17
ATOM     17  CG  GLU A  1       25.763 -32.358   3.125  0.00  0.00    +0.123 C 
BRANCH  17  18
ATOM     18  CD  GLU A  1       26.664 -32.881   2.044  0.00  0.00    +0.305 C 
ATOM     19  OE1 GLU A  1       26.511 -32.693   0.842  0.00  0.00    -0.251 OA
BRANCH  18  20
ATOM     20  OE2 GLU A  1       27.657 -33.673   2.484  0.00  0.00    -0.481 OA
ATOM     21  HE2 GLU A  1       27.482 -33.772   3.444  0.00  0.00    +0.295 HD
ENDBRANCH  18  20
ENDBRANCH  17  18
ENDBRANCH  16  17
ENDBRANCH  11  16
ENDBRANCH   8  11
ENDBRANCH   4   7
BRANCH   1  22
ATOM     22  N   UNK A  0       25.433 -24.752   5.574  0.00  0.00    -0.342 N 
ATOM     23  H   UNK A  0       26.000 -24.505   4.759  0.00  0.00    +0.146 HD
BRANCH  22  24
ATOM     24  C   UNK A  0       26.016 -24.098   6.767  0.00  0.00    +0.125 C 
BRANCH  24  27
ATOM     25  C   UNK A  0       23.519 -21.633   5.871  0.00  0.00    +0.130 C 
ATOM     26  N   UNK A  0       24.927 -21.907   6.162  0.00  0.00    -0.320 N 
ATOM     27  C   UNK A  0       25.165 -22.896   7.264  0.00  0.00    +0.107 C 
ATOM     28  C   UNK A  0       25.903 -22.203   8.442  0.00  0.00    +0.127 C 
ATOM     29  N   UNK A  0       27.087 -21.503   7.945  0.00  0.00    -0.326 N 
ATOM     30  H   UNK A  0       27.648 -21.005   8.630  0.00  0.00    +0.148 HD
ATOM     31  C   UNK A  0       27.011 -20.754   6.766  0.00  0.00    +0.149 C 
ATOM     32  N   UNK A  0       28.036 -19.874   6.526  0.00  0.00    -0.199 NA
ATOM     33  C   UNK A  0       28.034 -19.211   5.419  0.00  0.00    +0.195 C 
ATOM     34  N   UNK A  0       27.032 -19.292   4.514  0.00  0.00    -0.294 N 
ATOM     35  H   UNK A  0       27.013 -18.681   3.716  0.00  0.00    +0.172 HD
ATOM     36  C   UNK A  0       25.911 -20.034   4.729  0.00  0.00    +0.276 C 
ATOM     37  O   UNK A  0       24.958 -19.945   3.957  0.00  0.00    -0.266 OA
ATOM     38  C   UNK A  0       25.943 -20.934   5.934  0.00  0.00    +0.135 C 
BRANCH  33  39
ATOM     39  N   UNK A  0       29.069 -18.392   5.103  0.00  0.00    -0.329 N 
ATOM     40  H   UNK A  0       29.551 -17.978   5.891  0.00  0.00    +0.145 HD
ATOM     41  H   UNK A  0       28.786 -17.693   4.423  0.00  0.00    +0.145 HD
ENDBRANCH  33  39
ENDBRANCH  24  27
ENDBRANCH  22  24
ENDBRANCH   1  22
TORSDOF 12
ENDMDL
MODEL 7
REMARK VINA RESULT:      -8.1      3.190     10.803
REMARK  Name = *****
REMARK                            x       y       z     vdW  Elec       q    Type
REMARK                         _______ _______ _______ _____ _____    ______ ____
ROOT
ATOM      1  C   UNK A  0       25.121 -25.262   5.823  0.00  0.00    +0.027 A 
ATOM      2  C   UNK A  0       24.355 -26.159   5.071  0.00  0.00    +0.024 A 
ATOM      3  C   UNK A  0       24.255 -27.507   5.419  0.00  0.00    +0.015 A 
ATOM      4  C   UNK A  0       24.944 -28.009   6.532  0.00  0.00    +0.037 A 
ATOM      5  C   UNK A  0       25.812 -27.157   7.218  0.00  0.00    +0.015 A 
ATOM      6  C   UNK A  0       25.907 -25.800   6.854  0.00  0.00    +0.024 A 
ENDROOT
BRANCH   4   7
ATOM      7  C   UNK A  0       24.783 -29.436   6.937  0.00  0.00    +0.245 C 
ATOM      8  N   GLU A  1       25.941 -30.056   7.389  0.00  0.00    -0.298 N 
ATOM      9  H   GLU A  1       26.837 -29.578   7.285  0.00  0.00    +0.150 HD
ATOM     10  O   UNK A  0       23.706 -30.012   6.862  0.00  0.00    -0.270 OA
BRANCH   8  11
ATOM     11  CA  GLU A  1       26.015 -31.445   7.860  0.00  0.00    +0.182 C 
BRANCH  11  12
ATOM     12  C   GLU A  1       26.746 -31.442   9.218  0.00  0.00    +0.325 C 
ATOM     13  O   GLU A  1       26.623 -32.292  10.085  0.00  0.00    -0.249 OA
BRANCH  12  14
ATOM     14  OXT GLU A  1       27.510 -30.334   9.403  0.00  0.00    -0.479 OA
ATOM     15  HXT GLU A  1       28.082 -30.449  10.188  0.00  0.00    +0.295 HD
ENDBRANCH  12  14
ENDBRANCH  11  12
BRANCH  11  16
ATOM     16  CB  GLU A  1       26.736 -32.352   6.859  0.00  0.00    +0.045 C 
BRANCH  16  17
ATOM     17  CG  GLU A  1       25.782 -33.300   6.125  0.00  0.00    +0.123 C 
BRANCH  17  18
ATOM     18  CD  GLU A  1       25.103 -32.664   4.947  0.00  0.00    +0.305 C 
ATOM     19  OE1 GLU A  1       25.648 -32.372   3.888  0.00  0.00    -0.251 OA
BRANCH  18  20
ATOM     20  OE2 GLU A  1       23.814 -32.344   5.155  0.00  0.00    -0.481 OA
ATOM     21  HE2 GLU A  1       23.846 -31.447   5.548  0.00  0.00    +0.295 HD
ENDBRANCH  18  20
ENDBRANCH  17  18
ENDBRANCH  16  17
ENDBRANCH  11  16
ENDBRANCH   8  11
ENDBRANCH   4   7
BRANCH   1  22
ATOM     22  N   UNK A  0       25.234 -23.900   5.485  0.00  0.00    -0.342 N 
ATOM     23  H   UNK A  0       25.722 -23.778   4.594  0.00  0.00    +0.146 HD
BRANCH  22  24
ATOM     24  C   UNK A  0       25.879 -23.033   6.496  0.00  0.00    +0.125 C 
BRANCH  24  27
ATOM     25  C   UNK A  0       25.722 -19.939   4.620  0.00  0.00    +0.130 C 
ATOM     26  N   UNK A  0       26.287 -20.655   5.765  0.00  0.00    -0.320 N 
ATOM     27  C   UNK A  0       25.336 -21.577   6.467  0.00  0.00    +0.107 C 
ATOM     28  C   UNK A  0       25.111 -21.089   7.925  0.00  0.00    +0.127 C 
ATOM     29  N   UNK A  0       26.399 -20.878   8.583  0.00  0.00    -0.326 N 
ATOM     30  H   UNK A  0       26.376 -20.551   9.545  0.00  0.00    +0.148 HD
ATOM     31  C   UNK A  0       27.438 -20.242   7.896  0.00  0.00    +0.149 C 
ATOM     32  N   UNK A  0       28.491 -19.788   8.649  0.00  0.00    -0.199 NA
ATOM     33  C   UNK A  0       29.498 -19.253   8.045  0.00  0.00    +0.195 C 
ATOM     34  N   UNK A  0       29.533 -19.056   6.708  0.00  0.00    -0.294 N 
ATOM     35  H   UNK A  0       30.286 -18.539   6.287  0.00  0.00    +0.172 HD
ATOM     36  C   UNK A  0       28.479 -19.349   5.897  0.00  0.00    +0.276 C 
ATOM     37  O   UNK A  0       28.495 -19.000   4.718  0.00  0.00    -0.266 OA
ATOM     38  C   UNK A  0       27.352 -20.110   6.540  0.00  0.00    +0.135 C 
BRANCH  33  39
ATOM     39  N   UNK A  0       30.595 -18.865   8.743  0.00  0.00    -0.329 N 
ATOM     40  H   UNK A  0       31.130 -18.113   8.328  0.00  0.00    +0.145 HD
ATOM     41  H   UNK A  0       31.179 -19.662   8.976  0.00  0.00    +0.145 HD
ENDBRANCH  33  39
ENDBRANCH  24  27
ENDBRANCH  22  24
ENDBRANCH   1  22
TORSDOF 12
ENDMDL
MODEL 8
REMARK VINA RESULT:      -8.1      2.685      4.471
REMARK  Name = *****
REMARK                            x       y       z     vdW  Elec       q    Type
REMARK                         _______ _______ _______ _____ _____    ______ ____
ROOT
ATOM      1  C   UNK A  0       25.652 -27.976   5.975  0.00  0.00    +0.027 A 
ATOM      2  C   UNK A  0       25.967 -27.174   7.076  0.00  0.00    +0.024 A 
ATOM      3  C   UNK A  0       25.830 -25.786   7.034  0.00  0.00    +0.015 A 
ATOM      4  C   UNK A  0       25.385 -25.149   5.867  0.00  0.00    +0.037 A 
ATOM      5  C   UNK A  0       25.188 -25.921   4.720  0.00  0.00    +0.015 A 
ATOM      6  C   UNK A  0       25.334 -27.320   4.775  0.00  0.00    +0.024 A 
ENDROOT
BRANCH   4   7
ATOM      7  C   UNK A  0       25.179 -23.671   5.847  0.00  0.00    +0.245 C 
ATOM      8  N   GLU A  1       25.370 -23.031   7.065  0.00  0.00    -0.298 N 
ATOM      9  H   GLU A  1       25.488 -23.592   7.910  0.00  0.00    +0.150 HD
ATOM     10  O   UNK A  0       24.853 -23.076   4.828  0.00  0.00    -0.270 OA
BRANCH   8  11
ATOM     11  CA  GLU A  1       25.245 -21.584   7.278  0.00  0.00    +0.182 C 
BRANCH  11  12
ATOM     12  C   GLU A  1       26.146 -21.204   8.469  0.00  0.00    +0.325 C 
ATOM     13  O   GLU A  1       25.793 -20.559   9.442  0.00  0.00    -0.249 OA
BRANCH  12  14
ATOM     14  OXT GLU A  1       27.436 -21.600   8.301  0.00  0.00    -0.479 OA
ATOM     15  HXT GLU A  1       27.965 -21.360   9.089  0.00  0.00    +0.295 HD
ENDBRANCH  12  14
ENDBRANCH  11  12
BRANCH  11  16
ATOM     16  CB  GLU A  1       23.795 -21.166   7.540  0.00  0.00    +0.045 C 
BRANCH  16  17
ATOM     17  CG  GLU A  1       23.321 -20.051   6.603  0.00  0.00    +0.123 C 
BRANCH  17  18
ATOM     18  CD  GLU A  1       22.546 -20.558   5.421  0.00  0.00    +0.305 C 
ATOM     19  OE1 GLU A  1       22.129 -19.866   4.498  0.00  0.00    -0.251 OA
BRANCH  18  20
ATOM     20  OE2 GLU A  1       22.252 -21.869   5.471  0.00  0.00    -0.481 OA
ATOM     21  HE2 GLU A  1       23.125 -22.315   5.446  0.00  0.00    +0.295 HD
ENDBRANCH  18  20
ENDBRANCH  17  18
ENDBRANCH  16  17
ENDBRANCH  11  16
ENDBRANCH   8  11
ENDBRANCH   4   7
BRANCH   1  22
ATOM     22  N   UNK A  0       25.786 -29.378   6.000  0.00  0.00    -0.342 N 
ATOM     23  H   UNK A  0       26.180 -29.728   5.123  0.00  0.00    +0.146 HD
BRANCH  22  24
ATOM     24  C   UNK A  0       24.553 -30.142   6.297  0.00  0.00    +0.125 C 
BRANCH  24  27
ATOM     25  C   UNK A  0       23.137 -33.169   7.691  0.00  0.00    +0.130 C 
ATOM     26  N   UNK A  0       23.628 -31.813   7.941  0.00  0.00    -0.320 N 
ATOM     27  C   UNK A  0       24.832 -31.418   7.139  0.00  0.00    +0.107 C 
ATOM     28  C   UNK A  0       26.030 -31.149   8.089  0.00  0.00    +0.127 C 
ATOM     29  N   UNK A  0       25.631 -30.217   9.143  0.00  0.00    -0.326 N 
ATOM     30  H   UNK A  0       26.337 -29.971   9.831  0.00  0.00    +0.148 HD
ATOM     31  C   UNK A  0       24.393 -30.368   9.775  0.00  0.00    +0.149 C 
ATOM     32  N   UNK A  0       24.211 -29.684  10.950  0.00  0.00    -0.199 NA
ATOM     33  C   UNK A  0       23.060 -29.748  11.531  0.00  0.00    +0.195 C 
ATOM     34  N   UNK A  0       22.045 -30.513  11.070  0.00  0.00    -0.294 N 
ATOM     35  H   UNK A  0       21.202 -30.622  11.606  0.00  0.00    +0.172 HD
ATOM     36  C   UNK A  0       22.177 -31.331   9.988  0.00  0.00    +0.276 C 
ATOM     37  O   UNK A  0       21.285 -32.128   9.708  0.00  0.00    -0.266 OA
ATOM     38  C   UNK A  0       23.449 -31.171   9.201  0.00  0.00    +0.135 C 
BRANCH  33  39
ATOM     39  N   UNK A  0       22.810 -29.023  12.650  0.00  0.00    -0.329 N 
ATOM     40  H   UNK A  0       21.870 -29.097  13.015  0.00  0.00    +0.145 HD
ATOM     41  H   UNK A  0       23.093 -28.056  12.528  0.00  0.00    +0.145 HD
ENDBRANCH  33  39
ENDBRANCH  24  27
ENDBRANCH  22  24
ENDBRANCH   1  22
TORSDOF 12
ENDMDL
MODEL 9
REMARK VINA RESULT:      -8.1      2.664      4.387
REMARK  Name = *****
REMARK                            x       y       z     vdW  Elec       q    Type
REMARK                         _______ _______ _______ _____ _____    ______ ____
ROOT
ATOM      1  C   UNK A  0       24.692 -28.317   5.922  0.00  0.00    +0.027 A 
ATOM      2  C   UNK A  0       25.561 -27.838   6.908  0.00  0.00    +0.024 A 
ATOM      3  C   UNK A  0       25.816 -26.474   7.059  0.00  0.00    +0.015 A 
ATOM      4  C   UNK A  0       25.216 -25.538   6.204  0.00  0.00    +0.037 A 
ATOM      5  C   UNK A  0       24.447 -26.007   5.138  0.00  0.00    +0.015 A 
ATOM      6  C   UNK A  0       24.202 -27.386   4.994  0.00  0.00    +0.024 A 
ENDROOT
BRANCH   4   7
ATOM      7  C   UNK A  0       25.441 -24.078   6.411  0.00  0.00    +0.245 C 
ATOM      8  N   GLU A  1       24.617 -23.242   5.667  0.00  0.00    -0.298 N 
ATOM      9  H   GLU A  1       24.029 -23.643   4.936  0.00  0.00    +0.150 HD
ATOM     10  O   UNK A  0       26.299 -23.656   7.174  0.00  0.00    -0.270 OA
BRANCH   8  11
ATOM     11  CA  GLU A  1       24.643 -21.775   5.725  0.00  0.00    +0.182 C 
BRANCH  11  12
ATOM     12  C   GLU A  1       23.458 -21.317   6.598  0.00  0.00    +0.325 C 
ATOM     13  O   GLU A  1       22.991 -21.943   7.536  0.00  0.00    -0.249 OA
BRANCH  12  14
ATOM     14  OXT GLU A  1       22.910 -20.149   6.172  0.00  0.00    -0.479 OA
ATOM     15  HXT GLU A  1       23.225 -19.409   6.729  0.00  0.00    +0.295 HD
ENDBRANCH  12  14
ENDBRANCH  11  12
BRANCH  11  16
ATOM     16  CB  GLU A  1       24.565 -21.144   4.332  0.00  0.00    +0.045 C 
BRANCH  16  17
ATOM     17  CG  GLU A  1       25.616 -20.050   4.118  0.00  0.00    +0.123 C 
BRANCH  17  18
ATOM     18  CD  GLU A  1       25.037 -18.763   3.606  0.00  0.00    +0.305 C 
ATOM     19  OE1 GLU A  1       23.843 -18.480   3.593  0.00  0.00    -0.251 OA
BRANCH  18  20
ATOM     20  OE2 GLU A  1       25.938 -17.925   3.064  0.00  0.00    -0.481 OA
ATOM     21  HE2 GLU A  1       26.517 -18.505   2.527  0.00  0.00    +0.295 HD
ENDBRANCH  18  20
ENDBRANCH  17  18
ENDBRANCH  16  17
ENDBRANCH  11  16
ENDBRANCH   8  11
ENDBRANCH   4   7
BRANCH   1  22
ATOM     22  N   UNK A  0       24.425 -29.690   5.756  0.00  0.00    -0.342 N 
ATOM     23  H   UNK A  0       23.818 -30.042   6.501  0.00  0.00    +0.146 HD
BRANCH  22  24
ATOM     24  C   UNK A  0       25.608 -30.573   5.657  0.00  0.00    +0.125 C 
BRANCH  24  27
ATOM     25  C   UNK A  0       23.277 -32.835   7.259  0.00  0.00    +0.130 C 
ATOM     26  N   UNK A  0       24.279 -31.781   7.426  0.00  0.00    -0.320 N 
ATOM     27  C   UNK A  0       25.453 -31.872   6.497  0.00  0.00    +0.107 C 
ATOM     28  C   UNK A  0       26.753 -32.107   7.314  0.00  0.00    +0.127 C 
ATOM     29  N   UNK A  0       26.858 -31.112   8.381  0.00  0.00    -0.326 N 
ATOM     30  H   UNK A  0       27.671 -31.172   8.987  0.00  0.00    +0.148 HD
ATOM     31  C   UNK A  0       25.730 -30.780   9.138  0.00  0.00    +0.149 C 
ATOM     32  N   UNK A  0       25.949 -30.100  10.309  0.00  0.00    -0.199 NA
ATOM     33  C   UNK A  0       24.931 -29.721  11.004  0.00  0.00    +0.195 C 
ATOM     34  N   UNK A  0       23.656 -30.023  10.667  0.00  0.00    -0.294 N 
ATOM     35  H   UNK A  0       22.897 -29.804  11.289  0.00  0.00    +0.172 HD
ATOM     36  C   UNK A  0       23.349 -30.809   9.598  0.00  0.00    +0.276 C 
ATOM     37  O   UNK A  0       22.193 -31.191   9.428  0.00  0.00    -0.266 OA
ATOM     38  C   UNK A  0       24.494 -31.143   8.682  0.00  0.00    +0.135 C 
BRANCH  33  39
ATOM     39  N   UNK A  0       25.099 -28.976  12.125  0.00  0.00    -0.329 N 
ATOM     40  H   UNK A  0       24.787 -29.409  12.986  0.00  0.00    +0.145 HD
ATOM     41  H   UNK A  0       24.708 -28.046  12.007  0.00  0.00    +0.145 HD
ENDBRANCH  33  39
ENDBRANCH  24  27
ENDBRANCH  22  24
ENDBRANCH   1  22
TORSDOF 12
ENDMDL
