MODEL 1
REMARK VINA RESULT:      -6.7      0.000      0.000
REMARK  Name = *****
REMARK                            x       y       z     vdW  Elec       q    Type
REMARK                         _______ _______ _______ _____ _____    ______ ____
ROOT
ATOM      1  C   LIG    1       24.096 -30.292  10.147  0.00  0.00    -0.000 C 
ATOM      2  C   LIG    1       25.231 -29.829  10.749  0.00  0.00    -0.066 C 
ATOM      3  C   LIG    1       25.433 -29.733  12.264  0.00  0.00    +0.021 C 
ATOM      4  C   LIG    1       24.210 -29.851  13.190  0.00  0.00    +0.009 C 
ATOM      5  C   LIG    1       24.569 -29.053  14.437  0.00  0.00    +0.005 C 
ATOM      6  C   LIG    1       25.325 -27.822  13.912  0.00  0.00    +0.002 C 
ATOM      7  C   LIG    1       26.200 -28.441  12.751  0.00  0.00    -0.022 C 
ATOM      8  C   LIG    1       27.552 -28.898  13.387  0.00  0.00    +0.012 C 
ATOM      9  C   LIG    1       26.535 -27.486  11.590  0.00  0.00    +0.008 C 
ATOM     10  C   LIG    1       27.172 -28.171  10.393  0.00  0.00    +0.005 C 
ATOM     11  C   LIG    1       26.481 -29.471   9.967  0.00  0.00    +0.031 C 
ENDROOT
BRANCH   1  19
ATOM     12  C   LIG    1       24.798 -33.549   8.611  0.00  0.00    +0.015 C 
ATOM     13  C   LIG    1       25.254 -32.389   8.083  0.00  0.00    -0.023 C 
ATOM     14  C   LIG    1       26.616 -32.200   7.438  0.00  0.00    +0.147 C 
ATOM     15  C   LIG    1       26.447 -32.121   5.917  0.00  0.00    +0.067 C 
ATOM     16  C   LIG    1       25.403 -31.076   5.509  0.00  0.00    +0.122 C 
ATOM     17  C   LIG    1       24.097 -31.139   6.332  0.00  0.00    +0.067 C 
ATOM     18  C   LIG    1       24.374 -31.267   7.822  0.00  0.00    -0.040 C 
ATOM     19  C   LIG    1       23.884 -30.367   8.711  0.00  0.00    +0.004 C 
BRANCH  14  20
ATOM     20  O   LIG    1       27.500 -33.293   7.729  0.00  0.00    -0.387 OA
ATOM     21  H   LIG    1       27.556 -33.341   8.700  0.00  0.00    +0.210 HD
ENDBRANCH  14  20
BRANCH  16  22
ATOM     22  O   LIG    1       25.971 -29.767   5.594  0.00  0.00    -0.391 OA
ATOM     23  H   LIG    1       25.322 -29.131   5.246  0.00  0.00    +0.210 HD
ENDBRANCH  16  22
ENDBRANCH   1  19
BRANCH   6  24
ATOM     24  C   LIG    1       24.376 -26.594  13.643  0.00  0.00    +0.012 C 
ATOM     25  C   LIG    1       24.819 -25.272  14.278  0.00  0.00    +0.012 C 
BRANCH  24  26
ATOM     26  C   LIG    1       22.936 -26.929  13.970  0.00  0.00    -0.027 C 
ATOM     27  C   LIG    1       21.864 -26.848  13.160  0.00  0.00    -0.027 C 
BRANCH  27  28
ATOM     28  C   LIG    1       20.418 -27.109  13.573  0.00  0.00    +0.011 C 
ATOM     29  C   LIG    1       20.070 -26.486  14.939  0.00  0.00    +0.012 C 
BRANCH  28  30
ATOM     30  C   LIG    1       20.082 -28.624  13.485  0.00  0.00    -0.011 C 
ATOM     31  C   LIG    1       20.352 -29.363  14.803  0.00  0.00    +0.008 C 
ATOM     32  C   LIG    1       20.809 -29.323  12.334  0.00  0.00    +0.008 C 
ENDBRANCH  28  30
ENDBRANCH  27  28
ENDBRANCH  24  26
ENDBRANCH   6  24
TORSDOF 7
ENDMDL
MODEL 2
REMARK VINA RESULT:      -6.5     10.947     13.337
REMARK  Name = *****
REMARK                            x       y       z     vdW  Elec       q    Type
REMARK                         _______ _______ _______ _____ _____    ______ ____
ROOT
ATOM      1  C   LIG    1       27.001 -20.417   6.842  0.00  0.00    -0.000 C 
ATOM      2  C   LIG    1       25.783 -21.027   6.946  0.00  0.00    -0.066 C 
ATOM      3  C   LIG    1       24.954 -21.520   5.757  0.00  0.00    +0.021 C 
ATOM      4  C   LIG    1       25.320 -21.041   4.341  0.00  0.00    +0.009 C 
ATOM      5  C   LIG    1       24.018 -21.081   3.551  0.00  0.00    +0.005 C 
ATOM      6  C   LIG    1       22.945 -20.593   4.538  0.00  0.00    +0.002 C 
ATOM      7  C   LIG    1       23.398 -21.280   5.887  0.00  0.00    -0.022 C 
ATOM      8  C   LIG    1       22.702 -22.677   5.948  0.00  0.00    +0.012 C 
ATOM      9  C   LIG    1       23.029 -20.522   7.175  0.00  0.00    +0.008 C 
ATOM     10  C   LIG    1       23.676 -21.085   8.429  0.00  0.00    +0.005 C 
ATOM     11  C   LIG    1       25.169 -21.398   8.282  0.00  0.00    +0.031 C 
ENDROOT
BRANCH   1  19
ATOM     12  C   LIG    1       29.385 -17.744   6.050  0.00  0.00    +0.015 C 
ATOM     13  C   LIG    1       29.730 -18.821   6.794  0.00  0.00    -0.023 C 
ATOM     14  C   LIG    1       31.068 -19.536   6.726  0.00  0.00    +0.147 C 
ATOM     15  C   LIG    1       31.896 -19.175   7.964  0.00  0.00    +0.067 C 
ATOM     16  C   LIG    1       31.119 -19.409   9.263  0.00  0.00    +0.122 C 
ATOM     17  C   LIG    1       29.672 -18.867   9.236  0.00  0.00    +0.067 C 
ATOM     18  C   LIG    1       28.954 -19.236   7.946  0.00  0.00    -0.040 C 
ATOM     19  C   LIG    1       27.786 -19.926   7.961  0.00  0.00    +0.004 C 
BRANCH  14  20
ATOM     20  O   LIG    1       31.819 -19.154   5.564  0.00  0.00    -0.387 OA
ATOM     21  H   LIG    1       31.262 -18.514   5.084  0.00  0.00    +0.210 HD
ENDBRANCH  14  20
BRANCH  16  22
ATOM     22  O   LIG    1       31.111 -20.805   9.577  0.00  0.00    -0.391 OA
ATOM     23  H   LIG    1       30.589 -21.266   8.898  0.00  0.00    +0.210 HD
ENDBRANCH  16  22
ENDBRANCH   1  19
BRANCH   6  24
ATOM     24  C   LIG    1       22.712 -19.037   4.460  0.00  0.00    +0.012 C 
ATOM     25  C   LIG    1       21.415 -18.604   3.769  0.00  0.00    +0.012 C 
BRANCH  24  26
ATOM     26  C   LIG    1       23.923 -18.325   3.898  0.00  0.00    -0.027 C 
ATOM     27  C   LIG    1       24.201 -17.008   3.940  0.00  0.00    -0.027 C 
BRANCH  27  28
ATOM     28  C   LIG    1       25.395 -16.332   3.273  0.00  0.00    +0.011 C 
ATOM     29  C   LIG    1       26.710 -17.109   3.483  0.00  0.00    +0.012 C 
BRANCH  28  30
ATOM     30  C   LIG    1       25.490 -14.838   3.688  0.00  0.00    -0.011 C 
ATOM     31  C   LIG    1       24.124 -14.245   4.060  0.00  0.00    +0.008 C 
ATOM     32  C   LIG    1       26.165 -13.971   2.622  0.00  0.00    +0.008 C 
ENDBRANCH  28  30
ENDBRANCH  27  28
ENDBRANCH  24  26
ENDBRANCH   6  24
TORSDOF 7
ENDMDL
MODEL 3
REMARK VINA RESULT:      -6.3      3.926      7.332
REMARK  Name = *****
REMARK                            x       y       z     vdW  Elec       q    Type
REMARK                         _______ _______ _______ _____ _____    ______ ____
ROOT
ATOM      1  C   LIG    1       23.616 -31.056  12.129  0.00  0.00    -0.000 C 
ATOM      2  C   LIG    1       24.486 -31.659  11.267  0.00  0.00    -0.066 C 
ATOM      3  C   LIG    1       25.605 -30.933  10.513  0.00  0.00    +0.021 C 
ATOM      4  C   LIG    1       25.586 -29.396  10.446  0.00  0.00    +0.009 C 
ATOM      5  C   LIG    1       26.304 -29.039   9.151  0.00  0.00    +0.005 C 
ATOM      6  C   LIG    1       25.844 -30.102   8.140  0.00  0.00    +0.002 C 
ATOM      7  C   LIG    1       25.821 -31.412   9.023  0.00  0.00    -0.022 C 
ATOM      8  C   LIG    1       27.241 -32.056   8.929  0.00  0.00    +0.012 C 
ATOM      9  C   LIG    1       24.799 -32.482   8.598  0.00  0.00    +0.008 C 
ATOM     10  C   LIG    1       24.642 -33.616   9.597  0.00  0.00    +0.005 C 
ATOM     11  C   LIG    1       24.516 -33.160  11.055  0.00  0.00    +0.031 C 
ENDROOT
BRANCH   1  19
ATOM     12  C   LIG    1       21.048 -32.583  10.000  0.00  0.00    +0.015 C 
ATOM     13  C   LIG    1       20.735 -31.816  11.071  0.00  0.00    -0.023 C 
ATOM     14  C   LIG    1       19.581 -30.830  11.130  0.00  0.00    +0.147 C 
ATOM     15  C   LIG    1       18.457 -31.421  11.989  0.00  0.00    +0.067 C 
ATOM     16  C   LIG    1       18.964 -31.885  13.358  0.00  0.00    +0.122 C 
ATOM     17  C   LIG    1       20.272 -32.705  13.298  0.00  0.00    +0.067 C 
ATOM     18  C   LIG    1       21.302 -32.062  12.382  0.00  0.00    -0.040 C 
ATOM     19  C   LIG    1       22.537 -31.729  12.833  0.00  0.00    +0.004 C 
BRANCH  14  20
ATOM     20  O   LIG    1       19.045 -30.557   9.827  0.00  0.00    -0.387 OA
ATOM     21  H   LIG    1       19.647 -29.907   9.421  0.00  0.00    +0.210 HD
ENDBRANCH  14  20
BRANCH  16  22
ATOM     22  O   LIG    1       19.136 -30.755  14.218  0.00  0.00    -0.391 OA
ATOM     23  H   LIG    1       20.011 -30.368  14.040  0.00  0.00    +0.210 HD
ENDBRANCH  16  22
ENDBRANCH   1  19
BRANCH   6  24
ATOM     24  C   LIG    1       24.574 -29.654   7.324  0.00  0.00    +0.012 C 
ATOM     25  C   LIG    1       24.201 -30.558   6.144  0.00  0.00    +0.012 C 
BRANCH  24  26
ATOM     26  C   LIG    1       24.663 -28.197   6.920  0.00  0.00    -0.027 C 
ATOM     27  C   LIG    1       24.136 -27.609   5.831  0.00  0.00    -0.027 C 
BRANCH  27  28
ATOM     28  C   LIG    1       24.339 -26.151   5.426  0.00  0.00    +0.011 C 
ATOM     29  C   LIG    1       25.530 -25.961   4.467  0.00  0.00    +0.012 C 
BRANCH  28  30
ATOM     30  C   LIG    1       24.404 -25.232   6.678  0.00  0.00    -0.011 C 
ATOM     31  C   LIG    1       23.339 -24.127   6.650  0.00  0.00    +0.008 C 
ATOM     32  C   LIG    1       25.790 -24.618   6.887  0.00  0.00    +0.008 C 
ENDBRANCH  28  30
ENDBRANCH  27  28
ENDBRANCH  24  26
ENDBRANCH   6  24
TORSDOF 7
ENDMDL
MODEL 4
REMARK VINA RESULT:      -6.2      7.661      9.925
REMARK  Name = *****
REMARK                            x       y       z     vdW  Elec       q    Type
REMARK                         _______ _______ _______ _____ _____    ______ ____
ROOT
ATOM      1  C   LIG    1       25.048 -24.286   5.564  0.00  0.00    -0.000 C 
ATOM      2  C   LIG    1       24.099 -23.333   5.801  0.00  0.00    -0.066 C 
ATOM      3  C   LIG    1       23.584 -22.342   4.753  0.00  0.00    +0.021 C 
ATOM      4  C   LIG    1       24.371 -22.162   3.443  0.00  0.00    +0.009 C 
ATOM      5  C   LIG    1       24.080 -20.737   2.989  0.00  0.00    +0.005 C 
ATOM      6  C   LIG    1       24.065 -19.907   4.282  0.00  0.00    +0.002 C 
ATOM      7  C   LIG    1       23.332 -20.878   5.291  0.00  0.00    -0.022 C 
ATOM      8  C   LIG    1       21.802 -20.585   5.183  0.00  0.00    +0.012 C 
ATOM      9  C   LIG    1       23.729 -20.721   6.770  0.00  0.00    +0.008 C 
ATOM     10  C   LIG    1       23.186 -21.816   7.674  0.00  0.00    +0.005 C 
ATOM     11  C   LIG    1       23.353 -23.234   7.117  0.00  0.00    +0.031 C 
ENDROOT
BRANCH   1  19
ATOM     12  C   LIG    1       26.800 -27.218   4.225  0.00  0.00    +0.015 C 
ATOM     13  C   LIG    1       25.862 -27.320   5.195  0.00  0.00    -0.023 C 
ATOM     14  C   LIG    1       24.838 -28.436   5.305  0.00  0.00    +0.147 C 
ATOM     15  C   LIG    1       25.243 -29.381   6.441  0.00  0.00    +0.067 C 
ATOM     16  C   LIG    1       25.501 -28.628   7.751  0.00  0.00    +0.122 C 
ATOM     17  C   LIG    1       26.368 -27.359   7.584  0.00  0.00    +0.067 C 
ATOM     18  C   LIG    1       25.916 -26.517   6.401  0.00  0.00    -0.040 C 
ATOM     19  C   LIG    1       25.561 -25.217   6.555  0.00  0.00    +0.004 C 
BRANCH  14  20
ATOM     20  O   LIG    1       24.756 -29.206   4.096  0.00  0.00    -0.387 OA
ATOM     21  H   LIG    1       25.153 -30.071   4.303  0.00  0.00    +0.210 HD
ENDBRANCH  14  20
BRANCH  16  22
ATOM     22  O   LIG    1       24.256 -28.290   8.368  0.00  0.00    -0.391 OA
ATOM     23  H   LIG    1       23.671 -29.066   8.315  0.00  0.00    +0.210 HD
ENDBRANCH  16  22
ENDBRANCH   1  19
BRANCH   6  24
ATOM     24  C   LIG    1       25.474 -19.295   4.627  0.00  0.00    +0.012 C 
ATOM     25  C   LIG    1       26.236 -18.697   3.440  0.00  0.00    +0.012 C 
BRANCH  24  26
ATOM     26  C   LIG    1       26.322 -20.270   5.416  0.00  0.00    -0.027 C 
ATOM     27  C   LIG    1       27.389 -19.999   6.190  0.00  0.00    -0.027 C 
BRANCH  27  28
ATOM     28  C   LIG    1       28.264 -21.037   6.888  0.00  0.00    +0.011 C 
ATOM     29  C   LIG    1       27.446 -22.019   7.750  0.00  0.00    +0.012 C 
BRANCH  28  30
ATOM     30  C   LIG    1       29.421 -20.352   7.667  0.00  0.00    -0.011 C 
ATOM     31  C   LIG    1       30.265 -19.432   6.774  0.00  0.00    +0.008 C 
ATOM     32  C   LIG    1       30.325 -21.358   8.385  0.00  0.00    +0.008 C 
ENDBRANCH  28  30
ENDBRANCH  27  28
ENDBRANCH  24  26
ENDBRANCH   6  24
TORSDOF 7
ENDMDL
MODEL 5
REMARK VINA RESULT:      -6.1      8.129     10.846
REMARK  Name = *****
REMARK                            x       y       z     vdW  Elec       q    Type
REMARK                         _______ _______ _______ _____ _____    ______ ____
ROOT
ATOM      1  C   LIG    1       27.077 -20.280   7.097  0.00  0.00    -0.000 C 
ATOM      2  C   LIG    1       25.955 -20.366   6.324  0.00  0.00    -0.066 C 
ATOM      3  C   LIG    1       24.683 -21.121   6.720  0.00  0.00    +0.021 C 
ATOM      4  C   LIG    1       24.739 -22.114   7.895  0.00  0.00    +0.009 C 
ATOM      5  C   LIG    1       23.659 -23.148   7.603  0.00  0.00    +0.005 C 
ATOM      6  C   LIG    1       23.733 -23.373   6.084  0.00  0.00    +0.002 C 
ATOM      7  C   LIG    1       23.985 -21.910   5.543  0.00  0.00    -0.022 C 
ATOM      8  C   LIG    1       22.585 -21.262   5.297  0.00  0.00    +0.012 C 
ATOM      9  C   LIG    1       24.777 -21.816   4.225  0.00  0.00    +0.008 C 
ATOM     10  C   LIG    1       25.200 -20.404   3.860  0.00  0.00    +0.005 C 
ATOM     11  C   LIG    1       25.802 -19.605   5.021  0.00  0.00    +0.031 C 
ENDROOT
BRANCH   1  19
ATOM     12  C   LIG    1       30.197 -22.104   7.728  0.00  0.00    +0.015 C 
ATOM     13  C   LIG    1       30.037 -20.807   8.079  0.00  0.00    -0.023 C 
ATOM     14  C   LIG    1       30.577 -20.174   9.350  0.00  0.00    +0.147 C 
ATOM     15  C   LIG    1       31.787 -19.300   9.002  0.00  0.00    +0.067 C 
ATOM     16  C   LIG    1       31.472 -18.302   7.882  0.00  0.00    +0.122 C 
ATOM     17  C   LIG    1       30.718 -18.922   6.684  0.00  0.00    +0.067 C 
ATOM     18  C   LIG    1       29.569 -19.810   7.136  0.00  0.00    -0.040 C 
ATOM     19  C   LIG    1       28.297 -19.585   6.722  0.00  0.00    +0.004 C 
BRANCH  14  20
ATOM     20  O   LIG    1       31.003 -21.163  10.299  0.00  0.00    -0.387 OA
ATOM     21  H   LIG    1       30.201 -21.435  10.780  0.00  0.00    +0.210 HD
ENDBRANCH  14  20
BRANCH  16  22
ATOM     22  O   LIG    1       30.727 -17.201   8.411  0.00  0.00    -0.391 OA
ATOM     23  H   LIG    1       29.993 -17.012   7.802  0.00  0.00    +0.210 HD
ENDBRANCH  16  22
ENDBRANCH   1  19
BRANCH   6  24
ATOM     24  C   LIG    1       24.692 -24.558   5.691  0.00  0.00    +0.012 C 
ATOM     25  C   LIG    1       24.763 -24.875   4.194  0.00  0.00    +0.012 C 
BRANCH  24  26
ATOM     26  C   LIG    1       24.413 -25.793   6.522  0.00  0.00    -0.027 C 
ATOM     27  C   LIG    1       25.117 -26.939   6.561  0.00  0.00    -0.027 C 
BRANCH  27  28
ATOM     28  C   LIG    1       24.734 -28.188   7.350  0.00  0.00    +0.011 C 
ATOM     29  C   LIG    1       25.818 -28.606   8.363  0.00  0.00    +0.012 C 
BRANCH  28  30
ATOM     30  C   LIG    1       24.310 -29.338   6.395  0.00  0.00    -0.011 C 
ATOM     31  C   LIG    1       24.353 -30.713   7.077  0.00  0.00    +0.008 C 
ATOM     32  C   LIG    1       25.133 -29.368   5.105  0.00  0.00    +0.008 C 
ENDBRANCH  28  30
ENDBRANCH  27  28
ENDBRANCH  24  26
ENDBRANCH   6  24
TORSDOF 7
ENDMDL
MODEL 6
REMARK VINA RESULT:      -6.1      4.349      7.941
REMARK  Name = *****
REMARK                            x       y       z     vdW  Elec       q    Type
REMARK                         _______ _______ _______ _____ _____    ______ ____
ROOT
ATOM      1  C   LIG    1       23.068 -29.778  11.026  0.00  0.00    -0.000 C 
ATOM      2  C   LIG    1       23.765 -30.522  10.118  0.00  0.00    -0.066 C 
ATOM      3  C   LIG    1       25.114 -30.118   9.516  0.00  0.00    +0.021 C 
ATOM      4  C   LIG    1       25.594 -28.664   9.667  0.00  0.00    +0.009 C 
ATOM      5  C   LIG    1       26.490 -28.407   8.463  0.00  0.00    +0.005 C 
ATOM      6  C   LIG    1       25.795 -29.126   7.295  0.00  0.00    +0.002 C 
ATOM      7  C   LIG    1       25.283 -30.454   7.981  0.00  0.00    -0.022 C 
ATOM      8  C   LIG    1       26.424 -31.512   7.847  0.00  0.00    +0.012 C 
ATOM      9  C   LIG    1       24.009 -31.068   7.372  0.00  0.00    +0.008 C 
ATOM     10  C   LIG    1       23.418 -32.201   8.193  0.00  0.00    +0.005 C 
ATOM     11  C   LIG    1       23.328 -31.912   9.696  0.00  0.00    +0.031 C 
ENDROOT
BRANCH   1  19
ATOM     12  C   LIG    1       21.290 -27.086  12.774  0.00  0.00    +0.015 C 
ATOM     13  C   LIG    1       21.423 -28.325  13.303  0.00  0.00    -0.023 C 
ATOM     14  C   LIG    1       21.664 -28.625  14.772  0.00  0.00    +0.147 C 
ATOM     15  C   LIG    1       20.369 -29.158  15.396  0.00  0.00    +0.067 C 
ATOM     16  C   LIG    1       19.786 -30.329  14.599  0.00  0.00    +0.122 C 
ATOM     17  C   LIG    1       19.754 -30.094  13.071  0.00  0.00    +0.067 C 
ATOM     18  C   LIG    1       21.066 -29.518  12.560  0.00  0.00    -0.040 C 
ATOM     19  C   LIG    1       21.778 -30.140  11.588  0.00  0.00    +0.004 C 
BRANCH  14  20
ATOM     20  O   LIG    1       22.055 -27.451  15.499  0.00  0.00    -0.387 OA
ATOM     21  H   LIG    1       23.029 -27.464  15.525  0.00  0.00    +0.210 HD
ENDBRANCH  14  20
BRANCH  16  22
ATOM     22  O   LIG    1       20.514 -31.524  14.893  0.00  0.00    -0.391 OA
ATOM     23  H   LIG    1       20.833 -31.467  15.810  0.00  0.00    +0.210 HD
ENDBRANCH  16  22
ENDBRANCH   1  19
BRANCH   6  24
ATOM     24  C   LIG    1       24.806 -28.189   6.507  0.00  0.00    +0.012 C 
ATOM     25  C   LIG    1       24.520 -28.607   5.061  0.00  0.00    +0.012 C 
BRANCH  24  26
ATOM     26  C   LIG    1       25.223 -26.737   6.608  0.00  0.00    -0.027 C 
ATOM     27  C   LIG    1       24.685 -25.677   5.976  0.00  0.00    -0.027 C 
BRANCH  27  28
ATOM     28  C   LIG    1       25.209 -24.245   6.045  0.00  0.00    +0.011 C 
ATOM     29  C   LIG    1       25.988 -23.960   7.344  0.00  0.00    +0.012 C 
BRANCH  28  30
ATOM     30  C   LIG    1       24.068 -23.224   5.777  0.00  0.00    -0.011 C 
ATOM     31  C   LIG    1       24.593 -21.794   5.584  0.00  0.00    +0.008 C 
ATOM     32  C   LIG    1       22.990 -23.244   6.864  0.00  0.00    +0.008 C 
ENDBRANCH  28  30
ENDBRANCH  27  28
ENDBRANCH  24  26
ENDBRANCH   6  24
TORSDOF 7
ENDMDL
MODEL 7
REMARK VINA RESULT:      -6.0      9.281     11.083
REMARK  Name = *****
REMARK                            x       y       z     vdW  Elec       q    Type
REMARK                         _______ _______ _______ _____ _____    ______ ____
ROOT
ATOM      1  C   LIG    1       25.009 -24.185   5.756  0.00  0.00    -0.000 C 
ATOM      2  C   LIG    1       24.402 -23.023   6.138  0.00  0.00    -0.066 C 
ATOM      3  C   LIG    1       23.810 -21.993   5.171  0.00  0.00    +0.021 C 
ATOM      4  C   LIG    1       24.176 -22.073   3.679  0.00  0.00    +0.009 C 
ATOM      5  C   LIG    1       24.065 -20.646   3.158  0.00  0.00    +0.005 C 
ATOM      6  C   LIG    1       24.624 -19.770   4.291  0.00  0.00    +0.002 C 
ATOM      7  C   LIG    1       24.050 -20.485   5.578  0.00  0.00    -0.022 C 
ATOM      8  C   LIG    1       22.658 -19.844   5.880  0.00  0.00    +0.012 C 
ATOM      9  C   LIG    1       24.907 -20.352   6.850  0.00  0.00    +0.008 C 
ATOM     10  C   LIG    1       24.450 -21.238   7.997  0.00  0.00    +0.005 C 
ATOM     11  C   LIG    1       24.136 -22.682   7.592  0.00  0.00    +0.031 C 
ENDROOT
BRANCH   1  19
ATOM     12  C   LIG    1       26.572 -27.096   4.160  0.00  0.00    +0.015 C 
ATOM     13  C   LIG    1       25.726 -27.216   5.210  0.00  0.00    -0.023 C 
ATOM     14  C   LIG    1       24.695 -28.319   5.378  0.00  0.00    +0.147 C 
ATOM     15  C   LIG    1       25.186 -29.310   6.439  0.00  0.00    +0.067 C 
ATOM     16  C   LIG    1       25.580 -28.608   7.743  0.00  0.00    +0.122 C 
ATOM     17  C   LIG    1       26.452 -27.348   7.539  0.00  0.00    +0.067 C 
ATOM     18  C   LIG    1       25.908 -26.458   6.432  0.00  0.00    -0.040 C 
ATOM     19  C   LIG    1       25.594 -25.158   6.662  0.00  0.00    +0.004 C 
BRANCH  14  20
ATOM     20  O   LIG    1       24.487 -29.044   4.157  0.00  0.00    -0.387 OA
ATOM     21  H   LIG    1       24.183 -29.931   4.421  0.00  0.00    +0.210 HD
ENDBRANCH  14  20
BRANCH  16  22
ATOM     22  O   LIG    1       24.404 -28.273   8.485  0.00  0.00    -0.391 OA
ATOM     23  H   LIG    1       24.670 -27.723   9.242  0.00  0.00    +0.210 HD
ENDBRANCH  16  22
ENDBRANCH   1  19
BRANCH   6  24
ATOM     24  C   LIG    1       26.167 -19.492   4.140  0.00  0.00    +0.012 C 
ATOM     25  C   LIG    1       27.046 -20.049   5.264  0.00  0.00    +0.012 C 
BRANCH  24  26
ATOM     26  C   LIG    1       26.440 -18.027   3.875  0.00  0.00    -0.027 C 
ATOM     27  C   LIG    1       25.557 -17.070   3.538  0.00  0.00    -0.027 C 
BRANCH  27  28
ATOM     28  C   LIG    1       25.905 -15.624   3.191  0.00  0.00    +0.011 C 
ATOM     29  C   LIG    1       27.333 -15.238   3.622  0.00  0.00    +0.012 C 
BRANCH  28  30
ATOM     30  C   LIG    1       24.817 -14.649   3.722  0.00  0.00    -0.011 C 
ATOM     31  C   LIG    1       25.380 -13.634   4.727  0.00  0.00    +0.008 C 
ATOM     32  C   LIG    1       23.617 -15.379   4.331  0.00  0.00    +0.008 C 
ENDBRANCH  28  30
ENDBRANCH  27  28
ENDBRANCH  24  26
ENDBRANCH   6  24
TORSDOF 7
ENDMDL
MODEL 8
REMARK VINA RESULT:      -5.9      1.503      4.360
REMARK  Name = *****
REMARK                            x       y       z     vdW  Elec       q    Type
REMARK                         _______ _______ _______ _____ _____    ______ ____
ROOT
ATOM      1  C   LIG    1       23.414 -30.990  10.373  0.00  0.00    -0.000 C 
ATOM      2  C   LIG    1       23.112 -31.326  11.662  0.00  0.00    -0.066 C 
ATOM      3  C   LIG    1       21.848 -30.881  12.402  0.00  0.00    +0.021 C 
ATOM      4  C   LIG    1       21.001 -29.737  11.815  0.00  0.00    +0.009 C 
ATOM      5  C   LIG    1       20.319 -29.084  13.011  0.00  0.00    +0.005 C 
ATOM      6  C   LIG    1       21.383 -29.089  14.121  0.00  0.00    +0.002 C 
ATOM      7  C   LIG    1       22.066 -30.500  13.920  0.00  0.00    -0.022 C 
ATOM      8  C   LIG    1       21.271 -31.525  14.790  0.00  0.00    +0.012 C 
ATOM      9  C   LIG    1       23.545 -30.587  14.338  0.00  0.00    +0.008 C 
ATOM     10  C   LIG    1       24.230 -31.877  13.919  0.00  0.00    +0.005 C 
ATOM     11  C   LIG    1       23.953 -32.295  12.471  0.00  0.00    +0.031 C 
ENDROOT
BRANCH   1  19
ATOM     12  C   LIG    1       24.569 -28.669   7.777  0.00  0.00    +0.015 C 
ATOM     13  C   LIG    1       24.481 -30.003   7.565  0.00  0.00    -0.023 C 
ATOM     14  C   LIG    1       24.025 -30.651   6.269  0.00  0.00    +0.147 C 
ATOM     15  C   LIG    1       25.244 -31.229   5.540  0.00  0.00    +0.067 C 
ATOM     16  C   LIG    1       26.076 -32.142   6.446  0.00  0.00    +0.122 C 
ATOM     17  C   LIG    1       26.344 -31.556   7.851  0.00  0.00    +0.067 C 
ATOM     18  C   LIG    1       25.085 -30.964   8.466  0.00  0.00    -0.040 C 
ATOM     19  C   LIG    1       24.620 -31.388   9.668  0.00  0.00    +0.004 C 
BRANCH  14  20
ATOM     20  O   LIG    1       23.392 -29.707   5.394  0.00  0.00    -0.387 OA
ATOM     21  H   LIG    1       22.553 -30.118   5.118  0.00  0.00    +0.210 HD
ENDBRANCH  14  20
BRANCH  16  22
ATOM     22  O   LIG    1       25.441 -33.417   6.562  0.00  0.00    -0.391 OA
ATOM     23  H   LIG    1       24.794 -33.501   5.840  0.00  0.00    +0.210 HD
ENDBRANCH  16  22
ENDBRANCH   1  19
BRANCH   6  24
ATOM     24  C   LIG    1       22.242 -27.769  14.145  0.00  0.00    +0.012 C 
ATOM     25  C   LIG    1       21.689 -26.613  13.305  0.00  0.00    +0.012 C 
BRANCH  24  26
ATOM     26  C   LIG    1       23.697 -28.052  13.837  0.00  0.00    -0.027 C 
ATOM     27  C   LIG    1       24.613 -27.208  13.329  0.00  0.00    -0.027 C 
BRANCH  27  28
ATOM     28  C   LIG    1       26.046 -27.576  12.952  0.00  0.00    +0.011 C 
ATOM     29  C   LIG    1       26.906 -26.343  12.615  0.00  0.00    +0.012 C 
BRANCH  28  30
ATOM     30  C   LIG    1       26.064 -28.661  11.839  0.00  0.00    -0.011 C 
ATOM     31  C   LIG    1       26.778 -29.945  12.284  0.00  0.00    +0.008 C 
ATOM     32  C   LIG    1       26.669 -28.152  10.529  0.00  0.00    +0.008 C 
ENDBRANCH  28  30
ENDBRANCH  27  28
ENDBRANCH  24  26
ENDBRANCH   6  24
TORSDOF 7
ENDMDL
MODEL 9
REMARK VINA RESULT:      -5.6      3.235      7.020
REMARK  Name = *****
REMARK                            x       y       z     vdW  Elec       q    Type
REMARK                         _______ _______ _______ _____ _____    ______ ____
ROOT
ATOM      1  C   LIG    1       23.406 -28.545  13.766  0.00  0.00    -0.000 C 
ATOM      2  C   LIG    1       24.632 -29.143  13.842  0.00  0.00    -0.066 C 
ATOM      3  C   LIG    1       25.895 -28.626  13.147  0.00  0.00    +0.021 C 
ATOM      4  C   LIG    1       25.758 -27.566  12.039  0.00  0.00    +0.009 C 
ATOM      5  C   LIG    1       26.956 -27.782  11.124  0.00  0.00    +0.005 C 
ATOM      6  C   LIG    1       27.123 -29.309  11.048  0.00  0.00    +0.002 C 
ATOM      7  C   LIG    1       26.823 -29.750  12.536  0.00  0.00    -0.022 C 
ATOM      8  C   LIG    1       28.180 -29.721  13.308  0.00  0.00    +0.012 C 
ATOM      9  C   LIG    1       26.224 -31.158  12.703  0.00  0.00    +0.008 C 
ATOM     10  C   LIG    1       25.735 -31.457  14.110  0.00  0.00    +0.005 C 
ATOM     11  C   LIG    1       24.903 -30.334  14.740  0.00  0.00    +0.031 C 
ENDROOT
BRANCH   1  19
ATOM     12  C   LIG    1       22.293 -31.872  12.691  0.00  0.00    +0.015 C 
ATOM     13  C   LIG    1       21.443 -30.823  12.789  0.00  0.00    -0.023 C 
ATOM     14  C   LIG    1       20.304 -30.531  11.827  0.00  0.00    +0.147 C 
ATOM     15  C   LIG    1       18.974 -30.892  12.498  0.00  0.00    +0.067 C 
ATOM     16  C   LIG    1       18.826 -30.232  13.874  0.00  0.00    +0.122 C 
ATOM     17  C   LIG    1       20.085 -30.346  14.763  0.00  0.00    +0.067 C 
ATOM     18  C   LIG    1       21.354 -30.017  13.991  0.00  0.00    -0.040 C 
ATOM     19  C   LIG    1       22.196 -29.037  14.403  0.00  0.00    +0.004 C 
BRANCH  14  20
ATOM     20  O   LIG    1       20.414 -31.301  10.621  0.00  0.00    -0.387 OA
ATOM     21  H   LIG    1       21.231 -30.999  10.185  0.00  0.00    +0.210 HD
ENDBRANCH  14  20
BRANCH  16  22
ATOM     22  O   LIG    1       18.464 -28.858  13.714  0.00  0.00    -0.391 OA
ATOM     23  H   LIG    1       17.584 -28.822  13.300  0.00  0.00    +0.210 HD
ENDBRANCH  16  22
ENDBRANCH   1  19
BRANCH   6  24
ATOM     24  C   LIG    1       26.339 -29.947   9.841  0.00  0.00    +0.012 C 
ATOM     25  C   LIG    1       27.002 -31.172   9.204  0.00  0.00    +0.012 C 
BRANCH  24  26
ATOM     26  C   LIG    1       25.966 -28.901   8.811  0.00  0.00    -0.027 C 
ATOM     27  C   LIG    1       25.043 -28.995   7.836  0.00  0.00    -0.027 C 
BRANCH  27  28
ATOM     28  C   LIG    1       24.775 -27.941   6.765  0.00  0.00    +0.011 C 
ATOM     29  C   LIG    1       24.258 -28.551   5.448  0.00  0.00    +0.012 C 
BRANCH  28  30
ATOM     30  C   LIG    1       26.011 -27.019   6.572  0.00  0.00    -0.011 C 
ATOM     31  C   LIG    1       25.693 -25.544   6.857  0.00  0.00    +0.008 C 
ATOM     32  C   LIG    1       26.642 -27.161   5.184  0.00  0.00    +0.008 C 
ENDBRANCH  28  30
ENDBRANCH  27  28
ENDBRANCH  24  26
ENDBRANCH   6  24
TORSDOF 7
ENDMDL
