MODEL 1
REMARK VINA RESULT:      -5.6      0.000      0.000
REMARK  Name = *****
REMARK                            x       y       z     vdW  Elec       q    Type
REMARK                         _______ _______ _______ _____ _____    ______ ____
ROOT
ATOM      1  C   LIG    1       23.343 -20.748   6.852  0.00  0.00    +0.439 C 
ATOM      2  N   LIG    1       24.027 -22.057   6.876  0.00  0.00    -0.199 N 
ATOM      3  C   LIG    1       25.364 -22.171   7.087  0.00  0.00    +0.229 A 
ATOM      4  C   LIG    1       26.000 -23.409   7.010  0.00  0.00    +0.080 A 
ATOM      5  C   LIG    1       25.244 -24.547   6.766  0.00  0.00    +0.012 A 
ATOM      6  C   LIG    1       23.872 -24.426   6.598  0.00  0.00    +0.070 A 
ATOM      7  C   LIG    1       23.282 -23.168   6.659  0.00  0.00    +0.309 A 
ENDROOT
BRANCH   3   8
ATOM      8  C   LIG    1       26.186 -20.985   7.369  0.00  0.00    +0.230 C 
ATOM      9  N   LIG    1       26.376 -20.433   8.527  0.00  0.00    -0.089 NA
BRANCH   9  10
ATOM     10  O   LIG    1       25.781 -21.157   9.565  0.00  0.00    -0.409 OA
ATOM     11  H   LIG    1       26.152 -20.722  10.363  0.00  0.00    +0.328 HD
ENDBRANCH   9  10
ENDBRANCH   3   8
TORSDOF 2
ENDMDL
MODEL 2
REMARK VINA RESULT:      -5.4      5.231      6.493
REMARK  Name = *****
REMARK                            x       y       z     vdW  Elec       q    Type
REMARK                         _______ _______ _______ _____ _____    ______ ____
ROOT
ATOM      1  C   LIG    1       31.866 -18.490   8.048  0.00  0.00    +0.439 C 
ATOM      2  N   LIG    1       30.705 -19.286   7.603  0.00  0.00    -0.199 N 
ATOM      3  C   LIG    1       30.306 -20.409   8.254  0.00  0.00    +0.229 A 
ATOM      4  C   LIG    1       29.266 -21.196   7.759  0.00  0.00    +0.080 A 
ATOM      5  C   LIG    1       28.597 -20.793   6.612  0.00  0.00    +0.012 A 
ATOM      6  C   LIG    1       28.982 -19.619   5.980  0.00  0.00    +0.070 A 
ATOM      7  C   LIG    1       30.040 -18.878   6.495  0.00  0.00    +0.309 A 
ENDROOT
BRANCH   3   8
ATOM      8  C   LIG    1       30.983 -20.848   9.483  0.00  0.00    +0.230 C 
ATOM      9  N   LIG    1       31.884 -21.776   9.582  0.00  0.00    -0.089 NA
BRANCH   9  10
ATOM     10  O   LIG    1       32.257 -22.289   8.337  0.00  0.00    -0.409 OA
ATOM     11  H   LIG    1       31.395 -22.571   7.960  0.00  0.00    +0.328 HD
ENDBRANCH   9  10
ENDBRANCH   3   8
TORSDOF 2
ENDMDL
MODEL 3
REMARK VINA RESULT:      -5.3      4.938      6.311
REMARK  Name = *****
REMARK                            x       y       z     vdW  Elec       q    Type
REMARK                         _______ _______ _______ _____ _____    ______ ____
ROOT
ATOM      1  C   LIG    1       30.964 -21.786   9.157  0.00  0.00    +0.439 C 
ATOM      2  N   LIG    1       30.279 -20.894   8.200  0.00  0.00    -0.199 N 
ATOM      3  C   LIG    1       30.651 -19.600   8.024  0.00  0.00    +0.229 A 
ATOM      4  C   LIG    1       29.928 -18.753   7.184  0.00  0.00    +0.080 A 
ATOM      5  C   LIG    1       28.845 -19.257   6.479  0.00  0.00    +0.012 A 
ATOM      6  C   LIG    1       28.502 -20.594   6.630  0.00  0.00    +0.070 A 
ATOM      7  C   LIG    1       29.236 -21.397   7.496  0.00  0.00    +0.309 A 
ENDROOT
BRANCH   3   8
ATOM      8  C   LIG    1       31.808 -19.044   8.742  0.00  0.00    +0.230 C 
ATOM      9  N   LIG    1       31.803 -18.517   9.927  0.00  0.00    -0.089 NA
BRANCH   9  10
ATOM     10  O   LIG    1       30.554 -18.616  10.547  0.00  0.00    -0.409 OA
ATOM     11  H   LIG    1       30.580 -17.874  11.190  0.00  0.00    +0.328 HD
ENDBRANCH   9  10
ENDBRANCH   3   8
TORSDOF 2
ENDMDL
MODEL 4
REMARK VINA RESULT:      -5.3      1.590      2.474
REMARK  Name = *****
REMARK                            x       y       z     vdW  Elec       q    Type
REMARK                         _______ _______ _______ _____ _____    ______ ____
ROOT
ATOM      1  C   LIG    1       26.537 -20.188   5.479  0.00  0.00    +0.439 C 
ATOM      2  N   LIG    1       25.265 -20.788   5.931  0.00  0.00    -0.199 N 
ATOM      3  C   LIG    1       25.210 -21.681   6.953  0.00  0.00    +0.229 A 
ATOM      4  C   LIG    1       24.011 -22.304   7.298  0.00  0.00    +0.080 A 
ATOM      5  C   LIG    1       22.849 -21.964   6.620  0.00  0.00    +0.012 A 
ATOM      6  C   LIG    1       22.908 -21.015   5.609  0.00  0.00    +0.070 A 
ATOM      7  C   LIG    1       24.129 -20.437   5.282  0.00  0.00    +0.309 A 
ENDROOT
BRANCH   3   8
ATOM      8  C   LIG    1       26.421 -22.044   7.703  0.00  0.00    +0.230 C 
ATOM      9  N   LIG    1       26.840 -21.503   8.805  0.00  0.00    -0.089 NA
BRANCH   9  10
ATOM     10  O   LIG    1       25.941 -20.558   9.308  0.00  0.00    -0.409 OA
ATOM     11  H   LIG    1       26.352 -20.313  10.166  0.00  0.00    +0.328 HD
ENDBRANCH   9  10
ENDBRANCH   3   8
TORSDOF 2
ENDMDL
MODEL 5
REMARK VINA RESULT:      -5.2      2.713      4.421
REMARK  Name = *****
REMARK                            x       y       z     vdW  Elec       q    Type
REMARK                         _______ _______ _______ _____ _____    ______ ____
ROOT
ATOM      1  C   LIG    1       26.053 -21.296   6.065  0.00  0.00    +0.439 C 
ATOM      2  N   LIG    1       24.964 -20.508   5.453  0.00  0.00    -0.199 N 
ATOM      3  C   LIG    1       23.709 -20.486   5.971  0.00  0.00    +0.229 A 
ATOM      4  C   LIG    1       22.676 -19.811   5.321  0.00  0.00    +0.080 A 
ATOM      5  C   LIG    1       22.950 -19.109   4.156  0.00  0.00    +0.012 A 
ATOM      6  C   LIG    1       24.246 -19.100   3.660  0.00  0.00    +0.070 A 
ATOM      7  C   LIG    1       25.241 -19.807   4.327  0.00  0.00    +0.309 A 
ENDROOT
BRANCH   3   8
ATOM      8  C   LIG    1       23.394 -21.202   7.216  0.00  0.00    +0.230 C 
ATOM      9  N   LIG    1       22.966 -22.422   7.320  0.00  0.00    -0.089 NA
BRANCH   9  10
ATOM     10  O   LIG    1       22.919 -23.075   6.085  0.00  0.00    -0.409 OA
ATOM     11  H   LIG    1       23.852 -23.354   5.960  0.00  0.00    +0.328 HD
ENDBRANCH   9  10
ENDBRANCH   3   8
TORSDOF 2
ENDMDL
MODEL 6
REMARK VINA RESULT:      -5.2      2.327      3.572
REMARK  Name = *****
REMARK                            x       y       z     vdW  Elec       q    Type
REMARK                         _______ _______ _______ _____ _____    ______ ____
ROOT
ATOM      1  C   LIG    1       24.399 -21.785   4.508  0.00  0.00    +0.439 C 
ATOM      2  N   LIG    1       25.039 -21.828   5.838  0.00  0.00    -0.199 N 
ATOM      3  C   LIG    1       25.369 -22.998   6.444  0.00  0.00    +0.229 A 
ATOM      4  C   LIG    1       25.885 -23.015   7.740  0.00  0.00    +0.080 A 
ATOM      5  C   LIG    1       26.112 -21.814   8.396  0.00  0.00    +0.012 A 
ATOM      6  C   LIG    1       25.815 -20.622   7.750  0.00  0.00    +0.070 A 
ATOM      7  C   LIG    1       25.280 -20.653   6.467  0.00  0.00    +0.309 A 
ENDROOT
BRANCH   3   8
ATOM      8  C   LIG    1       25.160 -24.284   5.764  0.00  0.00    +0.230 C 
ATOM      9  N   LIG    1       24.103 -25.034   5.833  0.00  0.00    -0.089 NA
BRANCH   9  10
ATOM     10  O   LIG    1       23.077 -24.438   6.571  0.00  0.00    -0.409 OA
ATOM     11  H   LIG    1       23.554 -24.102   7.361  0.00  0.00    +0.328 HD
ENDBRANCH   9  10
ENDBRANCH   3   8
TORSDOF 2
ENDMDL
MODEL 7
REMARK VINA RESULT:      -5.2      2.345      3.898
REMARK  Name = *****
REMARK                            x       y       z     vdW  Elec       q    Type
REMARK                         _______ _______ _______ _____ _____    ______ ____
ROOT
ATOM      1  C   LIG    1       25.262 -20.636   5.742  0.00  0.00    +0.439 C 
ATOM      2  N   LIG    1       26.680 -20.539   6.144  0.00  0.00    -0.199 N 
ATOM      3  C   LIG    1       27.172 -21.197   7.225  0.00  0.00    +0.229 A 
ATOM      4  C   LIG    1       28.491 -21.014   7.638  0.00  0.00    +0.080 A 
ATOM      5  C   LIG    1       29.325 -20.186   6.901  0.00  0.00    +0.012 A 
ATOM      6  C   LIG    1       28.825 -19.554   5.770  0.00  0.00    +0.070 A 
ATOM      7  C   LIG    1       27.496 -19.747   5.408  0.00  0.00    +0.309 A 
ENDROOT
BRANCH   3   8
ATOM      8  C   LIG    1       26.317 -22.097   8.012  0.00  0.00    +0.230 C 
ATOM      9  N   LIG    1       25.712 -21.815   9.124  0.00  0.00    -0.089 NA
BRANCH   9  10
ATOM     10  O   LIG    1       25.865 -20.473   9.486  0.00  0.00    -0.409 OA
ATOM     11  H   LIG    1       26.742 -20.474   9.927  0.00  0.00    +0.328 HD
ENDBRANCH   9  10
ENDBRANCH   3   8
TORSDOF 2
ENDMDL
MODEL 8
REMARK VINA RESULT:      -5.1      1.688      2.689
REMARK  Name = *****
REMARK                            x       y       z     vdW  Elec       q    Type
REMARK                         _______ _______ _______ _____ _____    ______ ____
ROOT
ATOM      1  C   LIG    1       25.659 -23.988   6.999  0.00  0.00    +0.439 C 
ATOM      2  N   LIG    1       25.516 -22.722   6.252  0.00  0.00    -0.199 N 
ATOM      3  C   LIG    1       26.278 -21.632   6.523  0.00  0.00    +0.229 A 
ATOM      4  C   LIG    1       26.058 -20.420   5.868  0.00  0.00    +0.080 A 
ATOM      5  C   LIG    1       25.080 -20.347   4.887  0.00  0.00    +0.012 A 
ATOM      6  C   LIG    1       24.337 -21.480   4.584  0.00  0.00    +0.070 A 
ATOM      7  C   LIG    1       24.574 -22.660   5.279  0.00  0.00    +0.309 A 
ENDROOT
BRANCH   3   8
ATOM      8  C   LIG    1       27.337 -21.687   7.542  0.00  0.00    +0.230 C 
ATOM      9  N   LIG    1       27.227 -21.353   8.791  0.00  0.00    -0.089 NA
BRANCH   9  10
ATOM     10  O   LIG    1       25.917 -21.010   9.136  0.00  0.00    -0.409 OA
ATOM     11  H   LIG    1       26.051 -20.224   9.710  0.00  0.00    +0.328 HD
ENDBRANCH   9  10
ENDBRANCH   3   8
TORSDOF 2
ENDMDL
MODEL 9
REMARK VINA RESULT:      -5.1      1.308      1.386
REMARK  Name = *****
REMARK                            x       y       z     vdW  Elec       q    Type
REMARK                         _______ _______ _______ _____ _____    ______ ____
ROOT
ATOM      1  C   LIG    1       25.543 -20.291   5.219  0.00  0.00    +0.439 C 
ATOM      2  N   LIG    1       25.471 -21.612   5.874  0.00  0.00    -0.199 N 
ATOM      3  C   LIG    1       26.259 -21.939   6.930  0.00  0.00    +0.229 A 
ATOM      4  C   LIG    1       26.239 -23.225   7.471  0.00  0.00    +0.080 A 
ATOM      5  C   LIG    1       25.361 -24.166   6.953  0.00  0.00    +0.012 A 
ATOM      6  C   LIG    1       24.525 -23.807   5.903  0.00  0.00    +0.070 A 
ATOM      7  C   LIG    1       24.596 -22.521   5.380  0.00  0.00    +0.309 A 
ENDROOT
BRANCH   3   8
ATOM      8  C   LIG    1       27.184 -20.956   7.514  0.00  0.00    +0.230 C 
ATOM      9  N   LIG    1       27.018 -20.299   8.620  0.00  0.00    -0.089 NA
BRANCH   9  10
ATOM     10  O   LIG    1       25.867 -20.697   9.307  0.00  0.00    -0.409 OA
ATOM     11  H   LIG    1       25.886 -21.673   9.198  0.00  0.00    +0.328 HD
ENDBRANCH   9  10
ENDBRANCH   3   8
TORSDOF 2
ENDMDL
