MODEL 1
REMARK VINA RESULT:      -6.5      0.000      0.000
REMARK  Name = *****
REMARK                            x       y       z     vdW  Elec       q    Type
REMARK                         _______ _______ _______ _____ _____    ______ ____
ROOT
ATOM      1  C   LIG    1       25.977 -17.420   3.321  0.00  0.00    +0.081 C 
ENDROOT
BRANCH   1   2
ATOM      2  C   LIG    1       26.628 -16.068   3.562  0.00  0.00    +0.163 C 
ATOM      3  O   LIG    1       27.773 -15.974   3.972  0.00  0.00    -0.292 OA
BRANCH   2   4
ATOM      4  C   LIG    1       25.810 -14.820   3.337  0.00  0.00    +0.018 A 
ATOM      5  C   LIG    1       26.182 -13.811   2.426  0.00  0.00    +0.014 A 
ATOM      6  C   LIG    1       25.386 -12.677   2.262  0.00  0.00    +0.039 A 
ATOM      7  C   LIG    1       24.222 -12.538   3.005  0.00  0.00    +0.123 A 
ATOM      8  F   LIG    1       23.464 -11.447   2.843  0.00  0.00    -0.205 F 
ATOM      9  C   LIG    1       23.836 -13.517   3.913  0.00  0.00    +0.039 A 
ATOM     10  C   LIG    1       24.629 -14.656   4.076  0.00  0.00    +0.014 A 
ENDBRANCH   2   4
ENDBRANCH   1   2
BRANCH   1  11
ATOM     11  C   LIG    1       26.860 -18.562   3.820  0.00  0.00    +0.023 C 
BRANCH  11  12
ATOM     12  C   LIG    1       26.157 -19.445   4.862  0.00  0.00    +0.085 C 
BRANCH  12  17
ATOM     13  C   LIG    1       21.658 -21.339   4.988  0.00  0.00    +0.007 C 
ATOM     14  C   LIG    1       22.619 -20.235   5.439  0.00  0.00    -0.012 C 
ATOM     15  C   LIG    1       23.799 -20.825   6.225  0.00  0.00    +0.018 C 
ATOM     16  C   LIG    1       24.842 -21.463   5.302  0.00  0.00    +0.085 C 
ATOM     17  N   LIG    1       25.355 -20.536   4.276  0.00  0.00    -0.302 NA
ATOM     18  C   LIG    1       24.229 -20.069   3.454  0.00  0.00    +0.085 C 
ATOM     19  C   LIG    1       23.110 -19.395   4.251  0.00  0.00    +0.018 C 
ENDBRANCH  12  17
ENDBRANCH  11  12
ENDBRANCH   1  11
TORSDOF 5
ENDMDL
MODEL 2
REMARK VINA RESULT:      -6.5      3.690      7.210
REMARK  Name = *****
REMARK                            x       y       z     vdW  Elec       q    Type
REMARK                         _______ _______ _______ _____ _____    ______ ____
ROOT
ATOM      1  C   LIG    1       22.041 -16.683   4.806  0.00  0.00    +0.081 C 
ENDROOT
BRANCH   1   2
ATOM      2  C   LIG    1       21.978 -18.137   4.368  0.00  0.00    +0.163 C 
ATOM      3  O   LIG    1       21.038 -18.570   3.722  0.00  0.00    -0.292 OA
BRANCH   2   4
ATOM      4  C   LIG    1       23.084 -19.071   4.796  0.00  0.00    +0.018 A 
ATOM      5  C   LIG    1       22.997 -19.892   5.938  0.00  0.00    +0.014 A 
ATOM      6  C   LIG    1       24.053 -20.734   6.286  0.00  0.00    +0.039 A 
ATOM      7  C   LIG    1       25.200 -20.762   5.504  0.00  0.00    +0.123 A 
ATOM      8  F   LIG    1       26.209 -21.571   5.845  0.00  0.00    -0.205 F 
ATOM      9  C   LIG    1       25.311 -19.959   4.375  0.00  0.00    +0.039 A 
ATOM     10  C   LIG    1       24.254 -19.117   4.022  0.00  0.00    +0.014 A 
ENDBRANCH   2   4
ENDBRANCH   1   2
BRANCH   1  11
ATOM     11  C   LIG    1       23.050 -15.893   3.974  0.00  0.00    +0.023 C 
BRANCH  11  12
ATOM     12  C   LIG    1       23.733 -14.774   4.774  0.00  0.00    +0.085 C 
BRANCH  12  17
ATOM     13  C   LIG    1       28.230 -13.317   3.550  0.00  0.00    +0.007 C 
ATOM     14  C   LIG    1       27.345 -14.313   4.304  0.00  0.00    -0.012 C 
ATOM     15  C   LIG    1       26.488 -13.594   5.357  0.00  0.00    +0.018 C 
ATOM     16  C   LIG    1       25.286 -12.881   4.730  0.00  0.00    +0.085 C 
ATOM     17  N   LIG    1       24.428 -13.779   3.934  0.00  0.00    -0.302 NA
ATOM     18  C   LIG    1       25.233 -14.371   2.856  0.00  0.00    +0.085 C 
ATOM     19  C   LIG    1       26.468 -15.131   3.343  0.00  0.00    +0.018 C 
ENDBRANCH  12  17
ENDBRANCH  11  12
ENDBRANCH   1  11
TORSDOF 5
ENDMDL
MODEL 3
REMARK VINA RESULT:      -6.1      2.529      3.624
REMARK  Name = *****
REMARK                            x       y       z     vdW  Elec       q    Type
REMARK                         _______ _______ _______ _____ _____    ______ ____
ROOT
ATOM      1  C   LIG    1       23.341 -15.201   4.808  0.00  0.00    +0.081 C 
ENDROOT
BRANCH   1   2
ATOM      2  C   LIG    1       23.910 -14.159   3.860  0.00  0.00    +0.163 C 
ATOM      3  O   LIG    1       23.204 -13.574   3.055  0.00  0.00    -0.292 OA
BRANCH   2   4
ATOM      4  C   LIG    1       25.395 -13.891   3.886  0.00  0.00    +0.018 A 
ATOM      5  C   LIG    1       26.098 -13.576   5.066  0.00  0.00    +0.014 A 
ATOM      6  C   LIG    1       27.472 -13.335   5.029  0.00  0.00    +0.039 A 
ATOM      7  C   LIG    1       28.151 -13.402   3.820  0.00  0.00    +0.123 A 
ATOM      8  F   LIG    1       29.469 -13.169   3.792  0.00  0.00    -0.205 F 
ATOM      9  C   LIG    1       27.480 -13.707   2.642  0.00  0.00    +0.039 A 
ATOM     10  C   LIG    1       26.105 -13.952   2.677  0.00  0.00    +0.014 A 
ENDBRANCH   2   4
ENDBRANCH   1   2
BRANCH   1  11
ATOM     11  C   LIG    1       22.562 -16.277   4.054  0.00  0.00    +0.023 C 
BRANCH  11  12
ATOM     12  C   LIG    1       22.261 -17.510   4.920  0.00  0.00    +0.085 C 
BRANCH  12  17
ATOM     13  C   LIG    1       24.960 -21.571   4.664  0.00  0.00    +0.007 C 
ATOM     14  C   LIG    1       24.679 -20.237   5.361  0.00  0.00    -0.012 C 
ATOM     15  C   LIG    1       24.831 -19.065   4.379  0.00  0.00    +0.018 C 
ATOM     16  C   LIG    1       23.617 -18.928   3.456  0.00  0.00    +0.085 C 
ATOM     17  N   LIG    1       22.344 -18.788   4.187  0.00  0.00    -0.302 NA
ATOM     18  C   LIG    1       22.153 -19.973   5.035  0.00  0.00    +0.085 C 
ATOM     19  C   LIG    1       23.293 -20.226   6.023  0.00  0.00    +0.018 C 
ENDBRANCH  12  17
ENDBRANCH  11  12
ENDBRANCH   1  11
TORSDOF 5
ENDMDL
MODEL 4
REMARK VINA RESULT:      -5.3      3.127      6.675
REMARK  Name = *****
REMARK                            x       y       z     vdW  Elec       q    Type
REMARK                         _______ _______ _______ _____ _____    ______ ____
ROOT
ATOM      1  C   LIG    1       28.464 -18.231   5.182  0.00  0.00    +0.081 C 
ENDROOT
BRANCH   1   2
ATOM      2  C   LIG    1       28.126 -19.650   5.605  0.00  0.00    +0.163 C 
ATOM      3  O   LIG    1       28.997 -20.469   5.852  0.00  0.00    -0.292 OA
BRANCH   2   4
ATOM      4  C   LIG    1       26.675 -20.062   5.662  0.00  0.00    +0.018 A 
ATOM      5  C   LIG    1       25.834 -20.071   4.532  0.00  0.00    +0.014 A 
ATOM      6  C   LIG    1       24.499 -20.460   4.646  0.00  0.00    +0.039 A 
ATOM      7  C   LIG    1       23.994 -20.836   5.883  0.00  0.00    +0.123 A 
ATOM      8  F   LIG    1       22.712 -21.207   5.985  0.00  0.00    -0.205 F 
ATOM      9  C   LIG    1       24.802 -20.832   7.014  0.00  0.00    +0.039 A 
ATOM     10  C   LIG    1       26.141 -20.447   6.901  0.00  0.00    +0.014 A 
ENDBRANCH   2   4
ENDBRANCH   1   2
BRANCH   1  11
ATOM     11  C   LIG    1       27.478 -17.709   4.139  0.00  0.00    +0.023 C 
BRANCH  11  12
ATOM     12  C   LIG    1       27.437 -16.174   4.075  0.00  0.00    +0.085 C 
BRANCH  12  17
ATOM     13  C   LIG    1       24.225 -12.621   3.126  0.00  0.00    +0.007 C 
ATOM     14  C   LIG    1       25.201 -13.263   4.116  0.00  0.00    -0.012 C 
ATOM     15  C   LIG    1       24.785 -14.707   4.436  0.00  0.00    +0.018 C 
ATOM     16  C   LIG    1       25.165 -15.676   3.312  0.00  0.00    +0.085 C 
ATOM     17  N   LIG    1       26.601 -15.646   2.979  0.00  0.00    -0.302 NA
ATOM     18  C   LIG    1       26.961 -14.284   2.561  0.00  0.00    +0.085 C 
ATOM     19  C   LIG    1       26.647 -13.206   3.601  0.00  0.00    +0.018 C 
ENDBRANCH  12  17
ENDBRANCH  11  12
ENDBRANCH   1  11
TORSDOF 5
ENDMDL
MODEL 5
REMARK VINA RESULT:      -4.3      1.383      1.730
REMARK  Name = *****
REMARK                            x       y       z     vdW  Elec       q    Type
REMARK                         _______ _______ _______ _____ _____    ______ ____
ROOT
ATOM      1  C   LIG    1       26.752 -16.156   2.739  0.00  0.00    +0.081 C 
ENDROOT
BRANCH   1   2
ATOM      2  C   LIG    1       27.111 -15.002   3.659  0.00  0.00    +0.163 C 
ATOM      3  O   LIG    1       28.239 -14.867   4.105  0.00  0.00    -0.292 OA
BRANCH   2   4
ATOM      4  C   LIG    1       26.025 -14.037   4.068  0.00  0.00    +0.018 A 
ATOM      5  C   LIG    1       26.109 -13.230   5.221  0.00  0.00    +0.014 A 
ATOM      6  C   LIG    1       25.073 -12.357   5.550  0.00  0.00    +0.039 A 
ATOM      7  C   LIG    1       23.947 -12.286   4.741  0.00  0.00    +0.123 A 
ATOM      8  F   LIG    1       22.956 -11.447   5.064  0.00  0.00    -0.205 F 
ATOM      9  C   LIG    1       23.839 -13.074   3.602  0.00  0.00    +0.039 A 
ATOM     10  C   LIG    1       24.877 -13.947   3.267  0.00  0.00    +0.014 A 
ENDBRANCH   2   4
ENDBRANCH   1   2
BRANCH   1  11
ATOM     11  C   LIG    1       26.505 -17.442   3.526  0.00  0.00    +0.023 C 
BRANCH  11  12
ATOM     12  C   LIG    1       25.024 -17.645   3.882  0.00  0.00    +0.085 C 
BRANCH  12  17
ATOM     13  C   LIG    1       22.545 -21.564   5.414  0.00  0.00    +0.007 C 
ATOM     14  C   LIG    1       23.133 -20.187   5.737  0.00  0.00    -0.012 C 
ATOM     15  C   LIG    1       24.656 -20.183   5.538  0.00  0.00    +0.018 C 
ATOM     16  C   LIG    1       25.043 -20.087   4.059  0.00  0.00    +0.085 C 
ATOM     17  N   LIG    1       24.460 -18.914   3.382  0.00  0.00    -0.302 NA
ATOM     18  C   LIG    1       22.995 -18.992   3.477  0.00  0.00    +0.085 C 
ATOM     19  C   LIG    1       22.465 -19.080   4.909  0.00  0.00    +0.018 C 
ENDBRANCH  12  17
ENDBRANCH  11  12
ENDBRANCH   1  11
TORSDOF 5
ENDMDL
MODEL 6
REMARK VINA RESULT:      -4.0      3.110      6.934
REMARK  Name = *****
REMARK                            x       y       z     vdW  Elec       q    Type
REMARK                         _______ _______ _______ _____ _____    ______ ____
ROOT
ATOM      1  C   LIG    1       25.891 -17.568   3.243  0.00  0.00    +0.081 C 
ENDROOT
BRANCH   1   2
ATOM      2  C   LIG    1       25.995 -18.836   4.073  0.00  0.00    +0.163 C 
ATOM      3  O   LIG    1       27.072 -19.268   4.449  0.00  0.00    -0.292 OA
BRANCH   2   4
ATOM      4  C   LIG    1       24.732 -19.600   4.388  0.00  0.00    +0.018 A 
ATOM      5  C   LIG    1       24.737 -20.904   4.923  0.00  0.00    +0.014 A 
ATOM      6  C   LIG    1       23.537 -21.563   5.192  0.00  0.00    +0.039 A 
ATOM      7  C   LIG    1       22.330 -20.933   4.926  0.00  0.00    +0.123 A 
ATOM      8  F   LIG    1       21.183 -21.572   5.185  0.00  0.00    -0.205 F 
ATOM      9  C   LIG    1       22.298 -19.649   4.394  0.00  0.00    +0.039 A 
ATOM     10  C   LIG    1       23.499 -18.985   4.128  0.00  0.00    +0.014 A 
ENDBRANCH   2   4
ENDBRANCH   1   2
BRANCH   1  11
ATOM     11  C   LIG    1       26.889 -16.510   3.712  0.00  0.00    +0.023 C 
BRANCH  11  12
ATOM     12  C   LIG    1       26.835 -15.227   2.869  0.00  0.00    +0.085 C 
BRANCH  12  17
ATOM     13  C   LIG    1       23.740 -11.608   3.953  0.00  0.00    +0.007 C 
ATOM     14  C   LIG    1       23.985 -12.942   3.242  0.00  0.00    -0.012 C 
ATOM     15  C   LIG    1       25.101 -12.806   2.195  0.00  0.00    +0.018 C 
ATOM     16  C   LIG    1       26.493 -12.803   2.836  0.00  0.00    +0.085 C 
ATOM     17  N   LIG    1       26.750 -13.990   3.671  0.00  0.00    -0.302 NA
ATOM     18  C   LIG    1       25.745 -14.044   4.741  0.00  0.00    +0.085 C 
ATOM     19  C   LIG    1       24.299 -14.066   4.241  0.00  0.00    +0.018 C 
ENDBRANCH  12  17
ENDBRANCH  11  12
ENDBRANCH   1  11
TORSDOF 5
ENDMDL
MODEL 7
REMARK VINA RESULT:      -4.0      3.574      7.420
REMARK  Name = *****
REMARK                            x       y       z     vdW  Elec       q    Type
REMARK                         _______ _______ _______ _____ _____    ______ ____
ROOT
ATOM      1  C   LIG    1       21.862 -16.712   4.756  0.00  0.00    +0.081 C 
ENDROOT
BRANCH   1   2
ATOM      2  C   LIG    1       21.857 -18.144   4.249  0.00  0.00    +0.163 C 
ATOM      3  O   LIG    1       20.954 -18.572   3.549  0.00  0.00    -0.292 OA
BRANCH   2   4
ATOM      4  C   LIG    1       22.975 -19.066   4.674  0.00  0.00    +0.018 A 
ATOM      5  C   LIG    1       22.833 -20.024   5.698  0.00  0.00    +0.014 A 
ATOM      6  C   LIG    1       23.902 -20.848   6.049  0.00  0.00    +0.039 A 
ATOM      7  C   LIG    1       25.116 -20.721   5.388  0.00  0.00    +0.123 A 
ATOM      8  F   LIG    1       26.138 -21.515   5.732  0.00  0.00    -0.205 F 
ATOM      9  C   LIG    1       25.283 -19.782   4.378  0.00  0.00    +0.039 A 
ATOM     10  C   LIG    1       24.212 -18.957   4.022  0.00  0.00    +0.014 A 
ENDBRANCH   2   4
ENDBRANCH   1   2
BRANCH   1  11
ATOM     11  C   LIG    1       22.868 -15.853   3.993  0.00  0.00    +0.023 C 
BRANCH  11  12
ATOM     12  C   LIG    1       23.593 -14.842   4.895  0.00  0.00    +0.085 C 
BRANCH  12  17
ATOM     13  C   LIG    1       25.285 -11.452   1.814  0.00  0.00    +0.007 C 
ATOM     14  C   LIG    1       24.088 -12.062   2.549  0.00  0.00    -0.012 C 
ATOM     15  C   LIG    1       23.894 -13.533   2.154  0.00  0.00    +0.018 C 
ATOM     16  C   LIG    1       24.895 -14.454   2.858  0.00  0.00    +0.085 C 
ATOM     17  N   LIG    1       24.858 -14.336   4.328  0.00  0.00    -0.302 NA
ATOM     18  C   LIG    1       25.161 -12.947   4.699  0.00  0.00    +0.085 C 
ATOM     19  C   LIG    1       24.225 -11.912   4.072  0.00  0.00    +0.018 C 
ENDBRANCH  12  17
ENDBRANCH  11  12
ENDBRANCH   1  11
TORSDOF 5
ENDMDL
