MODEL 1
REMARK VINA RESULT:      -2.7      0.000      0.000
REMARK  Name = *****
REMARK                            x       y       z     vdW  Elec       q    Type
REMARK                         _______ _______ _______ _____ _____    ______ ____
ROOT
ATOM      1  O   LIG    1       27.771 -14.935   4.251  0.00  0.00    -0.275 OA
ATOM      2  C   LIG    1       26.997 -15.777   3.794  0.00  0.00    +0.219 C 
ATOM      3  N   LIG    1       27.104 -17.120   4.160  0.00  0.00    -0.290 N 
ATOM      4  C   LIG    1       26.661 -18.225   3.315  0.00  0.00    +0.135 C 
ATOM      5  C   LIG    1       26.456 -19.546   4.092  0.00  0.00    +0.124 C 
ATOM      6  N   LIG    1       27.613 -19.867   4.934  0.00  0.00    -0.291 N 
ATOM      7  C   LIG    1       27.528 -21.168   5.579  0.00  0.00    +0.113 C 
ATOM      8  C   LIG    1       26.390 -21.155   6.600  0.00  0.00    +0.054 C 
ATOM      9  C   LIG    1       25.132 -20.506   6.055  0.00  0.00    -0.041 A 
ATOM     10  C   LIG    1       23.932 -20.679   6.764  0.00  0.00    +0.004 A 
ATOM     11  C   LIG    1       22.753 -20.094   6.314  0.00  0.00    +0.000 A 
ATOM     12  C   LIG    1       22.759 -19.336   5.147  0.00  0.00    +0.000 A 
ATOM     13  C   LIG    1       23.946 -19.151   4.436  0.00  0.00    +0.006 A 
ATOM     14  C   LIG    1       28.314 -18.866   5.601  0.00  0.00    +0.234 C 
ATOM     15  O   LIG    1       29.084 -19.121   6.530  0.00  0.00    -0.274 OA
ATOM     16  C   LIG    1       25.158 -19.698   4.890  0.00  0.00    -0.022 A 
ATOM     17  C   LIG    1       28.222 -17.439   5.045  0.00  0.00    +0.203 C 
ENDROOT
BRANCH   2  18
ATOM     18  C   LIG    1       25.845 -15.363   2.866  0.00  0.00    +0.075 C 
ATOM     19  C   LIG    1       24.523 -15.321   3.644  0.00  0.00    +0.012 C 
ATOM     20  C   LIG    1       24.376 -14.070   4.511  0.00  0.00    +0.001 C 
ATOM     21  C   LIG    1       24.564 -12.797   3.696  0.00  0.00    +0.000 C 
ATOM     22  C   LIG    1       25.913 -12.786   2.993  0.00  0.00    +0.001 C 
ATOM     23  C   LIG    1       26.120 -14.035   2.139  0.00  0.00    +0.012 C 
ENDBRANCH   2  18
TORSDOF 1
ENDMDL
