MODEL 1
REMARK VINA RESULT:      -5.9      0.000      0.000
REMARK  Name = *****
REMARK                            x       y       z     vdW  Elec       q    Type
REMARK                         _______ _______ _______ _____ _____    ______ ____
ROOT
ATOM      1  CA  LIG    1       25.273 -31.040  10.267  0.00  0.00    +0.191 C 
ATOM      2  C   LIG    1       26.217 -30.093  11.089  0.00  0.00    +0.169 C 
ATOM      3  N   LIG    1       25.036 -29.734  11.852  0.00  0.00    -0.249 N 
ATOM      4  CA  LIG    1       24.800 -28.573  12.539  0.00  0.00    +0.127 C 
ATOM      5  C   LIG    1       25.716 -27.560  12.553  0.00  0.00    +0.013 C 
ATOM      6  C   LIG    1       27.083 -27.769  11.914  0.00  0.00    +0.109 C 
ATOM      7  S   LIG    1       26.898 -28.615  10.303  0.00  0.00    -0.131 S 
ATOM      8  C   LIG    1       24.363 -30.889  11.566  0.00  0.00    +0.244 C 
ATOM      9  O   LIG    1       23.437 -31.446  12.076  0.00  0.00    -0.273 OA
ENDROOT
BRANCH   1  11
ATOM     10  C   LIG    1       25.216 -30.646   7.764  0.00  0.00    +0.268 C 
ATOM     11  N   LIG    1       24.641 -30.500   9.019  0.00  0.00    -0.296 N 
ATOM     12  H   LIG    1       23.840 -29.875   9.064  0.00  0.00    +0.150 HD
ATOM     13  O   LIG    1       26.275 -31.232   7.588  0.00  0.00    -0.268 OA
BRANCH  10  15
ATOM     14  N   LIG    1       23.501 -30.713   5.925  0.00  0.00    -0.078 NA
ATOM     15  C   LIG    1       24.431 -30.059   6.566  0.00  0.00    +0.190 C 
BRANCH  15  16
ATOM     16  C   LIG    1       24.702 -28.713   6.028  0.00  0.00    +0.107 A 
ATOM     17  N   LIG    1       23.977 -27.608   6.505  0.00  0.00    -0.223 NA
ATOM     18  C   LIG    1       24.404 -26.492   5.976  0.00  0.00    +0.156 A 
ATOM     19  S   LIG    1       25.649 -26.672   4.815  0.00  0.00    -0.060 S 
ATOM     20  C   LIG    1       25.636 -28.371   5.067  0.00  0.00    +0.078 A 
BRANCH  18  21
ATOM     21  N   LIG    1       23.903 -25.290   6.298  0.00  0.00    -0.338 N 
ATOM     22  H   LIG    1       24.397 -24.762   7.008  0.00  0.00    +0.144 HD
ATOM     23  H   LIG    1       22.903 -25.143   6.268  0.00  0.00    +0.144 HD
ENDBRANCH  18  21
ENDBRANCH  15  16
BRANCH  14  25
ATOM     24  C   LIG    1       23.304 -32.918   5.435  0.00  0.00    +0.313 C 
ATOM     25  O   LIG    1       23.153 -31.948   6.466  0.00  0.00    -0.396 OA
ENDBRANCH  14  25
ENDBRANCH  10  15
ENDBRANCH   1  11
BRANCH   4  26
ATOM     26  C   LIG    1       23.442 -28.406  13.160  0.00  0.00    +0.351 C 
ATOM     27  O   LIG    1       22.456 -27.956  12.608  0.00  0.00    -0.244 OA
BRANCH  26  28
ATOM     28  OXT LIG    1       23.377 -28.945  14.383  0.00  0.00    -0.476 OA
ATOM     29  HXT LIG    1       24.279 -28.993  14.762  0.00  0.00    +0.295 HD
ENDBRANCH  26  28
ENDBRANCH   4  26
BRANCH   5  30
ATOM     30  C   LIG    1       25.556 -26.203  13.242  0.00  0.00    +0.168 C 
BRANCH  30  31
ATOM     31  N   LIG    1       26.183 -26.017  14.663  0.00  0.00    +0.244 N 
ATOM     32  C   LIG    1       27.652 -25.539  14.536  0.00  0.00    +0.133 C 
ATOM     33  C   LIG    1       27.666 -24.070  14.925  0.00  0.00    +0.056 C 
ATOM     34  C   LIG    1       26.228 -23.659  15.155  0.00  0.00    +0.056 C 
ATOM     35  C   LIG    1       25.505 -24.938  15.500  0.00  0.00    +0.133 C 
ATOM     36  C   LIG    1       26.193 -27.321  15.443  0.00  0.00    +0.192 C 
ENDBRANCH  30  31
ENDBRANCH   5  30
TORSDOF 9
ENDMDL
MODEL 2
REMARK VINA RESULT:      -5.9      1.805      2.636
REMARK  Name = *****
REMARK                            x       y       z     vdW  Elec       q    Type
REMARK                         _______ _______ _______ _____ _____    ______ ____
ROOT
ATOM      1  CA  LIG    1       25.727 -31.194  10.837  0.00  0.00    +0.191 C 
ATOM      2  C   LIG    1       26.142 -30.376  12.111  0.00  0.00    +0.169 C 
ATOM      3  N   LIG    1       24.848 -30.749  12.655  0.00  0.00    -0.249 N 
ATOM      4  CA  LIG    1       24.112 -30.088  13.601  0.00  0.00    +0.127 C 
ATOM      5  C   LIG    1       24.550 -28.914  14.146  0.00  0.00    +0.013 C 
ATOM      6  C   LIG    1       25.943 -28.397  13.807  0.00  0.00    +0.109 C 
ATOM      7  S   LIG    1       26.256 -28.575  12.014  0.00  0.00    -0.131 S 
ATOM      8  C   LIG    1       24.714 -31.860  11.871  0.00  0.00    +0.244 C 
ATOM      9  O   LIG    1       24.039 -32.843  11.950  0.00  0.00    -0.273 OA
ENDROOT
BRANCH   1  11
ATOM     10  C   LIG    1       25.526 -30.494   8.410  0.00  0.00    +0.268 C 
ATOM     11  N   LIG    1       25.052 -30.463   9.715  0.00  0.00    -0.296 N 
ATOM     12  H   LIG    1       24.308 -29.795   9.895  0.00  0.00    +0.150 HD
ATOM     13  O   LIG    1       26.522 -31.124   8.084  0.00  0.00    -0.268 OA
BRANCH  10  15
ATOM     14  N   LIG    1       23.709 -30.228   6.691  0.00  0.00    -0.078 NA
ATOM     15  C   LIG    1       24.707 -29.712   7.355  0.00  0.00    +0.190 C 
BRANCH  15  16
ATOM     16  C   LIG    1       25.019 -28.318   6.987  0.00  0.00    +0.107 A 
ATOM     17  N   LIG    1       24.182 -27.622   6.098  0.00  0.00    -0.223 NA
ATOM     18  C   LIG    1       24.566 -26.382   5.952  0.00  0.00    +0.156 A 
ATOM     19  S   LIG    1       25.994 -25.962   6.797  0.00  0.00    -0.060 S 
ATOM     20  C   LIG    1       26.083 -27.556   7.434  0.00  0.00    +0.078 A 
BRANCH  18  21
ATOM     21  N   LIG    1       23.909 -25.498   5.186  0.00  0.00    -0.338 N 
ATOM     22  H   LIG    1       23.744 -25.761   4.221  0.00  0.00    +0.144 HD
ATOM     23  H   LIG    1       24.035 -24.508   5.348  0.00  0.00    +0.144 HD
ENDBRANCH  18  21
ENDBRANCH  15  16
BRANCH  14  25
ATOM     24  C   LIG    1       23.553 -32.373   5.973  0.00  0.00    +0.313 C 
ATOM     25  O   LIG    1       23.326 -31.509   7.082  0.00  0.00    -0.396 OA
ENDBRANCH  14  25
ENDBRANCH  10  15
ENDBRANCH   1  11
BRANCH   4  26
ATOM     26  C   LIG    1       22.747 -30.631  13.913  0.00  0.00    +0.351 C 
ATOM     27  O   LIG    1       21.699 -30.251  13.424  0.00  0.00    -0.244 OA
BRANCH  26  28
ATOM     28  OXT LIG    1       22.801 -31.706  14.707  0.00  0.00    -0.476 OA
ATOM     29  HXT LIG    1       21.939 -32.170  14.681  0.00  0.00    +0.295 HD
ENDBRANCH  26  28
ENDBRANCH   4  26
BRANCH   5  30
ATOM     30  C   LIG    1       23.806 -28.059  15.173  0.00  0.00    +0.168 C 
BRANCH  30  31
ATOM     31  N   LIG    1       23.224 -26.683  14.708  0.00  0.00    +0.244 N 
ATOM     32  C   LIG    1       22.827 -26.754  13.211  0.00  0.00    +0.133 C 
ATOM     33  C   LIG    1       21.309 -26.802  13.168  0.00  0.00    +0.056 C 
ATOM     34  C   LIG    1       20.826 -26.883  14.599  0.00  0.00    +0.056 C 
ATOM     35  C   LIG    1       21.939 -26.282  15.422  0.00  0.00    +0.133 C 
ATOM     36  C   LIG    1       24.247 -25.568  14.856  0.00  0.00    +0.192 C 
ENDBRANCH  30  31
ENDBRANCH   5  30
TORSDOF 9
ENDMDL
MODEL 3
REMARK VINA RESULT:      -5.6      3.550      7.977
REMARK  Name = *****
REMARK                            x       y       z     vdW  Elec       q    Type
REMARK                         _______ _______ _______ _____ _____    ______ ____
ROOT
ATOM      1  CA  LIG    1       24.239 -30.840  13.138  0.00  0.00    +0.191 C 
ATOM      2  C   LIG    1       24.389 -31.813  11.916  0.00  0.00    +0.169 C 
ATOM      3  N   LIG    1       25.497 -30.970  11.503  0.00  0.00    -0.249 N 
ATOM      4  CA  LIG    1       25.987 -30.785  10.238  0.00  0.00    +0.127 C 
ATOM      5  C   LIG    1       25.420 -31.407   9.162  0.00  0.00    +0.013 C 
ATOM      6  C   LIG    1       24.315 -32.434   9.378  0.00  0.00    +0.109 C 
ATOM      7  S   LIG    1       23.126 -31.819  10.624  0.00  0.00    -0.131 S 
ATOM      8  C   LIG    1       25.747 -30.491  12.758  0.00  0.00    +0.244 C 
ATOM      9  O   LIG    1       26.696 -29.969  13.264  0.00  0.00    -0.273 OA
ENDROOT
BRANCH   1  11
ATOM     10  C   LIG    1       22.638 -29.126  14.098  0.00  0.00    +0.268 C 
ATOM     11  N   LIG    1       23.299 -29.679  13.009  0.00  0.00    -0.296 N 
ATOM     12  H   LIG    1       22.994 -29.349  12.098  0.00  0.00    +0.150 HD
ATOM     13  O   LIG    1       22.782 -29.543  15.238  0.00  0.00    -0.268 OA
BRANCH  10  15
ATOM     14  N   LIG    1       22.154 -26.776  13.341  0.00  0.00    -0.078 NA
ATOM     15  C   LIG    1       21.720 -27.914  13.811  0.00  0.00    +0.190 C 
BRANCH  15  16
ATOM     16  C   LIG    1       20.270 -27.939  14.085  0.00  0.00    +0.107 A 
ATOM     17  N   LIG    1       19.581 -26.739  14.326  0.00  0.00    -0.223 NA
ATOM     18  C   LIG    1       18.299 -26.944  14.468  0.00  0.00    +0.156 A 
ATOM     19  S   LIG    1       17.818 -28.586  14.404  0.00  0.00    -0.060 S 
ATOM     20  C   LIG    1       19.449 -29.051  14.129  0.00  0.00    +0.078 A 
BRANCH  18  21
ATOM     21  N   LIG    1       17.416 -25.954  14.668  0.00  0.00    -0.338 N 
ATOM     22  H   LIG    1       17.724 -25.174  15.236  0.00  0.00    +0.144 HD
ATOM     23  H   LIG    1       16.430 -26.170  14.728  0.00  0.00    +0.144 HD
ENDBRANCH  18  21
ENDBRANCH  15  16
BRANCH  14  25
ATOM     24  C   LIG    1       24.154 -25.843  13.861  0.00  0.00    +0.313 C 
ATOM     25  O   LIG    1       23.499 -26.750  12.981  0.00  0.00    -0.396 OA
ENDBRANCH  14  25
ENDBRANCH  10  15
ENDBRANCH   1  11
BRANCH   4  26
ATOM     26  C   LIG    1       27.079 -29.769  10.065  0.00  0.00    +0.351 C 
ATOM     27  O   LIG    1       26.959 -28.673   9.550  0.00  0.00    -0.244 OA
BRANCH  26  28
ATOM     28  OXT LIG    1       28.211 -30.137  10.675  0.00  0.00    -0.476 OA
ATOM     29  HXT LIG    1       28.048 -30.216  11.638  0.00  0.00    +0.295 HD
ENDBRANCH  26  28
ENDBRANCH   4  26
BRANCH   5  30
ATOM     30  C   LIG    1       25.841 -31.251   7.699  0.00  0.00    +0.168 C 
BRANCH  30  31
ATOM     31  N   LIG    1       24.792 -30.692   6.683  0.00  0.00    +0.244 N 
ATOM     32  C   LIG    1       24.039 -29.488   7.306  0.00  0.00    +0.133 C 
ATOM     33  C   LIG    1       24.571 -28.241   6.620  0.00  0.00    +0.056 C 
ATOM     34  C   LIG    1       25.694 -28.683   5.706  0.00  0.00    +0.056 C 
ATOM     35  C   LIG    1       25.406 -30.133   5.405  0.00  0.00    +0.133 C 
ATOM     36  C   LIG    1       23.753 -31.740   6.321  0.00  0.00    +0.192 C 
ENDBRANCH  30  31
ENDBRANCH   5  30
TORSDOF 9
ENDMDL
MODEL 4
REMARK VINA RESULT:      -5.5      3.047      3.846
REMARK  Name = *****
REMARK                            x       y       z     vdW  Elec       q    Type
REMARK                         _______ _______ _______ _____ _____    ______ ____
ROOT
ATOM      1  CA  LIG    1       25.442 -31.437  10.676  0.00  0.00    +0.191 C 
ATOM      2  C   LIG    1       25.301 -30.837  12.119  0.00  0.00    +0.169 C 
ATOM      3  N   LIG    1       24.095 -31.638  12.231  0.00  0.00    -0.249 N 
ATOM      4  CA  LIG    1       23.005 -31.410  13.027  0.00  0.00    +0.127 C 
ATOM      5  C   LIG    1       22.937 -30.311  13.835  0.00  0.00    +0.013 C 
ATOM      6  C   LIG    1       24.146 -29.392  13.966  0.00  0.00    +0.109 C 
ATOM      7  S   LIG    1       24.882 -29.091  12.319  0.00  0.00    -0.131 S 
ATOM      8  C   LIG    1       24.478 -32.549  11.287  0.00  0.00    +0.244 C 
ATOM      9  O   LIG    1       24.133 -33.665  11.036  0.00  0.00    -0.273 OA
ENDROOT
BRANCH   1  11
ATOM     10  C   LIG    1       25.428 -30.629   8.274  0.00  0.00    +0.268 C 
ATOM     11  N   LIG    1       24.840 -30.678   9.531  0.00  0.00    -0.296 N 
ATOM     12  H   LIG    1       24.056 -30.047   9.673  0.00  0.00    +0.150 HD
ATOM     13  O   LIG    1       26.474 -31.206   8.011  0.00  0.00    -0.268 OA
BRANCH  10  15
ATOM     14  N   LIG    1       23.730 -30.335   6.441  0.00  0.00    -0.078 NA
ATOM     15  C   LIG    1       24.675 -29.827   7.185  0.00  0.00    +0.190 C 
BRANCH  15  16
ATOM     16  C   LIG    1       24.995 -28.421   6.876  0.00  0.00    +0.107 A 
ATOM     17  N   LIG    1       24.241 -27.724   5.917  0.00  0.00    -0.223 NA
ATOM     18  C   LIG    1       24.613 -26.475   5.832  0.00  0.00    +0.156 A 
ATOM     19  S   LIG    1       25.938 -26.045   6.828  0.00  0.00    -0.060 S 
ATOM     20  C   LIG    1       25.992 -27.649   7.443  0.00  0.00    +0.078 A 
BRANCH  18  21
ATOM     21  N   LIG    1       24.022 -25.588   5.017  0.00  0.00    -0.338 N 
ATOM     22  H   LIG    1       23.013 -25.514   5.075  0.00  0.00    +0.144 HD
ATOM     23  H   LIG    1       24.416 -25.411   4.103  0.00  0.00    +0.144 HD
ENDBRANCH  18  21
ENDBRANCH  15  16
BRANCH  14  25
ATOM     24  C   LIG    1       23.719 -32.476   5.693  0.00  0.00    +0.313 C 
ATOM     25  O   LIG    1       23.336 -31.629   6.772  0.00  0.00    -0.396 OA
ENDBRANCH  14  25
ENDBRANCH  10  15
ENDBRANCH   1  11
BRANCH   4  26
ATOM     26  C   LIG    1       21.835 -32.339  12.874  0.00  0.00    +0.351 C 
ATOM     27  O   LIG    1       21.535 -33.240  13.635  0.00  0.00    -0.244 OA
BRANCH  26  28
ATOM     28  OXT LIG    1       21.041 -31.986  11.857  0.00  0.00    -0.476 OA
ATOM     29  HXT LIG    1       20.668 -32.793  11.444  0.00  0.00    +0.295 HD
ENDBRANCH  26  28
ENDBRANCH   4  26
BRANCH   5  30
ATOM     30  C   LIG    1       21.763 -29.919  14.735  0.00  0.00    +0.168 C 
BRANCH  30  31
ATOM     31  N   LIG    1       20.605 -29.070  14.112  0.00  0.00    +0.244 N 
ATOM     32  C   LIG    1       20.257 -27.882  15.046  0.00  0.00    +0.133 C 
ATOM     33  C   LIG    1       20.808 -26.632  14.382  0.00  0.00    +0.056 C 
ATOM     34  C   LIG    1       21.568 -27.082  13.153  0.00  0.00    +0.056 C 
ATOM     35  C   LIG    1       20.964 -28.415  12.785  0.00  0.00    +0.133 C 
ATOM     36  C   LIG    1       19.342 -29.897  13.935  0.00  0.00    +0.192 C 
ENDBRANCH  30  31
ENDBRANCH   5  30
TORSDOF 9
ENDMDL
MODEL 5
REMARK VINA RESULT:      -5.3      3.016      4.405
REMARK  Name = *****
REMARK                            x       y       z     vdW  Elec       q    Type
REMARK                         _______ _______ _______ _____ _____    ______ ____
ROOT
ATOM      1  CA  LIG    1       24.182 -32.614  11.955  0.00  0.00    +0.191 C 
ATOM      2  C   LIG    1       23.923 -32.056  13.398  0.00  0.00    +0.169 C 
ATOM      3  N   LIG    1       22.592 -31.718  12.925  0.00  0.00    -0.249 N 
ATOM      4  CA  LIG    1       21.756 -30.741  13.394  0.00  0.00    +0.127 C 
ATOM      5  C   LIG    1       22.135 -29.916  14.415  0.00  0.00    +0.013 C 
ATOM      6  C   LIG    1       23.450 -30.169  15.143  0.00  0.00    +0.109 C 
ATOM      7  S   LIG    1       24.768 -30.553  13.936  0.00  0.00    -0.131 S 
ATOM      8  C   LIG    1       22.589 -32.649  11.924  0.00  0.00    +0.244 C 
ATOM      9  O   LIG    1       21.721 -33.166  11.287  0.00  0.00    -0.273 OA
ENDROOT
BRANCH   1  11
ATOM     10  C   LIG    1       25.832 -32.076  10.107  0.00  0.00    +0.268 C 
ATOM     11  N   LIG    1       24.786 -31.693  10.937  0.00  0.00    -0.296 N 
ATOM     12  H   LIG    1       24.553 -30.704  10.919  0.00  0.00    +0.150 HD
ATOM     13  O   LIG    1       26.328 -33.193  10.144  0.00  0.00    -0.268 OA
BRANCH  10  15
ATOM     14  N   LIG    1       27.206 -30.099   9.377  0.00  0.00    -0.078 NA
ATOM     15  C   LIG    1       26.332 -31.024   9.088  0.00  0.00    +0.190 C 
BRANCH  15  16
ATOM     16  C   LIG    1       25.826 -30.963   7.703  0.00  0.00    +0.107 A 
ATOM     17  N   LIG    1       24.873 -29.994   7.347  0.00  0.00    -0.223 NA
ATOM     18  C   LIG    1       24.603 -30.038   6.069  0.00  0.00    +0.156 A 
ATOM     19  S   LIG    1       25.400 -31.281   5.203  0.00  0.00    -0.060 S 
ATOM     20  C   LIG    1       26.193 -31.775   6.645  0.00  0.00    +0.078 A 
BRANCH  18  21
ATOM     21  N   LIG    1       23.753 -29.189   5.471  0.00  0.00    -0.338 N 
ATOM     22  H   LIG    1       24.163 -28.424   4.948  0.00  0.00    +0.144 HD
ATOM     23  H   LIG    1       22.862 -28.988   5.904  0.00  0.00    +0.144 HD
ENDBRANCH  18  21
ENDBRANCH  15  16
BRANCH  14  25
ATOM     24  C   LIG    1       27.586 -28.929  11.282  0.00  0.00    +0.313 C 
ATOM     25  O   LIG    1       27.776 -30.188  10.645  0.00  0.00    -0.396 OA
ENDBRANCH  14  25
ENDBRANCH  10  15
ENDBRANCH   1  11
BRANCH   4  26
ATOM     26  C   LIG    1       20.467 -30.524  12.654  0.00  0.00    +0.351 C 
ATOM     27  O   LIG    1       19.368 -30.905  13.010  0.00  0.00    -0.244 OA
BRANCH  26  28
ATOM     28  OXT LIG    1       20.624 -29.724  11.593  0.00  0.00    -0.476 OA
ATOM     29  HXT LIG    1       20.940 -30.254  10.833  0.00  0.00    +0.295 HD
ENDBRANCH  26  28
ENDBRANCH   4  26
BRANCH   5  30
ATOM     30  C   LIG    1       21.317 -28.762  14.999  0.00  0.00    +0.168 C 
BRANCH  30  31
ATOM     31  N   LIG    1       21.402 -27.366  14.298  0.00  0.00    +0.244 N 
ATOM     32  C   LIG    1       21.847 -26.287  15.318  0.00  0.00    +0.133 C 
ATOM     33  C   LIG    1       23.288 -25.943  14.985  0.00  0.00    +0.056 C 
ATOM     34  C   LIG    1       23.724 -26.880  13.879  0.00  0.00    +0.056 C 
ATOM     35  C   LIG    1       22.446 -27.293  13.191  0.00  0.00    +0.133 C 
ATOM     36  C   LIG    1       20.054 -26.939  13.742  0.00  0.00    +0.192 C 
ENDBRANCH  30  31
ENDBRANCH   5  30
TORSDOF 9
ENDMDL
MODEL 6
REMARK VINA RESULT:      -5.3      3.079      8.124
REMARK  Name = *****
REMARK                            x       y       z     vdW  Elec       q    Type
REMARK                         _______ _______ _______ _____ _____    ______ ____
ROOT
ATOM      1  CA  LIG    1       24.141 -30.562  13.179  0.00  0.00    +0.191 C 
ATOM      2  C   LIG    1       23.667 -31.273  11.864  0.00  0.00    +0.169 C 
ATOM      3  N   LIG    1       24.989 -30.978  11.340  0.00  0.00    -0.249 N 
ATOM      4  CA  LIG    1       25.360 -30.828  10.031  0.00  0.00    +0.127 C 
ATOM      5  C   LIG    1       24.447 -30.929   9.020  0.00  0.00    +0.013 C 
ATOM      6  C   LIG    1       23.017 -31.353   9.333  0.00  0.00    +0.109 C 
ATOM      7  S   LIG    1       22.419 -30.480  10.825  0.00  0.00    -0.131 S 
ATOM      8  C   LIG    1       25.578 -30.886  12.570  0.00  0.00    +0.244 C 
ATOM      9  O   LIG    1       26.711 -30.952  12.944  0.00  0.00    -0.273 OA
ENDROOT
BRANCH   1  11
ATOM     10  C   LIG    1       24.126 -28.403  14.506  0.00  0.00    +0.268 C 
ATOM     11  N   LIG    1       23.866 -29.095  13.332  0.00  0.00    -0.296 N 
ATOM     12  H   LIG    1       23.338 -28.584  12.630  0.00  0.00    +0.150 HD
ATOM     13  O   LIG    1       24.605 -28.938  15.496  0.00  0.00    -0.268 OA
BRANCH  10  15
ATOM     14  N   LIG    1       22.622 -26.397  14.299  0.00  0.00    -0.078 NA
ATOM     15  C   LIG    1       23.815 -26.887  14.503  0.00  0.00    +0.190 C 
BRANCH  15  16
ATOM     16  C   LIG    1       24.861 -25.865  14.698  0.00  0.00    +0.107 A 
ATOM     17  N   LIG    1       26.108 -26.009  14.067  0.00  0.00    -0.223 NA
ATOM     18  C   LIG    1       26.877 -24.976  14.287  0.00  0.00    +0.156 A 
ATOM     19  S   LIG    1       26.211 -23.785  15.322  0.00  0.00    -0.060 S 
ATOM     20  C   LIG    1       24.770 -24.712  15.455  0.00  0.00    +0.078 A 
BRANCH  18  21
ATOM     21  N   LIG    1       28.105 -24.852  13.762  0.00  0.00    -0.338 N 
ATOM     22  H   LIG    1       28.517 -25.685  13.358  0.00  0.00    +0.144 HD
ATOM     23  H   LIG    1       28.761 -24.203  14.175  0.00  0.00    +0.144 HD
ENDBRANCH  18  21
ENDBRANCH  15  16
BRANCH  14  25
ATOM     24  C   LIG    1       20.852 -27.032  13.033  0.00  0.00    +0.313 C 
ATOM     25  O   LIG    1       21.596 -27.334  14.209  0.00  0.00    -0.396 OA
ENDBRANCH  14  25
ENDBRANCH  10  15
ENDBRANCH   1  11
BRANCH   4  26
ATOM     26  C   LIG    1       26.779 -30.415   9.762  0.00  0.00    +0.351 C 
ATOM     27  O   LIG    1       27.169 -29.276   9.583  0.00  0.00    -0.244 OA
BRANCH  26  28
ATOM     28  OXT LIG    1       27.633 -31.439   9.878  0.00  0.00    -0.476 OA
ATOM     29  HXT LIG    1       27.219 -32.247   9.509  0.00  0.00    +0.295 HD
ENDBRANCH  26  28
ENDBRANCH   4  26
BRANCH   5  30
ATOM     30  C   LIG    1       24.723 -30.740   7.527  0.00  0.00    +0.168 C 
BRANCH  30  31
ATOM     31  N   LIG    1       24.821 -32.015   6.626  0.00  0.00    +0.244 N 
ATOM     32  C   LIG    1       25.854 -31.785   5.493  0.00  0.00    +0.133 C 
ATOM     33  C   LIG    1       27.083 -32.602   5.854  0.00  0.00    +0.056 C 
ATOM     34  C   LIG    1       26.833 -33.199   7.222  0.00  0.00    +0.056 C 
ATOM     35  C   LIG    1       25.330 -33.251   7.357  0.00  0.00    +0.133 C 
ATOM     36  C   LIG    1       23.489 -32.336   5.970  0.00  0.00    +0.192 C 
ENDBRANCH  30  31
ENDBRANCH   5  30
TORSDOF 9
ENDMDL
MODEL 7
REMARK VINA RESULT:      -5.2      4.062      7.796
REMARK  Name = *****
REMARK                            x       y       z     vdW  Elec       q    Type
REMARK                         _______ _______ _______ _____ _____    ______ ____
ROOT
ATOM      1  CA  LIG    1       24.320 -31.002  12.899  0.00  0.00    +0.191 C 
ATOM      2  C   LIG    1       25.022 -32.050  11.966  0.00  0.00    +0.169 C 
ATOM      3  N   LIG    1       25.650 -30.912  11.319  0.00  0.00    -0.249 N 
ATOM      4  CA  LIG    1       26.120 -30.829  10.036  0.00  0.00    +0.127 C 
ATOM      5  C   LIG    1       26.013 -31.883   9.173  0.00  0.00    +0.013 C 
ATOM      6  C   LIG    1       25.493 -33.223   9.678  0.00  0.00    +0.109 C 
ATOM      7  S   LIG    1       24.039 -32.963  10.755  0.00  0.00    -0.131 S 
ATOM      8  C   LIG    1       25.524 -30.086  12.400  0.00  0.00    +0.244 C 
ATOM      9  O   LIG    1       26.070 -29.074  12.727  0.00  0.00    -0.273 OA
ENDROOT
BRANCH   1  11
ATOM     10  C   LIG    1       21.796 -30.917  13.114  0.00  0.00    +0.268 C 
ATOM     11  N   LIG    1       22.967 -30.492  12.501  0.00  0.00    -0.296 N 
ATOM     12  H   LIG    1       22.844 -29.928  11.665  0.00  0.00    +0.150 HD
ATOM     13  O   LIG    1       21.787 -31.731  14.026  0.00  0.00    -0.268 OA
BRANCH  10  15
ATOM     14  N   LIG    1       20.069 -30.350  11.374  0.00  0.00    -0.078 NA
ATOM     15  C   LIG    1       20.478 -30.280  12.612  0.00  0.00    +0.190 C 
BRANCH  15  16
ATOM     16  C   LIG    1       19.588 -29.506  13.498  0.00  0.00    +0.107 A 
ATOM     17  N   LIG    1       19.942 -28.201  13.882  0.00  0.00    -0.223 NA
ATOM     18  C   LIG    1       19.003 -27.642  14.597  0.00  0.00    +0.156 A 
ATOM     19  S   LIG    1       17.657 -28.645  14.935  0.00  0.00    -0.060 S 
ATOM     20  C   LIG    1       18.375 -29.912  14.024  0.00  0.00    +0.078 A 
BRANCH  18  21
ATOM     21  N   LIG    1       19.081 -26.383  15.054  0.00  0.00    -0.338 N 
ATOM     22  H   LIG    1       18.710 -25.655  14.454  0.00  0.00    +0.144 HD
ATOM     23  H   LIG    1       19.865 -26.110  15.631  0.00  0.00    +0.144 HD
ENDBRANCH  18  21
ENDBRANCH  15  16
BRANCH  14  25
ATOM     24  C   LIG    1       20.092 -32.346  10.298  0.00  0.00    +0.313 C 
ATOM     25  O   LIG    1       20.835 -31.155  10.534  0.00  0.00    -0.396 OA
ENDBRANCH  14  25
ENDBRANCH  10  15
ENDBRANCH   1  11
BRANCH   4  26
ATOM     26  C   LIG    1       26.630 -29.493   9.576  0.00  0.00    +0.351 C 
ATOM     27  O   LIG    1       26.021 -28.696   8.887  0.00  0.00    -0.244 OA
BRANCH  26  28
ATOM     28  OXT LIG    1       27.810 -29.187  10.128  0.00  0.00    -0.476 OA
ATOM     29  HXT LIG    1       27.933 -28.215  10.108  0.00  0.00    +0.295 HD
ENDBRANCH  26  28
ENDBRANCH   4  26
BRANCH   5  30
ATOM     30  C   LIG    1       26.456 -31.903   7.709  0.00  0.00    +0.168 C 
BRANCH  30  31
ATOM     31  N   LIG    1       25.351 -31.936   6.602  0.00  0.00    +0.244 N 
ATOM     32  C   LIG    1       24.109 -31.134   7.069  0.00  0.00    +0.133 C 
ATOM     33  C   LIG    1       24.107 -29.838   6.277  0.00  0.00    +0.056 C 
ATOM     34  C   LIG    1       25.378 -29.817   5.456  0.00  0.00    +0.056 C 
ATOM     35  C   LIG    1       25.764 -31.267   5.297  0.00  0.00    +0.133 C 
ATOM     36  C   LIG    1       24.895 -33.356   6.313  0.00  0.00    +0.192 C 
ENDBRANCH  30  31
ENDBRANCH   5  30
TORSDOF 9
ENDMDL
MODEL 8
REMARK VINA RESULT:      -5.0      3.912      7.887
REMARK  Name = *****
REMARK                            x       y       z     vdW  Elec       q    Type
REMARK                         _______ _______ _______ _____ _____    ______ ____
ROOT
ATOM      1  CA  LIG    1       24.436 -31.131  12.964  0.00  0.00    +0.191 C 
ATOM      2  C   LIG    1       25.068 -32.164  11.966  0.00  0.00    +0.169 C 
ATOM      3  N   LIG    1       25.738 -31.026  11.362  0.00  0.00    -0.249 N 
ATOM      4  CA  LIG    1       26.187 -30.901  10.074  0.00  0.00    +0.127 C 
ATOM      5  C   LIG    1       26.013 -31.905   9.164  0.00  0.00    +0.013 C 
ATOM      6  C   LIG    1       25.438 -33.242   9.614  0.00  0.00    +0.109 C 
ATOM      7  S   LIG    1       24.019 -32.967  10.734  0.00  0.00    -0.131 S 
ATOM      8  C   LIG    1       25.674 -30.249  12.484  0.00  0.00    +0.244 C 
ATOM      9  O   LIG    1       26.273 -29.282  12.848  0.00  0.00    -0.273 OA
ENDROOT
BRANCH   1  11
ATOM     10  C   LIG    1       21.924 -30.934  13.239  0.00  0.00    +0.268 C 
ATOM     11  N   LIG    1       23.102 -30.538  12.620  0.00  0.00    -0.296 N 
ATOM     12  H   LIG    1       22.990 -29.930  11.813  0.00  0.00    +0.150 HD
ATOM     13  O   LIG    1       21.894 -31.789  14.113  0.00  0.00    -0.268 OA
BRANCH  10  15
ATOM     14  N   LIG    1       20.342 -28.982  13.126  0.00  0.00    -0.078 NA
ATOM     15  C   LIG    1       20.629 -30.212  12.797  0.00  0.00    +0.190 C 
BRANCH  15  16
ATOM     16  C   LIG    1       19.590 -30.878  11.989  0.00  0.00    +0.107 A 
ATOM     17  N   LIG    1       18.479 -31.464  12.620  0.00  0.00    -0.223 NA
ATOM     18  C   LIG    1       17.628 -31.934  11.747  0.00  0.00    +0.156 A 
ATOM     19  S   LIG    1       18.112 -31.786  10.112  0.00  0.00    -0.060 S 
ATOM     20  C   LIG    1       19.556 -31.002  10.612  0.00  0.00    +0.078 A 
BRANCH  18  21
ATOM     21  N   LIG    1       16.465 -32.507  12.094  0.00  0.00    -0.338 N 
ATOM     22  H   LIG    1       15.660 -31.897  12.176  0.00  0.00    +0.144 HD
ATOM     23  H   LIG    1       16.468 -33.304  12.716  0.00  0.00    +0.144 HD
ENDBRANCH  18  21
ENDBRANCH  15  16
BRANCH  14  25
ATOM     24  C   LIG    1       21.580 -27.082  13.095  0.00  0.00    +0.313 C 
ATOM     25  O   LIG    1       21.344 -28.293  13.806  0.00  0.00    -0.396 OA
ENDBRANCH  14  25
ENDBRANCH  10  15
ENDBRANCH   1  11
BRANCH   4  26
ATOM     26  C   LIG    1       26.752 -29.570   9.669  0.00  0.00    +0.351 C 
ATOM     27  O   LIG    1       26.186 -28.730   8.995  0.00  0.00    -0.244 OA
BRANCH  26  28
ATOM     28  OXT LIG    1       27.931 -29.324  10.254  0.00  0.00    -0.476 OA
ATOM     29  HXT LIG    1       28.088 -28.357  10.268  0.00  0.00    +0.295 HD
ENDBRANCH  26  28
ENDBRANCH   4  26
BRANCH   5  30
ATOM     30  C   LIG    1       26.427 -31.874   7.691  0.00  0.00    +0.168 C 
BRANCH  30  31
ATOM     31  N   LIG    1       25.299 -31.832   6.607  0.00  0.00    +0.244 N 
ATOM     32  C   LIG    1       24.108 -30.979   7.113  0.00  0.00    +0.133 C 
ATOM     33  C   LIG    1       24.154 -29.670   6.344  0.00  0.00    +0.056 C 
ATOM     34  C   LIG    1       25.408 -29.697   5.497  0.00  0.00    +0.056 C 
ATOM     35  C   LIG    1       25.719 -31.161   5.305  0.00  0.00    +0.133 C 
ATOM     36  C   LIG    1       24.768 -33.223   6.303  0.00  0.00    +0.192 C 
ENDBRANCH  30  31
ENDBRANCH   5  30
TORSDOF 9
ENDMDL
MODEL 9
REMARK VINA RESULT:      -4.9      3.503      4.988
REMARK  Name = *****
REMARK                            x       y       z     vdW  Elec       q    Type
REMARK                         _______ _______ _______ _____ _____    ______ ____
ROOT
ATOM      1  CA  LIG    1       23.716 -32.590  10.296  0.00  0.00    +0.191 C 
ATOM      2  C   LIG    1       23.281 -32.662  11.802  0.00  0.00    +0.169 C 
ATOM      3  N   LIG    1       22.010 -32.116  11.362  0.00  0.00    -0.249 N 
ATOM      4  CA  LIG    1       21.110 -31.387  12.093  0.00  0.00    +0.127 C 
ATOM      5  C   LIG    1       21.354 -31.065  13.397  0.00  0.00    +0.013 C 
ATOM      6  C   LIG    1       22.578 -31.638  14.102  0.00  0.00    +0.109 C 
ATOM      7  S   LIG    1       24.034 -31.541  13.001  0.00  0.00    -0.131 S 
ATOM      8  C   LIG    1       22.139 -32.555  10.074  0.00  0.00    +0.244 C 
ATOM      9  O   LIG    1       21.359 -32.736   9.187  0.00  0.00    -0.273 OA
ENDROOT
BRANCH   1  11
ATOM     10  C   LIG    1       25.803 -31.275   9.714  0.00  0.00    +0.268 C 
ATOM     11  N   LIG    1       24.421 -31.354   9.821  0.00  0.00    -0.296 N 
ATOM     12  H   LIG    1       23.922 -30.477   9.701  0.00  0.00    +0.150 HD
ATOM     13  O   LIG    1       26.541 -32.209   9.994  0.00  0.00    -0.268 OA
BRANCH  10  15
ATOM     14  N   LIG    1       27.429 -29.355   9.700  0.00  0.00    -0.078 NA
ATOM     15  C   LIG    1       26.384 -29.943   9.183  0.00  0.00    +0.190 C 
BRANCH  15  16
ATOM     16  C   LIG    1       25.773 -29.206   8.060  0.00  0.00    +0.107 A 
ATOM     17  N   LIG    1       24.919 -29.874   7.166  0.00  0.00    -0.223 NA
ATOM     18  C   LIG    1       24.411 -29.051   6.287  0.00  0.00    +0.156 A 
ATOM     19  S   LIG    1       24.963 -27.435   6.404  0.00  0.00    -0.060 S 
ATOM     20  C   LIG    1       25.931 -27.866   7.757  0.00  0.00    +0.078 A 
BRANCH  18  21
ATOM     21  N   LIG    1       23.533 -29.434   5.347  0.00  0.00    -0.338 N 
ATOM     22  H   LIG    1       23.016 -30.288   5.524  0.00  0.00    +0.144 HD
ATOM     23  H   LIG    1       23.729 -29.242   4.374  0.00  0.00    +0.144 HD
ENDBRANCH  18  21
ENDBRANCH  15  16
BRANCH  14  25
ATOM     24  C   LIG    1       28.162 -29.226  11.842  0.00  0.00    +0.313 C 
ATOM     25  O   LIG    1       28.087 -30.070  10.697  0.00  0.00    -0.396 OA
ENDBRANCH  14  25
ENDBRANCH  10  15
ENDBRANCH   1  11
BRANCH   4  26
ATOM     26  C   LIG    1       19.913 -30.843  11.365  0.00  0.00    +0.351 C 
ATOM     27  O   LIG    1       18.776 -31.269  11.445  0.00  0.00    -0.244 OA
BRANCH  26  28
ATOM     28  OXT LIG    1       20.197 -29.718  10.700  0.00  0.00    -0.476 OA
ATOM     29  HXT LIG    1       19.378 -29.191  10.594  0.00  0.00    +0.295 HD
ENDBRANCH  26  28
ENDBRANCH   4  26
BRANCH   5  30
ATOM     30  C   LIG    1       20.455 -30.224  14.306  0.00  0.00    +0.168 C 
BRANCH  30  31
ATOM     31  N   LIG    1       20.932 -28.784  14.691  0.00  0.00    +0.244 N 
ATOM     32  C   LIG    1       21.210 -27.957  13.410  0.00  0.00    +0.133 C 
ATOM     33  C   LIG    1       20.069 -26.963  13.279  0.00  0.00    +0.056 C 
ATOM     34  C   LIG    1       19.080 -27.276  14.381  0.00  0.00    +0.056 C 
ATOM     35  C   LIG    1       19.889 -27.970  15.448  0.00  0.00    +0.133 C 
ATOM     36  C   LIG    1       22.219 -28.822  15.498  0.00  0.00    +0.192 C 
ENDBRANCH  30  31
ENDBRANCH   5  30
TORSDOF 9
ENDMDL
