MODEL 1
REMARK VINA RESULT:      -6.5      0.000      0.000
REMARK  Name = *****
REMARK                            x       y       z     vdW  Elec       q    Type
REMARK                         _______ _______ _______ _____ _____    ______ ____
ROOT
ATOM      1  C   LIG    1       23.491 -18.587   4.269  0.00  0.00    +0.027 C 
ENDROOT
BRANCH   1   3
ATOM      2  C   LIG    1       22.526 -16.259   4.585  0.00  0.00    -0.027 C 
ATOM      3  C   LIG    1       22.397 -17.604   4.631  0.00  0.00    -0.031 C 
BRANCH   2   4
ATOM      4  C   LIG    1       23.736 -15.460   4.162  0.00  0.00    +0.054 C 
BRANCH   4   6
ATOM      5  C   LIG    1       24.199 -12.898   4.096  0.00  0.00    -0.027 C 
ATOM      6  C   LIG    1       23.779 -14.040   4.674  0.00  0.00    -0.027 C 
BRANCH   5   7
ATOM      7  C   LIG    1       24.678 -12.681   2.690  0.00  0.00    +0.054 C 
BRANCH   7   9
ATOM      8  C   LIG    1       26.933 -14.008   2.785  0.00  0.00    -0.031 C 
ATOM      9  C   LIG    1       25.766 -13.625   2.245  0.00  0.00    -0.027 C 
BRANCH   8  11
ATOM     10  C   LIG    1       28.781 -12.853   3.891  0.00  0.00    +0.008 C 
ATOM     11  C   LIG    1       27.543 -13.725   4.126  0.00  0.00    +0.023 C 
ENDBRANCH   8  11
ENDBRANCH   7   9
ENDBRANCH   5   7
ENDBRANCH   4   6
ENDBRANCH   2   4
ENDBRANCH   1   3
BRANCH   1  12
ATOM     12  C   LIG    1       23.103 -20.083   4.258  0.00  0.00    +0.004 C 
BRANCH  12  13
ATOM     13  C   LIG    1       22.545 -20.647   5.604  0.00  0.00    +0.000 C 
BRANCH  13  14
ATOM     14  C   LIG    1       23.451 -20.411   6.806  0.00  0.00    +0.000 C 
BRANCH  14  15
ATOM     15  C   LIG    1       24.676 -21.325   7.005  0.00  0.00    +0.000 C 
BRANCH  15  16
ATOM     16  C   LIG    1       26.023 -20.558   7.062  0.00  0.00    +0.011 C 
BRANCH  16  17
ATOM     17  C   LIG    1       26.678 -20.285   5.702  0.00  0.00    +0.120 C 
BRANCH  17  18
ATOM     18  C   LIG    1       28.126 -19.904   5.754  0.00  0.00    +0.305 C 
ATOM     19  O   LIG    1       28.968 -20.490   6.469  0.00  0.00    -0.251 OA
BRANCH  18  20
ATOM     20  O   LIG    1       28.476 -18.877   4.969  0.00  0.00    -0.481 OA
ATOM     21  H   LIG    1       29.448 -18.833   4.815  0.00  0.00    +0.295 HD
ENDBRANCH  18  20
ENDBRANCH  17  18
ENDBRANCH  16  17
ENDBRANCH  15  16
ENDBRANCH  14  15
ENDBRANCH  13  14
ENDBRANCH  12  13
ENDBRANCH   1  12
TORSDOF 14
ENDMDL
MODEL 2
REMARK VINA RESULT:      -6.0      2.721      7.344
REMARK  Name = *****
REMARK                            x       y       z     vdW  Elec       q    Type
REMARK                         _______ _______ _______ _____ _____    ______ ____
ROOT
ATOM      1  C   LIG    1       27.884 -18.239   4.573  0.00  0.00    +0.027 C 
ENDROOT
BRANCH   1   3
ATOM      2  C   LIG    1       29.241 -19.504   6.308  0.00  0.00    -0.027 C 
ATOM      3  C   LIG    1       29.059 -18.427   5.512  0.00  0.00    -0.031 C 
BRANCH   2   4
ATOM      4  C   LIG    1       28.361 -20.726   6.428  0.00  0.00    +0.054 C 
BRANCH   4   6
ATOM      5  C   LIG    1       25.764 -20.605   6.569  0.00  0.00    -0.027 C 
ATOM      6  C   LIG    1       27.012 -20.486   7.062  0.00  0.00    -0.027 C 
BRANCH   5   7
ATOM      7  C   LIG    1       25.331 -21.120   5.227  0.00  0.00    +0.054 C 
BRANCH   7   9
ATOM      8  C   LIG    1       23.837 -19.347   4.012  0.00  0.00    -0.031 C 
ATOM      9  C   LIG    1       24.959 -20.049   4.235  0.00  0.00    -0.027 C 
BRANCH   8  11
ATOM     10  C   LIG    1       21.994 -20.706   4.865  0.00  0.00    +0.008 C 
ATOM     11  C   LIG    1       22.545 -19.279   4.771  0.00  0.00    +0.023 C 
ENDBRANCH   8  11
ENDBRANCH   7   9
ENDBRANCH   5   7
ENDBRANCH   4   6
ENDBRANCH   2   4
ENDBRANCH   1   3
BRANCH   1  12
ATOM     12  C   LIG    1       27.613 -16.799   4.083  0.00  0.00    +0.004 C 
BRANCH  12  13
ATOM     13  C   LIG    1       26.265 -16.587   3.322  0.00  0.00    +0.000 C 
BRANCH  13  14
ATOM     14  C   LIG    1       25.904 -15.126   3.083  0.00  0.00    +0.000 C 
BRANCH  14  15
ATOM     15  C   LIG    1       25.115 -14.368   4.168  0.00  0.00    +0.000 C 
BRANCH  15  16
ATOM     16  C   LIG    1       25.850 -13.117   4.715  0.00  0.00    +0.011 C 
BRANCH  16  17
ATOM     17  C   LIG    1       27.181 -13.398   5.423  0.00  0.00    +0.120 C 
BRANCH  17  18
ATOM     18  C   LIG    1       28.382 -12.738   4.816  0.00  0.00    +0.305 C 
ATOM     19  O   LIG    1       28.787 -12.976   3.657  0.00  0.00    -0.251 OA
BRANCH  18  20
ATOM     20  O   LIG    1       29.011 -11.858   5.604  0.00  0.00    -0.481 OA
ATOM     21  H   LIG    1       28.780 -11.968   6.555  0.00  0.00    +0.295 HD
ENDBRANCH  18  20
ENDBRANCH  17  18
ENDBRANCH  16  17
ENDBRANCH  15  16
ENDBRANCH  14  15
ENDBRANCH  13  14
ENDBRANCH  12  13
ENDBRANCH   1  12
TORSDOF 14
ENDMDL
MODEL 3
REMARK VINA RESULT:      -6.0      1.424      6.472
REMARK  Name = *****
REMARK                            x       y       z     vdW  Elec       q    Type
REMARK                         _______ _______ _______ _____ _____    ______ ____
ROOT
ATOM      1  C   LIG    1       23.641 -15.280   4.370  0.00  0.00    +0.027 C 
ENDROOT
BRANCH   1   3
ATOM      2  C   LIG    1       22.143 -17.288   4.787  0.00  0.00    -0.027 C 
ATOM      3  C   LIG    1       22.359 -15.954   4.814  0.00  0.00    -0.031 C 
BRANCH   2   4
ATOM      4  C   LIG    1       23.097 -18.372   4.342  0.00  0.00    +0.054 C 
BRANCH   4   6
ATOM      5  C   LIG    1       22.736 -20.655   5.540  0.00  0.00    -0.027 C 
ATOM      6  C   LIG    1       22.594 -19.783   4.522  0.00  0.00    -0.027 C 
BRANCH   5   7
ATOM      7  C   LIG    1       23.377 -20.436   6.879  0.00  0.00    +0.054 C 
BRANCH   7   9
ATOM      8  C   LIG    1       25.879 -21.058   6.425  0.00  0.00    -0.031 C 
ATOM      9  C   LIG    1       24.701 -21.133   7.062  0.00  0.00    -0.027 C 
BRANCH   8  11
ATOM     10  C   LIG    1       27.828 -19.802   5.653  0.00  0.00    +0.008 C 
ATOM     11  C   LIG    1       26.364 -20.135   5.346  0.00  0.00    +0.023 C 
ENDBRANCH   8  11
ENDBRANCH   7   9
ENDBRANCH   5   7
ENDBRANCH   4   6
ENDBRANCH   2   4
ENDBRANCH   1   3
BRANCH   1  12
ATOM     12  C   LIG    1       23.493 -14.027   3.478  0.00  0.00    +0.004 C 
BRANCH  12  13
ATOM     13  C   LIG    1       24.543 -12.896   3.720  0.00  0.00    +0.000 C 
BRANCH  13  14
ATOM     14  C   LIG    1       25.170 -12.910   5.109  0.00  0.00    +0.000 C 
BRANCH  14  15
ATOM     15  C   LIG    1       26.536 -13.596   5.303  0.00  0.00    +0.000 C 
BRANCH  15  16
ATOM     16  C   LIG    1       27.457 -13.514   4.058  0.00  0.00    +0.011 C 
BRANCH  16  17
ATOM     17  C   LIG    1       27.210 -14.586   2.989  0.00  0.00    +0.120 C 
BRANCH  17  18
ATOM     18  C   LIG    1       27.113 -15.991   3.501  0.00  0.00    +0.305 C 
ATOM     19  O   LIG    1       26.186 -16.773   3.197  0.00  0.00    -0.251 OA
BRANCH  18  20
ATOM     20  O   LIG    1       28.101 -16.371   4.320  0.00  0.00    -0.481 OA
ATOM     21  H   LIG    1       27.767 -16.772   5.156  0.00  0.00    +0.295 HD
ENDBRANCH  18  20
ENDBRANCH  17  18
ENDBRANCH  16  17
ENDBRANCH  15  16
ENDBRANCH  14  15
ENDBRANCH  13  14
ENDBRANCH  12  13
ENDBRANCH   1  12
TORSDOF 14
ENDMDL
MODEL 4
REMARK VINA RESULT:      -5.9      1.535      3.128
REMARK  Name = *****
REMARK                            x       y       z     vdW  Elec       q    Type
REMARK                         _______ _______ _______ _____ _____    ______ ____
ROOT
ATOM      1  C   LIG    1       22.776 -15.633   4.105  0.00  0.00    +0.027 C 
ENDROOT
BRANCH   1   3
ATOM      2  C   LIG    1       24.047 -13.454   4.397  0.00  0.00    -0.027 C 
ATOM      3  C   LIG    1       23.561 -14.610   4.901  0.00  0.00    -0.031 C 
BRANCH   2   4
ATOM      4  C   LIG    1       23.910 -12.928   2.987  0.00  0.00    +0.054 C 
BRANCH   4   6
ATOM      5  C   LIG    1       26.418 -13.316   2.408  0.00  0.00    -0.027 C 
ATOM      6  C   LIG    1       25.118 -13.131   2.106  0.00  0.00    -0.027 C 
BRANCH   5   7
ATOM      7  C   LIG    1       27.053 -13.474   3.759  0.00  0.00    +0.054 C 
BRANCH   7   9
ATOM      8  C   LIG    1       27.193 -16.088   3.799  0.00  0.00    -0.031 C 
ATOM      9  C   LIG    1       27.632 -14.840   4.024  0.00  0.00    -0.027 C 
BRANCH   8  11
ATOM     10  C   LIG    1       25.833 -18.080   3.409  0.00  0.00    +0.008 C 
ATOM     11  C   LIG    1       25.986 -16.595   3.066  0.00  0.00    +0.023 C 
ENDBRANCH   8  11
ENDBRANCH   7   9
ENDBRANCH   5   7
ENDBRANCH   4   6
ENDBRANCH   2   4
ENDBRANCH   1   3
BRANCH   1  12
ATOM     12  C   LIG    1       22.319 -16.899   4.865  0.00  0.00    +0.004 C 
BRANCH  12  13
ATOM     13  C   LIG    1       22.026 -18.151   3.977  0.00  0.00    +0.000 C 
BRANCH  13  14
ATOM     14  C   LIG    1       22.637 -19.445   4.498  0.00  0.00    +0.000 C 
BRANCH  14  15
ATOM     15  C   LIG    1       22.700 -19.679   6.020  0.00  0.00    +0.000 C 
BRANCH  15  16
ATOM     16  C   LIG    1       23.360 -21.024   6.418  0.00  0.00    +0.011 C 
BRANCH  16  17
ATOM     17  C   LIG    1       24.747 -20.908   7.062  0.00  0.00    +0.120 C 
BRANCH  17  18
ATOM     18  C   LIG    1       25.890 -20.774   6.102  0.00  0.00    +0.305 C 
ATOM     19  O   LIG    1       26.986 -20.254   6.404  0.00  0.00    -0.251 OA
BRANCH  18  20
ATOM     20  O   LIG    1       25.665 -21.255   4.874  0.00  0.00    -0.481 OA
ATOM     21  H   LIG    1       26.430 -21.123   4.268  0.00  0.00    +0.295 HD
ENDBRANCH  18  20
ENDBRANCH  17  18
ENDBRANCH  16  17
ENDBRANCH  15  16
ENDBRANCH  14  15
ENDBRANCH  13  14
ENDBRANCH  12  13
ENDBRANCH   1  12
TORSDOF 14
ENDMDL
MODEL 5
REMARK VINA RESULT:      -5.9      1.160      1.861
REMARK  Name = *****
REMARK                            x       y       z     vdW  Elec       q    Type
REMARK                         _______ _______ _______ _____ _____    ______ ____
ROOT
ATOM      1  C   LIG    1       22.246 -17.436   4.055  0.00  0.00    +0.027 C 
ENDROOT
BRANCH   1   3
ATOM      2  C   LIG    1       22.802 -15.211   5.148  0.00  0.00    -0.027 C 
ATOM      3  C   LIG    1       22.193 -16.417   5.176  0.00  0.00    -0.031 C 
BRANCH   2   4
ATOM      4  C   LIG    1       23.630 -14.618   4.031  0.00  0.00    +0.054 C 
BRANCH   4   6
ATOM      5  C   LIG    1       25.070 -12.636   4.910  0.00  0.00    -0.027 C 
ATOM      6  C   LIG    1       24.042 -13.180   4.231  0.00  0.00    -0.027 C 
BRANCH   5   7
ATOM      7  C   LIG    1       26.201 -13.329   5.612  0.00  0.00    +0.054 C 
BRANCH   7   9
ATOM      8  C   LIG    1       27.759 -14.123   3.663  0.00  0.00    -0.031 C 
ATOM      9  C   LIG    1       27.460 -13.464   4.793  0.00  0.00    -0.027 C 
BRANCH   8  11
ATOM     10  C   LIG    1       26.658 -16.276   3.313  0.00  0.00    +0.008 C 
ATOM     11  C   LIG    1       26.896 -14.889   2.706  0.00  0.00    +0.023 C 
ENDBRANCH   8  11
ENDBRANCH   7   9
ENDBRANCH   5   7
ENDBRANCH   4   6
ENDBRANCH   2   4
ENDBRANCH   1   3
BRANCH   1  12
ATOM     12  C   LIG    1       21.947 -18.902   4.438  0.00  0.00    +0.004 C 
BRANCH  12  13
ATOM     13  C   LIG    1       23.194 -19.783   4.771  0.00  0.00    +0.000 C 
BRANCH  13  14
ATOM     14  C   LIG    1       22.957 -20.817   5.864  0.00  0.00    +0.000 C 
BRANCH  14  15
ATOM     15  C   LIG    1       23.928 -20.871   7.060  0.00  0.00    +0.000 C 
BRANCH  15  16
ATOM     16  C   LIG    1       25.309 -21.487   6.715  0.00  0.00    +0.011 C 
BRANCH  16  17
ATOM     17  C   LIG    1       26.517 -20.587   7.000  0.00  0.00    +0.120 C 
BRANCH  17  18
ATOM     18  C   LIG    1       27.283 -20.141   5.792  0.00  0.00    +0.305 C 
ATOM     19  O   LIG    1       28.459 -19.719   5.839  0.00  0.00    -0.251 OA
BRANCH  18  20
ATOM     20  O   LIG    1       26.621 -20.224   4.632  0.00  0.00    -0.481 OA
ATOM     21  H   LIG    1       27.145 -19.883   3.871  0.00  0.00    +0.295 HD
ENDBRANCH  18  20
ENDBRANCH  17  18
ENDBRANCH  16  17
ENDBRANCH  15  16
ENDBRANCH  14  15
ENDBRANCH  13  14
ENDBRANCH  12  13
ENDBRANCH   1  12
TORSDOF 14
ENDMDL
MODEL 6
REMARK VINA RESULT:      -5.9      2.608      7.613
REMARK  Name = *****
REMARK                            x       y       z     vdW  Elec       q    Type
REMARK                         _______ _______ _______ _____ _____    ______ ____
ROOT
ATOM      1  C   LIG    1       27.424 -17.700   4.077  0.00  0.00    +0.027 C 
ENDROOT
BRANCH   1   3
ATOM      2  C   LIG    1       29.123 -18.696   5.681  0.00  0.00    -0.027 C 
ATOM      3  C   LIG    1       28.690 -17.674   4.909  0.00  0.00    -0.031 C 
BRANCH   2   4
ATOM      4  C   LIG    1       28.480 -20.050   5.870  0.00  0.00    +0.054 C 
BRANCH   4   6
ATOM      5  C   LIG    1       26.176 -20.588   6.957  0.00  0.00    -0.027 C 
ATOM      6  C   LIG    1       27.439 -20.119   6.961  0.00  0.00    -0.027 C 
BRANCH   5   7
ATOM      7  C   LIG    1       25.440 -21.289   5.853  0.00  0.00    +0.054 C 
BRANCH   7   9
ATOM      8  C   LIG    1       23.987 -19.744   4.318  0.00  0.00    -0.031 C 
ATOM      9  C   LIG    1       25.093 -20.414   4.676  0.00  0.00    -0.027 C 
BRANCH   8  11
ATOM     10  C   LIG    1       22.072 -18.234   4.469  0.00  0.00    +0.008 C 
ATOM     11  C   LIG    1       22.693 -19.513   5.041  0.00  0.00    +0.023 C 
ENDBRANCH   8  11
ENDBRANCH   7   9
ENDBRANCH   5   7
ENDBRANCH   4   6
ENDBRANCH   2   4
ENDBRANCH   1   3
BRANCH   1  12
ATOM     12  C   LIG    1       26.852 -16.332   3.643  0.00  0.00    +0.004 C 
BRANCH  12  13
ATOM     13  C   LIG    1       27.656 -15.080   4.122  0.00  0.00    +0.000 C 
BRANCH  13  14
ATOM     14  C   LIG    1       27.528 -13.867   3.210  0.00  0.00    +0.000 C 
BRANCH  14  15
ATOM     15  C   LIG    1       26.433 -13.864   2.125  0.00  0.00    +0.000 C 
BRANCH  15  16
ATOM     16  C   LIG    1       25.411 -12.707   2.273  0.00  0.00    +0.011 C 
BRANCH  16  17
ATOM     17  C   LIG    1       24.030 -13.117   2.799  0.00  0.00    +0.120 C 
BRANCH  17  18
ATOM     18  C   LIG    1       24.025 -13.764   4.151  0.00  0.00    +0.305 C 
ATOM     19  O   LIG    1       23.432 -14.836   4.399  0.00  0.00    -0.251 OA
BRANCH  18  20
ATOM     20  O   LIG    1       24.711 -13.114   5.099  0.00  0.00    -0.481 OA
ATOM     21  H   LIG    1       24.367 -13.291   6.005  0.00  0.00    +0.295 HD
ENDBRANCH  18  20
ENDBRANCH  17  18
ENDBRANCH  16  17
ENDBRANCH  15  16
ENDBRANCH  14  15
ENDBRANCH  13  14
ENDBRANCH  12  13
ENDBRANCH   1  12
TORSDOF 14
ENDMDL
MODEL 7
REMARK VINA RESULT:      -5.6      2.287      6.789
REMARK  Name = *****
REMARK                            x       y       z     vdW  Elec       q    Type
REMARK                         _______ _______ _______ _____ _____    ______ ____
ROOT
ATOM      1  C   LIG    1       22.467 -16.875   4.929  0.00  0.00    +0.027 C 
ENDROOT
BRANCH   1   3
ATOM      2  C   LIG    1       22.783 -19.259   4.112  0.00  0.00    -0.027 C 
ATOM      3  C   LIG    1       22.046 -18.129   4.189  0.00  0.00    -0.031 C 
BRANCH   2   4
ATOM      4  C   LIG    1       24.134 -19.528   4.734  0.00  0.00    +0.054 C 
BRANCH   4   6
ATOM      5  C   LIG    1       25.127 -21.241   6.425  0.00  0.00    -0.027 C 
ATOM      6  C   LIG    1       24.242 -20.825   5.499  0.00  0.00    -0.027 C 
BRANCH   5   7
ATOM      7  C   LIG    1       26.251 -20.473   7.058  0.00  0.00    +0.054 C 
BRANCH   7   9
ATOM      8  C   LIG    1       28.849 -20.777   6.952  0.00  0.00    -0.031 C 
ATOM      9  C   LIG    1       27.577 -21.189   7.062  0.00  0.00    -0.027 C 
BRANCH   8  11
ATOM     10  C   LIG    1       29.069 -18.783   5.557  0.00  0.00    +0.008 C 
ATOM     11  C   LIG    1       29.442 -19.400   6.909  0.00  0.00    +0.023 C 
ENDBRANCH   8  11
ENDBRANCH   7   9
ENDBRANCH   5   7
ENDBRANCH   4   6
ENDBRANCH   2   4
ENDBRANCH   1   3
BRANCH   1  12
ATOM     12  C   LIG    1       23.043 -15.726   4.072  0.00  0.00    +0.004 C 
BRANCH  12  13
ATOM     13  C   LIG    1       23.462 -14.441   4.857  0.00  0.00    +0.000 C 
BRANCH  13  14
ATOM     14  C   LIG    1       24.771 -13.819   4.386  0.00  0.00    +0.000 C 
BRANCH  14  15
ATOM     15  C   LIG    1       24.780 -13.008   3.076  0.00  0.00    +0.000 C 
BRANCH  15  16
ATOM     16  C   LIG    1       26.028 -13.267   2.191  0.00  0.00    +0.011 C 
BRANCH  16  17
ATOM     17  C   LIG    1       27.093 -14.178   2.813  0.00  0.00    +0.120 C 
BRANCH  17  18
ATOM     18  C   LIG    1       28.003 -13.517   3.802  0.00  0.00    +0.305 C 
ATOM     19  O   LIG    1       27.684 -13.295   4.991  0.00  0.00    -0.251 OA
BRANCH  18  20
ATOM     20  O   LIG    1       29.207 -13.171   3.331  0.00  0.00    -0.481 OA
ATOM     21  H   LIG    1       29.597 -13.859   2.744  0.00  0.00    +0.295 HD
ENDBRANCH  18  20
ENDBRANCH  17  18
ENDBRANCH  16  17
ENDBRANCH  15  16
ENDBRANCH  14  15
ENDBRANCH  13  14
ENDBRANCH  12  13
ENDBRANCH   1  12
TORSDOF 14
ENDMDL
MODEL 8
REMARK VINA RESULT:      -5.4      1.958      6.813
REMARK  Name = *****
REMARK                            x       y       z     vdW  Elec       q    Type
REMARK                         _______ _______ _______ _____ _____    ______ ____
ROOT
ATOM      1  C   LIG    1       23.769 -15.210   4.148  0.00  0.00    +0.027 C 
ENDROOT
BRANCH   1   3
ATOM      2  C   LIG    1       22.201 -17.081   4.850  0.00  0.00    -0.027 C 
ATOM      3  C   LIG    1       22.597 -15.791   4.913  0.00  0.00    -0.031 C 
BRANCH   2   4
ATOM      4  C   LIG    1       22.822 -18.201   4.046  0.00  0.00    +0.054 C 
BRANCH   4   6
ATOM      5  C   LIG    1       25.324 -18.893   3.844  0.00  0.00    -0.027 C 
ATOM      6  C   LIG    1       24.290 -18.034   3.741  0.00  0.00    -0.027 C 
BRANCH   5   7
ATOM      7  C   LIG    1       25.300 -20.346   4.217  0.00  0.00    +0.054 C 
BRANCH   7   9
ATOM      8  C   LIG    1       24.754 -20.678   6.756  0.00  0.00    -0.031 C 
ATOM      9  C   LIG    1       25.551 -20.623   5.678  0.00  0.00    -0.027 C 
BRANCH   8  11
ATOM     10  C   LIG    1       22.664 -21.571   5.859  0.00  0.00    +0.008 C 
ATOM     11  C   LIG    1       23.262 -20.605   6.889  0.00  0.00    +0.023 C 
ENDBRANCH   8  11
ENDBRANCH   7   9
ENDBRANCH   5   7
ENDBRANCH   4   6
ENDBRANCH   2   4
ENDBRANCH   1   3
BRANCH   1  12
ATOM     12  C   LIG    1       23.512 -13.893   3.382  0.00  0.00    +0.004 C 
BRANCH  12  13
ATOM     13  C   LIG    1       24.242 -12.631   3.943  0.00  0.00    +0.000 C 
BRANCH  13  14
ATOM     14  C   LIG    1       24.851 -12.822   5.326  0.00  0.00    +0.000 C 
BRANCH  14  15
ATOM     15  C   LIG    1       26.168 -13.611   5.457  0.00  0.00    +0.000 C 
BRANCH  15  16
ATOM     16  C   LIG    1       27.390 -12.894   4.825  0.00  0.00    +0.011 C 
BRANCH  16  17
ATOM     17  C   LIG    1       28.096 -13.669   3.705  0.00  0.00    +0.120 C 
BRANCH  17  18
ATOM     18  C   LIG    1       27.202 -14.502   2.839  0.00  0.00    +0.305 C 
ATOM     19  O   LIG    1       26.633 -14.065   1.814  0.00  0.00    -0.251 OA
BRANCH  18  20
ATOM     20  O   LIG    1       27.044 -15.771   3.232  0.00  0.00    -0.481 OA
ATOM     21  H   LIG    1       27.656 -16.021   3.963  0.00  0.00    +0.295 HD
ENDBRANCH  18  20
ENDBRANCH  17  18
ENDBRANCH  16  17
ENDBRANCH  15  16
ENDBRANCH  14  15
ENDBRANCH  13  14
ENDBRANCH  12  13
ENDBRANCH   1  12
TORSDOF 14
ENDMDL
MODEL 9
REMARK VINA RESULT:      -5.4      2.226      4.072
REMARK  Name = *****
REMARK                            x       y       z     vdW  Elec       q    Type
REMARK                         _______ _______ _______ _____ _____    ______ ____
ROOT
ATOM      1  C   LIG    1       27.086 -18.493   4.311  0.00  0.00    +0.027 C 
ENDROOT
BRANCH   1   3
ATOM      2  C   LIG    1       26.459 -16.213   3.384  0.00  0.00    -0.027 C 
ATOM      3  C   LIG    1       26.326 -17.557   3.392  0.00  0.00    -0.031 C 
BRANCH   2   4
ATOM      4  C   LIG    1       27.371 -15.367   4.242  0.00  0.00    +0.054 C 
BRANCH   4   6
ATOM      5  C   LIG    1       27.192 -13.274   2.703  0.00  0.00    -0.027 C 
ATOM      6  C   LIG    1       27.783 -14.048   3.635  0.00  0.00    -0.027 C 
BRANCH   5   7
ATOM      7  C   LIG    1       25.857 -13.459   2.042  0.00  0.00    +0.054 C 
BRANCH   7   9
ATOM      8  C   LIG    1       23.985 -12.763   3.734  0.00  0.00    -0.031 C 
ATOM      9  C   LIG    1       24.744 -12.634   2.635  0.00  0.00    -0.027 C 
BRANCH   8  11
ATOM     10  C   LIG    1       23.280 -14.991   4.450  0.00  0.00    +0.008 C 
ATOM     11  C   LIG    1       24.051 -13.736   4.874  0.00  0.00    +0.023 C 
ENDBRANCH   8  11
ENDBRANCH   7   9
ENDBRANCH   5   7
ENDBRANCH   4   6
ENDBRANCH   2   4
ENDBRANCH   1   3
BRANCH   1  12
ATOM     12  C   LIG    1       26.330 -19.747   4.803  0.00  0.00    +0.004 C 
BRANCH  12  13
ATOM     13  C   LIG    1       26.841 -20.361   6.146  0.00  0.00    +0.000 C 
BRANCH  13  14
ATOM     14  C   LIG    1       25.736 -20.872   7.062  0.00  0.00    +0.000 C 
BRANCH  14  15
ATOM     15  C   LIG    1       24.472 -21.487   6.431  0.00  0.00    +0.000 C 
BRANCH  15  16
ATOM     16  C   LIG    1       23.228 -20.564   6.501  0.00  0.00    +0.011 C 
BRANCH  16  17
ATOM     17  C   LIG    1       22.425 -20.447   5.199  0.00  0.00    +0.120 C 
BRANCH  17  18
ATOM     18  C   LIG    1       22.599 -19.159   4.453  0.00  0.00    +0.305 C 
ATOM     19  O   LIG    1       22.023 -18.095   4.770  0.00  0.00    -0.251 OA
BRANCH  18  20
ATOM     20  O   LIG    1       23.429 -19.213   3.404  0.00  0.00    -0.481 OA
ATOM     21  H   LIG    1       23.160 -19.891   2.742  0.00  0.00    +0.295 HD
ENDBRANCH  18  20
ENDBRANCH  17  18
ENDBRANCH  16  17
ENDBRANCH  15  16
ENDBRANCH  14  15
ENDBRANCH  13  14
ENDBRANCH  12  13
ENDBRANCH   1  12
TORSDOF 14
ENDMDL
