MODEL 1
REMARK VINA RESULT:      -9.2      0.000      0.000
REMARK  Name = *****
REMARK                            x       y       z     vdW  Elec       q    Type
REMARK                         _______ _______ _______ _____ _____    ______ ____
ROOT
ATOM      1  C   LIG    1       28.171 -20.450   7.180  0.00  0.00    +0.188 C 
ATOM      2  C   LIG    1       26.957 -20.517   6.469  0.00  0.00    +0.123 C 
ATOM      3  N   LIG    1       25.874 -21.361   6.896  0.00  0.00    -0.208 NA
ATOM      4  C   LIG    1       24.772 -21.372   6.208  0.00  0.00    +0.236 C 
ATOM      5  N   LIG    1       24.626 -20.600   5.085  0.00  0.00    -0.293 N 
ATOM      6  C   LIG    1       25.573 -19.739   4.609  0.00  0.00    +0.141 C 
ATOM      7  N   LIG    1       25.279 -19.019   3.555  0.00  0.00    -0.265 NA
ATOM      8  C   LIG    1       23.859 -19.400   3.285  0.00  0.00    +0.165 C 
ATOM      9  C   LIG    1       23.575 -20.674   4.103  0.00  0.00    +0.150 C 
ATOM     10  C   LIG    1       26.851 -19.699   5.318  0.00  0.00    +0.046 C 
ATOM     11  C   LIG    1       27.886 -18.883   4.861  0.00  0.00    +0.017 C 
ATOM     12  C   LIG    1       29.079 -18.842   5.569  0.00  0.00    +0.050 C 
ATOM     13  C   LIG    1       29.213 -19.592   6.740  0.00  0.00    +0.164 C 
ENDROOT
BRANCH   1  15
ATOM     14  C   LIG    1       29.709 -21.739   8.474  0.00  0.00    +0.277 C 
ATOM     15  O   LIG    1       28.450 -21.103   8.359  0.00  0.00    -0.489 OA
ENDBRANCH   1  15
BRANCH   4  16
ATOM     16  N   LIG    1       23.752 -22.208   6.594  0.00  0.00    -0.176 NA
ATOM     17  C   LIG    1       23.741 -23.487   6.444  0.00  0.00    +0.226 C 
BRANCH  17  18
ATOM     18  C   LIG    1       24.673 -24.526   5.971  0.00  0.00    +0.073 A 
ATOM     19  C   LIG    1       24.741 -24.993   4.686  0.00  0.00    +0.129 A 
ATOM     20  N   LIG    1       25.548 -26.020   4.295  0.00  0.00    -0.222 NA
ATOM     21  C   LIG    1       26.324 -26.573   5.233  0.00  0.00    +0.212 A 
ATOM     22  N   LIG    1       26.384 -26.155   6.498  0.00  0.00    -0.222 NA
ATOM     23  C   LIG    1       25.568 -25.127   6.835  0.00  0.00    +0.129 A 
BRANCH  21  24
ATOM     24  N   LIG    1       27.021 -27.719   4.910  0.00  0.00    -0.328 N 
ATOM     25  H   LIG    1       27.576 -28.004   5.706  0.00  0.00    +0.145 HD
ATOM     26  H   LIG    1       27.527 -27.564   4.045  0.00  0.00    +0.145 HD
ENDBRANCH  21  24
ENDBRANCH  17  18
BRANCH  17  27
ATOM     27  O   LIG    1       22.595 -24.089   6.825  0.00  0.00    -0.492 OA
ATOM     28  H   LIG    1       22.618 -25.000   6.494  0.00  0.00    +0.294 HD
ENDBRANCH  17  27
ENDBRANCH   4  16
BRANCH  13  29
ATOM     29  O   LIG    1       30.363 -19.593   7.491  0.00  0.00    -0.488 OA
BRANCH  29  30
ATOM     30  C   LIG    1       30.777 -18.345   8.054  0.00  0.00    +0.230 C 
BRANCH  30  31
ATOM     31  C   LIG    1       29.884 -18.096   9.265  0.00  0.00    +0.056 C 
BRANCH  31  32
ATOM     32  C   LIG    1       30.474 -17.074  10.242  0.00  0.00    +0.088 C 
BRANCH  32  33
ATOM     33  N   LIG    1       31.734 -17.526  10.858  0.00  0.00    -0.298 NA
ATOM     34  C   LIG    1       32.935 -16.804  10.384  0.00  0.00    +0.112 C 
ATOM     35  C   LIG    1       33.024 -15.359  10.898  0.00  0.00    +0.175 C 
ATOM     36  O   LIG    1       33.021 -15.324  12.330  0.00  0.00    -0.377 OA
ATOM     37  C   LIG    1       31.851 -15.963  12.855  0.00  0.00    +0.175 C 
ATOM     38  C   LIG    1       31.700 -17.406  12.335  0.00  0.00    +0.112 C 
ENDBRANCH  32  33
ENDBRANCH  31  32
ENDBRANCH  30  31
ENDBRANCH  29  30
ENDBRANCH  13  29
TORSDOF 10
ENDMDL
MODEL 2
REMARK VINA RESULT:      -7.7      7.955     12.659
REMARK  Name = *****
REMARK                            x       y       z     vdW  Elec       q    Type
REMARK                         _______ _______ _______ _____ _____    ______ ____
ROOT
ATOM      1  C   LIG    1       21.587 -30.295  11.022  0.00  0.00    +0.188 C 
ATOM      2  C   LIG    1       22.924 -30.058  10.647  0.00  0.00    +0.123 C 
ATOM      3  N   LIG    1       23.408 -30.372   9.330  0.00  0.00    -0.208 NA
ATOM      4  C   LIG    1       24.648 -30.121   9.035  0.00  0.00    +0.236 C 
ATOM      5  N   LIG    1       25.499 -29.567   9.955  0.00  0.00    -0.293 N 
ATOM      6  C   LIG    1       25.140 -29.198  11.219  0.00  0.00    +0.141 C 
ATOM      7  N   LIG    1       26.043 -28.627  11.977  0.00  0.00    -0.265 NA
ATOM      8  C   LIG    1       27.220 -28.525  11.061  0.00  0.00    +0.165 C 
ATOM      9  C   LIG    1       26.932 -29.444   9.858  0.00  0.00    +0.150 C 
ATOM     10  C   LIG    1       23.765 -29.481  11.629  0.00  0.00    +0.046 C 
ATOM     11  C   LIG    1       23.338 -29.181  12.922  0.00  0.00    +0.017 C 
ATOM     12  C   LIG    1       22.020 -29.435  13.276  0.00  0.00    +0.050 C 
ATOM     13  C   LIG    1       21.138 -29.955  12.325  0.00  0.00    +0.164 C 
ENDROOT
BRANCH   1  15
ATOM     14  C   LIG    1       20.464 -32.180  10.083  0.00  0.00    +0.277 C 
ATOM     15  O   LIG    1       20.593 -30.775  10.200  0.00  0.00    -0.489 OA
ENDBRANCH   1  15
BRANCH   4  16
ATOM     16  N   LIG    1       25.120 -30.457   7.789  0.00  0.00    -0.176 NA
ATOM     17  C   LIG    1       25.264 -29.642   6.803  0.00  0.00    +0.226 C 
BRANCH  17  18
ATOM     18  C   LIG    1       25.125 -28.193   6.572  0.00  0.00    +0.073 A 
ATOM     19  C   LIG    1       24.190 -27.615   5.757  0.00  0.00    +0.129 A 
ATOM     20  N   LIG    1       24.141 -26.280   5.487  0.00  0.00    -0.222 NA
ATOM     21  C   LIG    1       25.056 -25.507   6.080  0.00  0.00    +0.212 A 
ATOM     22  N   LIG    1       25.971 -25.955   6.941  0.00  0.00    -0.222 NA
ATOM     23  C   LIG    1       25.974 -27.289   7.181  0.00  0.00    +0.129 A 
BRANCH  21  24
ATOM     24  N   LIG    1       25.142 -24.184   5.696  0.00  0.00    -0.328 N 
ATOM     25  H   LIG    1       25.243 -24.138   4.690  0.00  0.00    +0.145 HD
ATOM     26  H   LIG    1       25.867 -23.730   6.239  0.00  0.00    +0.145 HD
ENDBRANCH  21  24
ENDBRANCH  17  18
BRANCH  17  27
ATOM     27  O   LIG    1       25.668 -30.217   5.651  0.00  0.00    -0.492 OA
ATOM     28  H   LIG    1       25.514 -29.581   4.936  0.00  0.00    +0.294 HD
ENDBRANCH  17  27
ENDBRANCH   4  16
BRANCH  13  29
ATOM     29  O   LIG    1       19.821 -30.224  12.607  0.00  0.00    -0.488 OA
BRANCH  29  30
ATOM     30  C   LIG    1       19.553 -31.267  13.548  0.00  0.00    +0.230 C 
BRANCH  30  31
ATOM     31  C   LIG    1       18.907 -30.604  14.760  0.00  0.00    +0.056 C 
BRANCH  31  32
ATOM     32  C   LIG    1       18.073 -29.372  14.393  0.00  0.00    +0.088 C 
BRANCH  32  33
ATOM     33  N   LIG    1       18.284 -28.238  15.311  0.00  0.00    -0.298 NA
ATOM     34  C   LIG    1       19.451 -27.394  14.976  0.00  0.00    +0.112 C 
ATOM     35  C   LIG    1       19.245 -26.535  13.720  0.00  0.00    +0.175 C 
ATOM     36  O   LIG    1       18.104 -25.680  13.865  0.00  0.00    -0.377 OA
ATOM     37  C   LIG    1       16.923 -26.444  14.139  0.00  0.00    +0.175 C 
ATOM     38  C   LIG    1       17.098 -27.352  15.373  0.00  0.00    +0.112 C 
ENDBRANCH  32  33
ENDBRANCH  31  32
ENDBRANCH  30  31
ENDBRANCH  29  30
ENDBRANCH  13  29
TORSDOF 10
ENDMDL
MODEL 3
REMARK VINA RESULT:      -7.4      6.306     10.582
REMARK  Name = *****
REMARK                            x       y       z     vdW  Elec       q    Type
REMARK                         _______ _______ _______ _____ _____    ______ ____
ROOT
ATOM      1  C   LIG    1       25.530 -28.730   7.840  0.00  0.00    +0.188 C 
ATOM      2  C   LIG    1       24.944 -30.011   7.807  0.00  0.00    +0.123 C 
ATOM      3  N   LIG    1       24.761 -30.791   9.002  0.00  0.00    -0.208 NA
ATOM      4  C   LIG    1       24.202 -31.960   8.914  0.00  0.00    +0.236 C 
ATOM      5  N   LIG    1       23.790 -32.462   7.707  0.00  0.00    -0.293 N 
ATOM      6  C   LIG    1       23.882 -31.796   6.519  0.00  0.00    +0.141 C 
ATOM      7  N   LIG    1       23.396 -32.373   5.448  0.00  0.00    -0.265 NA
ATOM      8  C   LIG    1       22.808 -33.635   5.995  0.00  0.00    +0.165 C 
ATOM      9  C   LIG    1       23.373 -33.811   7.417  0.00  0.00    +0.150 C 
ATOM     10  C   LIG    1       24.530 -30.486   6.540  0.00  0.00    +0.046 C 
ATOM     11  C   LIG    1       24.708 -29.768   5.358  0.00  0.00    +0.017 C 
ATOM     12  C   LIG    1       25.300 -28.514   5.410  0.00  0.00    +0.050 C 
ATOM     13  C   LIG    1       25.679 -27.980   6.645  0.00  0.00    +0.164 C 
ENDROOT
BRANCH   1  15
ATOM     14  C   LIG    1       26.894 -28.682   9.799  0.00  0.00    +0.277 C 
ATOM     15  O   LIG    1       25.930 -28.057   8.972  0.00  0.00    -0.489 OA
ENDBRANCH   1  15
BRANCH   4  16
ATOM     16  N   LIG    1       24.064 -32.722  10.049  0.00  0.00    -0.176 NA
ATOM     17  C   LIG    1       22.985 -32.831  10.744  0.00  0.00    +0.226 C 
BRANCH  17  18
ATOM     18  C   LIG    1       21.588 -32.374  10.647  0.00  0.00    +0.073 A 
ATOM     19  C   LIG    1       20.520 -33.173  10.337  0.00  0.00    +0.129 A 
ATOM     20  N   LIG    1       19.251 -32.709  10.163  0.00  0.00    -0.222 NA
ATOM     21  C   LIG    1       19.057 -31.397  10.329  0.00  0.00    +0.212 A 
ATOM     22  N   LIG    1       20.010 -30.538  10.693  0.00  0.00    -0.222 NA
ATOM     23  C   LIG    1       21.254 -31.050  10.861  0.00  0.00    +0.129 A 
BRANCH  21  24
ATOM     24  N   LIG    1       17.825 -30.872   9.993  0.00  0.00    -0.328 N 
ATOM     25  H   LIG    1       17.436 -31.406   9.227  0.00  0.00    +0.145 HD
ATOM     26  H   LIG    1       17.925 -29.875   9.837  0.00  0.00    +0.145 HD
ENDBRANCH  21  24
ENDBRANCH  17  18
BRANCH  17  27
ATOM     27  O   LIG    1       23.111 -33.572  11.865  0.00  0.00    -0.492 OA
ATOM     28  H   LIG    1       22.439 -33.266  12.495  0.00  0.00    +0.294 HD
ENDBRANCH  17  27
ENDBRANCH   4  16
BRANCH  13  29
ATOM     29  O   LIG    1       26.264 -26.744   6.768  0.00  0.00    -0.488 OA
BRANCH  29  30
ATOM     30  C   LIG    1       25.921 -25.757   5.790  0.00  0.00    +0.230 C 
BRANCH  30  31
ATOM     31  C   LIG    1       25.666 -24.461   6.552  0.00  0.00    +0.056 C 
BRANCH  31  32
ATOM     32  C   LIG    1       24.811 -23.463   5.762  0.00  0.00    +0.088 C 
BRANCH  32  33
ATOM     33  N   LIG    1       25.281 -22.072   5.892  0.00  0.00    -0.298 NA
ATOM     34  C   LIG    1       24.804 -21.168   4.823  0.00  0.00    +0.112 C 
ATOM     35  C   LIG    1       23.308 -20.834   4.925  0.00  0.00    +0.175 C 
ATOM     36  O   LIG    1       23.004 -20.229   6.188  0.00  0.00    -0.377 OA
ATOM     37  C   LIG    1       23.395 -21.081   7.271  0.00  0.00    +0.175 C 
ATOM     38  C   LIG    1       24.883 -21.474   7.188  0.00  0.00    +0.112 C 
ENDBRANCH  32  33
ENDBRANCH  31  32
ENDBRANCH  30  31
ENDBRANCH  29  30
ENDBRANCH  13  29
TORSDOF 10
ENDMDL
MODEL 4
REMARK VINA RESULT:      -7.3      6.685     10.644
REMARK  Name = *****
REMARK                            x       y       z     vdW  Elec       q    Type
REMARK                         _______ _______ _______ _____ _____    ______ ____
ROOT
ATOM      1  C   LIG    1       23.445 -29.895  11.710  0.00  0.00    +0.188 C 
ATOM      2  C   LIG    1       24.084 -30.391  10.557  0.00  0.00    +0.123 C 
ATOM      3  N   LIG    1       23.565 -30.146   9.238  0.00  0.00    -0.208 NA
ATOM      4  C   LIG    1       24.202 -30.617   8.209  0.00  0.00    +0.236 C 
ATOM      5  N   LIG    1       25.355 -31.344   8.359  0.00  0.00    -0.293 N 
ATOM      6  C   LIG    1       25.955 -31.607   9.557  0.00  0.00    +0.141 C 
ATOM      7  N   LIG    1       27.086 -32.267   9.549  0.00  0.00    -0.265 NA
ATOM      8  C   LIG    1       27.352 -32.442   8.088  0.00  0.00    +0.165 C 
ATOM      9  C   LIG    1       26.039 -32.115   7.353  0.00  0.00    +0.150 C 
ATOM     10  C   LIG    1       25.273 -31.132  10.760  0.00  0.00    +0.046 C 
ATOM     11  C   LIG    1       25.797 -31.407  12.023  0.00  0.00    +0.017 C 
ATOM     12  C   LIG    1       25.145 -30.921  13.147  0.00  0.00    +0.050 C 
ATOM     13  C   LIG    1       23.996 -30.140  12.995  0.00  0.00    +0.164 C 
ENDROOT
BRANCH   1  15
ATOM     14  C   LIG    1       21.065 -29.731  11.766  0.00  0.00    +0.277 C 
ATOM     15  O   LIG    1       22.327 -29.093  11.729  0.00  0.00    -0.489 OA
ENDBRANCH   1  15
BRANCH   4  16
ATOM     16  N   LIG    1       23.684 -30.417   6.953  0.00  0.00    -0.176 NA
ATOM     17  C   LIG    1       23.817 -29.342   6.257  0.00  0.00    +0.226 C 
BRANCH  17  18
ATOM     18  C   LIG    1       24.538 -28.062   6.375  0.00  0.00    +0.073 A 
ATOM     19  C   LIG    1       25.566 -27.817   7.244  0.00  0.00    +0.129 A 
ATOM     20  N   LIG    1       26.155 -26.598   7.399  0.00  0.00    -0.222 NA
ATOM     21  C   LIG    1       25.699 -25.602   6.632  0.00  0.00    +0.212 A 
ATOM     22  N   LIG    1       24.747 -25.743   5.709  0.00  0.00    -0.222 NA
ATOM     23  C   LIG    1       24.198 -26.977   5.589  0.00  0.00    +0.129 A 
BRANCH  21  24
ATOM     24  N   LIG    1       26.153 -24.324   6.884  0.00  0.00    -0.328 N 
ATOM     25  H   LIG    1       25.499 -23.658   6.493  0.00  0.00    +0.145 HD
ATOM     26  H   LIG    1       27.112 -24.247   6.566  0.00  0.00    +0.145 HD
ENDBRANCH  21  24
ENDBRANCH  17  18
BRANCH  17  27
ATOM     27  O   LIG    1       23.151 -29.345   5.083  0.00  0.00    -0.492 OA
ATOM     28  H   LIG    1       23.708 -28.895   4.428  0.00  0.00    +0.294 HD
ENDBRANCH  17  27
ENDBRANCH   4  16
BRANCH  13  29
ATOM     29  O   LIG    1       23.307 -29.623  14.064  0.00  0.00    -0.488 OA
BRANCH  29  30
ATOM     30  C   LIG    1       24.071 -29.230  15.208  0.00  0.00    +0.230 C 
BRANCH  30  31
ATOM     31  C   LIG    1       24.167 -27.709  15.165  0.00  0.00    +0.056 C 
BRANCH  31  32
ATOM     32  C   LIG    1       25.569 -27.210  14.798  0.00  0.00    +0.088 C 
BRANCH  32  33
ATOM     33  N   LIG    1       25.568 -26.279  13.654  0.00  0.00    -0.298 NA
ATOM     34  C   LIG    1       24.851 -25.010  13.904  0.00  0.00    +0.112 C 
ATOM     35  C   LIG    1       25.589 -24.068  14.867  0.00  0.00    +0.175 C 
ATOM     36  O   LIG    1       26.895 -23.750  14.371  0.00  0.00    -0.377 OA
ATOM     37  C   LIG    1       27.665 -24.939  14.157  0.00  0.00    +0.175 C 
ATOM     38  C   LIG    1       26.944 -25.933  13.225  0.00  0.00    +0.112 C 
ENDBRANCH  32  33
ENDBRANCH  31  32
ENDBRANCH  30  31
ENDBRANCH  29  30
ENDBRANCH  13  29
TORSDOF 10
ENDMDL
MODEL 5
REMARK VINA RESULT:      -7.3      6.570     10.997
REMARK  Name = *****
REMARK                            x       y       z     vdW  Elec       q    Type
REMARK                         _______ _______ _______ _____ _____    ______ ____
ROOT
ATOM      1  C   LIG    1       24.565 -29.756   7.861  0.00  0.00    +0.188 C 
ATOM      2  C   LIG    1       24.957 -30.085   9.174  0.00  0.00    +0.123 C 
ATOM      3  N   LIG    1       24.394 -31.208   9.874  0.00  0.00    -0.208 NA
ATOM      4  C   LIG    1       24.802 -31.473  11.078  0.00  0.00    +0.236 C 
ATOM      5  N   LIG    1       25.754 -30.701  11.691  0.00  0.00    -0.293 N 
ATOM      6  C   LIG    1       26.380 -29.635  11.110  0.00  0.00    +0.141 C 
ATOM      7  N   LIG    1       27.313 -29.019  11.793  0.00  0.00    -0.265 NA
ATOM      8  C   LIG    1       27.394 -29.835  13.044  0.00  0.00    +0.165 C 
ATOM      9  C   LIG    1       26.138 -30.724  13.080  0.00  0.00    +0.150 C 
ATOM     10  C   LIG    1       25.946 -29.262   9.765  0.00  0.00    +0.046 C 
ATOM     11  C   LIG    1       26.501 -28.154   9.126  0.00  0.00    +0.017 C 
ATOM     12  C   LIG    1       26.092 -27.838   7.839  0.00  0.00    +0.050 C 
ATOM     13  C   LIG    1       25.156 -28.651   7.193  0.00  0.00    +0.164 C 
ENDROOT
BRANCH   1  15
ATOM     14  C   LIG    1       24.165 -31.628   6.436  0.00  0.00    +0.277 C 
ATOM     15  O   LIG    1       23.680 -30.467   7.083  0.00  0.00    -0.489 OA
ENDBRANCH   1  15
BRANCH   4  16
ATOM     16  N   LIG    1       24.235 -32.521  11.761  0.00  0.00    -0.176 NA
ATOM     17  C   LIG    1       22.972 -32.750  11.857  0.00  0.00    +0.226 C 
BRANCH  17  18
ATOM     18  C   LIG    1       21.728 -32.183  11.307  0.00  0.00    +0.073 A 
ATOM     19  C   LIG    1       21.239 -30.937  11.594  0.00  0.00    +0.129 A 
ATOM     20  N   LIG    1       20.040 -30.471  11.146  0.00  0.00    -0.222 NA
ATOM     21  C   LIG    1       19.325 -31.287  10.365  0.00  0.00    +0.212 A 
ATOM     22  N   LIG    1       19.733 -32.494   9.971  0.00  0.00    -0.222 NA
ATOM     23  C   LIG    1       20.936 -32.909  10.438  0.00  0.00    +0.129 A 
BRANCH  21  24
ATOM     24  N   LIG    1       18.037 -30.915  10.038  0.00  0.00    -0.328 N 
ATOM     25  H   LIG    1       17.829 -30.025  10.473  0.00  0.00    +0.145 HD
ATOM     26  H   LIG    1       17.408 -31.678  10.260  0.00  0.00    +0.145 HD
ENDBRANCH  21  24
ENDBRANCH  17  18
BRANCH  17  27
ATOM     27  O   LIG    1       22.647 -33.794  12.648  0.00  0.00    -0.492 OA
ATOM     28  H   LIG    1       22.951 -33.587  13.546  0.00  0.00    +0.294 HD
ENDBRANCH  17  27
ENDBRANCH   4  16
BRANCH  13  29
ATOM     29  O   LIG    1       24.712 -28.400   5.919  0.00  0.00    -0.488 OA
BRANCH  29  30
ATOM     30  C   LIG    1       25.313 -27.305   5.220  0.00  0.00    +0.230 C 
BRANCH  30  31
ATOM     31  C   LIG    1       24.336 -26.137   5.321  0.00  0.00    +0.056 C 
BRANCH  31  32
ATOM     32  C   LIG    1       25.037 -24.789   5.522  0.00  0.00    +0.088 C 
BRANCH  32  33
ATOM     33  N   LIG    1       24.737 -24.172   6.826  0.00  0.00    -0.298 NA
ATOM     34  C   LIG    1       25.783 -23.249   7.317  0.00  0.00    +0.112 C 
ATOM     35  C   LIG    1       25.851 -21.929   6.535  0.00  0.00    +0.175 C 
ATOM     36  O   LIG    1       24.595 -21.241   6.582  0.00  0.00    -0.377 OA
ATOM     37  C   LIG    1       23.541 -22.065   6.068  0.00  0.00    +0.175 C 
ATOM     38  C   LIG    1       23.460 -23.420   6.799  0.00  0.00    +0.112 C 
ENDBRANCH  32  33
ENDBRANCH  31  32
ENDBRANCH  30  31
ENDBRANCH  29  30
ENDBRANCH  13  29
TORSDOF 10
ENDMDL
MODEL 6
REMARK VINA RESULT:      -7.3      5.853     10.301
REMARK  Name = *****
REMARK                            x       y       z     vdW  Elec       q    Type
REMARK                         _______ _______ _______ _____ _____    ______ ____
ROOT
ATOM      1  C   LIG    1       25.502 -28.604   7.510  0.00  0.00    +0.188 C 
ATOM      2  C   LIG    1       24.959 -29.893   7.680  0.00  0.00    +0.123 C 
ATOM      3  N   LIG    1       24.915 -30.533   8.967  0.00  0.00    -0.208 NA
ATOM      4  C   LIG    1       24.391 -31.718   9.067  0.00  0.00    +0.236 C 
ATOM      5  N   LIG    1       23.885 -32.366   7.971  0.00  0.00    -0.293 N 
ATOM      6  C   LIG    1       23.842 -31.840   6.711  0.00  0.00    +0.141 C 
ATOM      7  N   LIG    1       23.278 -32.549   5.765  0.00  0.00    -0.265 NA
ATOM      8  C   LIG    1       22.788 -33.751   6.506  0.00  0.00    +0.165 C 
ATOM      9  C   LIG    1       23.489 -33.748   7.877  0.00  0.00    +0.150 C 
ATOM     10  C   LIG    1       24.444 -30.521   6.521  0.00  0.00    +0.046 C 
ATOM     11  C   LIG    1       24.486 -29.942   5.253  0.00  0.00    +0.017 C 
ATOM     12  C   LIG    1       25.037 -28.677   5.105  0.00  0.00    +0.050 C 
ATOM     13  C   LIG    1       25.511 -27.994   6.229  0.00  0.00    +0.164 C 
ENDROOT
BRANCH   1  15
ATOM     14  C   LIG    1       26.738 -28.406   9.542  0.00  0.00    +0.277 C 
ATOM     15  O   LIG    1       25.982 -27.795   8.514  0.00  0.00    -0.489 OA
ENDBRANCH   1  15
BRANCH   4  16
ATOM     16  N   LIG    1       24.385 -32.345  10.289  0.00  0.00    -0.176 NA
ATOM     17  C   LIG    1       23.780 -31.918  11.342  0.00  0.00    +0.226 C 
BRANCH  17  18
ATOM     18  C   LIG    1       22.872 -30.810  11.690  0.00  0.00    +0.073 A 
ATOM     19  C   LIG    1       23.271 -29.571  12.113  0.00  0.00    +0.129 A 
ATOM     20  N   LIG    1       22.411 -28.594  12.517  0.00  0.00    -0.222 NA
ATOM     21  C   LIG    1       21.106 -28.877  12.469  0.00  0.00    +0.212 A 
ATOM     22  N   LIG    1       20.604 -30.026  12.015  0.00  0.00    -0.222 NA
ATOM     23  C   LIG    1       21.501 -30.963  11.618  0.00  0.00    +0.129 A 
BRANCH  21  24
ATOM     24  N   LIG    1       20.222 -27.978  13.030  0.00  0.00    -0.328 N 
ATOM     25  H   LIG    1       20.722 -27.133  13.275  0.00  0.00    +0.145 HD
ATOM     26  H   LIG    1       19.722 -28.435  13.784  0.00  0.00    +0.145 HD
ENDBRANCH  21  24
ENDBRANCH  17  18
BRANCH  17  27
ATOM     27  O   LIG    1       23.984 -32.661  12.450  0.00  0.00    -0.492 OA
ATOM     28  H   LIG    1       23.862 -32.082  13.218  0.00  0.00    +0.294 HD
ENDBRANCH  17  27
ENDBRANCH   4  16
BRANCH  13  29
ATOM     29  O   LIG    1       26.063 -26.739   6.154  0.00  0.00    -0.488 OA
BRANCH  29  30
ATOM     30  C   LIG    1       25.344 -25.752   5.409  0.00  0.00    +0.230 C 
BRANCH  30  31
ATOM     31  C   LIG    1       24.100 -25.413   6.224  0.00  0.00    +0.056 C 
BRANCH  31  32
ATOM     32  C   LIG    1       24.049 -23.942   6.651  0.00  0.00    +0.088 C 
BRANCH  32  33
ATOM     33  N   LIG    1       25.238 -23.178   6.232  0.00  0.00    -0.298 NA
ATOM     34  C   LIG    1       24.932 -21.882   5.588  0.00  0.00    +0.112 C 
ATOM     35  C   LIG    1       24.407 -20.821   6.566  0.00  0.00    +0.175 C 
ATOM     36  O   LIG    1       25.350 -20.583   7.619  0.00  0.00    -0.377 OA
ATOM     37  C   LIG    1       25.651 -21.795   8.320  0.00  0.00    +0.175 C 
ATOM     38  C   LIG    1       26.146 -22.903   7.370  0.00  0.00    +0.112 C 
ENDBRANCH  32  33
ENDBRANCH  31  32
ENDBRANCH  30  31
ENDBRANCH  29  30
ENDBRANCH  13  29
TORSDOF 10
ENDMDL
MODEL 7
REMARK VINA RESULT:      -7.2      5.973     10.376
REMARK  Name = *****
REMARK                            x       y       z     vdW  Elec       q    Type
REMARK                         _______ _______ _______ _____ _____    ______ ____
ROOT
ATOM      1  C   LIG    1       25.890 -28.399   7.818  0.00  0.00    +0.188 C 
ATOM      2  C   LIG    1       25.436 -29.732   7.780  0.00  0.00    +0.123 C 
ATOM      3  N   LIG    1       25.823 -30.693   8.777  0.00  0.00    -0.208 NA
ATOM      4  C   LIG    1       25.363 -31.906   8.700  0.00  0.00    +0.236 C 
ATOM      5  N   LIG    1       24.521 -32.283   7.686  0.00  0.00    -0.293 N 
ATOM      6  C   LIG    1       24.062 -31.448   6.709  0.00  0.00    +0.141 C 
ATOM      7  N   LIG    1       23.216 -31.928   5.832  0.00  0.00    -0.265 NA
ATOM      8  C   LIG    1       23.001 -33.326   6.318  0.00  0.00    +0.165 C 
ATOM      9  C   LIG    1       24.118 -33.621   7.337  0.00  0.00    +0.150 C 
ATOM     10  C   LIG    1       24.565 -30.074   6.718  0.00  0.00    +0.046 C 
ATOM     11  C   LIG    1       24.183 -29.177   5.722  0.00  0.00    +0.017 C 
ATOM     12  C   LIG    1       24.653 -27.872   5.770  0.00  0.00    +0.050 C 
ATOM     13  C   LIG    1       25.473 -27.472   6.828  0.00  0.00    +0.164 C 
ENDROOT
BRANCH   1  15
ATOM     14  C   LIG    1       26.492 -28.309  10.126  0.00  0.00    +0.277 C 
ATOM     15  O   LIG    1       26.677 -27.845   8.802  0.00  0.00    -0.489 OA
ENDBRANCH   1  15
BRANCH   4  16
ATOM     16  N   LIG    1       25.764 -32.834   9.630  0.00  0.00    -0.176 NA
ATOM     17  C   LIG    1       25.398 -32.856  10.864  0.00  0.00    +0.226 C 
BRANCH  17  18
ATOM     18  C   LIG    1       24.463 -32.112  11.726  0.00  0.00    +0.073 A 
ATOM     19  C   LIG    1       23.181 -32.498  12.010  0.00  0.00    +0.129 A 
ATOM     20  N   LIG    1       22.306 -31.746  12.735  0.00  0.00    -0.222 NA
ATOM     21  C   LIG    1       22.753 -30.577  13.203  0.00  0.00    +0.212 A 
ATOM     22  N   LIG    1       24.000 -30.133  13.041  0.00  0.00    -0.222 NA
ATOM     23  C   LIG    1       24.834 -30.920  12.319  0.00  0.00    +0.129 A 
BRANCH  21  24
ATOM     24  N   LIG    1       21.846 -29.719  13.791  0.00  0.00    -0.328 N 
ATOM     25  H   LIG    1       22.178 -29.466  14.712  0.00  0.00    +0.145 HD
ATOM     26  H   LIG    1       20.923 -30.137  13.748  0.00  0.00    +0.145 HD
ENDBRANCH  21  24
ENDBRANCH  17  18
BRANCH  17  27
ATOM     27  O   LIG    1       25.987 -33.816  11.609  0.00  0.00    -0.492 OA
ATOM     28  H   LIG    1       26.779 -33.428  12.013  0.00  0.00    +0.294 HD
ENDBRANCH  17  27
ENDBRANCH   4  16
BRANCH  13  29
ATOM     29  O   LIG    1       25.967 -26.196   6.940  0.00  0.00    -0.488 OA
BRANCH  29  30
ATOM     30  C   LIG    1       25.457 -25.215   6.032  0.00  0.00    +0.230 C 
BRANCH  30  31
ATOM     31  C   LIG    1       25.487 -23.881   6.771  0.00  0.00    +0.056 C 
BRANCH  31  32
ATOM     32  C   LIG    1       24.348 -22.943   6.356  0.00  0.00    +0.088 C 
BRANCH  32  33
ATOM     33  N   LIG    1       24.558 -21.551   6.794  0.00  0.00    -0.298 NA
ATOM     34  C   LIG    1       25.529 -20.796   5.973  0.00  0.00    +0.112 C 
ATOM     35  C   LIG    1       25.001 -20.437   4.576  0.00  0.00    +0.175 C 
ATOM     36  O   LIG    1       23.798 -19.664   4.666  0.00  0.00    -0.377 OA
ATOM     37  C   LIG    1       22.793 -20.366   5.408  0.00  0.00    +0.175 C 
ATOM     38  C   LIG    1       23.293 -20.780   6.806  0.00  0.00    +0.112 C 
ENDBRANCH  32  33
ENDBRANCH  31  32
ENDBRANCH  30  31
ENDBRANCH  29  30
ENDBRANCH  13  29
TORSDOF 10
ENDMDL
MODEL 8
REMARK VINA RESULT:      -6.9      9.105     13.680
REMARK  Name = *****
REMARK                            x       y       z     vdW  Elec       q    Type
REMARK                         _______ _______ _______ _____ _____    ______ ____
ROOT
ATOM      1  C   LIG    1       21.580 -28.838  12.881  0.00  0.00    +0.188 C 
ATOM      2  C   LIG    1       22.956 -28.565  12.752  0.00  0.00    +0.123 C 
ATOM      3  N   LIG    1       23.856 -29.492  12.121  0.00  0.00    -0.208 NA
ATOM      4  C   LIG    1       25.114 -29.183  12.018  0.00  0.00    +0.236 C 
ATOM      5  N   LIG    1       25.595 -27.995  12.503  0.00  0.00    -0.293 N 
ATOM      6  C   LIG    1       24.828 -27.029  13.088  0.00  0.00    +0.141 C 
ATOM      7  N   LIG    1       25.412 -25.915  13.457  0.00  0.00    -0.265 NA
ATOM      8  C   LIG    1       26.819 -26.115  12.993  0.00  0.00    +0.165 C 
ATOM      9  C   LIG    1       26.975 -27.613  12.670  0.00  0.00    +0.150 C 
ATOM     10  C   LIG    1       23.407 -27.325  13.264  0.00  0.00    +0.046 C 
ATOM     11  C   LIG    1       22.570 -26.409  13.900  0.00  0.00    +0.017 C 
ATOM     12  C   LIG    1       21.219 -26.703  14.029  0.00  0.00    +0.050 C 
ATOM     13  C   LIG    1       20.717 -27.892  13.494  0.00  0.00    +0.164 C 
ENDROOT
BRANCH   1  15
ATOM     14  C   LIG    1       20.996 -31.137  13.147  0.00  0.00    +0.277 C 
ATOM     15  O   LIG    1       20.929 -29.945  12.387  0.00  0.00    -0.489 OA
ENDBRANCH   1  15
BRANCH   4  16
ATOM     16  N   LIG    1       25.980 -30.085  11.450  0.00  0.00    -0.176 NA
ATOM     17  C   LIG    1       26.003 -30.411  10.204  0.00  0.00    +0.226 C 
BRANCH  17  18
ATOM     18  C   LIG    1       25.322 -29.993   8.967  0.00  0.00    +0.073 A 
ATOM     19  C   LIG    1       24.281 -30.661   8.379  0.00  0.00    +0.129 A 
ATOM     20  N   LIG    1       23.729 -30.305   7.186  0.00  0.00    -0.222 NA
ATOM     21  C   LIG    1       24.234 -29.225   6.581  0.00  0.00    +0.212 A 
ATOM     22  N   LIG    1       25.202 -28.464   7.093  0.00  0.00    -0.222 NA
ATOM     23  C   LIG    1       25.714 -28.856   8.285  0.00  0.00    +0.129 A 
BRANCH  21  24
ATOM     24  N   LIG    1       23.816 -28.940   5.297  0.00  0.00    -0.328 N 
ATOM     25  H   LIG    1       24.326 -28.137   4.954  0.00  0.00    +0.145 HD
ATOM     26  H   LIG    1       22.805 -28.863   5.290  0.00  0.00    +0.145 HD
ENDBRANCH  21  24
ENDBRANCH  17  18
BRANCH  17  27
ATOM     27  O   LIG    1       26.889 -31.380   9.892  0.00  0.00    -0.492 OA
ATOM     28  H   LIG    1       27.152 -31.814  10.719  0.00  0.00    +0.294 HD
ENDBRANCH  17  27
ENDBRANCH   4  16
BRANCH  13  29
ATOM     29  O   LIG    1       19.392 -28.241  13.581  0.00  0.00    -0.488 OA
BRANCH  29  30
ATOM     30  C   LIG    1       18.545 -27.401  14.370  0.00  0.00    +0.230 C 
BRANCH  30  31
ATOM     31  C   LIG    1       17.487 -28.309  14.990  0.00  0.00    +0.056 C 
BRANCH  31  32
ATOM     32  C   LIG    1       17.795 -29.798  14.800  0.00  0.00    +0.088 C 
BRANCH  32  33
ATOM     33  N   LIG    1       16.605 -30.591  14.438  0.00  0.00    -0.298 NA
ATOM     34  C   LIG    1       16.264 -30.551  12.999  0.00  0.00    +0.112 C 
ATOM     35  C   LIG    1       17.245 -31.335  12.114  0.00  0.00    +0.175 C 
ATOM     36  O   LIG    1       17.312 -32.708  12.517  0.00  0.00    -0.377 OA
ATOM     37  C   LIG    1       17.692 -32.820  13.895  0.00  0.00    +0.175 C 
ATOM     38  C   LIG    1       16.756 -32.016  14.818  0.00  0.00    +0.112 C 
ENDBRANCH  32  33
ENDBRANCH  31  32
ENDBRANCH  30  31
ENDBRANCH  29  30
ENDBRANCH  13  29
TORSDOF 10
ENDMDL
MODEL 9
REMARK VINA RESULT:      -6.8      6.904     11.153
REMARK  Name = *****
REMARK                            x       y       z     vdW  Elec       q    Type
REMARK                         _______ _______ _______ _____ _____    ______ ____
ROOT
ATOM      1  C   LIG    1       25.490 -28.842  10.762  0.00  0.00    +0.188 C 
ATOM      2  C   LIG    1       25.227 -29.292   9.453  0.00  0.00    +0.123 C 
ATOM      3  N   LIG    1       25.874 -28.711   8.308  0.00  0.00    -0.208 NA
ATOM      4  C   LIG    1       25.603 -29.175   7.125  0.00  0.00    +0.236 C 
ATOM      5  N   LIG    1       24.712 -30.202   6.951  0.00  0.00    -0.293 N 
ATOM      6  C   LIG    1       24.068 -30.849   7.967  0.00  0.00    +0.141 C 
ATOM      7  N   LIG    1       23.284 -31.853   7.660  0.00  0.00    -0.265 NA
ATOM      8  C   LIG    1       23.459 -31.964   6.180  0.00  0.00    +0.165 C 
ATOM      9  C   LIG    1       24.142 -30.665   5.712  0.00  0.00    +0.150 C 
ATOM     10  C   LIG    1       24.304 -30.357   9.323  0.00  0.00    +0.046 C 
ATOM     11  C   LIG    1       23.642 -30.933  10.407  0.00  0.00    +0.017 C 
ATOM     12  C   LIG    1       23.904 -30.465  11.687  0.00  0.00    +0.050 C 
ATOM     13  C   LIG    1       24.847 -29.451  11.871  0.00  0.00    +0.164 C 
ENDROOT
BRANCH   1  15
ATOM     14  C   LIG    1       27.726 -28.297  11.395  0.00  0.00    +0.277 C 
ATOM     15  O   LIG    1       26.405 -27.875  11.112  0.00  0.00    -0.489 OA
ENDBRANCH   1  15
BRANCH   4  16
ATOM     16  N   LIG    1       26.191 -28.594   6.028  0.00  0.00    -0.176 NA
ATOM     17  C   LIG    1       26.007 -27.380   5.641  0.00  0.00    +0.226 C 
BRANCH  17  18
ATOM     18  C   LIG    1       25.297 -26.186   6.134  0.00  0.00    +0.073 A 
ATOM     19  C   LIG    1       23.942 -26.001   6.078  0.00  0.00    +0.129 A 
ATOM     20  N   LIG    1       23.318 -24.850   6.456  0.00  0.00    -0.222 NA
ATOM     21  C   LIG    1       24.091 -23.866   6.925  0.00  0.00    +0.212 A 
ATOM     22  N   LIG    1       25.412 -23.962   7.082  0.00  0.00    -0.222 NA
ATOM     23  C   LIG    1       25.984 -25.129   6.698  0.00  0.00    +0.129 A 
BRANCH  21  24
ATOM     24  N   LIG    1       23.513 -22.634   7.153  0.00  0.00    -0.328 N 
ATOM     25  H   LIG    1       23.112 -22.292   6.289  0.00  0.00    +0.145 HD
ATOM     26  H   LIG    1       24.194 -22.029   7.598  0.00  0.00    +0.145 HD
ENDBRANCH  21  24
ENDBRANCH  17  18
BRANCH  17  27
ATOM     27  O   LIG    1       26.628 -27.056   4.488  0.00  0.00    -0.492 OA
ATOM     28  H   LIG    1       26.677 -27.858   3.945  0.00  0.00    +0.294 HD
ENDBRANCH  17  27
ENDBRANCH   4  16
BRANCH  13  29
ATOM     29  O   LIG    1       25.159 -28.946  13.110  0.00  0.00    -0.488 OA
BRANCH  29  30
ATOM     30  C   LIG    1       24.069 -28.566  13.955  0.00  0.00    +0.230 C 
BRANCH  30  31
ATOM     31  C   LIG    1       23.567 -27.221  13.439  0.00  0.00    +0.056 C 
BRANCH  31  32
ATOM     32  C   LIG    1       22.143 -26.897  13.903  0.00  0.00    +0.088 C 
BRANCH  32  33
ATOM     33  N   LIG    1       21.111 -27.332  12.944  0.00  0.00    -0.298 NA
ATOM     34  C   LIG    1       20.570 -28.683  13.206  0.00  0.00    +0.112 C 
ATOM     35  C   LIG    1       19.665 -28.752  14.445  0.00  0.00    +0.175 C 
ATOM     36  O   LIG    1       18.561 -27.847  14.324  0.00  0.00    -0.377 OA
ATOM     37  C   LIG    1       19.019 -26.504  14.120  0.00  0.00    +0.175 C 
ATOM     38  C   LIG    1       19.964 -26.395  12.907  0.00  0.00    +0.112 C 
ENDBRANCH  32  33
ENDBRANCH  31  32
ENDBRANCH  30  31
ENDBRANCH  29  30
ENDBRANCH  13  29
TORSDOF 10
ENDMDL
