MODEL 1
REMARK VINA RESULT:       2.7      0.000      0.000
REMARK  Name = *****
REMARK                            x       y       z     vdW  Elec       q    Type
REMARK                         _______ _______ _______ _____ _____    ______ ____
ROOT
ATOM      1  C   LIG    1       26.675 -13.698   3.176  0.00  0.00    +0.132 C 
ATOM      2  C   LIG    1       26.278 -14.866   4.141  0.00  0.00    +0.014 C 
ATOM      3  C   LIG    1       24.710 -14.811   4.143  0.00  0.00    +0.002 C 
ATOM      4  C   LIG    1       23.933 -15.854   3.291  0.00  0.00    -0.003 C 
ATOM      5  C   LIG    1       24.603 -17.248   3.257  0.00  0.00    -0.000 C 
ATOM      6  C   LIG    1       26.028 -17.060   2.736  0.00  0.00    +0.005 C 
ATOM      7  C   LIG    1       24.474 -17.962   4.630  0.00  0.00    +0.019 C 
ATOM      8  C   LIG    1       22.995 -18.070   4.959  0.00  0.00    -0.063 C 
ATOM      9  C   LIG    1       22.332 -19.231   5.069  0.00  0.00    +0.045 C 
ATOM     10  C   LIG    1       23.000 -20.518   4.757  0.00  0.00    +0.156 C 
ATOM     11  C   LIG    1       24.372 -20.462   4.130  0.00  0.00    +0.079 C 
ATOM     12  O   LIG    1       22.390 -21.571   4.919  0.00  0.00    -0.293 OA
ATOM     13  C   LIG    1       22.289 -16.744   5.068  0.00  0.00    +0.031 C 
ATOM     14  C   LIG    1       25.180 -19.326   4.735  0.00  0.00    +0.016 C 
ATOM     15  C   LIG    1       22.460 -15.967   3.758  0.00  0.00    +0.008 C 
ATOM     16  C   LIG    1       24.326 -13.377   3.692  0.00  0.00    +0.008 C 
ATOM     17  C   LIG    1       26.882 -16.229   3.678  0.00  0.00    +0.011 C 
ATOM     18  C   LIG    1       25.617 -12.618   3.405  0.00  0.00    +0.049 C 
ENDROOT
BRANCH   1  20
ATOM     19  C   LIG    1       29.142 -12.749   3.569  0.00  0.00    +0.007 C 
ATOM     20  C   LIG    1       28.033 -13.175   3.391  0.00  0.00    -0.070 C 
ENDBRANCH   1  20
BRANCH   1  21
ATOM     21  O   LIG    1       26.596 -14.117   1.812  0.00  0.00    -0.376 OA
ATOM     22  H   LIG    1       27.243 -13.614   1.295  0.00  0.00    +0.211 HD
ENDBRANCH   1  21
BRANCH   2  23
ATOM     23  C   LIG    1       26.801 -14.681   5.620  0.00  0.00    +0.007 C 
ATOM     24  C   LIG    1       26.640 -13.337   6.315  0.00  0.00    +0.004 C 
ENDBRANCH   2  23
TORSDOF 3
ENDMDL
