MODEL 1
REMARK VINA RESULT:      -5.0      0.000      0.000
REMARK  Name = *****
REMARK                            x       y       z     vdW  Elec       q    Type
REMARK                         _______ _______ _______ _____ _____    ______ ____
ROOT
ATOM      1  N   LIG    1       25.519 -15.275   3.791  0.00  0.00    -0.310 N 
ENDROOT
BRANCH   1   2
ATOM      2  C   LIG    1       26.571 -14.430   4.098  0.00  0.00    +0.121 A 
ATOM      3  N   LIG    1       26.636 -13.894   5.341  0.00  0.00    -0.240 NA
ATOM      4  C   LIG    1       27.611 -13.005   5.638  0.00  0.00    +0.113 A 
ATOM      5  C   LIG    1       28.570 -12.577   4.740  0.00  0.00    +0.020 A 
ATOM      6  C   LIG    1       28.543 -13.142   3.482  0.00  0.00    +0.005 A 
ATOM      7  C   LIG    1       27.570 -14.093   3.178  0.00  0.00    +0.043 A 
ENDBRANCH   1   2
BRANCH   1   8
ATOM      8  C   LIG    1       24.157 -14.791   4.089  0.00  0.00    +0.122 C 
BRANCH   8   9
ATOM      9  C   LIG    1       23.710 -13.667   3.123  0.00  0.00    +0.103 C 
BRANCH   9  11
ATOM     10  C   LIG    1       24.163 -11.472   2.214  0.00  0.00    +0.104 C 
ATOM     11  N   LIG    1       24.331 -12.343   3.382  0.00  0.00    -0.307 NA
ATOM     12  C   LIG    1       23.745 -11.693   4.559  0.00  0.00    +0.104 C 
ENDBRANCH   9  11
ENDBRANCH   8   9
ENDBRANCH   1   8
BRANCH   1  13
ATOM     13  C   LIG    1       25.654 -16.530   3.052  0.00  0.00    +0.141 C 
BRANCH  13  14
ATOM     14  C   LIG    1       24.803 -17.655   3.618  0.00  0.00    -0.030 A 
ATOM     15  C   LIG    1       23.469 -17.423   3.987  0.00  0.00    +0.006 A 
ATOM     16  C   LIG    1       22.669 -18.460   4.479  0.00  0.00    +0.020 A 
ATOM     17  C   LIG    1       23.193 -19.743   4.600  0.00  0.00    +0.041 A 
ATOM     18 CL   LIG    1       22.204 -21.028   5.175  0.00  0.00    -0.084 Cl
ATOM     19  C   LIG    1       24.518 -19.992   4.263  0.00  0.00    +0.020 A 
ATOM     20  C   LIG    1       25.319 -18.950   3.790  0.00  0.00    +0.006 A 
ENDBRANCH  13  14
ENDBRANCH   1  13
TORSDOF 6
ENDMDL
MODEL 2
REMARK VINA RESULT:      -4.8      3.630      6.051
REMARK  Name = *****
REMARK                            x       y       z     vdW  Elec       q    Type
REMARK                         _______ _______ _______ _____ _____    ______ ____
ROOT
ATOM      1  N   LIG    1       26.180 -19.438   4.408  0.00  0.00    -0.310 N 
ENDROOT
BRANCH   1   2
ATOM      2  C   LIG    1       27.304 -19.469   5.214  0.00  0.00    +0.121 A 
ATOM      3  N   LIG    1       27.368 -20.386   6.210  0.00  0.00    -0.240 NA
ATOM      4  C   LIG    1       28.422 -20.382   7.059  0.00  0.00    +0.113 A 
ATOM      5  C   LIG    1       29.466 -19.479   6.995  0.00  0.00    +0.020 A 
ATOM      6  C   LIG    1       29.437 -18.565   5.964  0.00  0.00    +0.005 A 
ATOM      7  C   LIG    1       28.378 -18.586   5.056  0.00  0.00    +0.043 A 
ENDBRANCH   1   2
BRANCH   1   8
ATOM      8  C   LIG    1       24.974 -20.129   4.906  0.00  0.00    +0.122 C 
BRANCH   8   9
ATOM      9  C   LIG    1       23.895 -20.289   3.807  0.00  0.00    +0.103 C 
BRANCH   9  11
ATOM     10  C   LIG    1       22.419 -21.200   5.493  0.00  0.00    +0.104 C 
ATOM     11  N   LIG    1       22.498 -20.336   4.311  0.00  0.00    -0.307 NA
ATOM     12  C   LIG    1       22.004 -18.999   4.655  0.00  0.00    +0.104 C 
ENDBRANCH   9  11
ENDBRANCH   8   9
ENDBRANCH   1   8
BRANCH   1  13
ATOM     13  C   LIG    1       26.058 -18.641   3.188  0.00  0.00    +0.141 C 
BRANCH  13  14
ATOM     14  C   LIG    1       25.740 -17.179   3.454  0.00  0.00    -0.030 A 
ATOM     15  C   LIG    1       24.438 -16.784   3.798  0.00  0.00    +0.006 A 
ATOM     16  C   LIG    1       24.143 -15.446   4.077  0.00  0.00    +0.020 A 
ATOM     17  C   LIG    1       25.150 -14.487   4.021  0.00  0.00    +0.041 A 
ATOM     18 CL   LIG    1       24.799 -12.844   4.393  0.00  0.00    -0.084 Cl
ATOM     19  C   LIG    1       26.442 -14.850   3.660  0.00  0.00    +0.020 A 
ATOM     20  C   LIG    1       26.728 -16.185   3.364  0.00  0.00    +0.006 A 
ENDBRANCH  13  14
ENDBRANCH   1  13
TORSDOF 6
ENDMDL
MODEL 3
REMARK VINA RESULT:      -4.7      3.563      7.205
REMARK  Name = *****
REMARK                            x       y       z     vdW  Elec       q    Type
REMARK                         _______ _______ _______ _____ _____    ______ ____
ROOT
ATOM      1  N   LIG    1       25.736 -19.202   4.095  0.00  0.00    -0.310 N 
ENDROOT
BRANCH   1   2
ATOM      2  C   LIG    1       24.598 -19.800   4.607  0.00  0.00    +0.121 A 
ATOM      3  N   LIG    1       24.730 -20.924   5.352  0.00  0.00    -0.240 NA
ATOM      4  C   LIG    1       23.626 -21.569   5.795  0.00  0.00    +0.113 A 
ATOM      5  C   LIG    1       22.332 -21.163   5.530  0.00  0.00    +0.020 A 
ATOM      6  C   LIG    1       22.180 -19.999   4.808  0.00  0.00    +0.005 A 
ATOM      7  C   LIG    1       23.310 -19.301   4.382  0.00  0.00    +0.043 A 
ENDBRANCH   1   2
BRANCH   1   8
ATOM      8  C   LIG    1       27.036 -19.679   4.606  0.00  0.00    +0.122 C 
BRANCH   8   9
ATOM      9  C   LIG    1       27.000 -19.961   6.128  0.00  0.00    +0.103 C 
BRANCH   9  11
ATOM     10  C   LIG    1       28.859 -21.195   7.062  0.00  0.00    +0.104 C 
ATOM     11  N   LIG    1       28.315 -19.856   6.810  0.00  0.00    -0.307 NA
ATOM     12  C   LIG    1       29.276 -19.086   6.014  0.00  0.00    +0.104 C 
ENDBRANCH   9  11
ENDBRANCH   8   9
ENDBRANCH   1   8
BRANCH   1  13
ATOM     13  C   LIG    1       25.744 -18.257   2.979  0.00  0.00    +0.141 C 
BRANCH  13  14
ATOM     14  C   LIG    1       25.792 -16.804   3.422  0.00  0.00    -0.030 A 
ATOM     15  C   LIG    1       24.605 -16.093   3.660  0.00  0.00    +0.006 A 
ATOM     16  C   LIG    1       24.640 -14.765   4.100  0.00  0.00    +0.020 A 
ATOM     17  C   LIG    1       25.862 -14.136   4.313  0.00  0.00    +0.041 A 
ATOM     18 CL   LIG    1       25.910 -12.514   4.883  0.00  0.00    -0.084 Cl
ATOM     19  C   LIG    1       27.050 -14.812   4.062  0.00  0.00    +0.020 A 
ATOM     20  C   LIG    1       27.011 -16.132   3.605  0.00  0.00    +0.006 A 
ENDBRANCH  13  14
ENDBRANCH   1  13
TORSDOF 6
ENDMDL
MODEL 4
REMARK VINA RESULT:      -4.6      2.512      4.200
REMARK  Name = *****
REMARK                            x       y       z     vdW  Elec       q    Type
REMARK                         _______ _______ _______ _____ _____    ______ ____
ROOT
ATOM      1  N   LIG    1       26.919 -17.874   3.954  0.00  0.00    -0.310 N 
ENDROOT
BRANCH   1   2
ATOM      2  C   LIG    1       27.550 -18.634   4.923  0.00  0.00    +0.121 A 
ATOM      3  N   LIG    1       28.809 -18.300   5.296  0.00  0.00    -0.240 NA
ATOM      4  C   LIG    1       29.474 -19.076   6.183  0.00  0.00    +0.113 A 
ATOM      5  C   LIG    1       28.957 -20.226   6.747  0.00  0.00    +0.020 A 
ATOM      6  C   LIG    1       27.664 -20.560   6.409  0.00  0.00    +0.005 A 
ATOM      7  C   LIG    1       26.952 -19.744   5.530  0.00  0.00    +0.043 A 
ENDBRANCH   1   2
BRANCH   1   8
ATOM      8  C   LIG    1       27.305 -16.453   3.854  0.00  0.00    +0.122 C 
BRANCH   8   9
ATOM      9  C   LIG    1       26.156 -15.571   3.308  0.00  0.00    +0.103 C 
BRANCH   9  11
ATOM     10  C   LIG    1       25.455 -13.482   2.309  0.00  0.00    +0.104 C 
ATOM     11  N   LIG    1       26.599 -14.362   2.567  0.00  0.00    -0.307 NA
ATOM     12  C   LIG    1       27.622 -13.619   3.310  0.00  0.00    +0.104 C 
ENDBRANCH   9  11
ENDBRANCH   8   9
ENDBRANCH   1   8
BRANCH   1  13
ATOM     13  C   LIG    1       26.024 -18.415   2.931  0.00  0.00    +0.141 C 
BRANCH  13  14
ATOM     14  C   LIG    1       24.858 -19.201   3.506  0.00  0.00    -0.030 A 
ATOM     15  C   LIG    1       24.878 -20.605   3.508  0.00  0.00    +0.006 A 
ATOM     16  C   LIG    1       23.824 -21.337   4.065  0.00  0.00    +0.020 A 
ATOM     17  C   LIG    1       22.741 -20.673   4.632  0.00  0.00    +0.041 A 
ATOM     18 CL   LIG    1       21.457 -21.568   5.346  0.00  0.00    -0.084 Cl
ATOM     19  C   LIG    1       22.688 -19.284   4.621  0.00  0.00    +0.020 A 
ATOM     20  C   LIG    1       23.734 -18.557   4.047  0.00  0.00    +0.006 A 
ENDBRANCH  13  14
ENDBRANCH   1  13
TORSDOF 6
ENDMDL
MODEL 5
REMARK VINA RESULT:      -4.6      3.459      5.914
REMARK  Name = *****
REMARK                            x       y       z     vdW  Elec       q    Type
REMARK                         _______ _______ _______ _____ _____    ______ ____
ROOT
ATOM      1  N   LIG    1       26.207 -19.278   4.196  0.00  0.00    -0.310 N 
ENDROOT
BRANCH   1   2
ATOM      2  C   LIG    1       27.250 -19.287   5.105  0.00  0.00    +0.121 A 
ATOM      3  N   LIG    1       28.312 -18.473   4.889  0.00  0.00    -0.240 NA
ATOM      4  C   LIG    1       29.377 -18.524   5.721  0.00  0.00    +0.113 A 
ATOM      5  C   LIG    1       29.475 -19.377   6.803  0.00  0.00    +0.020 A 
ATOM      6  C   LIG    1       28.388 -20.184   7.062  0.00  0.00    +0.005 A 
ATOM      7  C   LIG    1       27.266 -20.110   6.237  0.00  0.00    +0.043 A 
ENDBRANCH   1   2
BRANCH   1   8
ATOM      8  C   LIG    1       25.036 -20.122   4.505  0.00  0.00    +0.122 C 
BRANCH   8   9
ATOM      9  C   LIG    1       23.789 -19.720   3.680  0.00  0.00    +0.103 C 
BRANCH   9  11
ATOM     10  C   LIG    1       22.765 -20.040   5.847  0.00  0.00    +0.104 C 
ATOM     11  N   LIG    1       22.509 -19.751   4.432  0.00  0.00    -0.307 NA
ATOM     12  C   LIG    1       21.787 -18.480   4.321  0.00  0.00    +0.104 C 
ENDBRANCH   9  11
ENDBRANCH   8   9
ENDBRANCH   1   8
BRANCH   1  13
ATOM     13  C   LIG    1       26.118 -18.378   3.046  0.00  0.00    +0.141 C 
BRANCH  13  14
ATOM     14  C   LIG    1       25.835 -16.936   3.432  0.00  0.00    -0.030 A 
ATOM     15  C   LIG    1       24.532 -16.532   3.766  0.00  0.00    +0.006 A 
ATOM     16  C   LIG    1       24.268 -15.214   4.155  0.00  0.00    +0.020 A 
ATOM     17  C   LIG    1       25.304 -14.287   4.219  0.00  0.00    +0.041 A 
ATOM     18 CL   LIG    1       24.988 -12.674   4.725  0.00  0.00    -0.084 Cl
ATOM     19  C   LIG    1       26.597 -14.659   3.870  0.00  0.00    +0.020 A 
ATOM     20  C   LIG    1       26.854 -15.971   3.465  0.00  0.00    +0.006 A 
ENDBRANCH  13  14
ENDBRANCH   1  13
TORSDOF 6
ENDMDL
MODEL 6
REMARK VINA RESULT:      -4.6      3.569      7.264
REMARK  Name = *****
REMARK                            x       y       z     vdW  Elec       q    Type
REMARK                         _______ _______ _______ _____ _____    ______ ____
ROOT
ATOM      1  N   LIG    1       25.736 -19.190   4.084  0.00  0.00    -0.310 N 
ENDROOT
BRANCH   1   2
ATOM      2  C   LIG    1       24.604 -19.801   4.593  0.00  0.00    +0.121 A 
ATOM      3  N   LIG    1       24.748 -20.912   5.354  0.00  0.00    -0.240 NA
ATOM      4  C   LIG    1       23.652 -21.570   5.795  0.00  0.00    +0.113 A 
ATOM      5  C   LIG    1       22.354 -21.192   5.512  0.00  0.00    +0.020 A 
ATOM      6  C   LIG    1       22.188 -20.041   4.771  0.00  0.00    +0.005 A 
ATOM      7  C   LIG    1       23.310 -19.329   4.348  0.00  0.00    +0.043 A 
ENDBRANCH   1   2
BRANCH   1   8
ATOM      8  C   LIG    1       27.042 -19.678   4.569  0.00  0.00    +0.122 C 
BRANCH   8   9
ATOM      9  C   LIG    1       27.053 -19.897   6.102  0.00  0.00    +0.103 C 
BRANCH   9  11
ATOM     10  C   LIG    1       28.982 -21.087   6.946  0.00  0.00    +0.104 C 
ATOM     11  N   LIG    1       28.388 -19.762   6.739  0.00  0.00    -0.307 NA
ATOM     12  C   LIG    1       29.295 -18.948   5.923  0.00  0.00    +0.104 C 
ENDBRANCH   9  11
ENDBRANCH   8   9
ENDBRANCH   1   8
BRANCH   1  13
ATOM     13  C   LIG    1       25.732 -18.216   2.992  0.00  0.00    +0.141 C 
BRANCH  13  14
ATOM     14  C   LIG    1       25.796 -16.775   3.471  0.00  0.00    -0.030 A 
ATOM     15  C   LIG    1       27.035 -16.150   3.682  0.00  0.00    +0.006 A 
ATOM     16  C   LIG    1       27.105 -14.814   4.091  0.00  0.00    +0.020 A 
ATOM     17  C   LIG    1       25.935 -14.086   4.287  0.00  0.00    +0.041 A 
ATOM     18 CL   LIG    1       26.015 -12.435   4.761  0.00  0.00    -0.084 Cl
ATOM     19  C   LIG    1       24.697 -14.691   4.107  0.00  0.00    +0.020 A 
ATOM     20  C   LIG    1       24.631 -16.030   3.716  0.00  0.00    +0.006 A 
ENDBRANCH  13  14
ENDBRANCH   1  13
TORSDOF 6
ENDMDL
MODEL 7
REMARK VINA RESULT:      -4.5      1.226      3.208
REMARK  Name = *****
REMARK                            x       y       z     vdW  Elec       q    Type
REMARK                         _______ _______ _______ _____ _____    ______ ____
ROOT
ATOM      1  N   LIG    1       26.299 -16.084   3.357  0.00  0.00    -0.310 N 
ENDROOT
BRANCH   1   2
ATOM      2  C   LIG    1       25.454 -15.005   3.165  0.00  0.00    +0.121 A 
ATOM      3  N   LIG    1       25.656 -14.199   2.095  0.00  0.00    -0.240 NA
ATOM      4  C   LIG    1       24.892 -13.095   1.932  0.00  0.00    +0.113 A 
ATOM      5  C   LIG    1       23.897 -12.705   2.807  0.00  0.00    +0.020 A 
ATOM      6  C   LIG    1       23.651 -13.533   3.881  0.00  0.00    +0.005 A 
ATOM      7  C   LIG    1       24.402 -14.698   4.036  0.00  0.00    +0.043 A 
ENDBRANCH   1   2
BRANCH   1   8
ATOM      8  C   LIG    1       27.369 -15.931   4.362  0.00  0.00    +0.122 C 
BRANCH   8   9
ATOM      9  C   LIG    1       28.248 -14.685   4.098  0.00  0.00    +0.103 C 
BRANCH   9  11
ATOM     10  C   LIG    1       27.171 -13.596   5.969  0.00  0.00    +0.104 C 
ATOM     11  N   LIG    1       27.686 -13.409   4.609  0.00  0.00    -0.307 NA
ATOM     12  C   LIG    1       28.692 -12.341   4.615  0.00  0.00    +0.104 C 
ENDBRANCH   9  11
ENDBRANCH   8   9
ENDBRANCH   1   8
BRANCH   1  13
ATOM     13  C   LIG    1       26.106 -17.403   2.757  0.00  0.00    +0.141 C 
BRANCH  13  14
ATOM     14  C   LIG    1       25.295 -18.348   3.628  0.00  0.00    -0.030 A 
ATOM     15  C   LIG    1       23.901 -18.208   3.724  0.00  0.00    +0.006 A 
ATOM     16  C   LIG    1       23.142 -19.092   4.498  0.00  0.00    +0.020 A 
ATOM     17  C   LIG    1       23.768 -20.131   5.180  0.00  0.00    +0.041 A 
ATOM     18 CL   LIG    1       22.837 -21.240   6.108  0.00  0.00    -0.084 Cl
ATOM     19  C   LIG    1       25.149 -20.276   5.118  0.00  0.00    +0.020 A 
ATOM     20  C   LIG    1       25.906 -19.379   4.359  0.00  0.00    +0.006 A 
ENDBRANCH  13  14
ENDBRANCH   1  13
TORSDOF 6
ENDMDL
MODEL 8
REMARK VINA RESULT:      -3.9      2.323      4.591
REMARK  Name = *****
REMARK                            x       y       z     vdW  Elec       q    Type
REMARK                         _______ _______ _______ _____ _____    ______ ____
ROOT
ATOM      1  N   LIG    1       26.475 -17.111   3.468  0.00  0.00    -0.310 N 
ENDROOT
BRANCH   1   2
ATOM      2  C   LIG    1       26.048 -15.796   3.407  0.00  0.00    +0.121 A 
ATOM      3  N   LIG    1       26.888 -14.860   2.903  0.00  0.00    -0.240 NA
ATOM      4  C   LIG    1       26.522 -13.558   2.907  0.00  0.00    +0.113 A 
ATOM      5  C   LIG    1       25.323 -13.092   3.412  0.00  0.00    +0.020 A 
ATOM      6  C   LIG    1       24.440 -14.034   3.893  0.00  0.00    +0.005 A 
ATOM      7  C   LIG    1       24.787 -15.384   3.853  0.00  0.00    +0.043 A 
ENDBRANCH   1   2
BRANCH   1   8
ATOM      8  C   LIG    1       27.549 -17.428   4.430  0.00  0.00    +0.122 C 
BRANCH   8   9
ATOM      9  C   LIG    1       27.840 -18.946   4.504  0.00  0.00    +0.103 C 
BRANCH   9  11
ATOM     10  C   LIG    1       29.474 -18.162   6.106  0.00  0.00    +0.104 C 
ATOM     11  N   LIG    1       28.787 -19.345   5.577  0.00  0.00    -0.307 NA
ATOM     12  C   LIG    1       28.101 -20.036   6.673  0.00  0.00    +0.104 C 
ENDBRANCH   9  11
ENDBRANCH   8   9
ENDBRANCH   1   8
BRANCH   1  13
ATOM     13  C   LIG    1       25.831 -18.224   2.770  0.00  0.00    +0.141 C 
BRANCH  13  14
ATOM     14  C   LIG    1       24.960 -19.079   3.676  0.00  0.00    -0.030 A 
ATOM     15  C   LIG    1       25.455 -20.275   4.218  0.00  0.00    +0.006 A 
ATOM     16  C   LIG    1       24.672 -21.052   5.079  0.00  0.00    +0.020 A 
ATOM     17  C   LIG    1       23.387 -20.636   5.413  0.00  0.00    +0.041 A 
ATOM     18 CL   LIG    1       22.432 -21.571   6.496  0.00  0.00    -0.084 Cl
ATOM     19  C   LIG    1       22.867 -19.467   4.871  0.00  0.00    +0.020 A 
ATOM     20  C   LIG    1       23.645 -18.704   3.997  0.00  0.00    +0.006 A 
ENDBRANCH  13  14
ENDBRANCH   1  13
TORSDOF 6
ENDMDL
MODEL 9
REMARK VINA RESULT:      -3.5      2.785      4.997
REMARK  Name = *****
REMARK                            x       y       z     vdW  Elec       q    Type
REMARK                         _______ _______ _______ _____ _____    ______ ____
ROOT
ATOM      1  N   LIG    1       24.570 -17.279   3.846  0.00  0.00    -0.310 N 
ENDROOT
BRANCH   1   2
ATOM      2  C   LIG    1       24.906 -15.940   3.744  0.00  0.00    +0.121 A 
ATOM      3  N   LIG    1       26.138 -15.609   3.288  0.00  0.00    -0.240 NA
ATOM      4  C   LIG    1       26.516 -14.311   3.256  0.00  0.00    +0.113 A 
ATOM      5  C   LIG    1       25.721 -13.262   3.677  0.00  0.00    +0.020 A 
ATOM      6  C   LIG    1       24.450 -13.577   4.108  0.00  0.00    +0.005 A 
ATOM      7  C   LIG    1       24.033 -14.908   4.104  0.00  0.00    +0.043 A 
ENDBRANCH   1   2
BRANCH   1   8
ATOM      8  C   LIG    1       23.251 -17.601   4.426  0.00  0.00    +0.122 C 
BRANCH   8   9
ATOM      9  C   LIG    1       22.749 -19.001   3.997  0.00  0.00    +0.103 C 
BRANCH   9  11
ATOM     10  C   LIG    1       21.932 -21.184   4.643  0.00  0.00    +0.104 C 
ATOM     11  N   LIG    1       22.138 -19.802   5.088  0.00  0.00    -0.307 NA
ATOM     12  C   LIG    1       22.976 -19.802   6.292  0.00  0.00    +0.104 C 
ENDBRANCH   9  11
ENDBRANCH   8   9
ENDBRANCH   1   8
BRANCH   1  13
ATOM     13  C   LIG    1       25.354 -18.375   3.276  0.00  0.00    +0.141 C 
BRANCH  13  14
ATOM     14  C   LIG    1       26.357 -18.968   4.251  0.00  0.00    -0.030 A 
ATOM     15  C   LIG    1       26.036 -20.116   4.992  0.00  0.00    +0.006 A 
ATOM     16  C   LIG    1       26.965 -20.688   5.868  0.00  0.00    +0.020 A 
ATOM     17  C   LIG    1       28.227 -20.120   6.009  0.00  0.00    +0.041 A 
ATOM     18 CL   LIG    1       29.383 -20.837   7.062  0.00  0.00    -0.084 Cl
ATOM     19  C   LIG    1       28.559 -18.970   5.304  0.00  0.00    +0.020 A 
ATOM     20  C   LIG    1       27.623 -18.391   4.443  0.00  0.00    +0.006 A 
ENDBRANCH  13  14
ENDBRANCH   1  13
TORSDOF 6
ENDMDL
