MODEL 1
REMARK VINA RESULT:      -4.2      0.000      0.000
REMARK  Name = *****
REMARK                            x       y       z     vdW  Elec       q    Type
REMARK                         _______ _______ _______ _____ _____    ______ ____
ROOT
ATOM      1  C   LIG    1       22.798 -19.546   4.554  0.00  0.00    +0.233 C 
ATOM      2  O   LIG    1       23.680 -19.551   5.690  0.00  0.00    -0.340 OA
ATOM      3  C   LIG    1       24.386 -20.770   5.883  0.00  0.00    +0.133 C 
ATOM      4  C   LIG    1       25.353 -20.627   7.059  0.00  0.00    +0.106 C 
ATOM      5  C   LIG    1       26.683 -20.446   6.376  0.00  0.00    +0.139 C 
ATOM      6  O   LIG    1       27.754 -20.466   6.971  0.00  0.00    -0.297 OA
ATOM      7  C   LIG    1       26.555 -20.281   4.875  0.00  0.00    +0.061 C 
ATOM      8  C   LIG    1       25.268 -21.112   4.681  0.00  0.00    +0.029 C 
ATOM      9  C   LIG    1       24.548 -20.987   3.346  0.00  0.00    +0.012 C 
ATOM     10  C   LIG    1       23.592 -19.801   3.255  0.00  0.00    +0.071 C 
ENDROOT
BRANCH   1  11
ATOM     11  C   LIG    1       22.121 -18.128   4.468  0.00  0.00    +0.301 C 
ATOM     12  F   LIG    1       20.991 -18.226   3.705  0.00  0.00    -0.200 F 
ATOM     13  F   LIG    1       21.696 -17.751   5.709  0.00  0.00    -0.200 F 
BRANCH  11  14
ATOM     14  C   LIG    1       23.024 -17.030   3.888  0.00  0.00    +0.081 C 
BRANCH  14  15
ATOM     15  C   LIG    1       22.738 -15.633   4.472  0.00  0.00    +0.006 C 
BRANCH  15  17
ATOM     16  C   LIG    1       23.659 -13.416   3.589  0.00  0.00    +0.004 C 
ATOM     17  C   LIG    1       23.954 -14.696   4.368  0.00  0.00    -0.003 C 
ENDBRANCH  15  17
ENDBRANCH  14  15
ENDBRANCH  11  14
ENDBRANCH   1  11
BRANCH   1  18
ATOM     18  O   LIG    1       21.800 -20.556   4.740  0.00  0.00    -0.360 OA
ATOM     19  H   LIG    1       21.017 -20.145   5.137  0.00  0.00    +0.213 HD
ENDBRANCH   1  18
BRANCH   7  20
ATOM     20  C   LIG    1       26.533 -18.793   4.478  0.00  0.00    +0.011 C 
BRANCH  20  21
ATOM     21  C   LIG    1       27.945 -18.194   4.478  0.00  0.00    +0.001 C 
BRANCH  21  22
ATOM     22  C   LIG    1       27.979 -16.666   4.433  0.00  0.00    +0.000 C 
BRANCH  22  23
ATOM     23  C   LIG    1       26.839 -16.105   3.573  0.00  0.00    +0.000 C 
BRANCH  23  24
ATOM     24  C   LIG    1       27.096 -14.683   3.054  0.00  0.00    +0.011 C 
BRANCH  24  25
ATOM     25  C   LIG    1       28.190 -13.953   3.839  0.00  0.00    +0.120 C 
BRANCH  25  26
ATOM     26  C   LIG    1       27.656 -13.166   5.000  0.00  0.00    +0.305 C 
ATOM     27  O   LIG    1       26.580 -13.338   5.569  0.00  0.00    -0.251 OA
BRANCH  26  28
ATOM     28  O   LIG    1       28.481 -12.204   5.418  0.00  0.00    -0.481 OA
ATOM     29  H   LIG    1       28.839 -12.561   6.258  0.00  0.00    +0.295 HD
ENDBRANCH  26  28
ENDBRANCH  25  26
ENDBRANCH  24  25
ENDBRANCH  23  24
ENDBRANCH  22  23
ENDBRANCH  21  22
ENDBRANCH  20  21
ENDBRANCH   7  20
TORSDOF 13
ENDMDL
MODEL 2
REMARK VINA RESULT:      -3.0      1.578      2.052
REMARK  Name = *****
REMARK                            x       y       z     vdW  Elec       q    Type
REMARK                         _______ _______ _______ _____ _____    ______ ____
ROOT
ATOM      1  C   LIG    1       23.557 -20.216   4.650  0.00  0.00    +0.233 C 
ATOM      2  O   LIG    1       24.501 -20.086   5.727  0.00  0.00    -0.340 OA
ATOM      3  C   LIG    1       25.664 -20.892   5.593  0.00  0.00    +0.133 C 
ATOM      4  C   LIG    1       26.629 -20.604   6.744  0.00  0.00    +0.106 C 
ATOM      5  C   LIG    1       27.667 -19.726   6.096  0.00  0.00    +0.139 C 
ATOM      6  O   LIG    1       28.718 -19.410   6.641  0.00  0.00    -0.297 OA
ATOM      7  C   LIG    1       27.291 -19.314   4.687  0.00  0.00    +0.061 C 
ATOM      8  C   LIG    1       26.447 -20.555   4.323  0.00  0.00    +0.029 C 
ATOM      9  C   LIG    1       25.574 -20.467   3.079  0.00  0.00    +0.012 C 
ATOM     10  C   LIG    1       24.212 -19.819   3.310  0.00  0.00    +0.071 C 
ENDROOT
BRANCH   1  11
ATOM     11  C   LIG    1       22.352 -19.246   4.936  0.00  0.00    +0.301 C 
ATOM     12  F   LIG    1       21.184 -19.936   4.772  0.00  0.00    -0.200 F 
ATOM     13  F   LIG    1       22.375 -18.867   6.247  0.00  0.00    -0.200 F 
BRANCH  11  14
ATOM     14  C   LIG    1       22.324 -17.994   4.049  0.00  0.00    +0.081 C 
BRANCH  14  15
ATOM     15  C   LIG    1       22.197 -16.682   4.847  0.00  0.00    +0.006 C 
BRANCH  15  17
ATOM     16  C   LIG    1       23.198 -14.366   5.269  0.00  0.00    +0.004 C 
ATOM     17  C   LIG    1       23.229 -15.629   4.409  0.00  0.00    -0.003 C 
ENDBRANCH  15  17
ENDBRANCH  14  15
ENDBRANCH  11  14
ENDBRANCH   1  11
BRANCH   1  18
ATOM     18  O   LIG    1       23.096 -21.572   4.602  0.00  0.00    -0.360 OA
ATOM     19  H   LIG    1       23.502 -22.008   3.837  0.00  0.00    +0.213 HD
ENDBRANCH   1  18
BRANCH   7  20
ATOM     20  C   LIG    1       26.608 -17.933   4.674  0.00  0.00    +0.011 C 
BRANCH  20  21
ATOM     21  C   LIG    1       26.778 -17.239   3.318  0.00  0.00    +0.001 C 
BRANCH  21  22
ATOM     22  C   LIG    1       26.237 -15.810   3.271  0.00  0.00    +0.000 C 
BRANCH  22  23
ATOM     23  C   LIG    1       27.148 -14.840   4.034  0.00  0.00    +0.000 C 
BRANCH  23  24
ATOM     24  C   LIG    1       27.045 -13.385   3.553  0.00  0.00    +0.011 C 
BRANCH  24  25
ATOM     25  C   LIG    1       26.174 -13.233   2.302  0.00  0.00    +0.120 C 
BRANCH  25  26
ATOM     26  C   LIG    1       24.807 -12.689   2.598  0.00  0.00    +0.305 C 
ATOM     27  O   LIG    1       24.520 -11.855   3.454  0.00  0.00    -0.251 OA
BRANCH  26  28
ATOM     28  O   LIG    1       23.851 -13.192   1.815  0.00  0.00    -0.481 OA
ATOM     29  H   LIG    1       23.029 -13.013   2.319  0.00  0.00    +0.295 HD
ENDBRANCH  26  28
ENDBRANCH  25  26
ENDBRANCH  24  25
ENDBRANCH  23  24
ENDBRANCH  22  23
ENDBRANCH  21  22
ENDBRANCH  20  21
ENDBRANCH   7  20
TORSDOF 13
ENDMDL
MODEL 3
REMARK VINA RESULT:      -2.1      2.181      7.328
REMARK  Name = *****
REMARK                            x       y       z     vdW  Elec       q    Type
REMARK                         _______ _______ _______ _____ _____    ______ ____
ROOT
ATOM      1  C   LIG    1       27.093 -15.061   3.637  0.00  0.00    +0.233 C 
ATOM      2  O   LIG    1       26.313 -14.450   4.681  0.00  0.00    -0.340 OA
ATOM      3  C   LIG    1       26.233 -13.033   4.605  0.00  0.00    +0.133 C 
ATOM      4  C   LIG    1       25.311 -12.507   5.706  0.00  0.00    +0.106 C 
ATOM      5  C   LIG    1       24.040 -12.205   4.958  0.00  0.00    +0.139 C 
ATOM      6  O   LIG    1       23.094 -11.600   5.451  0.00  0.00    -0.297 OA
ATOM      7  C   LIG    1       24.073 -12.689   3.522  0.00  0.00    +0.061 C 
ATOM      8  C   LIG    1       25.596 -12.568   3.295  0.00  0.00    +0.029 C 
ATOM      9  C   LIG    1       26.176 -13.250   2.063  0.00  0.00    +0.012 C 
ATOM     10  C   LIG    1       26.494 -14.730   2.254  0.00  0.00    +0.071 C 
ENDROOT
BRANCH   1  11
ATOM     11  C   LIG    1       27.058 -16.620   3.850  0.00  0.00    +0.301 C 
ATOM     12  F   LIG    1       25.939 -16.941   4.566  0.00  0.00    -0.200 F 
ATOM     13  F   LIG    1       26.912 -17.239   2.642  0.00  0.00    -0.200 F 
BRANCH  11  14
ATOM     14  C   LIG    1       28.292 -17.188   4.563  0.00  0.00    +0.081 C 
BRANCH  14  15
ATOM     15  C   LIG    1       28.118 -18.653   5.010  0.00  0.00    +0.006 C 
BRANCH  15  17
ATOM     16  C   LIG    1       28.982 -20.509   6.543  0.00  0.00    +0.004 C 
ATOM     17  C   LIG    1       29.156 -19.068   6.067  0.00  0.00    -0.003 C 
ENDBRANCH  15  17
ENDBRANCH  14  15
ENDBRANCH  11  14
ENDBRANCH   1  11
BRANCH   1  18
ATOM     18  O   LIG    1       28.440 -14.583   3.729  0.00  0.00    -0.360 OA
ATOM     19  H   LIG    1       28.423 -13.682   4.089  0.00  0.00    +0.213 HD
ENDBRANCH   1  18
BRANCH   7  20
ATOM     20  C   LIG    1       23.419 -14.077   3.388  0.00  0.00    +0.011 C 
BRANCH  20  21
ATOM     21  C   LIG    1       23.354 -14.798   4.740  0.00  0.00    +0.001 C 
BRANCH  21  22
ATOM     22  C   LIG    1       22.336 -15.937   4.796  0.00  0.00    +0.000 C 
BRANCH  22  23
ATOM     23  C   LIG    1       22.908 -17.230   4.197  0.00  0.00    +0.000 C 
BRANCH  23  24
ATOM     24  C   LIG    1       22.019 -18.462   4.419  0.00  0.00    +0.011 C 
BRANCH  24  25
ATOM     25  C   LIG    1       22.720 -19.564   5.219  0.00  0.00    +0.120 C 
BRANCH  25  26
ATOM     26  C   LIG    1       23.757 -20.301   4.423  0.00  0.00    +0.305 C 
ATOM     27  O   LIG    1       24.832 -19.855   4.030  0.00  0.00    -0.251 OA
BRANCH  26  28
ATOM     28  O   LIG    1       23.426 -21.566   4.156  0.00  0.00    -0.481 OA
ATOM     29  H   LIG    1       24.279 -22.043   4.225  0.00  0.00    +0.295 HD
ENDBRANCH  26  28
ENDBRANCH  25  26
ENDBRANCH  24  25
ENDBRANCH  23  24
ENDBRANCH  22  23
ENDBRANCH  21  22
ENDBRANCH  20  21
ENDBRANCH   7  20
TORSDOF 13
ENDMDL
