MODEL 1
REMARK VINA RESULT:      -3.0      0.000      0.000
REMARK  Name = *****
REMARK                            x       y       z     vdW  Elec       q    Type
REMARK                         _______ _______ _______ _____ _____    ______ ____
ROOT
ATOM      1  C   LIG    1       26.595 -13.825   3.848  0.00  0.00    +0.140 C 
ATOM      2  C   LIG    1       25.922 -12.799   2.939  0.00  0.00    +0.239 C 
ATOM      3  O   LIG    1       26.364 -12.559   1.812  0.00  0.00    -0.274 OA
ATOM      4  N   LIG    1       24.746 -12.226   3.402  0.00  0.00    -0.228 N 
ATOM      5  C   LIG    1       23.950 -11.447   2.473  0.00  0.00    +0.143 C 
ATOM      6  C   LIG    1       24.377 -12.200   4.730  0.00  0.00    +0.315 C 
ATOM      7  O   LIG    1       23.399 -11.589   5.159  0.00  0.00    -0.252 OA
ATOM      8  N   LIG    1       25.182 -12.868   5.605  0.00  0.00    -0.239 N 
ATOM      9  H   LIG    1       24.939 -12.784   6.582  0.00  0.00    +0.159 HD
ATOM     10  C   LIG    1       26.294 -13.598   5.313  0.00  0.00    +0.237 C 
ATOM     11  O   LIG    1       26.954 -14.094   6.227  0.00  0.00    -0.274 OA
ENDROOT
BRANCH   1  12
ATOM     12  C   LIG    1       26.042 -15.230   3.413  0.00  0.00    +0.085 C 
ATOM     13  C   LIG    1       26.929 -16.427   3.770  0.00  0.00    +0.023 C 
BRANCH  12  14
ATOM     14  C   LIG    1       24.684 -15.481   3.946  0.00  0.00    -0.098 C 
ATOM     15  C   LIG    1       23.590 -15.762   4.363  0.00  0.00    -0.102 C 
BRANCH  15  16
ATOM     16  C   LIG    1       22.272 -16.192   4.850  0.00  0.00    +0.085 C 
ATOM     17  C   LIG    1       22.069 -17.685   4.659  0.00  0.00    +0.017 C 
ENDBRANCH  15  16
ENDBRANCH  12  14
ENDBRANCH   1  12
BRANCH   1  18
ATOM     18  C   LIG    1       28.134 -13.752   3.632  0.00  0.00    +0.053 C 
BRANCH  18  20
ATOM     19  C   LIG    1       29.098 -11.867   4.986  0.00  0.00    +0.004 C 
ATOM     20  C   LIG    1       28.733 -12.373   3.800  0.00  0.00    -0.033 C 
ENDBRANCH  18  20
ENDBRANCH   1  18
TORSDOF 5
ENDMDL
MODEL 2
REMARK VINA RESULT:      -2.3      4.390      7.386
REMARK  Name = *****
REMARK                            x       y       z     vdW  Elec       q    Type
REMARK                         _______ _______ _______ _____ _____    ______ ____
ROOT
ATOM      1  C   LIG    1       23.061 -19.635   4.483  0.00  0.00    +0.140 C 
ATOM      2  C   LIG    1       23.112 -18.111   4.414  0.00  0.00    +0.239 C 
ATOM      3  O   LIG    1       22.157 -17.424   4.787  0.00  0.00    -0.274 OA
ATOM      4  N   LIG    1       24.309 -17.541   4.006  0.00  0.00    -0.228 N 
ATOM      5  C   LIG    1       24.478 -16.109   4.170  0.00  0.00    +0.143 C 
ATOM      6  C   LIG    1       25.276 -18.216   3.292  0.00  0.00    +0.315 C 
ATOM      7  O   LIG    1       26.281 -17.683   2.823  0.00  0.00    -0.252 OA
ATOM      8  N   LIG    1       25.063 -19.544   3.073  0.00  0.00    -0.239 N 
ATOM      9  H   LIG    1       25.743 -20.012   2.491  0.00  0.00    +0.159 HD
ATOM     10  C   LIG    1       24.018 -20.299   3.516  0.00  0.00    +0.237 C 
ATOM     11  O   LIG    1       23.936 -21.480   3.180  0.00  0.00    -0.274 OA
ENDROOT
BRANCH   1  12
ATOM     12  C   LIG    1       23.452 -20.025   5.953  0.00  0.00    +0.085 C 
ATOM     13  C   LIG    1       22.708 -21.232   6.535  0.00  0.00    +0.023 C 
BRANCH  12  14
ATOM     14  C   LIG    1       24.907 -20.260   6.098  0.00  0.00    -0.098 C 
ATOM     15  C   LIG    1       26.080 -20.445   6.294  0.00  0.00    -0.102 C 
BRANCH  15  16
ATOM     16  C   LIG    1       27.495 -20.662   6.623  0.00  0.00    +0.085 C 
ATOM     17  C   LIG    1       28.402 -19.761   5.802  0.00  0.00    +0.017 C 
ENDBRANCH  15  16
ENDBRANCH  12  14
ENDBRANCH   1  12
BRANCH   1  18
ATOM     18  C   LIG    1       21.613 -20.103   4.158  0.00  0.00    +0.053 C 
BRANCH  18  20
ATOM     19  C   LIG    1       19.444 -19.118   3.361  0.00  0.00    +0.004 C 
ATOM     20  C   LIG    1       20.783 -19.105   3.382  0.00  0.00    -0.033 C 
ENDBRANCH  18  20
ENDBRANCH   1  18
TORSDOF 5
ENDMDL
MODEL 3
REMARK VINA RESULT:      -2.1      1.645      2.884
REMARK  Name = *****
REMARK                            x       y       z     vdW  Elec       q    Type
REMARK                         _______ _______ _______ _____ _____    ______ ____
ROOT
ATOM      1  C   LIG    1       26.896 -14.249   4.146  0.00  0.00    +0.140 C 
ATOM      2  C   LIG    1       26.168 -13.613   2.964  0.00  0.00    +0.239 C 
ATOM      3  O   LIG    1       26.607 -13.715   1.815  0.00  0.00    -0.274 OA
ATOM      4  N   LIG    1       24.951 -13.003   3.231  0.00  0.00    -0.228 N 
ATOM      5  C   LIG    1       24.117 -12.615   2.109  0.00  0.00    +0.143 C 
ATOM      6  C   LIG    1       24.565 -12.579   4.485  0.00  0.00    +0.315 C 
ATOM      7  O   LIG    1       23.543 -11.930   4.706  0.00  0.00    -0.252 OA
ATOM      8  N   LIG    1       25.400 -12.878   5.519  0.00  0.00    -0.239 N 
ATOM      9  H   LIG    1       25.141 -12.504   6.421  0.00  0.00    +0.159 HD
ATOM     10  C   LIG    1       26.563 -13.587   5.465  0.00  0.00    +0.237 C 
ATOM     11  O   LIG    1       27.242 -13.721   6.484  0.00  0.00    -0.274 OA
ENDROOT
BRANCH   1  12
ATOM     12  C   LIG    1       26.443 -15.752   4.187  0.00  0.00    +0.085 C 
ATOM     13  C   LIG    1       25.711 -16.255   2.938  0.00  0.00    +0.023 C 
BRANCH  12  14
ATOM     14  C   LIG    1       27.576 -16.666   4.462  0.00  0.00    -0.098 C 
ATOM     15  C   LIG    1       28.454 -17.438   4.747  0.00  0.00    -0.102 C 
BRANCH  15  16
ATOM     16  C   LIG    1       29.475 -18.410   5.163  0.00  0.00    +0.085 C 
ATOM     17  C   LIG    1       29.117 -19.059   6.488  0.00  0.00    +0.017 C 
ENDBRANCH  15  16
ENDBRANCH  12  14
ENDBRANCH   1  12
BRANCH   1  18
ATOM     18  C   LIG    1       28.429 -14.145   3.904  0.00  0.00    +0.053 C 
BRANCH  18  20
ATOM     19  C   LIG    1       29.143 -11.865   4.682  0.00  0.00    +0.004 C 
ATOM     20  C   LIG    1       28.944 -12.739   3.686  0.00  0.00    -0.033 C 
ENDBRANCH  18  20
ENDBRANCH   1  18
TORSDOF 5
ENDMDL
MODEL 4
REMARK VINA RESULT:      -1.7      1.787      3.714
REMARK  Name = *****
REMARK                            x       y       z     vdW  Elec       q    Type
REMARK                         _______ _______ _______ _____ _____    ______ ____
ROOT
ATOM      1  C   LIG    1       26.090 -14.295   3.939  0.00  0.00    +0.140 C 
ATOM      2  C   LIG    1       26.948 -13.734   5.071  0.00  0.00    +0.239 C 
ATOM      3  O   LIG    1       26.748 -14.061   6.244  0.00  0.00    -0.274 OA
ATOM      4  N   LIG    1       28.013 -12.922   4.709  0.00  0.00    -0.228 N 
ATOM      5  C   LIG    1       28.993 -12.581   5.723  0.00  0.00    +0.143 C 
ATOM      6  C   LIG    1       28.105 -12.274   3.495  0.00  0.00    +0.315 C 
ATOM      7  O   LIG    1       28.984 -11.459   3.216  0.00  0.00    -0.252 OA
ATOM      8  N   LIG    1       27.130 -12.541   2.581  0.00  0.00    -0.239 N 
ATOM      9  H   LIG    1       27.170 -12.010   1.723  0.00  0.00    +0.159 HD
ATOM     10  C   LIG    1       26.090 -13.412   2.710  0.00  0.00    +0.237 C 
ATOM     11  O   LIG    1       25.251 -13.496   1.813  0.00  0.00    -0.274 OA
ENDROOT
BRANCH   1  12
ATOM     12  C   LIG    1       26.700 -15.695   3.575  0.00  0.00    +0.085 C 
ATOM     13  C   LIG    1       27.905 -16.129   4.417  0.00  0.00    +0.023 C 
BRANCH  12  14
ATOM     14  C   LIG    1       25.685 -16.772   3.624  0.00  0.00    -0.098 C 
ATOM     15  C   LIG    1       24.917 -17.699   3.641  0.00  0.00    -0.102 C 
BRANCH  15  16
ATOM     16  C   LIG    1       24.048 -18.884   3.637  0.00  0.00    +0.085 C 
ATOM     17  C   LIG    1       22.688 -18.579   4.240  0.00  0.00    +0.017 C 
ENDBRANCH  15  16
ENDBRANCH  12  14
ENDBRANCH   1  12
BRANCH   1  18
ATOM     18  C   LIG    1       24.629 -14.449   4.449  0.00  0.00    +0.053 C 
BRANCH  18  20
ATOM     19  C   LIG    1       23.943 -12.098   5.011  0.00  0.00    +0.004 C 
ATOM     20  C   LIG    1       23.768 -13.216   4.292  0.00  0.00    -0.033 C 
ENDBRANCH  18  20
ENDBRANCH   1  18
TORSDOF 5
ENDMDL
