MODEL 1
REMARK VINA RESULT:      -9.2      0.000      0.000
REMARK  Name = *****
REMARK                            x       y       z     vdW  Elec       q    Type
REMARK                         _______ _______ _______ _____ _____    ______ ____
ROOT
ATOM      1  C   LIG    1       24.682 -21.234   7.120  0.00  0.00    +0.120 C 
ATOM      2  C   LIG    1       26.067 -20.694   6.809  0.00  0.00    -0.006 A 
ATOM      3  C   LIG    1       26.760 -20.470   7.993  0.00  0.00    -0.014 A 
ATOM      4  C   LIG    1       28.063 -19.980   8.012  0.00  0.00    +0.025 A 
ATOM      5  C   LIG    1       28.686 -19.702   6.792  0.00  0.00    +0.052 A 
ATOM      6  C   LIG    1       27.997 -19.927   5.588  0.00  0.00    +0.019 A 
ATOM      7  C   LIG    1       25.911 -20.861   9.142  0.00  0.00    +0.197 C 
ATOM      8  C   LIG    1       26.680 -20.420   5.593  0.00  0.00    +0.008 A 
ATOM      9  O   LIG    1       24.601 -21.069   8.573  0.00  0.00    -0.359 OA
ENDROOT
BRANCH   1  10
ATOM     10  C   LIG    1       24.533 -22.723   6.752  0.00  0.00    -0.011 A 
ATOM     11  C   LIG    1       23.286 -23.375   6.851  0.00  0.00    +0.009 A 
ATOM     12  C   LIG    1       23.150 -24.731   6.532  0.00  0.00    +0.039 A 
ATOM     13  C   LIG    1       24.257 -25.452   6.109  0.00  0.00    +0.123 A 
ATOM     14  F   LIG    1       24.127 -26.751   5.808  0.00  0.00    -0.205 F 
ATOM     15  C   LIG    1       25.498 -24.845   5.999  0.00  0.00    +0.039 A 
ATOM     16  C   LIG    1       25.636 -23.490   6.321  0.00  0.00    +0.009 A 
ENDBRANCH   1  10
BRANCH   5  17
ATOM     17  C   LIG    1       30.033 -19.192   6.770  0.00  0.00    +0.099 C 
ATOM     18  N   LIG    1       31.113 -18.778   6.757  0.00  0.00    -0.191 NA
ENDBRANCH   5  17
BRANCH   1  19
ATOM     19  C   LIG    1       23.548 -20.352   6.513  0.00  0.00    +0.046 C 
BRANCH  19  20
ATOM     20  C   LIG    1       22.952 -20.897   5.197  0.00  0.00    +0.019 C 
BRANCH  20  21
ATOM     21  C   LIG    1       23.712 -20.464   3.923  0.00  0.00    +0.084 C 
BRANCH  21  23
ATOM     22  C   LIG    1       24.718 -18.290   3.605  0.00  0.00    +0.104 C 
ATOM     23  N   LIG    1       23.485 -19.076   3.472  0.00  0.00    -0.308 NA
ATOM     24  C   LIG    1       22.396 -18.433   4.210  0.00  0.00    +0.104 C 
ENDBRANCH  21  23
ENDBRANCH  20  21
ENDBRANCH  19  20
ENDBRANCH   1  19
TORSDOF 6
ENDMDL
MODEL 2
REMARK VINA RESULT:      -9.1      3.039      6.040
REMARK  Name = *****
REMARK                            x       y       z     vdW  Elec       q    Type
REMARK                         _______ _______ _______ _____ _____    ______ ____
ROOT
ATOM      1  C   LIG    1       24.310 -22.027   7.143  0.00  0.00    +0.120 C 
ATOM      2  C   LIG    1       24.765 -23.416   6.731  0.00  0.00    -0.006 A 
ATOM      3  C   LIG    1       23.663 -24.256   6.624  0.00  0.00    -0.014 A 
ATOM      4  C   LIG    1       23.780 -25.594   6.253  0.00  0.00    +0.025 A 
ATOM      5  C   LIG    1       25.056 -26.100   5.985  0.00  0.00    +0.052 A 
ATOM      6  C   LIG    1       26.177 -25.258   6.087  0.00  0.00    +0.019 A 
ATOM      7  C   LIG    1       22.430 -23.494   6.927  0.00  0.00    +0.197 C 
ATOM      8  C   LIG    1       26.035 -23.911   6.465  0.00  0.00    +0.008 A 
ATOM      9  O   LIG    1       22.899 -22.244   7.472  0.00  0.00    -0.359 OA
ENDROOT
BRANCH   1  10
ATOM     10  C   LIG    1       24.431 -21.002   5.998  0.00  0.00    -0.011 A 
ATOM     11  C   LIG    1       23.324 -20.225   5.598  0.00  0.00    +0.009 A 
ATOM     12  C   LIG    1       23.425 -19.305   4.548  0.00  0.00    +0.039 A 
ATOM     13  C   LIG    1       24.635 -19.147   3.888  0.00  0.00    +0.123 A 
ATOM     14  F   LIG    1       24.731 -18.269   2.880  0.00  0.00    -0.205 F 
ATOM     15  C   LIG    1       25.744 -19.893   4.253  0.00  0.00    +0.039 A 
ATOM     16  C   LIG    1       25.643 -20.815   5.300  0.00  0.00    +0.009 A 
ENDBRANCH   1  10
BRANCH   5  17
ATOM     17  C   LIG    1       25.218 -27.478   5.601  0.00  0.00    +0.099 C 
ATOM     18  N   LIG    1       25.342 -28.586   5.292  0.00  0.00    -0.191 NA
ENDBRANCH   5  17
BRANCH   1  19
ATOM     19  C   LIG    1       24.998 -21.539   8.455  0.00  0.00    +0.046 C 
BRANCH  19  20
ATOM     20  C   LIG    1       26.200 -20.595   8.233  0.00  0.00    +0.019 C 
BRANCH  20  21
ATOM     21  C   LIG    1       27.568 -21.310   8.149  0.00  0.00    +0.084 C 
BRANCH  21  23
ATOM     22  C   LIG    1       28.804 -19.728   6.804  0.00  0.00    +0.104 C 
ATOM     23  N   LIG    1       28.755 -20.433   8.091  0.00  0.00    -0.308 NA
ATOM     24  C   LIG    1       29.996 -21.179   8.305  0.00  0.00    +0.104 C 
ENDBRANCH  21  23
ENDBRANCH  20  21
ENDBRANCH  19  20
ENDBRANCH   1  19
TORSDOF 6
ENDMDL
MODEL 3
REMARK VINA RESULT:      -8.9      3.158      6.178
REMARK  Name = *****
REMARK                            x       y       z     vdW  Elec       q    Type
REMARK                         _______ _______ _______ _____ _____    ______ ____
ROOT
ATOM      1  C   LIG    1       25.876 -21.962   6.851  0.00  0.00    +0.120 C 
ATOM      2  C   LIG    1       24.893 -21.246   5.941  0.00  0.00    -0.006 A 
ATOM      3  C   LIG    1       23.920 -20.616   6.706  0.00  0.00    -0.014 A 
ATOM      4  C   LIG    1       22.888 -19.874   6.136  0.00  0.00    +0.025 A 
ATOM      5  C   LIG    1       22.837 -19.770   4.742  0.00  0.00    +0.052 A 
ATOM      6  C   LIG    1       23.817 -20.401   3.958  0.00  0.00    +0.019 A 
ATOM      7  C   LIG    1       24.198 -20.844   8.143  0.00  0.00    +0.197 C 
ATOM      8  C   LIG    1       24.849 -21.147   4.556  0.00  0.00    +0.008 A 
ATOM      9  O   LIG    1       25.224 -21.857   8.159  0.00  0.00    -0.359 OA
ENDROOT
BRANCH   1  10
ATOM     10  C   LIG    1       27.252 -21.272   6.893  0.00  0.00    -0.011 A 
ATOM     11  C   LIG    1       28.243 -21.681   7.809  0.00  0.00    +0.009 A 
ATOM     12  C   LIG    1       29.490 -21.045   7.861  0.00  0.00    +0.039 A 
ATOM     13  C   LIG    1       29.762 -19.995   6.996  0.00  0.00    +0.123 A 
ATOM     14  F   LIG    1       30.953 -19.385   7.049  0.00  0.00    -0.205 F 
ATOM     15  C   LIG    1       28.813 -19.566   6.082  0.00  0.00    +0.039 A 
ATOM     16  C   LIG    1       27.566 -20.198   6.032  0.00  0.00    +0.009 A 
ENDBRANCH   1  10
BRANCH   5  17
ATOM     17  C   LIG    1       21.784 -19.013   4.114  0.00  0.00    +0.099 C 
ATOM     18  N   LIG    1       20.939 -18.401   3.614  0.00  0.00    -0.191 NA
ENDBRANCH   5  17
BRANCH   1  19
ATOM     19  C   LIG    1       25.982 -23.486   6.533  0.00  0.00    +0.046 C 
BRANCH  19  20
ATOM     20  C   LIG    1       24.650 -24.257   6.656  0.00  0.00    +0.019 C 
BRANCH  20  21
ATOM     21  C   LIG    1       24.508 -25.449   5.682  0.00  0.00    +0.084 C 
BRANCH  21  23
ATOM     22  C   LIG    1       26.236 -26.984   4.975  0.00  0.00    +0.104 C 
ATOM     23  N   LIG    1       25.267 -26.666   6.032  0.00  0.00    -0.308 NA
ATOM     24  C   LIG    1       24.386 -27.811   6.268  0.00  0.00    +0.104 C 
ENDBRANCH  21  23
ENDBRANCH  20  21
ENDBRANCH  19  20
ENDBRANCH   1  19
TORSDOF 6
ENDMDL
MODEL 4
REMARK VINA RESULT:      -7.8      1.659      5.327
REMARK  Name = *****
REMARK                            x       y       z     vdW  Elec       q    Type
REMARK                         _______ _______ _______ _____ _____    ______ ____
ROOT
ATOM      1  C   LIG    1       25.589 -21.623   6.481  0.00  0.00    +0.120 C 
ATOM      2  C   LIG    1       24.377 -20.884   5.942  0.00  0.00    -0.006 A 
ATOM      3  C   LIG    1       24.744 -20.130   4.834  0.00  0.00    -0.014 A 
ATOM      4  C   LIG    1       23.830 -19.351   4.128  0.00  0.00    +0.025 A 
ATOM      5  C   LIG    1       22.501 -19.330   4.560  0.00  0.00    +0.052 A 
ATOM      6  C   LIG    1       22.118 -20.091   5.678  0.00  0.00    +0.019 A 
ATOM      7  C   LIG    1       26.184 -20.332   4.554  0.00  0.00    +0.197 C 
ATOM      8  C   LIG    1       23.058 -20.868   6.377  0.00  0.00    +0.008 A 
ATOM      9  O   LIG    1       26.686 -21.029   5.713  0.00  0.00    -0.359 OA
ENDROOT
BRANCH   1  10
ATOM     10  C   LIG    1       25.522 -23.139   6.215  0.00  0.00    -0.011 A 
ATOM     11  C   LIG    1       24.967 -23.644   5.020  0.00  0.00    +0.009 A 
ATOM     12  C   LIG    1       24.891 -25.021   4.781  0.00  0.00    +0.039 A 
ATOM     13  C   LIG    1       25.370 -25.911   5.732  0.00  0.00    +0.123 A 
ATOM     14  F   LIG    1       25.293 -27.229   5.505  0.00  0.00    -0.205 F 
ATOM     15  C   LIG    1       25.922 -25.452   6.917  0.00  0.00    +0.039 A 
ATOM     16  C   LIG    1       25.995 -24.076   7.158  0.00  0.00    +0.009 A 
ENDBRANCH   1  10
BRANCH   5  17
ATOM     17  C   LIG    1       21.526 -18.535   3.858  0.00  0.00    +0.099 C 
ATOM     18  N   LIG    1       20.742 -17.902   3.290  0.00  0.00    -0.191 NA
ENDBRANCH   5  17
BRANCH   1  19
ATOM     19  C   LIG    1       25.871 -21.292   7.980  0.00  0.00    +0.046 C 
BRANCH  19  20
ATOM     20  C   LIG    1       27.136 -20.440   8.217  0.00  0.00    +0.019 C 
BRANCH  20  21
ATOM     21  C   LIG    1       28.454 -21.248   8.256  0.00  0.00    +0.084 C 
BRANCH  21  23
ATOM     22  C   LIG    1       29.951 -19.887   6.935  0.00  0.00    +0.104 C 
ATOM     23  N   LIG    1       29.700 -20.456   8.265  0.00  0.00    -0.308 NA
ATOM     24  C   LIG    1       30.850 -21.252   8.697  0.00  0.00    +0.104 C 
ENDBRANCH  21  23
ENDBRANCH  20  21
ENDBRANCH  19  20
ENDBRANCH   1  19
TORSDOF 6
ENDMDL
MODEL 5
REMARK VINA RESULT:      -7.7      2.937      6.126
REMARK  Name = *****
REMARK                            x       y       z     vdW  Elec       q    Type
REMARK                         _______ _______ _______ _____ _____    ______ ____
ROOT
ATOM      1  C   LIG    1       25.163 -21.321   6.015  0.00  0.00    +0.120 C 
ATOM      2  C   LIG    1       24.999 -22.812   5.775  0.00  0.00    -0.006 A 
ATOM      3  C   LIG    1       24.579 -23.431   6.946  0.00  0.00    -0.014 A 
ATOM      4  C   LIG    1       24.340 -24.801   7.020  0.00  0.00    +0.025 A 
ATOM      5  C   LIG    1       24.536 -25.572   5.870  0.00  0.00    +0.052 A 
ATOM      6  C   LIG    1       24.959 -24.957   4.680  0.00  0.00    +0.019 A 
ATOM      7  C   LIG    1       24.416 -22.415   8.010  0.00  0.00    +0.197 C 
ATOM      8  C   LIG    1       25.196 -23.572   4.629  0.00  0.00    +0.008 A 
ATOM      9  O   LIG    1       25.018 -21.220   7.469  0.00  0.00    -0.359 OA
ENDROOT
BRANCH   1  10
ATOM     10  C   LIG    1       24.070 -20.488   5.319  0.00  0.00    -0.011 A 
ATOM     11  C   LIG    1       24.405 -19.474   4.397  0.00  0.00    +0.009 A 
ATOM     12  C   LIG    1       23.415 -18.704   3.774  0.00  0.00    +0.039 A 
ATOM     13  C   LIG    1       22.079 -18.939   4.063  0.00  0.00    +0.123 A 
ATOM     14  F   LIG    1       21.132 -18.200   3.471  0.00  0.00    -0.205 F 
ATOM     15  C   LIG    1       21.712 -19.927   4.963  0.00  0.00    +0.039 A 
ATOM     16  C   LIG    1       22.701 -20.695   5.589  0.00  0.00    +0.009 A 
ENDBRANCH   1  10
BRANCH   5  17
ATOM     17  C   LIG    1       24.302 -26.993   5.906  0.00  0.00    +0.099 C 
ATOM     18  N   LIG    1       24.117 -28.135   5.941  0.00  0.00    -0.191 NA
ENDBRANCH   5  17
BRANCH   1  19
ATOM     19  C   LIG    1       26.601 -20.818   5.680  0.00  0.00    +0.046 C 
BRANCH  19  20
ATOM     20  C   LIG    1       27.384 -20.273   6.894  0.00  0.00    +0.019 C 
BRANCH  20  21
ATOM     21  C   LIG    1       28.919 -20.418   6.782  0.00  0.00    +0.084 C 
BRANCH  21  23
ATOM     22  C   LIG    1       29.491 -18.362   5.648  0.00  0.00    +0.104 C 
ATOM     23  N   LIG    1       29.696 -19.165   6.861  0.00  0.00    -0.308 NA
ATOM     24  C   LIG    1       31.124 -19.418   7.062  0.00  0.00    +0.104 C 
ENDBRANCH  21  23
ENDBRANCH  20  21
ENDBRANCH  19  20
ENDBRANCH   1  19
TORSDOF 6
ENDMDL
MODEL 6
REMARK VINA RESULT:      -7.4      3.211      5.660
REMARK  Name = *****
REMARK                            x       y       z     vdW  Elec       q    Type
REMARK                         _______ _______ _______ _____ _____    ______ ____
ROOT
ATOM      1  C   LIG    1       25.022 -22.256   6.250  0.00  0.00    +0.120 C 
ATOM      2  C   LIG    1       25.186 -23.766   6.277  0.00  0.00    -0.006 A 
ATOM      3  C   LIG    1       24.963 -24.284   5.007  0.00  0.00    -0.014 A 
ATOM      4  C   LIG    1       25.053 -25.646   4.731  0.00  0.00    +0.025 A 
ATOM      5  C   LIG    1       25.376 -26.515   5.778  0.00  0.00    +0.052 A 
ATOM      6  C   LIG    1       25.606 -26.003   7.066  0.00  0.00    +0.019 A 
ATOM      7  C   LIG    1       24.667 -23.177   4.068  0.00  0.00    +0.197 C 
ATOM      8  C   LIG    1       25.507 -24.623   7.321  0.00  0.00    +0.008 A 
ATOM      9  O   LIG    1       24.469 -22.025   4.914  0.00  0.00    -0.359 OA
ENDROOT
BRANCH   1  10
ATOM     10  C   LIG    1       26.364 -21.514   6.398  0.00  0.00    -0.011 A 
ATOM     11  C   LIG    1       26.695 -20.434   5.553  0.00  0.00    +0.009 A 
ATOM     12  C   LIG    1       27.920 -19.767   5.675  0.00  0.00    +0.039 A 
ATOM     13  C   LIG    1       28.828 -20.169   6.643  0.00  0.00    +0.123 A 
ATOM     14  F   LIG    1       30.001 -19.533   6.757  0.00  0.00    -0.205 F 
ATOM     15  C   LIG    1       28.537 -21.226   7.492  0.00  0.00    +0.039 A 
ATOM     16  C   LIG    1       27.315 -21.895   7.369  0.00  0.00    +0.009 A 
ENDBRANCH   1  10
BRANCH   5  17
ATOM     17  C   LIG    1       25.476 -27.932   5.534  0.00  0.00    +0.099 C 
ATOM     18  N   LIG    1       25.552 -29.068   5.334  0.00  0.00    -0.191 NA
ENDBRANCH   5  17
BRANCH   1  19
ATOM     19  C   LIG    1       23.947 -21.756   7.264  0.00  0.00    +0.046 C 
BRANCH  19  20
ATOM     20  C   LIG    1       23.395 -20.346   6.963  0.00  0.00    +0.019 C 
BRANCH  20  21
ATOM     21  C   LIG    1       22.646 -20.226   5.617  0.00  0.00    +0.084 C 
BRANCH  21  23
ATOM     22  C   LIG    1       21.644 -18.471   4.291  0.00  0.00    +0.104 C 
ATOM     23  N   LIG    1       22.901 -18.998   4.839  0.00  0.00    -0.308 NA
ATOM     24  C   LIG    1       23.864 -19.223   3.760  0.00  0.00    +0.104 C 
ENDBRANCH  21  23
ENDBRANCH  20  21
ENDBRANCH  19  20
ENDBRANCH   1  19
TORSDOF 6
ENDMDL
MODEL 7
REMARK VINA RESULT:      -6.5      6.530      9.046
REMARK  Name = *****
REMARK                            x       y       z     vdW  Elec       q    Type
REMARK                         _______ _______ _______ _____ _____    ______ ____
ROOT
ATOM      1  C   LIG    1       24.598 -30.103   7.639  0.00  0.00    +0.120 C 
ATOM      2  C   LIG    1       25.219 -29.534   8.902  0.00  0.00    -0.006 A 
ATOM      3  C   LIG    1       24.563 -30.043  10.017  0.00  0.00    -0.014 A 
ATOM      4  C   LIG    1       24.926 -29.699  11.316  0.00  0.00    +0.025 A 
ATOM      5  C   LIG    1       25.986 -28.805  11.495  0.00  0.00    +0.052 A 
ATOM      6  C   LIG    1       26.658 -28.286  10.376  0.00  0.00    +0.019 A 
ATOM      7  C   LIG    1       23.504 -30.981   9.580  0.00  0.00    +0.197 C 
ATOM      8  C   LIG    1       26.273 -28.646   9.072  0.00  0.00    +0.008 A 
ATOM      9  O   LIG    1       23.407 -30.783   8.154  0.00  0.00    -0.359 OA
ENDROOT
BRANCH   1  10
ATOM     10  C   LIG    1       25.519 -31.118   6.934  0.00  0.00    -0.011 A 
ATOM     11  C   LIG    1       26.502 -31.829   7.653  0.00  0.00    +0.009 A 
ATOM     12  C   LIG    1       27.351 -32.741   7.013  0.00  0.00    +0.039 A 
ATOM     13  C   LIG    1       27.225 -32.956   5.649  0.00  0.00    +0.123 A 
ATOM     14  F   LIG    1       28.040 -33.825   5.036  0.00  0.00    -0.205 F 
ATOM     15  C   LIG    1       26.270 -32.275   4.910  0.00  0.00    +0.039 A 
ATOM     16  C   LIG    1       25.424 -31.362   5.548  0.00  0.00    +0.009 A 
ENDBRANCH   1  10
BRANCH   5  17
ATOM     17  C   LIG    1       26.390 -28.422  12.824  0.00  0.00    +0.099 C 
ATOM     18  N   LIG    1       26.718 -28.120  13.892  0.00  0.00    -0.191 NA
ENDBRANCH   5  17
BRANCH   1  19
ATOM     19  C   LIG    1       24.086 -28.991   6.672  0.00  0.00    +0.046 C 
BRANCH  19  20
ATOM     20  C   LIG    1       25.074 -27.822   6.465  0.00  0.00    +0.019 C 
BRANCH  20  21
ATOM     21  C   LIG    1       24.455 -26.572   5.800  0.00  0.00    +0.084 C 
BRANCH  21  23
ATOM     22  C   LIG    1       25.857 -24.855   6.762  0.00  0.00    +0.104 C 
ATOM     23  N   LIG    1       25.386 -25.463   5.511  0.00  0.00    -0.308 NA
ATOM     24  C   LIG    1       24.776 -24.444   4.655  0.00  0.00    +0.104 C 
ENDBRANCH  21  23
ENDBRANCH  20  21
ENDBRANCH  19  20
ENDBRANCH   1  19
TORSDOF 6
ENDMDL
MODEL 8
REMARK VINA RESULT:      -6.5      6.559      9.679
REMARK  Name = *****
REMARK                            x       y       z     vdW  Elec       q    Type
REMARK                         _______ _______ _______ _____ _____    ______ ____
ROOT
ATOM      1  C   LIG    1       25.097 -30.046   7.693  0.00  0.00    +0.120 C 
ATOM      2  C   LIG    1       24.926 -28.699   7.014  0.00  0.00    -0.006 A 
ATOM      3  C   LIG    1       25.780 -27.769   7.594  0.00  0.00    -0.014 A 
ATOM      4  C   LIG    1       25.844 -26.446   7.166  0.00  0.00    +0.025 A 
ATOM      5  C   LIG    1       25.011 -26.047   6.116  0.00  0.00    +0.052 A 
ATOM      6  C   LIG    1       24.145 -26.979   5.519  0.00  0.00    +0.019 A 
ATOM      7  C   LIG    1       26.575 -28.427   8.657  0.00  0.00    +0.197 C 
ATOM      8  C   LIG    1       24.096 -28.310   5.970  0.00  0.00    +0.008 A 
ATOM      9  O   LIG    1       25.947 -29.713   8.839  0.00  0.00    -0.359 OA
ENDROOT
BRANCH   1  10
ATOM     10  C   LIG    1       25.807 -31.075   6.794  0.00  0.00    -0.011 A 
ATOM     11  C   LIG    1       26.762 -31.968   7.324  0.00  0.00    +0.009 A 
ATOM     12  C   LIG    1       27.421 -32.895   6.507  0.00  0.00    +0.039 A 
ATOM     13  C   LIG    1       27.133 -32.942   5.151  0.00  0.00    +0.123 A 
ATOM     14  F   LIG    1       27.767 -33.825   4.368  0.00  0.00    -0.205 F 
ATOM     15  C   LIG    1       26.201 -32.080   4.594  0.00  0.00    +0.039 A 
ATOM     16  C   LIG    1       25.544 -31.151   5.410  0.00  0.00    +0.009 A 
ENDBRANCH   1  10
BRANCH   5  17
ATOM     17  C   LIG    1       25.045 -24.686   5.645  0.00  0.00    +0.099 C 
ATOM     18  N   LIG    1       25.079 -23.593   5.268  0.00  0.00    -0.191 NA
ENDBRANCH   5  17
BRANCH   1  19
ATOM     19  C   LIG    1       23.759 -30.590   8.282  0.00  0.00    +0.046 C 
BRANCH  19  20
ATOM     20  C   LIG    1       23.579 -30.338   9.795  0.00  0.00    +0.019 C 
BRANCH  20  21
ATOM     21  C   LIG    1       22.724 -31.401  10.523  0.00  0.00    +0.084 C 
BRANCH  21  23
ATOM     22  C   LIG    1       20.326 -31.324  10.814  0.00  0.00    +0.104 C 
ATOM     23  N   LIG    1       21.417 -31.713   9.911  0.00  0.00    -0.308 NA
ATOM     24  C   LIG    1       21.301 -33.130   9.561  0.00  0.00    +0.104 C 
ENDBRANCH  21  23
ENDBRANCH  20  21
ENDBRANCH  19  20
ENDBRANCH   1  19
TORSDOF 6
ENDMDL
MODEL 9
REMARK VINA RESULT:      -6.4      7.016     10.308
REMARK  Name = *****
REMARK                            x       y       z     vdW  Elec       q    Type
REMARK                         _______ _______ _______ _____ _____    ______ ____
ROOT
ATOM      1  C   LIG    1       25.189 -30.385   8.486  0.00  0.00    +0.120 C 
ATOM      2  C   LIG    1       25.322 -29.082   7.718  0.00  0.00    -0.006 A 
ATOM      3  C   LIG    1       24.562 -29.142   6.557  0.00  0.00    -0.014 A 
ATOM      4  C   LIG    1       24.489 -28.081   5.657  0.00  0.00    +0.025 A 
ATOM      5  C   LIG    1       25.214 -26.920   5.941  0.00  0.00    +0.052 A 
ATOM      6  C   LIG    1       25.985 -26.846   7.113  0.00  0.00    +0.019 A 
ATOM      7  C   LIG    1       23.869 -30.449   6.489  0.00  0.00    +0.197 C 
ATOM      8  C   LIG    1       26.046 -27.931   8.006  0.00  0.00    +0.008 A 
ATOM      9  O   LIG    1       24.477 -31.239   7.532  0.00  0.00    -0.359 OA
ENDROOT
BRANCH   1  10
ATOM     10  C   LIG    1       24.358 -30.229   9.774  0.00  0.00    -0.011 A 
ATOM     11  C   LIG    1       24.931 -29.701  10.950  0.00  0.00    +0.009 A 
ATOM     12  C   LIG    1       24.182 -29.573  12.126  0.00  0.00    +0.039 A 
ATOM     13  C   LIG    1       22.852 -29.967  12.141  0.00  0.00    +0.123 A 
ATOM     14  F   LIG    1       22.138 -29.848  13.268  0.00  0.00    -0.205 F 
ATOM     15  C   LIG    1       22.256 -30.490  11.004  0.00  0.00    +0.039 A 
ATOM     16  C   LIG    1       23.004 -30.622   9.829  0.00  0.00    +0.009 A 
ENDBRANCH   1  10
BRANCH   5  17
ATOM     17  C   LIG    1       25.166 -25.801   5.034  0.00  0.00    +0.099 C 
ATOM     18  N   LIG    1       25.135 -24.904   4.305  0.00  0.00    -0.191 NA
ENDBRANCH   5  17
BRANCH   1  19
ATOM     19  C   LIG    1       26.568 -31.068   8.744  0.00  0.00    +0.046 C 
BRANCH  19  20
ATOM     20  C   LIG    1       26.476 -32.553   9.158  0.00  0.00    +0.019 C 
BRANCH  20  21
ATOM     21  C   LIG    1       27.293 -33.517   8.268  0.00  0.00    +0.084 C 
BRANCH  21  23
ATOM     22  C   LIG    1       26.292 -33.825   6.090  0.00  0.00    +0.104 C 
ATOM     23  N   LIG    1       27.373 -33.166   6.836  0.00  0.00    -0.308 NA
ATOM     24  C   LIG    1       28.671 -33.518   6.258  0.00  0.00    +0.104 C 
ENDBRANCH  21  23
ENDBRANCH  20  21
ENDBRANCH  19  20
ENDBRANCH   1  19
TORSDOF 6
ENDMDL
