MODEL 1
REMARK VINA RESULT:      -7.4      0.000      0.000
REMARK  Name = *****
REMARK                            x       y       z     vdW  Elec       q    Type
REMARK                         _______ _______ _______ _____ _____    ______ ____
ROOT
ATOM      1  O   LIG    1       25.899 -20.760   9.236  0.00  0.00    -0.270 OA
ATOM      2  C   LIG    1       26.174 -21.311   8.183  0.00  0.00    +0.246 C 
ATOM      3  N   LIG    1       27.293 -21.004   7.428  0.00  0.00    -0.308 N 
ATOM      4  H   LIG    1       27.381 -21.386   6.498  0.00  0.00    +0.149 HD
ENDROOT
BRANCH   2   5
ATOM      5  C   LIG    1       25.289 -22.367   7.622  0.00  0.00    +0.055 A 
ATOM      6  C   LIG    1       25.825 -23.591   7.243  0.00  0.00    +0.123 A 
ATOM      7  N   LIG    1       25.093 -24.602   6.704  0.00  0.00    -0.263 NA
ATOM      8  C   LIG    1       23.774 -24.370   6.520  0.00  0.00    +0.111 A 
ATOM      9  C   LIG    1       23.151 -23.179   6.859  0.00  0.00    +0.020 A 
ATOM     10  C   LIG    1       23.924 -22.162   7.417  0.00  0.00    +0.016 A 
ENDBRANCH   2   5
BRANCH   3  11
ATOM     11  C   LIG    1       28.263 -19.994   7.833  0.00  0.00    +0.153 C 
BRANCH  11  12
ATOM     12  C   LIG    1       29.714 -20.477   7.739  0.00  0.00    +0.339 C 
BRANCH  12  13
ATOM     13  O   LIG    1       29.965 -21.504   8.703  0.00  0.00    -0.215 OA
BRANCH  13  14
ATOM     14  N   LIG    1       31.320 -21.610   9.094  0.00  0.00    +0.284 N 
ATOM     15  O   LIG    1       31.953 -20.565   9.244  0.00  0.00    -0.534 OA
ATOM     16  O   LIG    1       31.691 -22.777   9.204  0.00  0.00    +0.093 OA
ENDBRANCH  13  14
ENDBRANCH  12  13
ENDBRANCH  11  12
ENDBRANCH   3  11
TORSDOF 5
ENDMDL
MODEL 2
REMARK VINA RESULT:      -7.4      2.487      2.728
REMARK  Name = *****
REMARK                            x       y       z     vdW  Elec       q    Type
REMARK                         _______ _______ _______ _____ _____    ______ ____
ROOT
ATOM      1  O   LIG    1       27.005 -20.410   8.715  0.00  0.00    -0.270 OA
ATOM      2  C   LIG    1       26.979 -20.527   7.502  0.00  0.00    +0.246 C 
ATOM      3  N   LIG    1       28.117 -20.589   6.715  0.00  0.00    -0.308 N 
ATOM      4  H   LIG    1       28.026 -20.533   5.711  0.00  0.00    +0.149 HD
ENDROOT
BRANCH   2   5
ATOM      5  C   LIG    1       25.686 -20.596   6.770  0.00  0.00    +0.055 A 
ATOM      6  C   LIG    1       25.663 -20.453   5.388  0.00  0.00    +0.123 A 
ATOM      7  N   LIG    1       24.525 -20.482   4.645  0.00  0.00    -0.263 NA
ATOM      8  C   LIG    1       23.362 -20.643   5.314  0.00  0.00    +0.111 A 
ATOM      9  C   LIG    1       23.283 -20.785   6.691  0.00  0.00    +0.020 A 
ATOM     10  C   LIG    1       24.466 -20.758   7.428  0.00  0.00    +0.016 A 
ENDBRANCH   2   5
BRANCH   3  11
ATOM     11  C   LIG    1       29.463 -20.535   7.271  0.00  0.00    +0.153 C 
BRANCH  11  12
ATOM     12  C   LIG    1       30.323 -19.422   6.666  0.00  0.00    +0.339 C 
BRANCH  12  13
ATOM     13  O   LIG    1       31.669 -19.510   7.143  0.00  0.00    -0.215 OA
BRANCH  13  14
ATOM     14  N   LIG    1       31.915 -18.757   8.316  0.00  0.00    +0.284 N 
ATOM     15  O   LIG    1       31.948 -17.531   8.210  0.00  0.00    -0.534 OA
ATOM     16  O   LIG    1       32.095 -19.466   9.304  0.00  0.00    +0.093 OA
ENDBRANCH  13  14
ENDBRANCH  12  13
ENDBRANCH  11  12
ENDBRANCH   3  11
TORSDOF 5
ENDMDL
MODEL 3
REMARK VINA RESULT:      -7.1      1.226      1.596
REMARK  Name = *****
REMARK                            x       y       z     vdW  Elec       q    Type
REMARK                         _______ _______ _______ _____ _____    ______ ____
ROOT
ATOM      1  O   LIG    1       26.015 -20.673   9.242  0.00  0.00    -0.270 OA
ATOM      2  C   LIG    1       26.237 -21.245   8.189  0.00  0.00    +0.246 C 
ATOM      3  N   LIG    1       27.359 -21.008   7.412  0.00  0.00    -0.308 N 
ATOM      4  H   LIG    1       27.407 -21.400   6.483  0.00  0.00    +0.149 HD
ENDROOT
BRANCH   2   5
ATOM      5  C   LIG    1       25.283 -22.251   7.651  0.00  0.00    +0.055 A 
ATOM      6  C   LIG    1       25.741 -23.505   7.266  0.00  0.00    +0.123 A 
ATOM      7  N   LIG    1       24.942 -24.475   6.746  0.00  0.00    -0.263 NA
ATOM      8  C   LIG    1       23.635 -24.169   6.589  0.00  0.00    +0.111 A 
ATOM      9  C   LIG    1       23.087 -22.944   6.935  0.00  0.00    +0.020 A 
ATOM     10  C   LIG    1       23.927 -21.971   7.472  0.00  0.00    +0.016 A 
ENDBRANCH   2   5
BRANCH   3  11
ATOM     11  C   LIG    1       28.393 -20.053   7.792  0.00  0.00    +0.153 C 
BRANCH  11  12
ATOM     12  C   LIG    1       29.779 -20.690   7.934  0.00  0.00    +0.339 C 
BRANCH  12  13
ATOM     13  O   LIG    1       30.774 -19.871   7.311  0.00  0.00    -0.215 OA
BRANCH  13  14
ATOM     14  N   LIG    1       31.572 -19.139   8.222  0.00  0.00    +0.284 N 
ATOM     15  O   LIG    1       32.045 -19.748   9.182  0.00  0.00    -0.534 OA
ATOM     16  O   LIG    1       31.657 -17.949   7.927  0.00  0.00    +0.093 OA
ENDBRANCH  13  14
ENDBRANCH  12  13
ENDBRANCH  11  12
ENDBRANCH   3  11
TORSDOF 5
ENDMDL
MODEL 4
REMARK VINA RESULT:      -7.0      1.176      1.687
REMARK  Name = *****
REMARK                            x       y       z     vdW  Elec       q    Type
REMARK                         _______ _______ _______ _____ _____    ______ ____
ROOT
ATOM      1  O   LIG    1       24.906 -20.903   8.039  0.00  0.00    -0.270 OA
ATOM      2  C   LIG    1       25.648 -21.759   7.587  0.00  0.00    +0.246 C 
ATOM      3  N   LIG    1       27.017 -21.594   7.458  0.00  0.00    -0.308 N 
ATOM      4  H   LIG    1       27.549 -22.277   6.939  0.00  0.00    +0.149 HD
ENDROOT
BRANCH   2   5
ATOM      5  C   LIG    1       25.110 -23.064   7.119  0.00  0.00    +0.055 A 
ATOM      6  C   LIG    1       23.739 -23.236   6.971  0.00  0.00    +0.123 A 
ATOM      7  N   LIG    1       23.163 -24.401   6.569  0.00  0.00    -0.263 NA
ATOM      8  C   LIG    1       23.993 -25.439   6.323  0.00  0.00    +0.111 A 
ATOM      9  C   LIG    1       25.371 -25.366   6.450  0.00  0.00    +0.020 A 
ATOM     10  C   LIG    1       25.935 -24.159   6.857  0.00  0.00    +0.016 A 
ENDBRANCH   2   5
BRANCH   3  11
ATOM     11  C   LIG    1       27.705 -20.377   7.868  0.00  0.00    +0.153 C 
BRANCH  11  12
ATOM     12  C   LIG    1       29.188 -20.362   7.482  0.00  0.00    +0.339 C 
BRANCH  12  13
ATOM     13  O   LIG    1       30.000 -20.750   8.594  0.00  0.00    -0.215 OA
BRANCH  13  14
ATOM     14  N   LIG    1       31.378 -20.474   8.426  0.00  0.00    +0.284 N 
ATOM     15  O   LIG    1       31.712 -19.821   7.437  0.00  0.00    -0.534 OA
ATOM     16  O   LIG    1       32.071 -20.969   9.312  0.00  0.00    +0.093 OA
ENDBRANCH  13  14
ENDBRANCH  12  13
ENDBRANCH  11  12
ENDBRANCH   3  11
TORSDOF 5
ENDMDL
MODEL 5
REMARK VINA RESULT:      -7.0      2.628      3.143
REMARK  Name = *****
REMARK                            x       y       z     vdW  Elec       q    Type
REMARK                         _______ _______ _______ _____ _____    ______ ____
ROOT
ATOM      1  O   LIG    1       26.946 -22.011   7.416  0.00  0.00    -0.270 OA
ATOM      2  C   LIG    1       26.852 -21.037   6.688  0.00  0.00    +0.246 C 
ATOM      3  N   LIG    1       27.908 -20.187   6.406  0.00  0.00    -0.308 N 
ATOM      4  H   LIG    1       27.728 -19.319   5.923  0.00  0.00    +0.149 HD
ENDROOT
BRANCH   2   5
ATOM      5  C   LIG    1       25.554 -20.684   6.052  0.00  0.00    +0.055 A 
ATOM      6  C   LIG    1       25.531 -20.180   4.757  0.00  0.00    +0.123 A 
ATOM      7  N   LIG    1       24.393 -19.813   4.110  0.00  0.00    -0.263 NA
ATOM      8  C   LIG    1       23.234 -19.939   4.793  0.00  0.00    +0.111 A 
ATOM      9  C   LIG    1       23.157 -20.423   6.090  0.00  0.00    +0.020 A 
ATOM     10  C   LIG    1       24.338 -20.798   6.728  0.00  0.00    +0.016 A 
ENDBRANCH   2   5
BRANCH   3  11
ATOM     11  C   LIG    1       29.247 -20.388   6.947  0.00  0.00    +0.153 C 
BRANCH  11  12
ATOM     12  C   LIG    1       30.229 -19.280   6.556  0.00  0.00    +0.339 C 
BRANCH  12  13
ATOM     13  O   LIG    1       31.540 -19.574   7.048  0.00  0.00    -0.215 OA
BRANCH  13  14
ATOM     14  N   LIG    1       31.867 -18.910   8.254  0.00  0.00    +0.284 N 
ATOM     15  O   LIG    1       32.051 -19.602   9.255  0.00  0.00    -0.534 OA
ATOM     16  O   LIG    1       31.893 -17.687   8.127  0.00  0.00    +0.093 OA
ENDBRANCH  13  14
ENDBRANCH  12  13
ENDBRANCH  11  12
ENDBRANCH   3  11
TORSDOF 5
ENDMDL
MODEL 6
REMARK VINA RESULT:      -7.0      4.228      7.385
REMARK  Name = *****
REMARK                            x       y       z     vdW  Elec       q    Type
REMARK                         _______ _______ _______ _____ _____    ______ ____
ROOT
ATOM      1  O   LIG    1       31.562 -18.191   7.477  0.00  0.00    -0.270 OA
ATOM      2  C   LIG    1       30.951 -18.116   8.530  0.00  0.00    +0.246 C 
ATOM      3  N   LIG    1       29.740 -18.748   8.758  0.00  0.00    -0.308 N 
ATOM      4  H   LIG    1       29.216 -18.524   9.591  0.00  0.00    +0.149 HD
ENDROOT
BRANCH   2   5
ATOM      5  C   LIG    1       31.478 -17.306   9.661  0.00  0.00    +0.055 A 
ATOM      6  C   LIG    1       32.471 -16.362   9.434  0.00  0.00    +0.123 A 
ATOM      7  N   LIG    1       33.022 -15.595  10.413  0.00  0.00    -0.263 NA
ATOM      8  C   LIG    1       32.572 -15.795  11.671  0.00  0.00    +0.111 A 
ATOM      9  C   LIG    1       31.591 -16.719  11.997  0.00  0.00    +0.020 A 
ATOM     10  C   LIG    1       31.039 -17.487  10.974  0.00  0.00    +0.016 A 
ENDBRANCH   2   5
BRANCH   3  11
ATOM     11  C   LIG    1       29.085 -19.580   7.756  0.00  0.00    +0.153 C 
BRANCH  11  12
ATOM     12  C   LIG    1       29.682 -20.987   7.655  0.00  0.00    +0.339 C 
BRANCH  12  13
ATOM     13  O   LIG    1       29.961 -21.510   8.958  0.00  0.00    -0.215 OA
BRANCH  13  14
ATOM     14  N   LIG    1       31.328 -21.798   9.183  0.00  0.00    +0.284 N 
ATOM     15  O   LIG    1       32.089 -20.847   9.363  0.00  0.00    -0.534 OA
ATOM     16  O   LIG    1       31.571 -23.003   9.137  0.00  0.00    +0.093 OA
ENDBRANCH  13  14
ENDBRANCH  12  13
ENDBRANCH  11  12
ENDBRANCH   3  11
TORSDOF 5
ENDMDL
MODEL 7
REMARK VINA RESULT:      -7.0      1.873      2.030
REMARK  Name = *****
REMARK                            x       y       z     vdW  Elec       q    Type
REMARK                         _______ _______ _______ _____ _____    ______ ____
ROOT
ATOM      1  O   LIG    1       26.510 -20.445   9.170  0.00  0.00    -0.270 OA
ATOM      2  C   LIG    1       26.651 -20.403   7.959  0.00  0.00    +0.246 C 
ATOM      3  N   LIG    1       27.841 -20.064   7.339  0.00  0.00    -0.308 N 
ATOM      4  H   LIG    1       27.849 -19.900   6.343  0.00  0.00    +0.149 HD
ENDROOT
BRANCH   2   5
ATOM      5  C   LIG    1       25.514 -20.707   7.049  0.00  0.00    +0.055 A 
ATOM      6  C   LIG    1       25.712 -20.720   5.674  0.00  0.00    +0.123 A 
ATOM      7  N   LIG    1       24.725 -20.968   4.772  0.00  0.00    -0.263 NA
ATOM      8  C   LIG    1       23.488 -21.193   5.266  0.00  0.00    +0.111 A 
ATOM      9  C   LIG    1       23.191 -21.192   6.620  0.00  0.00    +0.020 A 
ATOM     10  C   LIG    1       24.223 -20.942   7.524  0.00  0.00    +0.016 A 
ENDBRANCH   2   5
BRANCH   3  11
ATOM     11  C   LIG    1       29.052 -19.738   8.082  0.00  0.00    +0.153 C 
BRANCH  11  12
ATOM     12  C   LIG    1       30.274 -20.544   7.632  0.00  0.00    +0.339 C 
BRANCH  12  13
ATOM     13  O   LIG    1       31.261 -20.581   8.666  0.00  0.00    -0.215 OA
BRANCH  13  14
ATOM     14  N   LIG    1       31.460 -21.864   9.228  0.00  0.00    +0.284 N 
ATOM     15  O   LIG    1       32.251 -22.618   8.662  0.00  0.00    -0.534 OA
ATOM     16  O   LIG    1       30.766 -22.056  10.225  0.00  0.00    +0.093 OA
ENDBRANCH  13  14
ENDBRANCH  12  13
ENDBRANCH  11  12
ENDBRANCH   3  11
TORSDOF 5
ENDMDL
MODEL 8
REMARK VINA RESULT:      -6.9      2.331      2.913
REMARK  Name = *****
REMARK                            x       y       z     vdW  Elec       q    Type
REMARK                         _______ _______ _______ _____ _____    ______ ____
ROOT
ATOM      1  O   LIG    1       28.719 -19.668   5.523  0.00  0.00    -0.270 OA
ATOM      2  C   LIG    1       28.307 -19.988   6.626  0.00  0.00    +0.246 C 
ATOM      3  N   LIG    1       29.108 -20.046   7.754  0.00  0.00    -0.308 N 
ATOM      4  H   LIG    1       28.742 -20.462   8.598  0.00  0.00    +0.149 HD
ENDROOT
BRANCH   2   5
ATOM      5  C   LIG    1       26.881 -20.360   6.829  0.00  0.00    +0.055 A 
ATOM      6  C   LIG    1       26.022 -20.434   5.739  0.00  0.00    +0.123 A 
ATOM      7  N   LIG    1       24.702 -20.746   5.838  0.00  0.00    -0.263 NA
ATOM      8  C   LIG    1       24.220 -20.975   7.080  0.00  0.00    +0.111 A 
ATOM      9  C   LIG    1       24.997 -20.915   8.226  0.00  0.00    +0.020 A 
ATOM     10  C   LIG    1       26.348 -20.600   8.096  0.00  0.00    +0.016 A 
ENDBRANCH   2   5
BRANCH   3  11
ATOM     11  C   LIG    1       30.527 -19.714   7.730  0.00  0.00    +0.153 C 
BRANCH  11  12
ATOM     12  C   LIG    1       31.190 -19.799   9.108  0.00  0.00    +0.339 C 
BRANCH  12  13
ATOM     13  O   LIG    1       32.131 -20.877   9.147  0.00  0.00    -0.215 OA
BRANCH  13  14
ATOM     14  N   LIG    1       31.552 -22.137   9.427  0.00  0.00    +0.284 N 
ATOM     15  O   LIG    1       31.978 -23.111   8.806  0.00  0.00    -0.534 OA
ATOM     16  O   LIG    1       30.654 -22.070  10.265  0.00  0.00    +0.093 OA
ENDBRANCH  13  14
ENDBRANCH  12  13
ENDBRANCH  11  12
ENDBRANCH   3  11
TORSDOF 5
ENDMDL
MODEL 9
REMARK VINA RESULT:      -6.8      3.469      7.387
REMARK  Name = *****
REMARK                            x       y       z     vdW  Elec       q    Type
REMARK                         _______ _______ _______ _____ _____    ______ ____
ROOT
ATOM      1  O   LIG    1       31.826 -19.258   7.386  0.00  0.00    -0.270 OA
ATOM      2  C   LIG    1       30.903 -18.764   8.011  0.00  0.00    +0.246 C 
ATOM      3  N   LIG    1       29.570 -18.965   7.694  0.00  0.00    -0.308 N 
ATOM      4  H   LIG    1       28.864 -18.409   8.155  0.00  0.00    +0.149 HD
ENDROOT
BRANCH   2   5
ATOM      5  C   LIG    1       31.160 -17.879   9.179  0.00  0.00    +0.055 A 
ATOM      6  C   LIG    1       30.145 -17.624  10.093  0.00  0.00    +0.123 A 
ATOM      7  N   LIG    1       30.290 -16.812  11.174  0.00  0.00    -0.263 NA
ATOM      8  C   LIG    1       31.493 -16.218  11.335  0.00  0.00    +0.111 A 
ATOM      9  C   LIG    1       32.561 -16.404  10.473  0.00  0.00    +0.020 A 
ATOM     10  C   LIG    1       32.389 -17.246   9.376  0.00  0.00    +0.016 A 
ENDBRANCH   2   5
BRANCH   3  11
ATOM     11  C   LIG    1       29.143 -19.803   6.581  0.00  0.00    +0.153 C 
BRANCH  11  12
ATOM     12  C   LIG    1       28.363 -21.045   7.025  0.00  0.00    +0.339 C 
BRANCH  12  13
ATOM     13  O   LIG    1       27.795 -20.844   8.323  0.00  0.00    -0.215 OA
BRANCH  13  14
ATOM     14  N   LIG    1       26.408 -20.562   8.307  0.00  0.00    +0.284 N 
ATOM     15  O   LIG    1       25.870 -20.408   7.211  0.00  0.00    -0.534 OA
ATOM     16  O   LIG    1       25.930 -20.481   9.437  0.00  0.00    +0.093 OA
ENDBRANCH  13  14
ENDBRANCH  12  13
ENDBRANCH  11  12
ENDBRANCH   3  11
TORSDOF 5
ENDMDL
