MODEL 1
REMARK VINA RESULT:      11.4      0.000      0.000
REMARK  Name = *****
REMARK                            x       y       z     vdW  Elec       q    Type
REMARK                         _______ _______ _______ _____ _____    ______ ____
ROOT
ATOM      1  C   LIG    1       27.031 -17.012   4.065  0.00  0.00    +0.012 C 
ATOM      2  C   LIG    1       26.764 -18.298   3.794  0.00  0.00    -0.050 C 
ATOM      3  C   LIG    1       27.060 -19.381   4.744  0.00  0.00    -0.031 C 
ATOM      4  C   LIG    1       25.787 -20.087   5.245  0.00  0.00    +0.015 C 
ATOM      5  C   LIG    1       25.097 -19.019   6.107  0.00  0.00    +0.021 C 
ATOM      6  C   LIG    1       26.163 -21.270   6.143  0.00  0.00    -0.012 C 
ATOM      7  C   LIG    1       27.131 -21.054   7.059  0.00  0.00    +0.047 C 
ATOM      8  C   LIG    1       28.388 -20.754   6.299  0.00  0.00    +0.179 C 
ATOM      9  O   LIG    1       29.466 -21.280   6.617  0.00  0.00    -0.288 OA
ATOM     10  C   LIG    1       25.042 -20.595   3.956  0.00  0.00    +0.007 C 
ATOM     11  C   LIG    1       24.643 -19.461   2.984  0.00  0.00    +0.002 C 
ATOM     12  C   LIG    1       23.245 -18.791   3.246  0.00  0.00    +0.006 C 
ATOM     13  C   LIG    1       22.263 -19.554   4.197  0.00  0.00    +0.029 C 
ATOM     14  C   LIG    1       20.971 -19.824   3.414  0.00  0.00    +0.019 C 
ATOM     15  C   LIG    1       22.719 -20.876   4.845  0.00  0.00    +0.015 C 
ATOM     16  C   LIG    1       22.016 -18.535   5.316  0.00  0.00    +0.140 C 
ATOM     17  O   LIG    1       21.505 -18.810   6.398  0.00  0.00    -0.297 OA
ATOM     18  C   LIG    1       22.511 -17.153   4.990  0.00  0.00    +0.075 C 
ATOM     19  C   LIG    1       22.961 -17.295   3.542  0.00  0.00    +0.012 C 
ATOM     20  C   LIG    1       23.859 -21.540   4.125  0.00  0.00    +0.006 C 
ATOM     21  C   LIG    1       28.281 -19.729   5.211  0.00  0.00    +0.055 C 
ATOM     22  C   LIG    1       25.908 -18.663   2.604  0.00  0.00    +0.039 C 
ENDROOT
TORSDOF 0
ENDMDL
MODEL 2
REMARK VINA RESULT:      12.5      3.214      6.361
REMARK  Name = *****
REMARK                            x       y       z     vdW  Elec       q    Type
REMARK                         _______ _______ _______ _____ _____    ______ ____
ROOT
ATOM      1  C   LIG    1       26.456 -18.413   4.860  0.00  0.00    +0.012 C 
ATOM      2  C   LIG    1       25.814 -17.761   3.880  0.00  0.00    -0.050 C 
ATOM      3  C   LIG    1       24.381 -17.440   3.955  0.00  0.00    -0.031 C 
ATOM      4  C   LIG    1       24.120 -15.923   4.000  0.00  0.00    +0.015 C 
ATOM      5  C   LIG    1       24.664 -15.505   5.375  0.00  0.00    +0.021 C 
ATOM      6  C   LIG    1       22.613 -15.650   3.969  0.00  0.00    -0.012 C 
ATOM      7  C   LIG    1       21.839 -16.417   4.765  0.00  0.00    +0.047 C 
ATOM      8  C   LIG    1       21.969 -17.825   4.268  0.00  0.00    +0.179 C 
ATOM      9  O   LIG    1       20.969 -18.548   4.132  0.00  0.00    -0.288 OA
ATOM     10  C   LIG    1       24.810 -15.329   2.718  0.00  0.00    +0.007 C 
ATOM     11  C   LIG    1       26.335 -15.580   2.663  0.00  0.00    +0.002 C 
ATOM     12  C   LIG    1       27.235 -14.499   3.364  0.00  0.00    +0.006 C 
ATOM     13  C   LIG    1       26.555 -13.132   3.714  0.00  0.00    +0.029 C 
ATOM     14  C   LIG    1       27.349 -12.022   3.011  0.00  0.00    +0.019 C 
ATOM     15  C   LIG    1       25.061 -12.933   3.394  0.00  0.00    +0.015 C 
ATOM     16  C   LIG    1       26.734 -13.045   5.235  0.00  0.00    +0.140 C 
ATOM     17  O   LIG    1       26.128 -12.257   5.956  0.00  0.00    -0.297 OA
ATOM     18  C   LIG    1       27.692 -14.064   5.787  0.00  0.00    +0.075 C 
ATOM     19  C   LIG    1       28.239 -14.721   4.527  0.00  0.00    +0.012 C 
ATOM     20  C   LIG    1       24.535 -13.876   2.351  0.00  0.00    +0.006 C 
ATOM     21  C   LIG    1       23.362 -18.326   4.037  0.00  0.00    +0.055 C 
ATOM     22  C   LIG    1       26.594 -17.097   2.770  0.00  0.00    +0.039 C 
ENDROOT
TORSDOF 0
ENDMDL
