MODEL 1
REMARK VINA RESULT:      -9.3      0.000      0.000
REMARK  Name = *****
REMARK                            x       y       z     vdW  Elec       q    Type
REMARK                         _______ _______ _______ _____ _____    ______ ____
ROOT
ATOM      1  C   LIG    1       26.260 -23.712   7.409  0.00  0.00    +0.042 C 
ENDROOT
BRANCH   1   2
ATOM      2  C   LIG    1       25.118 -24.619   6.896  0.00  0.00    +0.087 C 
BRANCH   2   6
ATOM      3  C   LIG    1       25.194 -27.964   7.392  0.00  0.00    +0.093 C 
ATOM      4  C   LIG    1       24.145 -27.562   6.330  0.00  0.00    +0.044 C 
ATOM      5  C   LIG    1       24.615 -26.501   5.314  0.00  0.00    +0.059 C 
ATOM      6  N   LIG    1       25.581 -25.538   5.854  0.00  0.00    -0.296 NA
ATOM      7  C   LIG    1       26.770 -26.347   6.103  0.00  0.00    +0.059 C 
ATOM      8  C   LIG    1       26.900 -27.075   4.764  0.00  0.00    +0.020 C 
ATOM      9  C   LIG    1       25.476 -27.138   4.218  0.00  0.00    +0.020 C 
ATOM     10  C   LIG    1       26.592 -27.324   7.270  0.00  0.00    +0.044 C 
BRANCH   3  13
ATOM     11  C   LIG    1       25.227 -30.551   5.462  0.00  0.00    +0.088 C 
ATOM     12  C   LIG    1       25.295 -30.500   6.936  0.00  0.00    +0.131 A 
ATOM     13  N   LIG    1       25.269 -29.385   7.746  0.00  0.00    -0.312 N 
ATOM     14  C   LIG    1       25.452 -29.877   9.031  0.00  0.00    +0.136 A 
ATOM     15  N   LIG    1       25.505 -31.191   8.984  0.00  0.00    -0.134 NA
ATOM     16  N   LIG    1       25.418 -31.576   7.684  0.00  0.00    -0.135 NA
BRANCH  14  17
ATOM     17  C   LIG    1       25.578 -29.059  10.279  0.00  0.00    +0.051 C 
ATOM     18  C   LIG    1       27.046 -28.880  10.676  0.00  0.00    +0.015 C 
ATOM     19  C   LIG    1       24.796 -29.714  11.417  0.00  0.00    +0.015 C 
ENDBRANCH  14  17
ENDBRANCH   3  13
ENDBRANCH   2   6
ENDBRANCH   1   2
BRANCH   1  20
ATOM     20  C   LIG    1       25.979 -22.195   7.320  0.00  0.00    +0.104 C 
BRANCH  20  21
ATOM     21  C   LIG    1       27.227 -21.335   7.125  0.00  0.00    -0.027 A 
ATOM     22  C   LIG    1       28.339 -21.538   7.958  0.00  0.00    +0.005 A 
ATOM     23  C   LIG    1       29.515 -20.805   7.778  0.00  0.00    +0.000 A 
ATOM     24  C   LIG    1       29.601 -19.852   6.766  0.00  0.00    +0.000 A 
ATOM     25  C   LIG    1       28.500 -19.613   5.950  0.00  0.00    +0.000 A 
ATOM     26  C   LIG    1       27.316 -20.334   6.141  0.00  0.00    +0.005 A 
ENDBRANCH  20  21
BRANCH  20  27
ATOM     27  N   LIG    1       25.037 -21.950   6.225  0.00  0.00    -0.308 N 
ATOM     28  H   LIG    1       25.421 -21.924   5.280  0.00  0.00    +0.149 HD
ATOM     29  C   LIG    1       23.733 -21.558   6.398  0.00  0.00    +0.217 C 
ATOM     30  O   LIG    1       23.199 -21.462   7.509  0.00  0.00    -0.276 OA
BRANCH  29  31
ATOM     31  C   LIG    1       22.968 -21.294   5.106  0.00  0.00    +0.075 C 
ATOM     32  C   LIG    1       22.099 -20.017   5.201  0.00  0.00    +0.018 C 
ATOM     33  C   LIG    1       22.855 -18.712   4.940  0.00  0.00    +0.076 C 
ATOM     34  C   LIG    1       23.655 -18.760   3.652  0.00  0.00    +0.249 C 
ATOM     35  F   LIG    1       22.801 -18.841   2.598  0.00  0.00    -0.206 F 
ATOM     36  F   LIG    1       24.345 -17.603   3.498  0.00  0.00    -0.206 F 
ATOM     37  C   LIG    1       24.609 -19.937   3.614  0.00  0.00    +0.076 C 
ATOM     38  C   LIG    1       23.872 -21.254   3.841  0.00  0.00    +0.018 C 
ENDBRANCH  29  31
ENDBRANCH  20  27
ENDBRANCH   1  20
TORSDOF 8
ENDMDL
MODEL 2
REMARK VINA RESULT:      -8.9      0.580      2.023
REMARK  Name = *****
REMARK                            x       y       z     vdW  Elec       q    Type
REMARK                         _______ _______ _______ _____ _____    ______ ____
ROOT
ATOM      1  C   LIG    1       26.180 -23.859   7.067  0.00  0.00    +0.042 C 
ENDROOT
BRANCH   1   2
ATOM      2  C   LIG    1       24.978 -24.765   6.712  0.00  0.00    +0.087 C 
BRANCH   2   6
ATOM      3  C   LIG    1       25.420 -27.978   7.673  0.00  0.00    +0.093 C 
ATOM      4  C   LIG    1       24.186 -27.814   6.757  0.00  0.00    +0.044 C 
ATOM      5  C   LIG    1       24.398 -26.902   5.531  0.00  0.00    +0.059 C 
ATOM      6  N   LIG    1       25.349 -25.808   5.754  0.00  0.00    -0.296 NA
ATOM      7  C   LIG    1       26.628 -26.493   5.914  0.00  0.00    +0.059 C 
ATOM      8  C   LIG    1       26.608 -27.415   4.694  0.00  0.00    +0.020 C 
ATOM      9  C   LIG    1       25.128 -27.651   4.412  0.00  0.00    +0.020 C 
ATOM     10  C   LIG    1       26.721 -27.280   7.225  0.00  0.00    +0.044 C 
BRANCH   3  13
ATOM     11  C   LIG    1       26.428 -28.831  10.618  0.00  0.00    +0.088 C 
ATOM     12  C   LIG    1       26.092 -29.699   9.472  0.00  0.00    +0.131 A 
ATOM     13  N   LIG    1       25.672 -29.316   8.215  0.00  0.00    -0.312 N 
ATOM     14  C   LIG    1       25.407 -30.508   7.554  0.00  0.00    +0.136 A 
ATOM     15  N   LIG    1       25.720 -31.515   8.339  0.00  0.00    -0.134 NA
ATOM     16  N   LIG    1       26.135 -31.013   9.532  0.00  0.00    -0.135 NA
BRANCH  14  17
ATOM     17  C   LIG    1       24.847 -30.642   6.171  0.00  0.00    +0.051 C 
ATOM     18  C   LIG    1       23.670 -31.621   6.145  0.00  0.00    +0.015 C 
ATOM     19  C   LIG    1       25.940 -31.099   5.205  0.00  0.00    +0.015 C 
ENDBRANCH  14  17
ENDBRANCH   3  13
ENDBRANCH   2   6
ENDBRANCH   1   2
BRANCH   1  20
ATOM     20  C   LIG    1       25.877 -22.344   7.068  0.00  0.00    +0.104 C 
BRANCH  20  21
ATOM     21  C   LIG    1       27.118 -21.456   6.993  0.00  0.00    -0.027 A 
ATOM     22  C   LIG    1       28.193 -21.701   7.862  0.00  0.00    +0.005 A 
ATOM     23  C   LIG    1       29.364 -20.941   7.790  0.00  0.00    +0.000 A 
ATOM     24  C   LIG    1       29.480 -19.919   6.851  0.00  0.00    +0.000 A 
ATOM     25  C   LIG    1       28.415 -19.639   6.001  0.00  0.00    +0.000 A 
ATOM     26  C   LIG    1       27.236 -20.387   6.085  0.00  0.00    +0.005 A 
ENDBRANCH  20  21
BRANCH  20  27
ATOM     27  N   LIG    1       24.984 -22.037   5.948  0.00  0.00    -0.308 N 
ATOM     28  H   LIG    1       25.411 -21.951   5.025  0.00  0.00    +0.149 HD
ATOM     29  C   LIG    1       23.670 -21.664   6.084  0.00  0.00    +0.217 C 
ATOM     30  O   LIG    1       23.085 -21.641   7.173  0.00  0.00    -0.276 OA
BRANCH  29  31
ATOM     31  C   LIG    1       22.963 -21.325   4.776  0.00  0.00    +0.075 C 
ATOM     32  C   LIG    1       21.899 -20.219   4.966  0.00  0.00    +0.018 C 
ATOM     33  C   LIG    1       22.455 -18.793   4.956  0.00  0.00    +0.076 C 
ATOM     34  C   LIG    1       23.339 -18.530   3.751  0.00  0.00    +0.249 C 
ATOM     35  F   LIG    1       22.582 -18.577   2.623  0.00  0.00    -0.206 F 
ATOM     36  F   LIG    1       23.846 -17.275   3.820  0.00  0.00    -0.206 F 
ATOM     37  C   LIG    1       24.466 -19.535   3.638  0.00  0.00    +0.076 C 
ATOM     38  C   LIG    1       23.934 -20.966   3.615  0.00  0.00    +0.018 C 
ENDBRANCH  29  31
ENDBRANCH  20  27
ENDBRANCH   1  20
TORSDOF 8
ENDMDL
MODEL 3
REMARK VINA RESULT:      -8.6      2.143      4.196
REMARK  Name = *****
REMARK                            x       y       z     vdW  Elec       q    Type
REMARK                         _______ _______ _______ _____ _____    ______ ____
ROOT
ATOM      1  C   LIG    1       24.475 -23.331   7.012  0.00  0.00    +0.042 C 
ENDROOT
BRANCH   1   2
ATOM      2  C   LIG    1       24.159 -24.838   6.874  0.00  0.00    +0.087 C 
BRANCH   2   6
ATOM      3  C   LIG    1       24.564 -28.194   7.001  0.00  0.00    +0.093 C 
ATOM      4  C   LIG    1       23.979 -27.734   5.646  0.00  0.00    +0.044 C 
ATOM      5  C   LIG    1       24.641 -26.480   5.039  0.00  0.00    +0.059 C 
ATOM      6  N   LIG    1       25.141 -25.524   6.032  0.00  0.00    -0.296 NA
ATOM      7  C   LIG    1       26.243 -26.237   6.670  0.00  0.00    +0.059 C 
ATOM      8  C   LIG    1       27.014 -26.721   5.440  0.00  0.00    +0.020 C 
ATOM      9  C   LIG    1       25.958 -26.840   4.345  0.00  0.00    +0.020 C 
ATOM     10  C   LIG    1       25.771 -27.403   7.545  0.00  0.00    +0.044 C 
BRANCH   3  13
ATOM     11  C   LIG    1       25.756 -30.421   4.992  0.00  0.00    +0.088 C 
ATOM     12  C   LIG    1       25.233 -30.600   6.360  0.00  0.00    +0.131 A 
ATOM     13  N   LIG    1       24.717 -29.638   7.202  0.00  0.00    -0.312 N 
ATOM     14  C   LIG    1       24.458 -30.309   8.389  0.00  0.00    +0.136 A 
ATOM     15  N   LIG    1       24.731 -31.586   8.230  0.00  0.00    -0.134 NA
ATOM     16  N   LIG    1       25.221 -31.765   6.975  0.00  0.00    -0.135 NA
BRANCH  14  17
ATOM     17  C   LIG    1       23.955 -29.693   9.659  0.00  0.00    +0.051 C 
ATOM     18  C   LIG    1       25.044 -29.680  10.735  0.00  0.00    +0.015 C 
ATOM     19  C   LIG    1       22.724 -30.450  10.158  0.00  0.00    +0.015 C 
ENDBRANCH  14  17
ENDBRANCH   3  13
ENDBRANCH   2   6
ENDBRANCH   1   2
BRANCH   1  20
ATOM     20  C   LIG    1       25.034 -22.661   5.736  0.00  0.00    +0.104 C 
BRANCH  20  21
ATOM     21  C   LIG    1       24.319 -21.371   5.340  0.00  0.00    -0.027 A 
ATOM     22  C   LIG    1       24.793 -20.632   4.243  0.00  0.00    +0.005 A 
ATOM     23  C   LIG    1       24.135 -19.473   3.820  0.00  0.00    +0.000 A 
ATOM     24  C   LIG    1       22.997 -19.028   4.487  0.00  0.00    +0.000 A 
ATOM     25  C   LIG    1       22.530 -19.728   5.595  0.00  0.00    +0.000 A 
ATOM     26  C   LIG    1       23.197 -20.878   6.030  0.00  0.00    +0.005 A 
ENDBRANCH  20  21
BRANCH  20  27
ATOM     27  N   LIG    1       26.462 -22.395   5.926  0.00  0.00    -0.308 N 
ATOM     28  H   LIG    1       27.116 -23.037   5.476  0.00  0.00    +0.149 HD
ATOM     29  C   LIG    1       26.969 -21.482   6.817  0.00  0.00    +0.217 C 
ATOM     30  O   LIG    1       26.256 -20.724   7.484  0.00  0.00    -0.276 OA
BRANCH  29  31
ATOM     31  C   LIG    1       28.491 -21.436   6.887  0.00  0.00    +0.075 C 
ATOM     32  C   LIG    1       29.086 -20.463   5.841  0.00  0.00    +0.018 C 
ATOM     33  C   LIG    1       29.090 -18.993   6.270  0.00  0.00    +0.076 C 
ATOM     34  C   LIG    1       29.704 -18.797   7.643  0.00  0.00    +0.249 C 
ATOM     35  F   LIG    1       31.026 -19.109   7.590  0.00  0.00    -0.206 F 
ATOM     36  F   LIG    1       29.633 -17.490   7.994  0.00  0.00    -0.206 F 
ATOM     37  C   LIG    1       29.031 -19.651   8.698  0.00  0.00    +0.076 C 
ATOM     38  C   LIG    1       29.043 -21.127   8.308  0.00  0.00    +0.018 C 
ENDBRANCH  29  31
ENDBRANCH  20  27
ENDBRANCH   1  20
TORSDOF 8
ENDMDL
MODEL 4
REMARK VINA RESULT:      -8.1      2.114      4.591
REMARK  Name = *****
REMARK                            x       y       z     vdW  Elec       q    Type
REMARK                         _______ _______ _______ _____ _____    ______ ____
ROOT
ATOM      1  C   LIG    1       24.546 -23.365   6.982  0.00  0.00    +0.042 C 
ENDROOT
BRANCH   1   2
ATOM      2  C   LIG    1       24.039 -24.811   6.774  0.00  0.00    +0.087 C 
BRANCH   2   6
ATOM      3  C   LIG    1       25.092 -27.926   7.565  0.00  0.00    +0.093 C 
ATOM      4  C   LIG    1       24.141 -27.930   6.347  0.00  0.00    +0.044 C 
ATOM      5  C   LIG    1       24.399 -26.817   5.311  0.00  0.00    +0.059 C 
ATOM      6  N   LIG    1       24.918 -25.572   5.884  0.00  0.00    -0.296 NA
ATOM      7  C   LIG    1       26.251 -25.939   6.353  0.00  0.00    +0.059 C 
ATOM      8  C   LIG    1       26.803 -26.640   5.111  0.00  0.00    +0.020 C 
ATOM      9  C   LIG    1       25.571 -27.185   4.394  0.00  0.00    +0.020 C 
ATOM     10  C   LIG    1       26.218 -26.872   7.569  0.00  0.00    +0.044 C 
BRANCH   3  13
ATOM     11  C   LIG    1       26.412 -28.695  10.407  0.00  0.00    +0.088 C 
ATOM     12  C   LIG    1       26.113 -29.577   9.262  0.00  0.00    +0.131 A 
ATOM     13  N   LIG    1       25.557 -29.229   8.049  0.00  0.00    -0.312 N 
ATOM     14  C   LIG    1       25.405 -30.432   7.373  0.00  0.00    +0.136 A 
ATOM     15  N   LIG    1       25.905 -31.404   8.105  0.00  0.00    -0.134 NA
ATOM     16  N   LIG    1       26.334 -30.875   9.281  0.00  0.00    -0.135 NA
BRANCH  14  17
ATOM     17  C   LIG    1       24.770 -30.613   6.028  0.00  0.00    +0.051 C 
ATOM     18  C   LIG    1       23.696 -31.703   6.067  0.00  0.00    +0.015 C 
ATOM     19  C   LIG    1       25.836 -30.954   4.987  0.00  0.00    +0.015 C 
ENDBRANCH  14  17
ENDBRANCH   3  13
ENDBRANCH   2   6
ENDBRANCH   1   2
BRANCH   1  20
ATOM     20  C   LIG    1       25.089 -22.674   5.711  0.00  0.00    +0.104 C 
BRANCH  20  21
ATOM     21  C   LIG    1       24.354 -21.390   5.332  0.00  0.00    -0.027 A 
ATOM     22  C   LIG    1       24.806 -20.637   4.235  0.00  0.00    +0.005 A 
ATOM     23  C   LIG    1       24.129 -19.483   3.828  0.00  0.00    +0.000 A 
ATOM     24  C   LIG    1       22.993 -19.057   4.511  0.00  0.00    +0.000 A 
ATOM     25  C   LIG    1       22.547 -19.771   5.619  0.00  0.00    +0.000 A 
ATOM     26  C   LIG    1       23.234 -20.915   6.038  0.00  0.00    +0.005 A 
ENDBRANCH  20  21
BRANCH  20  27
ATOM     27  N   LIG    1       26.514 -22.389   5.897  0.00  0.00    -0.308 N 
ATOM     28  H   LIG    1       27.175 -22.996   5.410  0.00  0.00    +0.149 HD
ATOM     29  C   LIG    1       27.014 -21.509   6.824  0.00  0.00    +0.217 C 
ATOM     30  O   LIG    1       26.296 -20.798   7.535  0.00  0.00    -0.276 OA
BRANCH  29  31
ATOM     31  C   LIG    1       28.537 -21.436   6.879  0.00  0.00    +0.075 C 
ATOM     32  C   LIG    1       29.104 -20.460   5.822  0.00  0.00    +0.018 C 
ATOM     33  C   LIG    1       29.087 -18.988   6.241  0.00  0.00    +0.076 C 
ATOM     34  C   LIG    1       29.711 -18.772   7.608  0.00  0.00    +0.249 C 
ATOM     35  F   LIG    1       31.038 -19.062   7.544  0.00  0.00    -0.206 F 
ATOM     36  F   LIG    1       29.621 -17.465   7.952  0.00  0.00    -0.206 F 
ATOM     37  C   LIG    1       29.063 -19.631   8.674  0.00  0.00    +0.076 C 
ATOM     38  C   LIG    1       29.097 -21.109   8.293  0.00  0.00    +0.018 C 
ENDBRANCH  29  31
ENDBRANCH  20  27
ENDBRANCH   1  20
TORSDOF 8
ENDMDL
MODEL 5
REMARK VINA RESULT:      -7.9      3.995      8.183
REMARK  Name = *****
REMARK                            x       y       z     vdW  Elec       q    Type
REMARK                         _______ _______ _______ _____ _____    ______ ____
ROOT
ATOM      1  C   LIG    1       24.032 -30.451   7.654  0.00  0.00    +0.042 C 
ENDROOT
BRANCH   1   2
ATOM      2  C   LIG    1       23.875 -30.096   9.151  0.00  0.00    +0.087 C 
BRANCH   2   6
ATOM      3  C   LIG    1       21.784 -29.951  11.805  0.00  0.00    +0.093 C 
ATOM      4  C   LIG    1       21.201 -30.806  10.658  0.00  0.00    +0.044 C 
ATOM      5  C   LIG    1       22.202 -31.769   9.985  0.00  0.00    +0.059 C 
ATOM      6  N   LIG    1       23.583 -31.279   9.962  0.00  0.00    -0.296 NA
ATOM      7  C   LIG    1       23.973 -31.284  11.369  0.00  0.00    +0.059 C 
ATOM      8  C   LIG    1       23.540 -32.693  11.776  0.00  0.00    +0.020 C 
ATOM      9  C   LIG    1       22.393 -33.034  10.829  0.00  0.00    +0.020 C 
ATOM     10  C   LIG    1       23.256 -30.205  12.189  0.00  0.00    +0.044 C 
BRANCH   3  13
ATOM     11  C   LIG    1       20.691 -32.128  13.922  0.00  0.00    +0.088 C 
ATOM     12  C   LIG    1       20.468 -30.669  13.903  0.00  0.00    +0.131 A 
ATOM     13  N   LIG    1       20.935 -29.753  12.984  0.00  0.00    -0.312 N 
ATOM     14  C   LIG    1       20.524 -28.521  13.473  0.00  0.00    +0.136 A 
ATOM     15  N   LIG    1       19.803 -28.707  14.558  0.00  0.00    -0.134 NA
ATOM     16  N   LIG    1       19.778 -30.038  14.830  0.00  0.00    -0.135 NA
BRANCH  14  17
ATOM     17  C   LIG    1       20.845 -27.184  12.877  0.00  0.00    +0.051 C 
ATOM     18  C   LIG    1       22.177 -26.649  13.407  0.00  0.00    +0.015 C 
ATOM     19  C   LIG    1       19.719 -26.194  13.174  0.00  0.00    +0.015 C 
ENDBRANCH  14  17
ENDBRANCH   3  13
ENDBRANCH   2   6
ENDBRANCH   1   2
BRANCH   1  20
ATOM     20  C   LIG    1       25.433 -30.178   7.062  0.00  0.00    +0.104 C 
BRANCH  20  21
ATOM     21  C   LIG    1       25.998 -31.327   6.229  0.00  0.00    -0.027 A 
ATOM     22  C   LIG    1       25.601 -31.466   4.889  0.00  0.00    +0.005 A 
ATOM     23  C   LIG    1       26.134 -32.476   4.083  0.00  0.00    +0.000 A 
ATOM     24  C   LIG    1       27.069 -33.368   4.601  0.00  0.00    +0.000 A 
ATOM     25  C   LIG    1       27.452 -33.268   5.935  0.00  0.00    +0.000 A 
ATOM     26  C   LIG    1       26.906 -32.269   6.747  0.00  0.00    +0.005 A 
ENDBRANCH  20  21
BRANCH  20  27
ATOM     27  N   LIG    1       25.376 -28.962   6.247  0.00  0.00    -0.308 N 
ATOM     28  H   LIG    1       25.205 -29.082   5.248  0.00  0.00    +0.149 HD
ATOM     29  C   LIG    1       25.732 -27.713   6.692  0.00  0.00    +0.217 C 
ATOM     30  O   LIG    1       26.050 -27.480   7.863  0.00  0.00    -0.276 OA
BRANCH  29  31
ATOM     31  C   LIG    1       25.656 -26.614   5.637  0.00  0.00    +0.075 C 
ATOM     32  C   LIG    1       24.196 -26.196   5.345  0.00  0.00    +0.018 C 
ATOM     33  C   LIG    1       23.612 -25.188   6.338  0.00  0.00    +0.076 C 
ATOM     34  C   LIG    1       24.518 -23.988   6.538  0.00  0.00    +0.249 C 
ATOM     35  F   LIG    1       24.584 -23.280   5.380  0.00  0.00    -0.206 F 
ATOM     36  F   LIG    1       23.981 -23.157   7.464  0.00  0.00    -0.206 F 
ATOM     37  C   LIG    1       25.917 -24.390   6.958  0.00  0.00    +0.076 C 
ATOM     38  C   LIG    1       26.533 -25.371   5.965  0.00  0.00    +0.018 C 
ENDBRANCH  29  31
ENDBRANCH  20  27
ENDBRANCH   1  20
TORSDOF 8
ENDMDL
MODEL 6
REMARK VINA RESULT:      -7.8      2.667      4.615
REMARK  Name = *****
REMARK                            x       y       z     vdW  Elec       q    Type
REMARK                         _______ _______ _______ _____ _____    ______ ____
ROOT
ATOM      1  C   LIG    1       25.864 -23.627   7.343  0.00  0.00    +0.042 C 
ENDROOT
BRANCH   1   2
ATOM      2  C   LIG    1       24.901 -24.670   6.729  0.00  0.00    +0.087 C 
BRANCH   2   6
ATOM      3  C   LIG    1       25.102 -28.001   7.278  0.00  0.00    +0.093 C 
ATOM      4  C   LIG    1       24.225 -27.671   6.050  0.00  0.00    +0.044 C 
ATOM      5  C   LIG    1       24.792 -26.586   5.112  0.00  0.00    +0.059 C 
ATOM      6  N   LIG    1       25.590 -25.561   5.793  0.00  0.00    -0.296 NA
ATOM      7  C   LIG    1       26.769 -26.291   6.250  0.00  0.00    +0.059 C 
ATOM      8  C   LIG    1       27.168 -27.013   4.963  0.00  0.00    +0.020 C 
ATOM      9  C   LIG    1       25.865 -27.170   4.186  0.00  0.00    +0.020 C 
ATOM     10  C   LIG    1       26.457 -27.273   7.385  0.00  0.00    +0.044 C 
BRANCH   3  13
ATOM     11  C   LIG    1       25.054 -30.631   5.408  0.00  0.00    +0.088 C 
ATOM     12  C   LIG    1       25.197 -30.546   6.875  0.00  0.00    +0.131 A 
ATOM     13  N   LIG    1       25.205 -29.413   7.661  0.00  0.00    -0.312 N 
ATOM     14  C   LIG    1       25.458 -29.875   8.945  0.00  0.00    +0.136 A 
ATOM     15  N   LIG    1       25.518 -31.189   8.926  0.00  0.00    -0.134 NA
ATOM     16  N   LIG    1       25.367 -31.604   7.640  0.00  0.00    -0.135 NA
BRANCH  14  17
ATOM     17  C   LIG    1       25.642 -29.027  10.166  0.00  0.00    +0.051 C 
ATOM     18  C   LIG    1       27.098 -29.050  10.640  0.00  0.00    +0.015 C 
ATOM     19  C   LIG    1       24.713 -29.505  11.282  0.00  0.00    +0.015 C 
ENDBRANCH  14  17
ENDBRANCH   3  13
ENDBRANCH   2   6
ENDBRANCH   1   2
BRANCH   1  20
ATOM     20  C   LIG    1       26.151 -22.399   6.451  0.00  0.00    +0.104 C 
BRANCH  20  21
ATOM     21  C   LIG    1       24.900 -21.676   5.955  0.00  0.00    -0.027 A 
ATOM     22  C   LIG    1       24.077 -21.013   6.880  0.00  0.00    +0.005 A 
ATOM     23  C   LIG    1       22.951 -20.299   6.458  0.00  0.00    +0.000 A 
ATOM     24  C   LIG    1       22.625 -20.239   5.106  0.00  0.00    +0.000 A 
ATOM     25  C   LIG    1       23.409 -20.914   4.177  0.00  0.00    +0.000 A 
ATOM     26  C   LIG    1       24.525 -21.644   4.600  0.00  0.00    +0.005 A 
ENDBRANCH  20  21
BRANCH  20  27
ATOM     27  N   LIG    1       27.001 -21.463   7.190  0.00  0.00    -0.308 N 
ATOM     28  H   LIG    1       26.960 -21.506   8.210  0.00  0.00    +0.149 HD
ATOM     29  C   LIG    1       27.680 -20.415   6.620  0.00  0.00    +0.217 C 
ATOM     30  O   LIG    1       27.712 -20.217   5.401  0.00  0.00    -0.276 OA
BRANCH  29  31
ATOM     31  C   LIG    1       28.441 -19.535   7.606  0.00  0.00    +0.075 C 
ATOM     32  C   LIG    1       28.781 -20.292   8.911  0.00  0.00    +0.018 C 
ATOM     33  C   LIG    1       30.034 -21.167   8.831  0.00  0.00    +0.076 C 
ATOM     34  C   LIG    1       31.230 -20.409   8.286  0.00  0.00    +0.249 C 
ATOM     35  F   LIG    1       31.584 -19.438   9.170  0.00  0.00    -0.206 F 
ATOM     36  F   LIG    1       32.294 -21.242   8.186  0.00  0.00    -0.206 F 
ATOM     37  C   LIG    1       30.942 -19.777   6.939  0.00  0.00    +0.076 C 
ATOM     38  C   LIG    1       29.713 -18.874   7.002  0.00  0.00    +0.018 C 
ENDBRANCH  29  31
ENDBRANCH  20  27
ENDBRANCH   1  20
TORSDOF 8
ENDMDL
MODEL 7
REMARK VINA RESULT:      -7.6      3.648      7.814
REMARK  Name = *****
REMARK                            x       y       z     vdW  Elec       q    Type
REMARK                         _______ _______ _______ _____ _____    ______ ____
ROOT
ATOM      1  C   LIG    1       23.861 -30.353   7.782  0.00  0.00    +0.042 C 
ENDROOT
BRANCH   1   2
ATOM      2  C   LIG    1       23.674 -29.993   9.274  0.00  0.00    +0.087 C 
BRANCH   2   6
ATOM      3  C   LIG    1       25.100 -29.479  12.297  0.00  0.00    +0.093 C 
ATOM      4  C   LIG    1       23.676 -30.065  12.423  0.00  0.00    +0.044 C 
ATOM      5  C   LIG    1       23.350 -31.211  11.444  0.00  0.00    +0.059 C 
ATOM      6  N   LIG    1       24.034 -31.109  10.151  0.00  0.00    -0.296 NA
ATOM      7  C   LIG    1       25.439 -31.316  10.489  0.00  0.00    +0.059 C 
ATOM      8  C   LIG    1       25.339 -32.583  11.340  0.00  0.00    +0.020 C 
ATOM      9  C   LIG    1       23.937 -32.537  11.939  0.00  0.00    +0.020 C 
ATOM     10  C   LIG    1       26.042 -30.145  11.273  0.00  0.00    +0.044 C 
BRANCH   3  13
ATOM     11  C   LIG    1       26.346 -31.446  14.532  0.00  0.00    +0.088 C 
ATOM     12  C   LIG    1       26.341 -29.970  14.504  0.00  0.00    +0.131 A 
ATOM     13  N   LIG    1       25.793 -29.144  13.544  0.00  0.00    -0.312 N 
ATOM     14  C   LIG    1       26.140 -27.861  13.944  0.00  0.00    +0.136 A 
ATOM     15  N   LIG    1       26.778 -27.926  15.093  0.00  0.00    -0.134 NA
ATOM     16  N   LIG    1       26.911 -29.234  15.434  0.00  0.00    -0.135 NA
BRANCH  14  17
ATOM     17  C   LIG    1       25.849 -26.596  13.196  0.00  0.00    +0.051 C 
ATOM     18  C   LIG    1       27.008 -25.603  13.318  0.00  0.00    +0.015 C 
ATOM     19  C   LIG    1       24.555 -25.967  13.714  0.00  0.00    +0.015 C 
ENDBRANCH  14  17
ENDBRANCH   3  13
ENDBRANCH   2   6
ENDBRANCH   1   2
BRANCH   1  20
ATOM     20  C   LIG    1       25.271 -30.077   7.215  0.00  0.00    +0.104 C 
BRANCH  20  21
ATOM     21  C   LIG    1       25.865 -31.234   6.414  0.00  0.00    -0.027 A 
ATOM     22  C   LIG    1       25.593 -31.331   5.040  0.00  0.00    +0.005 A 
ATOM     23  C   LIG    1       26.158 -32.348   4.265  0.00  0.00    +0.000 A 
ATOM     24  C   LIG    1       27.001 -33.290   4.849  0.00  0.00    +0.000 A 
ATOM     25  C   LIG    1       27.258 -33.230   6.215  0.00  0.00    +0.000 A 
ATOM     26  C   LIG    1       26.679 -32.224   6.995  0.00  0.00    +0.005 A 
ENDBRANCH  20  21
BRANCH  20  27
ATOM     27  N   LIG    1       25.220 -28.875   6.379  0.00  0.00    -0.308 N 
ATOM     28  H   LIG    1       24.958 -29.002   5.400  0.00  0.00    +0.149 HD
ATOM     29  C   LIG    1       25.690 -27.643   6.762  0.00  0.00    +0.217 C 
ATOM     30  O   LIG    1       26.121 -27.409   7.896  0.00  0.00    -0.276 OA
BRANCH  29  31
ATOM     31  C   LIG    1       25.593 -26.561   5.691  0.00  0.00    +0.075 C 
ATOM     32  C   LIG    1       24.129 -26.134   5.435  0.00  0.00    +0.018 C 
ATOM     33  C   LIG    1       23.584 -25.104   6.428  0.00  0.00    +0.076 C 
ATOM     34  C   LIG    1       24.506 -23.909   6.580  0.00  0.00    +0.249 C 
ATOM     35  F   LIG    1       24.544 -23.222   5.408  0.00  0.00    -0.206 F 
ATOM     36  F   LIG    1       24.004 -23.058   7.507  0.00  0.00    -0.206 F 
ATOM     37  C   LIG    1       25.914 -24.318   6.965  0.00  0.00    +0.076 C 
ATOM     38  C   LIG    1       26.491 -25.322   5.971  0.00  0.00    +0.018 C 
ENDBRANCH  29  31
ENDBRANCH  20  27
ENDBRANCH   1  20
TORSDOF 8
ENDMDL
MODEL 8
REMARK VINA RESULT:      -7.6      5.244      8.674
REMARK  Name = *****
REMARK                            x       y       z     vdW  Elec       q    Type
REMARK                         _______ _______ _______ _____ _____    ______ ____
ROOT
ATOM      1  C   LIG    1       25.462 -32.630   8.693  0.00  0.00    +0.042 C 
ENDROOT
BRANCH   1   2
ATOM      2  C   LIG    1       25.496 -32.301  10.204  0.00  0.00    +0.087 C 
BRANCH   2   6
ATOM      3  C   LIG    1       24.185 -29.617  11.790  0.00  0.00    +0.093 C 
ATOM      4  C   LIG    1       23.426 -29.942  10.483  0.00  0.00    +0.044 C 
ATOM      5  C   LIG    1       23.140 -31.440  10.248  0.00  0.00    +0.059 C 
ATOM      6  N   LIG    1       24.158 -32.339  10.798  0.00  0.00    -0.296 NA
ATOM      7  C   LIG    1       24.022 -32.171  12.242  0.00  0.00    +0.059 C 
ATOM      8  C   LIG    1       22.510 -32.341  12.403  0.00  0.00    +0.020 C 
ATOM      9  C   LIG    1       21.927 -31.898  11.065  0.00  0.00    +0.020 C 
ATOM     10  C   LIG    1       24.499 -30.799  12.729  0.00  0.00    +0.044 C 
BRANCH   3  13
ATOM     11  C   LIG    1       21.217 -28.756  12.722  0.00  0.00    +0.088 C 
ATOM     12  C   LIG    1       22.494 -28.049  12.944  0.00  0.00    +0.131 A 
ATOM     13  N   LIG    1       23.754 -28.426  12.529  0.00  0.00    -0.312 N 
ATOM     14  C   LIG    1       24.604 -27.473  13.071  0.00  0.00    +0.136 A 
ATOM     15  N   LIG    1       23.888 -26.562  13.694  0.00  0.00    -0.134 NA
ATOM     16  N   LIG    1       22.581 -26.925  13.624  0.00  0.00    -0.135 NA
BRANCH  14  17
ATOM     17  C   LIG    1       26.100 -27.470  12.977  0.00  0.00    +0.051 C 
ATOM     18  C   LIG    1       26.729 -28.175  14.182  0.00  0.00    +0.015 C 
ATOM     19  C   LIG    1       26.616 -26.035  12.872  0.00  0.00    +0.015 C 
ENDBRANCH  14  17
ENDBRANCH   3  13
ENDBRANCH   2   6
ENDBRANCH   1   2
BRANCH   1  20
ATOM     20  C   LIG    1       26.335 -31.715   7.806  0.00  0.00    +0.104 C 
BRANCH  20  21
ATOM     21  C   LIG    1       26.756 -32.343   6.479  0.00  0.00    -0.027 A 
ATOM     22  C   LIG    1       27.875 -33.191   6.444  0.00  0.00    +0.005 A 
ATOM     23  C   LIG    1       28.261 -33.822   5.258  0.00  0.00    +0.000 A 
ATOM     24  C   LIG    1       27.540 -33.615   4.085  0.00  0.00    +0.000 A 
ATOM     25  C   LIG    1       26.448 -32.754   4.091  0.00  0.00    +0.000 A 
ATOM     26  C   LIG    1       26.071 -32.107   5.273  0.00  0.00    +0.005 A 
ENDBRANCH  20  21
BRANCH  20  27
ATOM     27  N   LIG    1       25.609 -30.467   7.552  0.00  0.00    -0.308 N 
ATOM     28  H   LIG    1       24.887 -30.490   6.831  0.00  0.00    +0.149 HD
ATOM     29  C   LIG    1       25.967 -29.245   8.063  0.00  0.00    +0.217 C 
ATOM     30  O   LIG    1       26.891 -29.096   8.869  0.00  0.00    -0.276 OA
BRANCH  29  31
ATOM     31  C   LIG    1       25.099 -28.080   7.598  0.00  0.00    +0.075 C 
ATOM     32  C   LIG    1       25.936 -26.802   7.351  0.00  0.00    +0.018 C 
ATOM     33  C   LIG    1       26.624 -26.746   5.985  0.00  0.00    +0.076 C 
ATOM     34  C   LIG    1       25.661 -27.024   4.846  0.00  0.00    +0.249 C 
ATOM     35  F   LIG    1       24.749 -26.019   4.776  0.00  0.00    -0.206 F 
ATOM     36  F   LIG    1       26.331 -27.016   3.667  0.00  0.00    -0.206 F 
ATOM     37  C   LIG    1       24.938 -28.344   5.017  0.00  0.00    +0.076 C 
ATOM     38  C   LIG    1       24.217 -28.411   6.361  0.00  0.00    +0.018 C 
ENDBRANCH  29  31
ENDBRANCH  20  27
ENDBRANCH   1  20
TORSDOF 8
ENDMDL
MODEL 9
REMARK VINA RESULT:      -7.4      5.180      8.725
REMARK  Name = *****
REMARK                            x       y       z     vdW  Elec       q    Type
REMARK                         _______ _______ _______ _____ _____    ______ ____
ROOT
ATOM      1  C   LIG    1       25.412 -32.419   8.892  0.00  0.00    +0.042 C 
ENDROOT
BRANCH   1   2
ATOM      2  C   LIG    1       25.672 -32.187  10.399  0.00  0.00    +0.087 C 
BRANCH   2   6
ATOM      3  C   LIG    1       24.817 -29.350  12.029  0.00  0.00    +0.093 C 
ATOM      4  C   LIG    1       23.871 -29.640  10.842  0.00  0.00    +0.044 C 
ATOM      5  C   LIG    1       23.426 -31.111  10.703  0.00  0.00    +0.059 C 
ATOM      6  N   LIG    1       24.424 -32.085  11.156  0.00  0.00    -0.296 NA
ATOM      7  C   LIG    1       24.489 -31.865  12.598  0.00  0.00    +0.059 C 
ATOM      8  C   LIG    1       23.001 -31.890  12.953  0.00  0.00    +0.020 C 
ATOM      9  C   LIG    1       22.292 -31.432  11.683  0.00  0.00    +0.020 C 
ATOM     10  C   LIG    1       25.143 -30.530  12.968  0.00  0.00    +0.044 C 
BRANCH   3  13
ATOM     11  C   LIG    1       26.819 -26.863  12.500  0.00  0.00    +0.088 C 
ATOM     12  C   LIG    1       25.430 -27.029  12.971  0.00  0.00    +0.131 A 
ATOM     13  N   LIG    1       24.591 -28.105  12.769  0.00  0.00    -0.312 N 
ATOM     14  C   LIG    1       23.382 -27.720  13.333  0.00  0.00    +0.136 A 
ATOM     15  N   LIG    1       23.524 -26.537  13.890  0.00  0.00    -0.134 NA
ATOM     16  N   LIG    1       24.791 -26.104  13.656  0.00  0.00    -0.135 NA
BRANCH  14  17
ATOM     17  C   LIG    1       22.109 -28.510  13.312  0.00  0.00    +0.051 C 
ATOM     18  C   LIG    1       20.940 -27.659  12.809  0.00  0.00    +0.015 C 
ATOM     19  C   LIG    1       21.807 -29.054  14.708  0.00  0.00    +0.015 C 
ENDBRANCH  14  17
ENDBRANCH   3  13
ENDBRANCH   2   6
ENDBRANCH   1   2
BRANCH   1  20
ATOM     20  C   LIG    1       26.283 -31.569   7.940  0.00  0.00    +0.104 C 
BRANCH  20  21
ATOM     21  C   LIG    1       26.665 -32.275   6.641  0.00  0.00    -0.027 A 
ATOM     22  C   LIG    1       25.928 -32.013   5.474  0.00  0.00    +0.005 A 
ATOM     23  C   LIG    1       26.279 -32.603   4.255  0.00  0.00    +0.000 A 
ATOM     24  C   LIG    1       27.368 -33.467   4.181  0.00  0.00    +0.000 A 
ATOM     25  C   LIG    1       28.092 -33.764   5.332  0.00  0.00    +0.000 A 
ATOM     26  C   LIG    1       27.731 -33.189   6.555  0.00  0.00    +0.005 A 
ENDBRANCH  20  21
BRANCH  20  27
ATOM     27  N   LIG    1       25.576 -30.323   7.635  0.00  0.00    -0.308 N 
ATOM     28  H   LIG    1       24.862 -30.363   6.906  0.00  0.00    +0.149 HD
ATOM     29  C   LIG    1       25.942 -29.088   8.108  0.00  0.00    +0.217 C 
ATOM     30  O   LIG    1       26.859 -28.922   8.920  0.00  0.00    -0.276 OA
BRANCH  29  31
ATOM     31  C   LIG    1       25.095 -27.929   7.592  0.00  0.00    +0.075 C 
ATOM     32  C   LIG    1       25.950 -26.671   7.314  0.00  0.00    +0.018 C 
ATOM     33  C   LIG    1       26.656 -26.669   5.955  0.00  0.00    +0.076 C 
ATOM     34  C   LIG    1       25.705 -26.975   4.813  0.00  0.00    +0.249 C 
ATOM     35  F   LIG    1       24.806 -25.962   4.698  0.00  0.00    -0.206 F 
ATOM     36  F   LIG    1       26.390 -27.014   3.645  0.00  0.00    -0.206 F 
ATOM     37  C   LIG    1       24.964 -28.280   5.020  0.00  0.00    +0.076 C 
ATOM     38  C   LIG    1       24.225 -28.293   6.355  0.00  0.00    +0.018 C 
ENDBRANCH  29  31
ENDBRANCH  20  27
ENDBRANCH   1  20
TORSDOF 8
ENDMDL
