MODEL 1
REMARK VINA RESULT:      -7.0      0.000      0.000
REMARK  Name = *****
REMARK                            x       y       z     vdW  Elec       q    Type
REMARK                         _______ _______ _______ _____ _____    ______ ____
ROOT
ATOM      1  C   LIG    1       30.196 -20.005   7.431  0.00  0.00    -0.017 A 
ATOM      2  C   LIG    1       29.886 -21.125   8.222  0.00  0.00    +0.120 A 
ATOM      3  C   LIG    1       28.585 -21.668   8.224  0.00  0.00    +0.034 A 
ATOM      4  C   LIG    1       27.550 -21.146   7.425  0.00  0.00    -0.036 A 
ATOM      5  C   LIG    1       26.133 -21.774   7.440  0.00  0.00    -0.003 C 
ATOM      6  C   LIG    1       25.531 -21.407   8.827  0.00  0.00    +0.016 C 
ATOM      7  C   LIG    1       25.168 -21.208   6.310  0.00  0.00    +0.016 C 
ATOM      8  C   LIG    1       25.914 -20.442   5.200  0.00  0.00    +0.010 C 
ATOM      9  C   LIG    1       26.801 -19.368   5.799  0.00  0.00    +0.036 C 
ATOM     10  C   LIG    1       24.145 -22.241   5.698  0.00  0.00    +0.068 C 
ATOM     11  C   LIG    1       24.699 -22.979   4.449  0.00  0.00    +0.023 C 
ATOM     12  C   LIG    1       23.739 -23.300   6.739  0.00  0.00    +0.018 C 
ATOM     13  C   LIG    1       24.917 -24.080   7.304  0.00  0.00    +0.002 C 
ATOM     14  C   LIG    1       26.242 -23.318   7.329  0.00  0.00    +0.012 C 
ATOM     15  C   LIG    1       27.851 -20.018   6.649  0.00  0.00    -0.043 A 
ATOM     16  C   LIG    1       29.145 -19.462   6.666  0.00  0.00    +0.009 A 
ENDROOT
BRANCH   1  18
ATOM     17  C   LIG    1       31.720 -18.143   8.253  0.00  0.00    +0.012 C 
ATOM     18  C   LIG    1       31.574 -19.363   7.333  0.00  0.00    +0.015 C 
ATOM     19  C   LIG    1       31.889 -18.969   5.884  0.00  0.00    +0.012 C 
ENDBRANCH   1  18
BRANCH   2  20
ATOM     20  S   LIG    1       31.087 -21.939   9.260  0.00  0.00    +0.110 S 
ATOM     21  O   LIG    1       30.404 -22.484  10.415  0.00  0.00    -0.142 OA
ATOM     22  O   LIG    1       32.224 -21.056   9.409  0.00  0.00    -0.142 OA
BRANCH  20  23
ATOM     23  O   LIG    1       31.555 -23.239   8.430  0.00  0.00    -0.250 OA
ATOM     24  H   LIG    1       31.281 -24.027   8.948  0.00  0.00    +0.245 HD
ENDBRANCH  20  23
ENDBRANCH   2  20
BRANCH  10  25
ATOM     25  C   LIG    1       22.869 -21.499   5.246  0.00  0.00    +0.311 C 
ATOM     26  O   LIG    1       22.859 -20.387   4.734  0.00  0.00    -0.250 OA
BRANCH  25  27
ATOM     27  O   LIG    1       21.712 -22.167   5.455  0.00  0.00    -0.480 OA
ATOM     28  H   LIG    1       21.764 -23.137   5.398  0.00  0.00    +0.295 HD
ENDBRANCH  25  27
ENDBRANCH  10  25
TORSDOF 5
ENDMDL
MODEL 2
REMARK VINA RESULT:      -6.4      7.654     10.869
REMARK  Name = *****
REMARK                            x       y       z     vdW  Elec       q    Type
REMARK                         _______ _______ _______ _____ _____    ______ ____
ROOT
ATOM      1  C   LIG    1       25.546 -28.180   7.142  0.00  0.00    -0.017 A 
ATOM      2  C   LIG    1       25.060 -29.498   7.111  0.00  0.00    +0.120 A 
ATOM      3  C   LIG    1       25.191 -30.341   8.233  0.00  0.00    +0.034 A 
ATOM      4  C   LIG    1       25.780 -29.908   9.437  0.00  0.00    -0.036 A 
ATOM      5  C   LIG    1       25.898 -30.855  10.657  0.00  0.00    -0.003 C 
ATOM      6  C   LIG    1       26.976 -31.906  10.265  0.00  0.00    +0.016 C 
ATOM      7  C   LIG    1       26.369 -30.128  11.990  0.00  0.00    +0.016 C 
ATOM      8  C   LIG    1       26.256 -28.593  11.920  0.00  0.00    +0.010 C 
ATOM      9  C   LIG    1       26.963 -28.063  10.688  0.00  0.00    +0.036 C 
ATOM     10  C   LIG    1       25.750 -30.682  13.331  0.00  0.00    +0.068 C 
ATOM     11  C   LIG    1       24.441 -29.956  13.743  0.00  0.00    +0.023 C 
ATOM     12  C   LIG    1       25.449 -32.188  13.221  0.00  0.00    +0.018 C 
ATOM     13  C   LIG    1       24.500 -32.536  12.084  0.00  0.00    +0.002 C 
ATOM     14  C   LIG    1       24.547 -31.582  10.890  0.00  0.00    +0.012 C 
ATOM     15  C   LIG    1       26.282 -28.599   9.464  0.00  0.00    -0.043 A 
ATOM     16  C   LIG    1       26.171 -27.766   8.334  0.00  0.00    +0.009 A 
ENDROOT
BRANCH   1  18
ATOM     17  C   LIG    1       26.621 -27.244   5.036  0.00  0.00    +0.012 C 
ATOM     18  C   LIG    1       25.427 -27.181   5.998  0.00  0.00    +0.015 C 
ATOM     19  C   LIG    1       25.259 -25.755   6.537  0.00  0.00    +0.012 C 
ENDBRANCH   1  18
BRANCH   2  20
ATOM     20  S   LIG    1       24.248 -30.198   5.685  0.00  0.00    +0.110 S 
ATOM     21  O   LIG    1       23.349 -31.243   6.131  0.00  0.00    -0.142 OA
ATOM     22  O   LIG    1       25.254 -30.455   4.677  0.00  0.00    -0.142 OA
BRANCH  20  23
ATOM     23  O   LIG    1       23.266 -29.039   5.144  0.00  0.00    -0.250 OA
ATOM     24  H   LIG    1       22.503 -28.996   5.760  0.00  0.00    +0.245 HD
ENDBRANCH  20  23
ENDBRANCH   2  20
BRANCH  10  25
ATOM     25  C   LIG    1       26.754 -30.478  14.488  0.00  0.00    +0.311 C 
ATOM     26  O   LIG    1       26.575 -29.722  15.433  0.00  0.00    -0.250 OA
BRANCH  25  27
ATOM     27  O   LIG    1       27.890 -31.205  14.396  0.00  0.00    -0.480 OA
ATOM     28  H   LIG    1       28.213 -31.597  15.226  0.00  0.00    +0.295 HD
ENDBRANCH  25  27
ENDBRANCH  10  25
TORSDOF 5
ENDMDL
MODEL 3
REMARK VINA RESULT:      -6.4      8.708     11.135
REMARK  Name = *****
REMARK                            x       y       z     vdW  Elec       q    Type
REMARK                         _______ _______ _______ _____ _____    ______ ____
ROOT
ATOM      1  C   LIG    1       25.252 -27.962  12.638  0.00  0.00    -0.017 A 
ATOM      2  C   LIG    1       24.695 -26.938  13.423  0.00  0.00    +0.120 A 
ATOM      3  C   LIG    1       23.310 -26.902  13.683  0.00  0.00    +0.034 A 
ATOM      4  C   LIG    1       22.428 -27.891  13.206  0.00  0.00    -0.036 A 
ATOM      5  C   LIG    1       20.912 -27.830  13.521  0.00  0.00    -0.003 C 
ATOM      6  C   LIG    1       20.361 -26.639  12.687  0.00  0.00    +0.016 C 
ATOM      7  C   LIG    1       20.118 -29.143  13.105  0.00  0.00    +0.016 C 
ATOM      8  C   LIG    1       21.036 -30.348  12.825  0.00  0.00    +0.010 C 
ATOM      9  C   LIG    1       22.110 -29.976  11.821  0.00  0.00    +0.036 C 
ATOM     10  C   LIG    1       18.920 -29.550  14.048  0.00  0.00    +0.068 C 
ATOM     11  C   LIG    1       19.343 -30.518  15.186  0.00  0.00    +0.023 C 
ATOM     12  C   LIG    1       18.274 -28.309  14.689  0.00  0.00    +0.018 C 
ATOM     13  C   LIG    1       19.248 -27.467  15.500  0.00  0.00    +0.002 C 
ATOM     14  C   LIG    1       20.701 -27.530  15.030  0.00  0.00    +0.012 C 
ATOM     15  C   LIG    1       22.979 -28.903  12.409  0.00  0.00    -0.043 A 
ATOM     16  C   LIG    1       24.358 -28.924  12.129  0.00  0.00    +0.009 A 
ENDROOT
BRANCH   1  18
ATOM     17  C   LIG    1       27.007 -28.238  10.819  0.00  0.00    +0.012 C 
ATOM     18  C   LIG    1       26.736 -28.109  12.324  0.00  0.00    +0.015 C 
ATOM     19  C   LIG    1       27.334 -29.307  13.071  0.00  0.00    +0.012 C 
ENDBRANCH   1  18
BRANCH   2  20
ATOM     20  S   LIG    1       25.671 -25.630  14.143  0.00  0.00    +0.110 S 
ATOM     21  O   LIG    1       26.761 -26.225  14.890  0.00  0.00    -0.142 OA
ATOM     22  O   LIG    1       24.767 -24.684  14.762  0.00  0.00    -0.142 OA
BRANCH  20  23
ATOM     23  O   LIG    1       26.396 -24.905  12.898  0.00  0.00    -0.250 OA
ATOM     24  H   LIG    1       26.445 -25.562  12.170  0.00  0.00    +0.245 HD
ENDBRANCH  20  23
ENDBRANCH   2  20
BRANCH  10  25
ATOM     25  C   LIG    1       17.838 -30.281  13.222  0.00  0.00    +0.311 C 
ATOM     26  O   LIG    1       18.029 -31.310  12.588  0.00  0.00    -0.250 OA
BRANCH  25  27
ATOM     27  O   LIG    1       16.617 -29.700  13.235  0.00  0.00    -0.480 OA
ATOM     28  H   LIG    1       16.083 -29.814  12.430  0.00  0.00    +0.295 HD
ENDBRANCH  25  27
ENDBRANCH  10  25
TORSDOF 5
ENDMDL
MODEL 4
REMARK VINA RESULT:      -6.4      8.481     11.345
REMARK  Name = *****
REMARK                            x       y       z     vdW  Elec       q    Type
REMARK                         _______ _______ _______ _____ _____    ______ ____
ROOT
ATOM      1  C   LIG    1       24.275 -30.396   9.815  0.00  0.00    -0.017 A 
ATOM      2  C   LIG    1       23.446 -30.452  10.948  0.00  0.00    +0.120 A 
ATOM      3  C   LIG    1       23.773 -29.733  12.116  0.00  0.00    +0.034 A 
ATOM      4  C   LIG    1       24.912 -28.909  12.199  0.00  0.00    -0.036 A 
ATOM      5  C   LIG    1       25.236 -28.121  13.493  0.00  0.00    -0.003 C 
ATOM      6  C   LIG    1       25.677 -29.190  14.532  0.00  0.00    +0.016 C 
ATOM      7  C   LIG    1       26.418 -27.069  13.324  0.00  0.00    +0.016 C 
ATOM      8  C   LIG    1       26.756 -26.763  11.852  0.00  0.00    +0.010 C 
ATOM      9  C   LIG    1       27.007 -28.048  11.087  0.00  0.00    +0.036 C 
ATOM     10  C   LIG    1       26.280 -25.740  14.164  0.00  0.00    +0.068 C 
ATOM     11  C   LIG    1       25.552 -24.606  13.392  0.00  0.00    +0.023 C 
ATOM     12  C   LIG    1       25.520 -25.991  15.478  0.00  0.00    +0.018 C 
ATOM     13  C   LIG    1       24.126 -26.567  15.274  0.00  0.00    +0.002 C 
ATOM     14  C   LIG    1       23.956 -27.411  14.011  0.00  0.00    +0.012 C 
ATOM     15  C   LIG    1       25.749 -28.865  11.076  0.00  0.00    -0.043 A 
ATOM     16  C   LIG    1       25.434 -29.603   9.919  0.00  0.00    +0.009 A 
ENDROOT
BRANCH   1  18
ATOM     17  C   LIG    1       24.755 -32.437   8.375  0.00  0.00    +0.012 C 
ATOM     18  C   LIG    1       23.996 -31.108   8.497  0.00  0.00    +0.015 C 
ATOM     19  C   LIG    1       24.331 -30.200   7.307  0.00  0.00    +0.012 C 
ENDBRANCH   1  18
BRANCH   2  20
ATOM     20  S   LIG    1       21.942 -31.410  11.003  0.00  0.00    +0.110 S 
ATOM     21  O   LIG    1       22.285 -32.813  10.893  0.00  0.00    -0.142 OA
ATOM     22  O   LIG    1       20.988 -30.799  10.103  0.00  0.00    -0.142 OA
BRANCH  20  23
ATOM     23  O   LIG    1       21.394 -31.255  12.511  0.00  0.00    -0.250 OA
ATOM     24  H   LIG    1       22.131 -31.498  13.113  0.00  0.00    +0.245 HD
ENDBRANCH  20  23
ENDBRANCH   2  20
BRANCH  10  25
ATOM     25  C   LIG    1       27.686 -25.205  14.517  0.00  0.00    +0.311 C 
ATOM     26  O   LIG    1       28.004 -24.023  14.484  0.00  0.00    -0.250 OA
BRANCH  25  27
ATOM     27  O   LIG    1       28.585 -26.148  14.877  0.00  0.00    -0.480 OA
ATOM     28  H   LIG    1       29.486 -26.033  14.528  0.00  0.00    +0.295 HD
ENDBRANCH  25  27
ENDBRANCH  10  25
TORSDOF 5
ENDMDL
MODEL 5
REMARK VINA RESULT:      -6.3      9.389     11.156
REMARK  Name = *****
REMARK                            x       y       z     vdW  Elec       q    Type
REMARK                         _______ _______ _______ _____ _____    ______ ____
ROOT
ATOM      1  C   LIG    1       22.066 -27.530  13.319  0.00  0.00    -0.017 A 
ATOM      2  C   LIG    1       23.448 -27.321  13.470  0.00  0.00    +0.120 A 
ATOM      3  C   LIG    1       24.378 -28.145  12.805  0.00  0.00    +0.034 A 
ATOM      4  C   LIG    1       23.981 -29.186  11.943  0.00  0.00    -0.036 A 
ATOM      5  C   LIG    1       25.029 -30.066  11.216  0.00  0.00    -0.003 C 
ATOM      6  C   LIG    1       25.673 -30.947  12.324  0.00  0.00    +0.016 C 
ATOM      7  C   LIG    1       24.405 -31.026  10.112  0.00  0.00    +0.016 C 
ATOM      8  C   LIG    1       22.968 -30.641   9.712  0.00  0.00    +0.010 C 
ATOM      9  C   LIG    1       22.089 -30.520  10.942  0.00  0.00    +0.036 C 
ATOM     10  C   LIG    1       25.300 -31.281   8.838  0.00  0.00    +0.068 C 
ATOM     11  C   LIG    1       25.030 -30.268   7.692  0.00  0.00    +0.023 C 
ATOM     12  C   LIG    1       26.797 -31.218   9.191  0.00  0.00    +0.018 C 
ATOM     13  C   LIG    1       27.221 -29.893   9.807  0.00  0.00    +0.002 C 
ATOM     14  C   LIG    1       26.126 -29.165  10.586  0.00  0.00    +0.012 C 
ATOM     15  C   LIG    1       22.604 -29.408  11.805  0.00  0.00    -0.043 A 
ATOM     16  C   LIG    1       21.677 -28.599  12.489  0.00  0.00    +0.009 A 
ENDROOT
BRANCH   1  18
ATOM     17  C   LIG    1       20.274 -27.407  15.119  0.00  0.00    +0.012 C 
ATOM     18  C   LIG    1       20.981 -26.680  13.968  0.00  0.00    +0.015 C 
ATOM     19  C   LIG    1       19.954 -26.221  12.924  0.00  0.00    +0.012 C 
ENDBRANCH   1  18
BRANCH   2  20
ATOM     20  S   LIG    1       24.126 -26.022  14.488  0.00  0.00    +0.110 S 
ATOM     21  O   LIG    1       23.150 -25.672  15.499  0.00  0.00    -0.142 OA
ATOM     22  O   LIG    1       24.693 -25.018  13.614  0.00  0.00    -0.142 OA
BRANCH  20  23
ATOM     23  O   LIG    1       25.323 -26.713  15.318  0.00  0.00    -0.250 OA
ATOM     24  H   LIG    1       25.352 -27.657  15.050  0.00  0.00    +0.245 HD
ENDBRANCH  20  23
ENDBRANCH   2  20
BRANCH  10  25
ATOM     25  C   LIG    1       25.000 -32.685   8.268  0.00  0.00    +0.311 C 
ATOM     26  O   LIG    1       25.445 -33.728   8.729  0.00  0.00    -0.250 OA
BRANCH  25  27
ATOM     27  O   LIG    1       24.189 -32.704   7.187  0.00  0.00    -0.480 OA
ATOM     28  H   LIG    1       24.631 -32.773   6.323  0.00  0.00    +0.295 HD
ENDBRANCH  25  27
ENDBRANCH  10  25
TORSDOF 5
ENDMDL
MODEL 6
REMARK VINA RESULT:      -6.2      9.699     11.396
REMARK  Name = *****
REMARK                            x       y       z     vdW  Elec       q    Type
REMARK                         _______ _______ _______ _____ _____    ______ ____
ROOT
ATOM      1  C   LIG    1       24.295 -28.268  12.764  0.00  0.00    -0.017 A 
ATOM      2  C   LIG    1       23.133 -28.871  12.252  0.00  0.00    +0.120 A 
ATOM      3  C   LIG    1       23.191 -29.688  11.106  0.00  0.00    +0.034 A 
ATOM      4  C   LIG    1       24.400 -29.967  10.439  0.00  0.00    -0.036 A 
ATOM      5  C   LIG    1       24.432 -30.880   9.188  0.00  0.00    -0.003 C 
ATOM      6  C   LIG    1       23.754 -30.059   8.055  0.00  0.00    +0.016 C 
ATOM      7  C   LIG    1       25.900 -31.270   8.715  0.00  0.00    +0.016 C 
ATOM      8  C   LIG    1       26.977 -30.990   9.781  0.00  0.00    +0.010 C 
ATOM      9  C   LIG    1       26.884 -29.557  10.268  0.00  0.00    +0.036 C 
ATOM     10  C   LIG    1       26.066 -32.715   8.106  0.00  0.00    +0.068 C 
ATOM     11  C   LIG    1       26.439 -33.784   9.169  0.00  0.00    +0.023 C 
ATOM     12  C   LIG    1       24.776 -33.170   7.401  0.00  0.00    +0.018 C 
ATOM     13  C   LIG    1       23.556 -33.178   8.311  0.00  0.00    +0.002 C 
ATOM     14  C   LIG    1       23.596 -32.162   9.452  0.00  0.00    +0.012 C 
ATOM     15  C   LIG    1       25.557 -29.353  10.937  0.00  0.00    -0.043 A 
ATOM     16  C   LIG    1       25.494 -28.517  12.068  0.00  0.00    +0.009 A 
ENDROOT
BRANCH   1  18
ATOM     17  C   LIG    1       24.255 -25.898  13.685  0.00  0.00    +0.012 C 
ATOM     18  C   LIG    1       24.345 -27.395  14.012  0.00  0.00    +0.015 C 
ATOM     19  C   LIG    1       25.614 -27.681  14.825  0.00  0.00    +0.012 C 
ENDBRANCH   1  18
BRANCH   2  20
ATOM     20  S   LIG    1       21.525 -28.662  12.996  0.00  0.00    +0.110 S 
ATOM     21  O   LIG    1       21.133 -27.274  12.864  0.00  0.00    -0.142 OA
ATOM     22  O   LIG    1       21.538 -29.318  14.286  0.00  0.00    -0.142 OA
BRANCH  20  23
ATOM     23  O   LIG    1       20.504 -29.453  12.030  0.00  0.00    -0.250 OA
ATOM     24  H   LIG    1       20.547 -29.021  11.149  0.00  0.00    +0.245 HD
ENDBRANCH  20  23
ENDBRANCH   2  20
BRANCH  10  25
ATOM     25  C   LIG    1       27.206 -32.710   7.064  0.00  0.00    +0.311 C 
ATOM     26  O   LIG    1       28.232 -33.370   7.157  0.00  0.00    -0.250 OA
BRANCH  25  27
ATOM     27  O   LIG    1       27.004 -31.901   5.999  0.00  0.00    -0.480 OA
ATOM     28  H   LIG    1       27.090 -30.947   6.166  0.00  0.00    +0.295 HD
ENDBRANCH  25  27
ENDBRANCH  10  25
TORSDOF 5
ENDMDL
MODEL 7
REMARK VINA RESULT:      -6.1      9.655     11.692
REMARK  Name = *****
REMARK                            x       y       z     vdW  Elec       q    Type
REMARK                         _______ _______ _______ _____ _____    ______ ____
ROOT
ATOM      1  C   LIG    1       24.494 -30.463   9.369  0.00  0.00    -0.017 A 
ATOM      2  C   LIG    1       25.080 -29.743  10.424  0.00  0.00    +0.120 A 
ATOM      3  C   LIG    1       24.310 -29.335  11.532  0.00  0.00    +0.034 A 
ATOM      4  C   LIG    1       22.942 -29.646  11.654  0.00  0.00    -0.036 A 
ATOM      5  C   LIG    1       22.126 -29.193  12.891  0.00  0.00    -0.003 C 
ATOM      6  C   LIG    1       21.976 -27.652  12.750  0.00  0.00    +0.016 C 
ATOM      7  C   LIG    1       20.671 -29.832  12.970  0.00  0.00    +0.016 C 
ATOM      8  C   LIG    1       20.487 -31.044  12.035  0.00  0.00    +0.010 C 
ATOM      9  C   LIG    1       20.891 -30.688  10.618  0.00  0.00    +0.036 C 
ATOM     10  C   LIG    1       20.136 -30.147  14.420  0.00  0.00    +0.068 C 
ATOM     11  C   LIG    1       20.476 -31.585  14.895  0.00  0.00    +0.023 C 
ATOM     12  C   LIG    1       20.706 -29.154  15.448  0.00  0.00    +0.018 C 
ATOM     13  C   LIG    1       22.227 -29.139  15.500  0.00  0.00    +0.002 C 
ATOM     14  C   LIG    1       22.920 -29.506  14.188  0.00  0.00    +0.012 C 
ATOM     15  C   LIG    1       22.352 -30.348  10.595  0.00  0.00    -0.043 A 
ATOM     16  C   LIG    1       23.117 -30.734   9.478  0.00  0.00    +0.009 A 
ENDROOT
BRANCH   1  18
ATOM     17  C   LIG    1       24.761 -30.321   6.844  0.00  0.00    +0.012 C 
ATOM     18  C   LIG    1       25.243 -30.976   8.145  0.00  0.00    +0.015 C 
ATOM     19  C   LIG    1       25.128 -32.503   8.039  0.00  0.00    +0.012 C 
ENDBRANCH   1  18
BRANCH   2  20
ATOM     20  S   LIG    1       26.808 -29.301  10.454  0.00  0.00    +0.110 S 
ATOM     21  O   LIG    1       27.595 -30.517  10.477  0.00  0.00    -0.142 OA
ATOM     22  O   LIG    1       26.990 -28.271  11.455  0.00  0.00    -0.142 OA
BRANCH  20  23
ATOM     23  O   LIG    1       27.108 -28.664   9.004  0.00  0.00    -0.250 OA
ATOM     24  H   LIG    1       27.954 -29.051   8.688  0.00  0.00    +0.245 HD
ENDBRANCH  20  23
ENDBRANCH   2  20
BRANCH  10  25
ATOM     25  C   LIG    1       18.596 -30.026  14.439  0.00  0.00    +0.311 C 
ATOM     26  O   LIG    1       17.855 -30.727  15.116  0.00  0.00    -0.250 OA
BRANCH  25  27
ATOM     27  O   LIG    1       18.086 -29.067  13.635  0.00  0.00    -0.480 OA
ATOM     28  H   LIG    1       18.618 -28.840  12.852  0.00  0.00    +0.295 HD
ENDBRANCH  25  27
ENDBRANCH  10  25
TORSDOF 5
ENDMDL
MODEL 8
REMARK VINA RESULT:      -5.5      9.011     11.389
REMARK  Name = *****
REMARK                            x       y       z     vdW  Elec       q    Type
REMARK                         _______ _______ _______ _____ _____    ______ ____
ROOT
ATOM      1  C   LIG    1       25.487 -28.439  12.413  0.00  0.00    -0.017 A 
ATOM      2  C   LIG    1       25.759 -29.529  11.569  0.00  0.00    +0.120 A 
ATOM      3  C   LIG    1       24.792 -30.533  11.355  0.00  0.00    +0.034 A 
ATOM      4  C   LIG    1       23.512 -30.483  11.941  0.00  0.00    -0.036 A 
ATOM      5  C   LIG    1       22.467 -31.596  11.675  0.00  0.00    -0.003 C 
ATOM      6  C   LIG    1       22.993 -32.850  12.430  0.00  0.00    +0.016 C 
ATOM      7  C   LIG    1       21.014 -31.254  12.223  0.00  0.00    +0.016 C 
ATOM      8  C   LIG    1       20.826 -29.764  12.566  0.00  0.00    +0.010 C 
ATOM      9  C   LIG    1       21.925 -29.291  13.498  0.00  0.00    +0.036 C 
ATOM     10  C   LIG    1       19.809 -31.794  11.358  0.00  0.00    +0.068 C 
ATOM     11  C   LIG    1       19.327 -30.779  10.287  0.00  0.00    +0.023 C 
ATOM     12  C   LIG    1       20.184 -33.104  10.643  0.00  0.00    +0.018 C 
ATOM     13  C   LIG    1       21.397 -32.975   9.733  0.00  0.00    +0.002 C 
ATOM     14  C   LIG    1       22.408 -31.910  10.156  0.00  0.00    +0.012 C 
ATOM     15  C   LIG    1       23.246 -29.406  12.797  0.00  0.00    -0.043 A 
ATOM     16  C   LIG    1       24.221 -28.417  13.028  0.00  0.00    +0.009 A 
ENDROOT
BRANCH   1  18
ATOM     17  C   LIG    1       27.434 -27.603  13.820  0.00  0.00    +0.012 C 
ATOM     18  C   LIG    1       26.449 -27.289  12.686  0.00  0.00    +0.015 C 
ATOM     19  C   LIG    1       25.679 -25.999  12.999  0.00  0.00    +0.012 C 
ENDBRANCH   1  18
BRANCH   2  20
ATOM     20  S   LIG    1       27.311 -29.728  10.712  0.00  0.00    +0.110 S 
ATOM     21  O   LIG    1       28.364 -29.880  11.695  0.00  0.00    -0.142 OA
ATOM     22  O   LIG    1       27.387 -28.716   9.681  0.00  0.00    -0.142 OA
BRANCH  20  23
ATOM     23  O   LIG    1       27.222 -31.174  10.003  0.00  0.00    -0.250 OA
ATOM     24  H   LIG    1       27.193 -31.019   9.034  0.00  0.00    +0.245 HD
ENDBRANCH  20  23
ENDBRANCH   2  20
BRANCH  10  25
ATOM     25  C   LIG    1       18.600 -32.077  12.277  0.00  0.00    +0.311 C 
ATOM     26  O   LIG    1       17.547 -31.455  12.247  0.00  0.00    -0.250 OA
BRANCH  25  27
ATOM     27  O   LIG    1       18.773 -33.091  13.155  0.00  0.00    -0.480 OA
ATOM     28  H   LIG    1       18.145 -33.831  13.081  0.00  0.00    +0.295 HD
ENDBRANCH  25  27
ENDBRANCH  10  25
TORSDOF 5
ENDMDL
MODEL 9
REMARK VINA RESULT:      -5.4      9.417     12.867
REMARK  Name = *****
REMARK                            x       y       z     vdW  Elec       q    Type
REMARK                         _______ _______ _______ _____ _____    ______ ____
ROOT
ATOM      1  C   LIG    1       20.254 -30.044  13.515  0.00  0.00    -0.017 A 
ATOM      2  C   LIG    1       21.328 -30.949  13.471  0.00  0.00    +0.120 A 
ATOM      3  C   LIG    1       22.652 -30.488  13.326  0.00  0.00    +0.034 A 
ATOM      4  C   LIG    1       22.969 -29.118  13.249  0.00  0.00    -0.036 A 
ATOM      5  C   LIG    1       24.437 -28.643  13.103  0.00  0.00    -0.003 C 
ATOM      6  C   LIG    1       24.859 -29.036  11.658  0.00  0.00    +0.016 C 
ATOM      7  C   LIG    1       24.623 -27.072  13.270  0.00  0.00    +0.016 C 
ATOM      8  C   LIG    1       23.403 -26.379  13.907  0.00  0.00    +0.010 C 
ATOM      9  C   LIG    1       22.135 -26.738  13.156  0.00  0.00    +0.036 C 
ATOM     10  C   LIG    1       25.964 -26.608  13.958  0.00  0.00    +0.068 C 
ATOM     11  C   LIG    1       25.839 -26.463  15.499  0.00  0.00    +0.023 C 
ATOM     12  C   LIG    1       27.109 -27.592  13.661  0.00  0.00    +0.018 C 
ATOM     13  C   LIG    1       26.817 -29.017  14.109  0.00  0.00    +0.002 C 
ATOM     14  C   LIG    1       25.338 -29.400  14.116  0.00  0.00    +0.012 C 
ATOM     15  C   LIG    1       21.898 -28.215  13.275  0.00  0.00    -0.043 A 
ATOM     16  C   LIG    1       20.574 -28.678  13.395  0.00  0.00    +0.009 A 
ENDROOT
BRANCH   1  18
ATOM     17  C   LIG    1       18.128 -30.863  12.384  0.00  0.00    +0.012 C 
ATOM     18  C   LIG    1       18.793 -30.436  13.700  0.00  0.00    +0.015 C 
ATOM     19  C   LIG    1       18.000 -29.290  14.343  0.00  0.00    +0.012 C 
ENDBRANCH   1  18
BRANCH   2  20
ATOM     20  S   LIG    1       21.113 -32.715  13.598  0.00  0.00    +0.110 S 
ATOM     21  O   LIG    1       20.605 -33.210  12.335  0.00  0.00    -0.142 OA
ATOM     22  O   LIG    1       20.430 -32.995  14.843  0.00  0.00    -0.142 OA
BRANCH  20  23
ATOM     23  O   LIG    1       22.605 -33.320  13.687  0.00  0.00    -0.250 OA
ATOM     24  H   LIG    1       22.724 -33.912  12.913  0.00  0.00    +0.245 HD
ENDBRANCH  20  23
ENDBRANCH   2  20
BRANCH  10  25
ATOM     25  C   LIG    1       26.371 -25.221  13.414  0.00  0.00    +0.311 C 
ATOM     26  O   LIG    1       25.594 -24.293  13.232  0.00  0.00    -0.250 OA
BRANCH  25  27
ATOM     27  O   LIG    1       27.686 -25.078  13.133  0.00  0.00    -0.480 OA
ATOM     28  H   LIG    1       27.897 -24.600  12.312  0.00  0.00    +0.295 HD
ENDBRANCH  25  27
ENDBRANCH  10  25
TORSDOF 5
ENDMDL
