MODEL 1
REMARK VINA RESULT:       5.7      0.000      0.000
REMARK  Name = *****
REMARK                            x       y       z     vdW  Elec       q    Type
REMARK                         _______ _______ _______ _____ _____    ______ ____
ROOT
ATOM      1  C   LIG    1       22.457 -20.585   3.852  0.00  0.00    +0.162 A 
ATOM      2  C   LIG    1       22.045 -19.245   3.977  0.00  0.00    +0.175 A 
ATOM      3  C   LIG    1       23.010 -18.207   4.052  0.00  0.00    +0.091 A 
ATOM      4  C   LIG    1       24.378 -18.516   3.971  0.00  0.00    -0.002 A 
ATOM      5  C   LIG    1       25.315 -17.482   3.981  0.00  0.00    +0.087 A 
ATOM      6  C   LIG    1       24.907 -16.148   4.095  0.00  0.00    +0.216 A 
ATOM      7  C   LIG    1       25.826 -14.994   4.095  0.00  0.00    +0.053 A 
ATOM      8  C   LIG    1       25.441 -13.792   4.751  0.00  0.00    -0.024 A 
ATOM      9  C   LIG    1       26.303 -12.688   4.827  0.00  0.00    +0.054 A 
ATOM     10  C   LIG    1       27.521 -12.784   4.194  0.00  0.00    +0.167 A 
ATOM     11  O   LIG    1       28.466 -11.812   4.134  0.00  0.00    -0.453 OA
ATOM     12  C   LIG    1       29.474 -12.455   3.325  0.00  0.00    +0.466 C 
ATOM     13  O   LIG    1       29.120 -13.805   2.948  0.00  0.00    -0.453 OA
ATOM     14  C   LIG    1       27.894 -13.920   3.522  0.00  0.00    +0.167 A 
ATOM     15  C   LIG    1       24.071 -13.736   5.371  0.00  0.00    +0.108 C 
ATOM     16  C   LIG    1       23.110 -14.478   4.453  0.00  0.00    +0.362 C 
ATOM     17  C   LIG    1       27.081 -15.035   3.457  0.00  0.00    +0.064 A 
ATOM     18  N   LIG    1       23.582 -15.874   4.253  0.00  0.00    -0.196 N 
ATOM     19  C   LIG    1       24.774 -19.854   3.884  0.00  0.00    +0.013 A 
ATOM     20  C   LIG    1       22.658 -16.861   4.203  0.00  0.00    +0.322 A 
ATOM     21  C   LIG    1       23.825 -20.876   3.840  0.00  0.00    +0.050 A 
ENDROOT
BRANCH   1  23
ATOM     22  C   LIG    1       20.552 -21.571   4.882  0.00  0.00    +0.277 C 
ATOM     23  O   LIG    1       21.505 -21.566   3.822  0.00  0.00    -0.491 OA
ENDBRANCH   1  23
BRANCH   2  24
ATOM     24  O   LIG    1       20.743 -18.800   4.073  0.00  0.00    -0.491 OA
ATOM     25  C   LIG    1       20.064 -18.460   2.868  0.00  0.00    +0.277 C 
ENDBRANCH   2  24
TORSDOF 2
ENDMDL
MODEL 2
REMARK VINA RESULT:       7.5      1.332      8.065
REMARK  Name = *****
REMARK                            x       y       z     vdW  Elec       q    Type
REMARK                         _______ _______ _______ _____ _____    ______ ____
ROOT
ATOM      1  C   LIG    1       26.444 -12.612   3.291  0.00  0.00    +0.162 A 
ATOM      2  C   LIG    1       26.877 -13.942   3.145  0.00  0.00    +0.175 A 
ATOM      3  C   LIG    1       25.990 -15.015   3.421  0.00  0.00    +0.091 A 
ATOM      4  C   LIG    1       24.668 -14.746   3.813  0.00  0.00    -0.002 A 
ATOM      5  C   LIG    1       23.786 -15.808   4.020  0.00  0.00    +0.087 A 
ATOM      6  C   LIG    1       24.212 -17.132   3.865  0.00  0.00    +0.216 A 
ATOM      7  C   LIG    1       23.345 -18.312   4.044  0.00  0.00    +0.053 A 
ATOM      8  C   LIG    1       23.923 -19.556   4.421  0.00  0.00    -0.024 A 
ATOM      9  C   LIG    1       23.133 -20.692   4.658  0.00  0.00    +0.054 A 
ATOM     10  C   LIG    1       21.777 -20.578   4.461  0.00  0.00    +0.167 A 
ATOM     11  O   LIG    1       20.865 -21.572   4.610  0.00  0.00    -0.453 OA
ATOM     12  C   LIG    1       19.648 -20.891   4.234  0.00  0.00    +0.466 C 
ATOM     13  O   LIG    1       19.860 -19.500   3.899  0.00  0.00    -0.453 OA
ATOM     14  C   LIG    1       21.205 -19.398   4.059  0.00  0.00    +0.167 A 
ATOM     15  C   LIG    1       25.420 -19.622   4.561  0.00  0.00    +0.108 C 
ATOM     16  C   LIG    1       26.033 -18.767   3.463  0.00  0.00    +0.362 C 
ATOM     17  C   LIG    1       21.951 -18.255   3.849  0.00  0.00    +0.064 A 
ATOM     18  N   LIG    1       25.519 -17.375   3.563  0.00  0.00    -0.196 N 
ATOM     19  C   LIG    1       24.262 -13.420   3.990  0.00  0.00    +0.013 A 
ATOM     20  C   LIG    1       26.375 -16.356   3.318  0.00  0.00    +0.322 A 
ATOM     21  C   LIG    1       25.144 -12.367   3.747  0.00  0.00    +0.050 A 
ENDROOT
BRANCH   1  23
ATOM     22  C   LIG    1       28.397 -11.448   3.992  0.00  0.00    +0.277 C 
ATOM     23  O   LIG    1       27.333 -11.600   3.056  0.00  0.00    -0.491 OA
ENDBRANCH   1  23
BRANCH   2  24
ATOM     24  O   LIG    1       28.141 -14.350   2.775  0.00  0.00    -0.491 OA
ATOM     25  C   LIG    1       29.211 -14.118   3.687  0.00  0.00    +0.277 C 
ENDBRANCH   2  24
TORSDOF 2
ENDMDL
