MODEL 1
REMARK VINA RESULT:     -10.7      0.000      0.000
REMARK  Name = *****
REMARK                            x       y       z     vdW  Elec       q    Type
REMARK                         _______ _______ _______ _____ _____    ______ ____
ROOT
ATOM      1  C   LIG    1       26.740 -21.103   6.639  0.00  0.00    +0.005 C 
ATOM      2  C   LIG    1       26.828 -22.295   7.275  0.00  0.00    -0.001 C 
ENDROOT
BRANCH   1   7
ATOM      3  C   LIG    1       21.723 -19.298   4.312  0.00  0.00    +0.044 C 
ATOM      4  C   LIG    1       23.013 -19.797   4.898  0.00  0.00    -0.050 A 
ATOM      5  C   LIG    1       24.182 -19.846   4.131  0.00  0.00    +0.004 A 
ATOM      6  C   LIG    1       25.385 -20.297   4.689  0.00  0.00    +0.009 A 
ATOM      7  C   LIG    1       25.447 -20.687   6.032  0.00  0.00    -0.016 A 
ATOM      8  C   LIG    1       24.272 -20.647   6.798  0.00  0.00    +0.009 A 
ATOM      9  C   LIG    1       23.067 -20.207   6.236  0.00  0.00    +0.004 A 
ENDBRANCH   1   7
BRANCH   1  10
ATOM     10  C   LIG    1       27.986 -20.268   6.588  0.00  0.00    +0.072 A 
ATOM     11  N   LIG    1       28.883 -20.405   7.614  0.00  0.00    -0.247 NA
ATOM     12  C   LIG    1       29.957 -19.582   7.636  0.00  0.00    +0.065 A 
ATOM     13  C   LIG    1       30.237 -18.687   6.613  0.00  0.00    +0.028 A 
ATOM     14  C   LIG    1       29.358 -18.599   5.543  0.00  0.00    +0.004 A 
ATOM     15  C   LIG    1       28.207 -19.383   5.536  0.00  0.00    +0.028 A 
BRANCH  12  16
ATOM     16  C   LIG    1       30.806 -19.605   8.833  0.00  0.00    +0.035 C 
ATOM     17  C   LIG    1       31.379 -18.609   9.525  0.00  0.00    +0.093 C 
BRANCH  17  18
ATOM     18  C   LIG    1       31.311 -17.137   9.416  0.00  0.00    +0.330 C 
ATOM     19  O   LIG    1       30.321 -16.531   9.776  0.00  0.00    -0.246 OA
BRANCH  18  20
ATOM     20  O   LIG    1       32.322 -16.564   8.737  0.00  0.00    -0.477 OA
ATOM     21  H   LIG    1       32.037 -15.755   8.262  0.00  0.00    +0.295 HD
ENDBRANCH  18  20
ENDBRANCH  17  18
ENDBRANCH  12  16
ENDBRANCH   1  10
BRANCH   2  22
ATOM     22  C   LIG    1       25.804 -23.391   7.407  0.00  0.00    +0.112 C 
BRANCH  22  23
ATOM     23  N   LIG    1       26.000 -24.421   6.382  0.00  0.00    -0.299 NA
ATOM     24  C   LIG    1       25.851 -25.775   6.914  0.00  0.00    +0.085 C 
ATOM     25  C   LIG    1       25.761 -26.614   5.652  0.00  0.00    +0.017 C 
ATOM     26  C   LIG    1       25.014 -25.731   4.665  0.00  0.00    +0.017 C 
ATOM     27  C   LIG    1       25.047 -24.331   5.268  0.00  0.00    +0.085 C 
ENDBRANCH  22  23
ENDBRANCH   2  22
TORSDOF 7
ENDMDL
MODEL 2
REMARK VINA RESULT:     -10.6      1.751      1.944
REMARK  Name = *****
REMARK                            x       y       z     vdW  Elec       q    Type
REMARK                         _______ _______ _______ _____ _____    ______ ____
ROOT
ATOM      1  C   LIG    1       26.760 -21.059   6.612  0.00  0.00    +0.005 C 
ATOM      2  C   LIG    1       26.881 -22.234   7.272  0.00  0.00    -0.001 C 
ENDROOT
BRANCH   1   7
ATOM      3  C   LIG    1       21.668 -19.394   4.343  0.00  0.00    +0.044 C 
ATOM      4  C   LIG    1       22.977 -19.857   4.915  0.00  0.00    -0.050 A 
ATOM      5  C   LIG    1       24.132 -19.908   4.126  0.00  0.00    +0.004 A 
ATOM      6  C   LIG    1       25.353 -20.325   4.670  0.00  0.00    +0.009 A 
ATOM      7  C   LIG    1       25.448 -20.679   6.022  0.00  0.00    -0.016 A 
ATOM      8  C   LIG    1       24.288 -20.638   6.810  0.00  0.00    +0.009 A 
ATOM      9  C   LIG    1       23.065 -20.232   6.262  0.00  0.00    +0.004 A 
ENDBRANCH   1   7
BRANCH   1  10
ATOM     10  C   LIG    1       27.989 -20.203   6.519  0.00  0.00    +0.072 A 
ATOM     11  N   LIG    1       28.911 -20.306   7.526  0.00  0.00    -0.247 NA
ATOM     12  C   LIG    1       29.971 -19.464   7.510  0.00  0.00    +0.065 A 
ATOM     13  C   LIG    1       30.212 -18.583   6.465  0.00  0.00    +0.028 A 
ATOM     14  C   LIG    1       29.307 -18.529   5.414  0.00  0.00    +0.004 A 
ATOM     15  C   LIG    1       28.171 -19.333   5.447  0.00  0.00    +0.028 A 
BRANCH  12  16
ATOM     16  C   LIG    1       30.846 -19.450   8.687  0.00  0.00    +0.035 C 
ATOM     17  C   LIG    1       31.346 -20.453   9.424  0.00  0.00    +0.093 C 
BRANCH  17  18
ATOM     18  C   LIG    1       31.294 -21.924   9.291  0.00  0.00    +0.330 C 
ATOM     19  O   LIG    1       30.555 -22.587   9.992  0.00  0.00    -0.246 OA
BRANCH  18  20
ATOM     20  O   LIG    1       32.235 -22.462   8.493  0.00  0.00    -0.477 OA
ATOM     21  H   LIG    1       32.463 -21.874   7.743  0.00  0.00    +0.295 HD
ENDBRANCH  18  20
ENDBRANCH  17  18
ENDBRANCH  12  16
ENDBRANCH   1  10
BRANCH   2  22
ATOM     22  C   LIG    1       25.880 -23.345   7.448  0.00  0.00    +0.112 C 
BRANCH  22  23
ATOM     23  N   LIG    1       26.035 -24.364   6.404  0.00  0.00    -0.299 NA
ATOM     24  C   LIG    1       25.920 -25.724   6.929  0.00  0.00    +0.085 C 
ATOM     25  C   LIG    1       25.777 -26.551   5.665  0.00  0.00    +0.017 C 
ATOM     26  C   LIG    1       24.979 -25.663   4.722  0.00  0.00    +0.017 C 
ATOM     27  C   LIG    1       25.031 -24.269   5.337  0.00  0.00    +0.085 C 
ENDBRANCH  22  23
ENDBRANCH   2  22
TORSDOF 7
ENDMDL
MODEL 3
REMARK VINA RESULT:      -9.9      4.442      7.330
REMARK  Name = *****
REMARK                            x       y       z     vdW  Elec       q    Type
REMARK                         _______ _______ _______ _____ _____    ______ ____
ROOT
ATOM      1  C   LIG    1       25.414 -22.703   6.645  0.00  0.00    +0.005 C 
ATOM      2  C   LIG    1       26.242 -22.371   7.663  0.00  0.00    -0.001 C 
ENDROOT
BRANCH   1   7
ATOM      3  C   LIG    1       22.260 -18.456   4.224  0.00  0.00    +0.044 C 
ATOM      4  C   LIG    1       23.062 -19.576   4.823  0.00  0.00    -0.050 A 
ATOM      5  C   LIG    1       24.309 -19.932   4.298  0.00  0.00    +0.004 A 
ATOM      6  C   LIG    1       25.059 -20.966   4.872  0.00  0.00    +0.009 A 
ATOM      7  C   LIG    1       24.586 -21.650   5.998  0.00  0.00    -0.016 A 
ATOM      8  C   LIG    1       23.331 -21.299   6.519  0.00  0.00    +0.009 A 
ATOM      9  C   LIG    1       22.577 -20.273   5.936  0.00  0.00    +0.004 A 
ENDBRANCH   1   7
BRANCH   1  10
ATOM     10  C   LIG    1       25.389 -24.146   6.233  0.00  0.00    +0.072 A 
ATOM     11  N   LIG    1       25.682 -25.082   7.189  0.00  0.00    -0.247 NA
ATOM     12  C   LIG    1       25.767 -26.378   6.807  0.00  0.00    +0.065 A 
ATOM     13  C   LIG    1       25.468 -26.802   5.520  0.00  0.00    +0.028 A 
ATOM     14  C   LIG    1       25.108 -25.854   4.571  0.00  0.00    +0.004 A 
ATOM     15  C   LIG    1       25.086 -24.507   4.923  0.00  0.00    +0.028 A 
BRANCH  12  16
ATOM     16  C   LIG    1       26.267 -27.345   7.791  0.00  0.00    +0.035 C 
ATOM     17  C   LIG    1       25.912 -28.615   8.037  0.00  0.00    +0.093 C 
BRANCH  17  18
ATOM     18  C   LIG    1       24.973 -29.545   7.375  0.00  0.00    +0.330 C 
ATOM     19  O   LIG    1       23.858 -29.728   7.822  0.00  0.00    -0.246 OA
BRANCH  18  20
ATOM     20  O   LIG    1       25.502 -30.285   6.384  0.00  0.00    -0.477 OA
ATOM     21  H   LIG    1       25.182 -31.211   6.402  0.00  0.00    +0.295 HD
ENDBRANCH  18  20
ENDBRANCH  17  18
ENDBRANCH  12  16
ENDBRANCH   1  10
BRANCH   2  22
ATOM     22  C   LIG    1       26.417 -21.052   8.368  0.00  0.00    +0.112 C 
BRANCH  22  23
ATOM     23  N   LIG    1       27.733 -20.472   8.079  0.00  0.00    -0.299 NA
ATOM     24  C   LIG    1       28.815 -21.447   8.207  0.00  0.00    +0.085 C 
ATOM     25  C   LIG    1       29.981 -20.729   7.553  0.00  0.00    +0.017 C 
ATOM     26  C   LIG    1       29.347 -19.929   6.425  0.00  0.00    +0.017 C 
ATOM     27  C   LIG    1       27.851 -19.932   6.719  0.00  0.00    +0.085 C 
ENDBRANCH  22  23
ENDBRANCH   2  22
TORSDOF 7
ENDMDL
MODEL 4
REMARK VINA RESULT:      -9.5      1.356      2.029
REMARK  Name = *****
REMARK                            x       y       z     vdW  Elec       q    Type
REMARK                         _______ _______ _______ _____ _____    ______ ____
ROOT
ATOM      1  C   LIG    1       25.579 -21.347   6.125  0.00  0.00    +0.005 C 
ATOM      2  C   LIG    1       25.617 -22.693   5.986  0.00  0.00    -0.001 C 
ENDROOT
BRANCH   1   7
ATOM      3  C   LIG    1       21.417 -18.155   3.609  0.00  0.00    +0.044 C 
ATOM      4  C   LIG    1       22.482 -19.007   4.237  0.00  0.00    -0.050 A 
ATOM      5  C   LIG    1       23.734 -19.161   3.629  0.00  0.00    +0.004 A 
ATOM      6  C   LIG    1       24.728 -19.944   4.229  0.00  0.00    +0.009 A 
ATOM      7  C   LIG    1       24.498 -20.570   5.459  0.00  0.00    -0.016 A 
ATOM      8  C   LIG    1       23.240 -20.424   6.063  0.00  0.00    +0.009 A 
ATOM      9  C   LIG    1       22.242 -19.651   5.457  0.00  0.00    +0.004 A 
ENDBRANCH   1   7
BRANCH   1  10
ATOM     10  C   LIG    1       26.657 -20.720   6.959  0.00  0.00    +0.072 A 
ATOM     11  N   LIG    1       27.821 -20.367   6.329  0.00  0.00    -0.247 NA
ATOM     12  C   LIG    1       28.840 -19.899   7.088  0.00  0.00    +0.065 A 
ATOM     13  C   LIG    1       28.715 -19.665   8.449  0.00  0.00    +0.028 A 
ATOM     14  C   LIG    1       27.510 -19.963   9.071  0.00  0.00    +0.004 A 
ATOM     15  C   LIG    1       26.473 -20.516   8.324  0.00  0.00    +0.028 A 
BRANCH  12  16
ATOM     16  C   LIG    1       30.140 -19.707   6.435  0.00  0.00    +0.035 C 
ATOM     17  C   LIG    1       31.279 -19.161   6.884  0.00  0.00    +0.093 C 
BRANCH  17  18
ATOM     18  C   LIG    1       31.693 -18.636   8.202  0.00  0.00    +0.330 C 
ATOM     19  O   LIG    1       31.812 -17.441   8.389  0.00  0.00    -0.246 OA
BRANCH  18  20
ATOM     20  O   LIG    1       32.095 -19.566   9.089  0.00  0.00    -0.477 OA
ATOM     21  H   LIG    1       31.382 -20.203   9.306  0.00  0.00    +0.295 HD
ENDBRANCH  18  20
ENDBRANCH  17  18
ENDBRANCH  12  16
ENDBRANCH   1  10
BRANCH   2  22
ATOM     22  C   LIG    1       24.757 -23.597   5.144  0.00  0.00    +0.112 C 
BRANCH  22  23
ATOM     23  N   LIG    1       25.160 -24.999   5.295  0.00  0.00    -0.299 NA
ATOM     24  C   LIG    1       26.075 -25.200   6.418  0.00  0.00    +0.085 C 
ATOM     25  C   LIG    1       26.075 -26.710   6.573  0.00  0.00    +0.017 C 
ATOM     26  C   LIG    1       24.655 -27.125   6.221  0.00  0.00    +0.017 C 
ATOM     27  C   LIG    1       24.036 -25.911   5.537  0.00  0.00    +0.085 C 
ENDBRANCH  22  23
ENDBRANCH   2  22
TORSDOF 7
ENDMDL
MODEL 5
REMARK VINA RESULT:      -9.2      4.266      7.524
REMARK  Name = *****
REMARK                            x       y       z     vdW  Elec       q    Type
REMARK                         _______ _______ _______ _____ _____    ______ ____
ROOT
ATOM      1  C   LIG    1       25.379 -21.885   6.047  0.00  0.00    +0.005 C 
ATOM      2  C   LIG    1       26.618 -21.575   6.493  0.00  0.00    -0.001 C 
ENDROOT
BRANCH   1   7
ATOM      3  C   LIG    1       21.884 -17.837   3.757  0.00  0.00    +0.044 C 
ATOM      4  C   LIG    1       22.801 -18.857   4.369  0.00  0.00    -0.050 A 
ATOM      5  C   LIG    1       22.510 -19.438   5.609  0.00  0.00    +0.004 A 
ATOM      6  C   LIG    1       23.362 -20.399   6.165  0.00  0.00    +0.009 A 
ATOM      7  C   LIG    1       24.511 -20.816   5.483  0.00  0.00    -0.016 A 
ATOM      8  C   LIG    1       24.808 -20.226   4.245  0.00  0.00    +0.009 A 
ATOM      9  C   LIG    1       23.962 -19.255   3.695  0.00  0.00    +0.004 A 
ENDBRANCH   1   7
BRANCH   1  10
ATOM     10  C   LIG    1       24.957 -23.321   6.159  0.00  0.00    +0.072 A 
ATOM     11  N   LIG    1       25.879 -24.279   5.832  0.00  0.00    -0.247 NA
ATOM     12  C   LIG    1       25.479 -25.573   5.826  0.00  0.00    +0.065 A 
ATOM     13  C   LIG    1       24.215 -25.969   6.238  0.00  0.00    +0.028 A 
ATOM     14  C   LIG    1       23.305 -24.997   6.630  0.00  0.00    +0.004 A 
ATOM     15  C   LIG    1       23.670 -23.655   6.573  0.00  0.00    +0.028 A 
BRANCH  12  16
ATOM     16  C   LIG    1       26.414 -26.570   5.292  0.00  0.00    +0.035 C 
ATOM     17  C   LIG    1       26.322 -27.905   5.203  0.00  0.00    +0.093 C 
BRANCH  17  18
ATOM     18  C   LIG    1       25.239 -28.863   5.512  0.00  0.00    +0.330 C 
ATOM     19  O   LIG    1       25.314 -29.598   6.477  0.00  0.00    -0.246 OA
BRANCH  18  20
ATOM     20  O   LIG    1       24.290 -28.980   4.565  0.00  0.00    -0.477 OA
ATOM     21  H   LIG    1       23.658 -29.703   4.763  0.00  0.00    +0.295 HD
ENDBRANCH  18  20
ENDBRANCH  17  18
ENDBRANCH  12  16
ENDBRANCH   1  10
BRANCH   2  22
ATOM     22  C   LIG    1       27.288 -20.232   6.613  0.00  0.00    +0.112 C 
BRANCH  22  23
ATOM     23  N   LIG    1       28.747 -20.372   6.649  0.00  0.00    -0.299 NA
ATOM     24  C   LIG    1       29.435 -19.086   6.537  0.00  0.00    +0.085 C 
ATOM     25  C   LIG    1       30.858 -19.442   6.929  0.00  0.00    +0.017 C 
ATOM     26  C   LIG    1       30.697 -20.516   7.994  0.00  0.00    +0.017 C 
ATOM     27  C   LIG    1       29.248 -20.978   7.889  0.00  0.00    +0.085 C 
ENDBRANCH  22  23
ENDBRANCH   2  22
TORSDOF 7
ENDMDL
MODEL 6
REMARK VINA RESULT:      -8.7      1.313      2.079
REMARK  Name = *****
REMARK                            x       y       z     vdW  Elec       q    Type
REMARK                         _______ _______ _______ _____ _____    ______ ____
ROOT
ATOM      1  C   LIG    1       26.173 -21.768   7.003  0.00  0.00    +0.005 C 
ATOM      2  C   LIG    1       25.777 -23.005   7.383  0.00  0.00    -0.001 C 
ENDROOT
BRANCH   1   7
ATOM      3  C   LIG    1       22.431 -18.503   3.974  0.00  0.00    +0.044 C 
ATOM      4  C   LIG    1       23.405 -19.317   4.777  0.00  0.00    -0.050 A 
ATOM      5  C   LIG    1       23.033 -19.885   6.001  0.00  0.00    +0.004 A 
ATOM      6  C   LIG    1       23.942 -20.656   6.736  0.00  0.00    +0.009 A 
ATOM      7  C   LIG    1       25.233 -20.894   6.251  0.00  0.00    -0.016 A 
ATOM      8  C   LIG    1       25.609 -20.316   5.029  0.00  0.00    +0.009 A 
ATOM      9  C   LIG    1       24.703 -19.535   4.300  0.00  0.00    +0.004 A 
ENDBRANCH   1   7
BRANCH   1  10
ATOM     10  C   LIG    1       27.568 -21.358   7.376  0.00  0.00    +0.072 A 
ATOM     11  N   LIG    1       27.759 -20.067   7.790  0.00  0.00    -0.247 NA
ATOM     12  C   LIG    1       29.027 -19.654   8.026  0.00  0.00    +0.065 A 
ATOM     13  C   LIG    1       30.117 -20.510   7.969  0.00  0.00    +0.028 A 
ATOM     14  C   LIG    1       29.908 -21.835   7.611  0.00  0.00    +0.004 A 
ATOM     15  C   LIG    1       28.623 -22.263   7.291  0.00  0.00    +0.028 A 
BRANCH  12  16
ATOM     16  C   LIG    1       29.239 -18.225   8.282  0.00  0.00    +0.035 C 
ATOM     17  C   LIG    1       30.038 -17.595   9.156  0.00  0.00    +0.093 C 
BRANCH  17  18
ATOM     18  C   LIG    1       31.057 -18.073  10.114  0.00  0.00    +0.330 C 
ATOM     19  O   LIG    1       32.200 -18.277   9.758  0.00  0.00    -0.246 OA
BRANCH  18  20
ATOM     20  O   LIG    1       30.585 -18.429  11.323  0.00  0.00    -0.477 OA
ATOM     21  H   LIG    1       29.837 -19.059  11.258  0.00  0.00    +0.295 HD
ENDBRANCH  18  20
ENDBRANCH  17  18
ENDBRANCH  12  16
ENDBRANCH   1  10
BRANCH   2  22
ATOM     22  C   LIG    1       24.499 -23.740   7.079  0.00  0.00    +0.112 C 
BRANCH  22  23
ATOM     23  N   LIG    1       24.773 -25.034   6.446  0.00  0.00    -0.299 NA
ATOM     24  C   LIG    1       24.994 -24.916   5.005  0.00  0.00    +0.085 C 
ATOM     25  C   LIG    1       25.573 -26.275   4.651  0.00  0.00    +0.017 C 
ATOM     26  C   LIG    1       26.405 -26.657   5.865  0.00  0.00    +0.017 C 
ATOM     27  C   LIG    1       25.969 -25.704   6.972  0.00  0.00    +0.085 C 
ENDBRANCH  22  23
ENDBRANCH   2  22
TORSDOF 7
ENDMDL
MODEL 7
REMARK VINA RESULT:      -8.6      2.964      6.167
REMARK  Name = *****
REMARK                            x       y       z     vdW  Elec       q    Type
REMARK                         _______ _______ _______ _____ _____    ______ ____
ROOT
ATOM      1  C   LIG    1       25.354 -21.251   6.413  0.00  0.00    +0.005 C 
ATOM      2  C   LIG    1       26.276 -20.715   7.245  0.00  0.00    -0.001 C 
ENDROOT
BRANCH   1   7
ATOM      3  C   LIG    1       24.308 -26.974   6.386  0.00  0.00    +0.044 C 
ATOM      4  C   LIG    1       24.586 -25.498   6.428  0.00  0.00    -0.050 A 
ATOM      5  C   LIG    1       25.893 -25.008   6.334  0.00  0.00    +0.004 A 
ATOM      6  C   LIG    1       26.144 -23.630   6.358  0.00  0.00    +0.009 A 
ATOM      7  C   LIG    1       25.089 -22.714   6.454  0.00  0.00    -0.016 A 
ATOM      8  C   LIG    1       23.780 -23.207   6.559  0.00  0.00    +0.009 A 
ATOM      9  C   LIG    1       23.531 -24.585   6.547  0.00  0.00    +0.004 A 
ENDBRANCH   1   7
BRANCH   1  10
ATOM     10  C   LIG    1       24.648 -20.307   5.484  0.00  0.00    +0.072 A 
ATOM     11  N   LIG    1       25.419 -19.566   4.629  0.00  0.00    -0.247 NA
ATOM     12  C   LIG    1       24.804 -18.635   3.861  0.00  0.00    +0.065 A 
ATOM     13  C   LIG    1       23.426 -18.479   3.831  0.00  0.00    +0.028 A 
ATOM     14  C   LIG    1       22.645 -19.279   4.653  0.00  0.00    +0.004 A 
ATOM     15  C   LIG    1       23.260 -20.191   5.506  0.00  0.00    +0.028 A 
BRANCH  12  16
ATOM     16  C   LIG    1       25.655 -17.718   3.094  0.00  0.00    +0.035 C 
ATOM     17  C   LIG    1       25.752 -16.381   3.114  0.00  0.00    +0.093 C 
BRANCH  17  18
ATOM     18  C   LIG    1       25.128 -15.338   3.955  0.00  0.00    +0.330 C 
ATOM     19  O   LIG    1       23.920 -15.261   4.059  0.00  0.00    -0.246 OA
BRANCH  18  20
ATOM     20  O   LIG    1       25.971 -14.401   4.427  0.00  0.00    -0.477 OA
ATOM     21  H   LIG    1       26.590 -14.763   5.095  0.00  0.00    +0.295 HD
ENDBRANCH  18  20
ENDBRANCH  17  18
ENDBRANCH  12  16
ENDBRANCH   1  10
BRANCH   2  22
ATOM     22  C   LIG    1       27.214 -21.395   8.207  0.00  0.00    +0.112 C 
BRANCH  22  23
ATOM     23  N   LIG    1       28.469 -20.648   8.337  0.00  0.00    -0.299 NA
ATOM     24  C   LIG    1       29.640 -21.524   8.372  0.00  0.00    +0.085 C 
ATOM     25  C   LIG    1       30.784 -20.547   8.172  0.00  0.00    +0.017 C 
ATOM     26  C   LIG    1       30.222 -19.498   7.226  0.00  0.00    +0.017 C 
ATOM     27  C   LIG    1       28.713 -19.712   7.233  0.00  0.00    +0.085 C 
ENDBRANCH  22  23
ENDBRANCH   2  22
TORSDOF 7
ENDMDL
MODEL 8
REMARK VINA RESULT:      -8.5      4.641      7.943
REMARK  Name = *****
REMARK                            x       y       z     vdW  Elec       q    Type
REMARK                         _______ _______ _______ _____ _____    ______ ____
ROOT
ATOM      1  C   LIG    1       24.917 -23.068   6.474  0.00  0.00    +0.005 C 
ATOM      2  C   LIG    1       23.631 -22.646   6.470  0.00  0.00    -0.001 C 
ENDROOT
BRANCH   1   7
ATOM      3  C   LIG    1       29.282 -19.469   7.830  0.00  0.00    +0.044 C 
ATOM      4  C   LIG    1       28.131 -20.372   7.489  0.00  0.00    -0.050 A 
ATOM      5  C   LIG    1       27.480 -20.277   6.254  0.00  0.00    +0.004 A 
ATOM      6  C   LIG    1       26.418 -21.133   5.937  0.00  0.00    +0.009 A 
ATOM      7  C   LIG    1       26.001 -22.117   6.840  0.00  0.00    -0.016 A 
ATOM      8  C   LIG    1       26.647 -22.206   8.082  0.00  0.00    +0.009 A 
ATOM      9  C   LIG    1       27.701 -21.342   8.404  0.00  0.00    +0.004 A 
ENDBRANCH   1   7
BRANCH   1  10
ATOM     10  C   LIG    1       25.162 -24.499   6.095  0.00  0.00    +0.072 A 
ATOM     11  N   LIG    1       25.430 -25.384   7.106  0.00  0.00    -0.247 NA
ATOM     12  C   LIG    1       25.758 -26.654   6.770  0.00  0.00    +0.065 A 
ATOM     13  C   LIG    1       25.729 -27.116   5.462  0.00  0.00    +0.028 A 
ATOM     14  C   LIG    1       25.394 -26.229   4.448  0.00  0.00    +0.004 A 
ATOM     15  C   LIG    1       25.125 -24.900   4.762  0.00  0.00    +0.028 A 
BRANCH  12  16
ATOM     16  C   LIG    1       26.228 -27.540   7.842  0.00  0.00    +0.035 C 
ATOM     17  C   LIG    1       25.795 -28.744   8.243  0.00  0.00    +0.093 C 
BRANCH  17  18
ATOM     18  C   LIG    1       24.766 -29.669   7.723  0.00  0.00    +0.330 C 
ATOM     19  O   LIG    1       23.708 -29.813   8.302  0.00  0.00    -0.246 OA
BRANCH  18  20
ATOM     20  O   LIG    1       25.161 -30.449   6.699  0.00  0.00    -0.477 OA
ATOM     21  H   LIG    1       24.868 -31.378   6.807  0.00  0.00    +0.295 HD
ENDBRANCH  18  20
ENDBRANCH  17  18
ENDBRANCH  12  16
ENDBRANCH   1  10
BRANCH   2  22
ATOM     22  C   LIG    1       23.072 -21.267   6.697  0.00  0.00    +0.112 C 
BRANCH  22  23
ATOM     23  N   LIG    1       22.718 -20.626   5.426  0.00  0.00    -0.299 NA
ATOM     24  C   LIG    1       22.507 -19.186   5.566  0.00  0.00    +0.085 C 
ATOM     25  C   LIG    1       22.493 -18.715   4.123  0.00  0.00    +0.017 C 
ATOM     26  C   LIG    1       23.498 -19.617   3.424  0.00  0.00    +0.017 C 
ATOM     27  C   LIG    1       23.747 -20.771   4.389  0.00  0.00    +0.085 C 
ENDBRANCH  22  23
ENDBRANCH   2  22
TORSDOF 7
ENDMDL
MODEL 9
REMARK VINA RESULT:      -8.2      1.670      4.449
REMARK  Name = *****
REMARK                            x       y       z     vdW  Elec       q    Type
REMARK                         _______ _______ _______ _____ _____    ______ ____
ROOT
ATOM      1  C   LIG    1       26.203 -21.573   7.105  0.00  0.00    +0.005 C 
ATOM      2  C   LIG    1       25.286 -20.579   7.154  0.00  0.00    -0.001 C 
ENDROOT
BRANCH   1   7
ATOM      3  C   LIG    1       24.740 -26.946   5.421  0.00  0.00    +0.044 C 
ATOM      4  C   LIG    1       25.086 -25.556   5.873  0.00  0.00    -0.050 A 
ATOM      5  C   LIG    1       25.632 -25.326   7.141  0.00  0.00    +0.004 A 
ATOM      6  C   LIG    1       25.968 -24.029   7.550  0.00  0.00    +0.009 A 
ATOM      7  C   LIG    1       25.784 -22.940   6.691  0.00  0.00    -0.016 A 
ATOM      8  C   LIG    1       25.227 -23.170   5.424  0.00  0.00    +0.009 A 
ATOM      9  C   LIG    1       24.881 -24.465   5.020  0.00  0.00    +0.004 A 
ENDBRANCH   1   7
BRANCH   1  10
ATOM     10  C   LIG    1       27.611 -21.217   7.483  0.00  0.00    +0.072 A 
ATOM     11  N   LIG    1       27.859 -19.921   7.850  0.00  0.00    -0.247 NA
ATOM     12  C   LIG    1       29.142 -19.561   8.090  0.00  0.00    +0.065 A 
ATOM     13  C   LIG    1       30.190 -20.471   8.084  0.00  0.00    +0.028 A 
ATOM     14  C   LIG    1       29.921 -21.797   7.774  0.00  0.00    +0.004 A 
ATOM     15  C   LIG    1       28.621 -22.175   7.451  0.00  0.00    +0.028 A 
BRANCH  12  16
ATOM     16  C   LIG    1       29.421 -18.135   8.294  0.00  0.00    +0.035 C 
ATOM     17  C   LIG    1       30.210 -17.509   9.179  0.00  0.00    +0.093 C 
BRANCH  17  18
ATOM     18  C   LIG    1       31.154 -17.996  10.207  0.00  0.00    +0.330 C 
ATOM     19  O   LIG    1       32.319 -18.208   9.933  0.00  0.00    -0.246 OA
BRANCH  18  20
ATOM     20  O   LIG    1       30.594 -18.350  11.378  0.00  0.00    -0.477 OA
ATOM     21  H   LIG    1       31.009 -19.153  11.759  0.00  0.00    +0.295 HD
ENDBRANCH  18  20
ENDBRANCH  17  18
ENDBRANCH  12  16
ENDBRANCH   1  10
BRANCH   2  22
ATOM     22  C   LIG    1       23.797 -20.634   6.938  0.00  0.00    +0.112 C 
BRANCH  22  23
ATOM     23  N   LIG    1       23.451 -20.283   5.557  0.00  0.00    -0.299 NA
ATOM     24  C   LIG    1       22.476 -19.195   5.484  0.00  0.00    +0.085 C 
ATOM     25  C   LIG    1       22.537 -18.799   4.020  0.00  0.00    +0.017 C 
ATOM     26  C   LIG    1       23.995 -18.998   3.637  0.00  0.00    +0.017 C 
ATOM     27  C   LIG    1       24.599 -19.834   4.760  0.00  0.00    +0.085 C 
ENDBRANCH  22  23
ENDBRANCH   2  22
TORSDOF 7
ENDMDL
