MODEL 1
REMARK VINA RESULT:      -8.9      0.000      0.000
REMARK  Name = *****
REMARK                            x       y       z     vdW  Elec       q    Type
REMARK                         _______ _______ _______ _____ _____    ______ ____
ROOT
ATOM      1  C   LIG    1       30.239 -18.706   8.468  0.00  0.00    -0.044 A 
ATOM      2  C   LIG    1       29.025 -19.346   8.759  0.00  0.00    +0.019 A 
ATOM      3  C   LIG    1       28.157 -19.712   7.725  0.00  0.00    +0.065 A 
ATOM      4  C   LIG    1       28.477 -19.451   6.398  0.00  0.00    +0.141 A 
ATOM      5  O   LIG    1       27.672 -19.779   5.338  0.00  0.00    -0.436 OA
ATOM      6  C   LIG    1       26.478 -20.414   5.593  0.00  0.00    +0.233 A 
ATOM      7  C   LIG    1       26.048 -20.740   6.868  0.00  0.00    +0.085 A 
ATOM      8  C   LIG    1       24.823 -21.383   7.028  0.00  0.00    +0.035 A 
ATOM      9  C   LIG    1       24.059 -21.669   5.893  0.00  0.00    +0.099 A 
ATOM     10  C   LIG    1       24.572 -21.322   4.641  0.00  0.00    +0.134 A 
ATOM     11  N   LIG    1       25.755 -20.696   4.481  0.00  0.00    -0.197 NA
ATOM     12  C   LIG    1       29.682 -18.816   6.097  0.00  0.00    +0.047 A 
ATOM     13  C   LIG    1       26.885 -20.386   8.016  0.00  0.00    +0.202 C 
ATOM     14  O   LIG    1       26.533 -20.640   9.159  0.00  0.00    -0.286 OA
ATOM     15  C   LIG    1       30.556 -18.447   7.125  0.00  0.00    +0.007 A 
ENDROOT
BRANCH   1  17
ATOM     16  C   LIG    1       32.262 -17.316   9.055  0.00  0.00    +0.012 C 
ATOM     17  C   LIG    1       31.205 -18.298   9.567  0.00  0.00    +0.013 C 
ATOM     18  C   LIG    1       30.464 -17.721  10.776  0.00  0.00    +0.012 C 
ENDBRANCH   1  17
BRANCH  10  19
ATOM     19  N   LIG    1       23.877 -21.577   3.450  0.00  0.00    -0.342 N 
ATOM     20  H   LIG    1       24.507 -21.973   2.749  0.00  0.00    +0.144 HD
ATOM     21  H   LIG    1       23.549 -20.666   3.120  0.00  0.00    +0.144 HD
ENDBRANCH  10  19
BRANCH   9  22
ATOM     22  C   LIG    1       22.738 -22.311   6.077  0.00  0.00    +0.340 C 
ATOM     23  O   LIG    1       22.547 -23.186   6.904  0.00  0.00    -0.245 OA
BRANCH  22  24
ATOM     24  O   LIG    1       21.759 -21.813   5.291  0.00  0.00    -0.477 OA
ATOM     25  H   LIG    1       20.855 -22.117   5.541  0.00  0.00    +0.295 HD
ENDBRANCH  22  24
ENDBRANCH   9  22
TORSDOF 4
ENDMDL
MODEL 2
REMARK VINA RESULT:      -8.8      2.922      6.954
REMARK  Name = *****
REMARK                            x       y       z     vdW  Elec       q    Type
REMARK                         _______ _______ _______ _____ _____    ______ ____
ROOT
ATOM      1  C   LIG    1       23.856 -20.391   4.593  0.00  0.00    -0.044 A 
ATOM      2  C   LIG    1       24.578 -21.059   5.594  0.00  0.00    +0.019 A 
ATOM      3  C   LIG    1       25.909 -20.712   5.852  0.00  0.00    +0.065 A 
ATOM      4  C   LIG    1       26.538 -19.706   5.126  0.00  0.00    +0.141 A 
ATOM      5  O   LIG    1       27.839 -19.319   5.325  0.00  0.00    -0.436 OA
ATOM      6  C   LIG    1       28.569 -19.953   6.304  0.00  0.00    +0.233 A 
ATOM      7  C   LIG    1       28.057 -20.961   7.102  0.00  0.00    +0.085 A 
ATOM      8  C   LIG    1       28.873 -21.543   8.068  0.00  0.00    +0.035 A 
ATOM      9  C   LIG    1       30.191 -21.097   8.194  0.00  0.00    +0.099 A 
ATOM     10  C   LIG    1       30.626 -20.063   7.362  0.00  0.00    +0.134 A 
ATOM     11  N   LIG    1       29.841 -19.499   6.422  0.00  0.00    -0.197 NA
ATOM     12  C   LIG    1       25.829 -19.035   4.131  0.00  0.00    +0.047 A 
ATOM     13  C   LIG    1       26.675 -21.400   6.898  0.00  0.00    +0.202 C 
ATOM     14  O   LIG    1       26.190 -22.300   7.569  0.00  0.00    -0.286 OA
ATOM     15  C   LIG    1       24.498 -19.375   3.867  0.00  0.00    +0.007 A 
ENDROOT
BRANCH   1  17
ATOM     16  C   LIG    1       21.849 -21.749   5.297  0.00  0.00    +0.012 C 
ATOM     17  C   LIG    1       22.409 -20.740   4.291  0.00  0.00    +0.013 C 
ATOM     18  C   LIG    1       21.533 -19.485   4.231  0.00  0.00    +0.012 C 
ENDBRANCH   1  17
BRANCH  10  19
ATOM     19  N   LIG    1       31.929 -19.550   7.424  0.00  0.00    -0.342 N 
ATOM     20  H   LIG    1       32.578 -20.263   7.764  0.00  0.00    +0.144 HD
ATOM     21  H   LIG    1       31.895 -18.786   8.105  0.00  0.00    +0.144 HD
ENDBRANCH  10  19
BRANCH   9  22
ATOM     22  C   LIG    1       31.065 -21.754   9.193  0.00  0.00    +0.340 C 
ATOM     23  O   LIG    1       30.746 -21.868  10.364  0.00  0.00    -0.245 OA
BRANCH  22  24
ATOM     24  O   LIG    1       32.213 -22.256   8.689  0.00  0.00    -0.477 OA
ATOM     25  H   LIG    1       32.839 -22.584   9.376  0.00  0.00    +0.295 HD
ENDBRANCH  22  24
ENDBRANCH   9  22
TORSDOF 4
ENDMDL
MODEL 3
REMARK VINA RESULT:      -8.4      2.747      7.075
REMARK  Name = *****
REMARK                            x       y       z     vdW  Elec       q    Type
REMARK                         _______ _______ _______ _____ _____    ______ ____
ROOT
ATOM      1  C   LIG    1       23.628 -21.141   5.837  0.00  0.00    -0.044 A 
ATOM      2  C   LIG    1       24.572 -21.397   6.843  0.00  0.00    +0.019 A 
ATOM      3  C   LIG    1       25.883 -20.927   6.712  0.00  0.00    +0.065 A 
ATOM      4  C   LIG    1       26.274 -20.202   5.592  0.00  0.00    +0.141 A 
ATOM      5  O   LIG    1       27.541 -19.716   5.399  0.00  0.00    -0.436 OA
ATOM      6  C   LIG    1       28.487 -19.946   6.372  0.00  0.00    +0.233 A 
ATOM      7  C   LIG    1       28.223 -20.644   7.538  0.00  0.00    +0.085 A 
ATOM      8  C   LIG    1       29.246 -20.827   8.466  0.00  0.00    +0.035 A 
ATOM      9  C   LIG    1       30.512 -20.308   8.183  0.00  0.00    +0.099 A 
ATOM     10  C   LIG    1       30.692 -19.602   6.992  0.00  0.00    +0.134 A 
ATOM     11  N   LIG    1       29.707 -19.426   6.088  0.00  0.00    -0.197 NA
ATOM     12  C   LIG    1       25.343 -19.941   4.587  0.00  0.00    +0.047 A 
ATOM     13  C   LIG    1       26.881 -21.185   7.758  0.00  0.00    +0.202 C 
ATOM     14  O   LIG    1       26.612 -21.822   8.767  0.00  0.00    -0.286 OA
ATOM     15  C   LIG    1       24.029 -20.407   4.710  0.00  0.00    +0.007 A 
ENDROOT
BRANCH   1  17
ATOM     16  C   LIG    1       21.430 -21.451   4.636  0.00  0.00    +0.012 C 
ATOM     17  C   LIG    1       22.195 -21.634   5.949  0.00  0.00    +0.013 C 
ATOM     18  C   LIG    1       22.141 -23.092   6.414  0.00  0.00    +0.012 C 
ENDBRANCH   1  17
BRANCH  10  19
ATOM     19  N   LIG    1       31.926 -19.043   6.631  0.00  0.00    -0.342 N 
ATOM     20  H   LIG    1       32.365 -19.596   5.891  0.00  0.00    +0.144 HD
ATOM     21  H   LIG    1       32.510 -19.094   7.470  0.00  0.00    +0.144 HD
ENDBRANCH  10  19
BRANCH   9  22
ATOM     22  C   LIG    1       31.604 -20.548   9.154  0.00  0.00    +0.340 C 
ATOM     23  O   LIG    1       31.931 -21.668   9.505  0.00  0.00    -0.245 OA
BRANCH  22  24
ATOM     24  O   LIG    1       32.234 -19.430   9.576  0.00  0.00    -0.477 OA
ATOM     25  H   LIG    1       32.506 -18.827   8.846  0.00  0.00    +0.295 HD
ENDBRANCH  22  24
ENDBRANCH   9  22
TORSDOF 4
ENDMDL
MODEL 4
REMARK VINA RESULT:      -8.3      2.941      7.426
REMARK  Name = *****
REMARK                            x       y       z     vdW  Elec       q    Type
REMARK                         _______ _______ _______ _____ _____    ______ ____
ROOT
ATOM      1  C   LIG    1       23.610 -20.996   5.357  0.00  0.00    -0.044 A 
ATOM      2  C   LIG    1       24.828 -20.306   5.260  0.00  0.00    +0.019 A 
ATOM      3  C   LIG    1       25.896 -20.644   6.098  0.00  0.00    +0.065 A 
ATOM      4  C   LIG    1       25.772 -21.660   7.038  0.00  0.00    +0.141 A 
ATOM      5  O   LIG    1       26.776 -22.038   7.892  0.00  0.00    -0.436 OA
ATOM      6  C   LIG    1       27.984 -21.384   7.815  0.00  0.00    +0.233 A 
ATOM      7  C   LIG    1       28.239 -20.363   6.916  0.00  0.00    +0.085 A 
ATOM      8  C   LIG    1       29.494 -19.759   6.911  0.00  0.00    +0.035 A 
ATOM      9  C   LIG    1       30.456 -20.198   7.825  0.00  0.00    +0.099 A 
ATOM     10  C   LIG    1       30.125 -21.245   8.688  0.00  0.00    +0.134 A 
ATOM     11  N   LIG    1       28.910 -21.830   8.699  0.00  0.00    -0.197 NA
ATOM     12  C   LIG    1       24.566 -22.352   7.143  0.00  0.00    +0.047 A 
ATOM     13  C   LIG    1       27.177 -19.933   6.004  0.00  0.00    +0.202 C 
ATOM     14  O   LIG    1       27.356 -19.022   5.207  0.00  0.00    -0.286 OA
ATOM     15  C   LIG    1       23.494 -22.023   6.308  0.00  0.00    +0.007 A 
ENDROOT
BRANCH   1  17
ATOM     16  C   LIG    1       21.201 -21.501   4.801  0.00  0.00    +0.012 C 
ATOM     17  C   LIG    1       22.432 -20.658   4.460  0.00  0.00    +0.013 C 
ATOM     18  C   LIG    1       22.101 -19.164   4.512  0.00  0.00    +0.012 C 
ENDBRANCH   1  17
BRANCH  10  19
ATOM     19  N   LIG    1       31.030 -21.753   9.631  0.00  0.00    -0.342 N 
ATOM     20  H   LIG    1       30.723 -22.672   9.959  0.00  0.00    +0.144 HD
ATOM     21  H   LIG    1       31.006 -21.099  10.418  0.00  0.00    +0.144 HD
ENDBRANCH  10  19
BRANCH   9  22
ATOM     22  C   LIG    1       31.772 -19.519   7.843  0.00  0.00    +0.340 C 
ATOM     23  O   LIG    1       32.326 -19.143   6.825  0.00  0.00    -0.245 OA
BRANCH  22  24
ATOM     24  O   LIG    1       32.277 -19.310   9.078  0.00  0.00    -0.477 OA
ATOM     25  H   LIG    1       32.262 -20.109   9.655  0.00  0.00    +0.295 HD
ENDBRANCH  22  24
ENDBRANCH   9  22
TORSDOF 4
ENDMDL
MODEL 5
REMARK VINA RESULT:      -7.1      6.259      8.179
REMARK  Name = *****
REMARK                            x       y       z     vdW  Elec       q    Type
REMARK                         _______ _______ _______ _____ _____    ______ ____
ROOT
ATOM      1  C   LIG    1       25.383 -23.017   6.570  0.00  0.00    -0.044 A 
ATOM      2  C   LIG    1       26.158 -24.148   6.274  0.00  0.00    +0.019 A 
ATOM      3  C   LIG    1       25.558 -25.409   6.189  0.00  0.00    +0.065 A 
ATOM      4  C   LIG    1       24.192 -25.565   6.395  0.00  0.00    +0.141 A 
ATOM      5  O   LIG    1       23.541 -26.771   6.330  0.00  0.00    -0.436 OA
ATOM      6  C   LIG    1       24.275 -27.897   6.035  0.00  0.00    +0.233 A 
ATOM      7  C   LIG    1       25.639 -27.875   5.799  0.00  0.00    +0.085 A 
ATOM      8  C   LIG    1       26.297 -29.067   5.507  0.00  0.00    +0.035 A 
ATOM      9  C   LIG    1       25.559 -30.253   5.474  0.00  0.00    +0.099 A 
ATOM     10  C   LIG    1       24.183 -30.188   5.708  0.00  0.00    +0.134 A 
ATOM     11  N   LIG    1       23.542 -29.037   5.995  0.00  0.00    -0.197 NA
ATOM     12  C   LIG    1       23.413 -24.447   6.689  0.00  0.00    +0.047 A 
ATOM     13  C   LIG    1       26.356 -26.601   5.877  0.00  0.00    +0.202 C 
ATOM     14  O   LIG    1       27.564 -26.541   5.692  0.00  0.00    -0.286 OA
ATOM     15  C   LIG    1       24.004 -23.182   6.774  0.00  0.00    +0.007 A 
ENDROOT
BRANCH   1  17
ATOM     16  C   LIG    1       25.377 -20.663   5.660  0.00  0.00    +0.012 C 
ATOM     17  C   LIG    1       26.003 -21.633   6.666  0.00  0.00    +0.013 C 
ATOM     18  C   LIG    1       25.910 -21.078   8.090  0.00  0.00    +0.012 C 
ENDBRANCH   1  17
BRANCH  10  19
ATOM     19  N   LIG    1       23.365 -31.326   5.688  0.00  0.00    -0.342 N 
ATOM     20  H   LIG    1       22.954 -31.485   6.610  0.00  0.00    +0.144 HD
ATOM     21  H   LIG    1       23.984 -32.109   5.464  0.00  0.00    +0.144 HD
ENDBRANCH  10  19
BRANCH   9  22
ATOM     22  C   LIG    1       26.275 -31.522   5.209  0.00  0.00    +0.340 C 
ATOM     23  O   LIG    1       26.189 -32.109   4.145  0.00  0.00    -0.245 OA
BRANCH  22  24
ATOM     24  O   LIG    1       27.065 -31.941   6.221  0.00  0.00    -0.477 OA
ATOM     25  H   LIG    1       26.648 -32.628   6.792  0.00  0.00    +0.295 HD
ENDBRANCH  22  24
ENDBRANCH   9  22
TORSDOF 4
ENDMDL
MODEL 6
REMARK VINA RESULT:      -6.8      7.121      9.011
REMARK  Name = *****
REMARK                            x       y       z     vdW  Elec       q    Type
REMARK                         _______ _______ _______ _____ _____    ______ ____
ROOT
ATOM      1  C   LIG    1       25.613 -24.259   6.514  0.00  0.00    -0.044 A 
ATOM      2  C   LIG    1       25.938 -25.408   7.251  0.00  0.00    +0.019 A 
ATOM      3  C   LIG    1       25.405 -26.650   6.889  0.00  0.00    +0.065 A 
ATOM      4  C   LIG    1       24.549 -26.770   5.801  0.00  0.00    +0.141 A 
ATOM      5  O   LIG    1       23.989 -27.954   5.394  0.00  0.00    -0.436 OA
ATOM      6  C   LIG    1       24.295 -29.098   6.094  0.00  0.00    +0.233 A 
ATOM      7  C   LIG    1       25.142 -29.115   7.189  0.00  0.00    +0.085 A 
ATOM      8  C   LIG    1       25.393 -30.324   7.835  0.00  0.00    +0.035 A 
ATOM      9  C   LIG    1       24.770 -31.482   7.362  0.00  0.00    +0.099 A 
ATOM     10  C   LIG    1       23.943 -31.383   6.241  0.00  0.00    +0.134 A 
ATOM     11  N   LIG    1       23.694 -30.215   5.615  0.00  0.00    -0.197 NA
ATOM     12  C   LIG    1       24.221 -25.634   5.060  0.00  0.00    +0.047 A 
ATOM     13  C   LIG    1       25.739 -27.860   7.650  0.00  0.00    +0.202 C 
ATOM     14  O   LIG    1       26.478 -27.830   8.623  0.00  0.00    -0.286 OA
ATOM     15  C   LIG    1       24.750 -24.389   5.415  0.00  0.00    +0.007 A 
ENDROOT
BRANCH   1  17
ATOM     16  C   LIG    1       25.582 -21.787   6.006  0.00  0.00    +0.012 C 
ATOM     17  C   LIG    1       26.177 -22.896   6.877  0.00  0.00    +0.013 C 
ATOM     18  C   LIG    1       25.978 -22.589   8.364  0.00  0.00    +0.012 C 
ENDBRANCH   1  17
BRANCH  10  19
ATOM     19  N   LIG    1       23.284 -32.493   5.695  0.00  0.00    -0.342 N 
ATOM     20  H   LIG    1       23.767 -32.815   4.854  0.00  0.00    +0.144 HD
ATOM     21  H   LIG    1       22.352 -32.161   5.433  0.00  0.00    +0.144 HD
ENDBRANCH  10  19
BRANCH   9  22
ATOM     22  C   LIG    1       25.007 -32.753   8.083  0.00  0.00    +0.340 C 
ATOM     23  O   LIG    1       24.706 -32.904   9.255  0.00  0.00    -0.245 OA
BRANCH  22  24
ATOM     24  O   LIG    1       25.534 -33.738   7.325  0.00  0.00    -0.477 OA
ATOM     25  H   LIG    1       24.915 -34.487   7.159  0.00  0.00    +0.295 HD
ENDBRANCH  22  24
ENDBRANCH   9  22
TORSDOF 4
ENDMDL
MODEL 7
REMARK VINA RESULT:      -6.6      5.611      7.727
REMARK  Name = *****
REMARK                            x       y       z     vdW  Elec       q    Type
REMARK                         _______ _______ _______ _____ _____    ______ ____
ROOT
ATOM      1  C   LIG    1       24.958 -22.223   5.558  0.00  0.00    -0.044 A 
ATOM      2  C   LIG    1       24.486 -23.484   5.163  0.00  0.00    +0.019 A 
ATOM      3  C   LIG    1       24.878 -24.632   5.860  0.00  0.00    +0.065 A 
ATOM      4  C   LIG    1       25.737 -24.547   6.950  0.00  0.00    +0.141 A 
ATOM      5  O   LIG    1       26.162 -25.631   7.675  0.00  0.00    -0.436 OA
ATOM      6  C   LIG    1       25.711 -26.879   7.313  0.00  0.00    +0.233 A 
ATOM      7  C   LIG    1       24.846 -27.098   6.255  0.00  0.00    +0.085 A 
ATOM      8  C   LIG    1       24.443 -28.399   5.965  0.00  0.00    +0.035 A 
ATOM      9  C   LIG    1       24.935 -29.447   6.747  0.00  0.00    +0.099 A 
ATOM     10  C   LIG    1       25.792 -29.141   7.807  0.00  0.00    +0.134 A 
ATOM     11  N   LIG    1       26.188 -27.884   8.090  0.00  0.00    -0.197 NA
ATOM     12  C   LIG    1       26.210 -23.299   7.352  0.00  0.00    +0.047 A 
ATOM     13  C   LIG    1       24.390 -25.957   5.459  0.00  0.00    +0.202 C 
ATOM     14  O   LIG    1       23.639 -26.109   4.505  0.00  0.00    -0.286 OA
ATOM     15  C   LIG    1       25.823 -22.146   6.661  0.00  0.00    +0.007 A 
ENDROOT
BRANCH   1  17
ATOM     16  C   LIG    1       23.347 -20.282   5.492  0.00  0.00    +0.012 C 
ATOM     17  C   LIG    1       24.549 -20.957   4.826  0.00  0.00    +0.013 C 
ATOM     18  C   LIG    1       25.723 -19.981   4.700  0.00  0.00    +0.012 C 
ENDBRANCH   1  17
BRANCH  10  19
ATOM     19  N   LIG    1       26.328 -30.128   8.647  0.00  0.00    -0.342 N 
ATOM     20  H   LIG    1       27.345 -30.161   8.552  0.00  0.00    +0.144 HD
ATOM     21  H   LIG    1       25.938 -31.015   8.317  0.00  0.00    +0.144 HD
ENDBRANCH  10  19
BRANCH   9  22
ATOM     22  C   LIG    1       24.538 -30.831   6.402  0.00  0.00    +0.340 C 
ATOM     23  O   LIG    1       25.221 -31.798   6.690  0.00  0.00    -0.245 OA
BRANCH  22  24
ATOM     24  O   LIG    1       23.339 -30.933   5.788  0.00  0.00    -0.477 OA
ATOM     25  H   LIG    1       22.962 -30.067   5.505  0.00  0.00    +0.295 HD
ENDBRANCH  22  24
ENDBRANCH   9  22
TORSDOF 4
ENDMDL
MODEL 8
REMARK VINA RESULT:      -6.2      6.964      9.680
REMARK  Name = *****
REMARK                            x       y       z     vdW  Elec       q    Type
REMARK                         _______ _______ _______ _____ _____    ______ ____
ROOT
ATOM      1  C   LIG    1       25.462 -31.558   7.040  0.00  0.00    -0.044 A 
ATOM      2  C   LIG    1       25.796 -30.342   7.655  0.00  0.00    +0.019 A 
ATOM      3  C   LIG    1       25.553 -29.131   6.997  0.00  0.00    +0.065 A 
ATOM      4  C   LIG    1       24.982 -29.109   5.730  0.00  0.00    +0.141 A 
ATOM      5  O   LIG    1       24.721 -27.960   5.028  0.00  0.00    -0.436 OA
ATOM      6  C   LIG    1       25.032 -26.752   5.610  0.00  0.00    +0.233 A 
ATOM      7  C   LIG    1       25.594 -26.637   6.869  0.00  0.00    +0.085 A 
ATOM      8  C   LIG    1       25.874 -25.370   7.375  0.00  0.00    +0.035 A 
ATOM      9  C   LIG    1       25.588 -24.252   6.587  0.00  0.00    +0.099 A 
ATOM     10  C   LIG    1       25.006 -24.452   5.334  0.00  0.00    +0.134 A 
ATOM     11  N   LIG    1       24.737 -25.677   4.838  0.00  0.00    -0.197 NA
ATOM     12  C   LIG    1       24.645 -30.312   5.111  0.00  0.00    +0.047 A 
ATOM     13  C   LIG    1       25.895 -27.851   7.630  0.00  0.00    +0.202 C 
ATOM     14  O   LIG    1       26.407 -27.794   8.739  0.00  0.00    -0.286 OA
ATOM     15  C   LIG    1       24.883 -31.527   5.762  0.00  0.00    +0.007 A 
ENDROOT
BRANCH   1  17
ATOM     16  C   LIG    1       27.067 -32.920   8.431  0.00  0.00    +0.012 C 
ATOM     17  C   LIG    1       25.708 -32.890   7.728  0.00  0.00    +0.013 C 
ATOM     18  C   LIG    1       24.580 -33.228   8.707  0.00  0.00    +0.012 C 
ENDBRANCH   1  17
BRANCH  10  19
ATOM     19  N   LIG    1       24.680 -23.389   4.480  0.00  0.00    -0.342 N 
ATOM     20  H   LIG    1       25.402 -22.667   4.519  0.00  0.00    +0.144 HD
ATOM     21  H   LIG    1       23.806 -22.999   4.844  0.00  0.00    +0.144 HD
ENDBRANCH  10  19
BRANCH   9  22
ATOM     22  C   LIG    1       25.932 -22.912   7.115  0.00  0.00    +0.340 C 
ATOM     23  O   LIG    1       25.799 -22.620   8.290  0.00  0.00    -0.245 OA
BRANCH  22  24
ATOM     24  O   LIG    1       26.449 -22.065   6.199  0.00  0.00    -0.477 OA
ATOM     25  H   LIG    1       25.912 -21.992   5.376  0.00  0.00    +0.295 HD
ENDBRANCH  22  24
ENDBRANCH   9  22
TORSDOF 4
ENDMDL
MODEL 9
REMARK VINA RESULT:      -6.1      9.154     10.969
REMARK  Name = *****
REMARK                            x       y       z     vdW  Elec       q    Type
REMARK                         _______ _______ _______ _____ _____    ______ ____
ROOT
ATOM      1  C   LIG    1       25.779 -31.134  13.003  0.00  0.00    -0.044 A 
ATOM      2  C   LIG    1       26.293 -30.163  12.130  0.00  0.00    +0.019 A 
ATOM      3  C   LIG    1       25.743 -30.003  10.854  0.00  0.00    +0.065 A 
ATOM      4  C   LIG    1       24.685 -30.797  10.428  0.00  0.00    +0.141 A 
ATOM      5  O   LIG    1       24.101 -30.696   9.191  0.00  0.00    -0.436 OA
ATOM      6  C   LIG    1       24.580 -29.748   8.316  0.00  0.00    +0.233 A 
ATOM      7  C   LIG    1       25.622 -28.889   8.622  0.00  0.00    +0.085 A 
ATOM      8  C   LIG    1       26.038 -27.960   7.671  0.00  0.00    +0.035 A 
ATOM      9  C   LIG    1       25.397 -27.934   6.429  0.00  0.00    +0.099 A 
ATOM     10  C   LIG    1       24.343 -28.823   6.205  0.00  0.00    +0.134 A 
ATOM     11  N   LIG    1       23.939 -29.726   7.121  0.00  0.00    -0.197 NA
ATOM     12  C   LIG    1       24.165 -31.764  11.288  0.00  0.00    +0.047 A 
ATOM     13  C   LIG    1       26.268 -28.989   9.931  0.00  0.00    +0.202 C 
ATOM     14  O   LIG    1       27.203 -28.261  10.234  0.00  0.00    -0.286 OA
ATOM     15  C   LIG    1       24.709 -31.931  12.566  0.00  0.00    +0.007 A 
ENDROOT
BRANCH   1  17
ATOM     16  C   LIG    1       26.478 -32.815  14.750  0.00  0.00    +0.012 C 
ATOM     17  C   LIG    1       26.351 -31.331  14.396  0.00  0.00    +0.013 C 
ATOM     18  C   LIG    1       27.695 -30.615  14.555  0.00  0.00    +0.012 C 
ENDBRANCH   1  17
BRANCH  10  19
ATOM     19  N   LIG    1       23.640 -28.862   4.993  0.00  0.00    -0.342 N 
ATOM     20  H   LIG    1       23.186 -29.770   4.874  0.00  0.00    +0.144 HD
ATOM     21  H   LIG    1       24.344 -28.748   4.260  0.00  0.00    +0.144 HD
ENDBRANCH  10  19
BRANCH   9  22
ATOM     22  C   LIG    1       25.877 -26.975   5.409  0.00  0.00    +0.340 C 
ATOM     23  O   LIG    1       25.155 -26.121   4.924  0.00  0.00    -0.245 OA
BRANCH  22  24
ATOM     24  O   LIG    1       27.187 -27.094   5.100  0.00  0.00    -0.477 OA
ATOM     25  H   LIG    1       27.521 -28.020   5.137  0.00  0.00    +0.295 HD
ENDBRANCH  22  24
ENDBRANCH   9  22
TORSDOF 4
ENDMDL
