MODEL 1
REMARK VINA RESULT:      -6.5      0.000      0.000
REMARK  Name = *****
REMARK                            x       y       z     vdW  Elec       q    Type
REMARK                         _______ _______ _______ _____ _____    ______ ____
ROOT
ATOM      1  C   LIG    1       22.180 -31.263   9.996  0.00  0.00    +0.048 C 
ATOM      2  C   LIG    1       22.305 -30.245  11.097  0.00  0.00    -0.001 C 
ATOM      3  C   LIG    1       23.534 -29.649  11.459  0.00  0.00    +0.052 C 
ATOM      4  C   LIG    1       24.813 -29.978  10.748  0.00  0.00    +0.204 C 
ATOM      5  C   LIG    1       26.060 -29.299  11.165  0.00  0.00    +0.122 C 
ATOM      6  C   LIG    1       25.974 -28.418  12.170  0.00  0.00    +0.105 C 
ATOM      7  N   LIG    1       24.819 -28.064  12.835  0.00  0.00    -0.343 NA
ATOM      8  O   LIG    1       24.875 -30.798   9.837  0.00  0.00    -0.286 OA
ATOM      9  C   LIG    1       23.590 -28.709  12.513  0.00  0.00    +0.055 C 
ATOM     10  C   LIG    1       22.405 -28.422  13.212  0.00  0.00    +0.052 C 
ATOM     11  C   LIG    1       21.161 -28.980  12.878  0.00  0.00    +0.068 C 
ATOM     12  C   LIG    1       21.142 -29.877  11.800  0.00  0.00    +0.148 C 
ATOM     13  F   LIG    1       19.979 -30.440  11.433  0.00  0.00    -0.203 F 
ENDROOT
BRANCH  11  14
ATOM     14  N   LIG    1       20.041 -28.571  13.611  0.00  0.00    -0.325 NA
ATOM     15  C   LIG    1       20.256 -27.385  14.472  0.00  0.00    +0.123 C 
ATOM     16  C   LIG    1       18.893 -26.769  14.901  0.00  0.00    +0.068 C 
ATOM     17  C   LIG    1       18.239 -26.019  13.736  0.00  0.00    +0.025 C 
ATOM     18  N   LIG    1       17.954 -27.751  15.499  0.00  0.00    -0.310 NA
ATOM     19  H   LIG    1       18.349 -28.056  16.388  0.00  0.00    +0.122 HD
ATOM     20  C   LIG    1       17.831 -28.948  14.636  0.00  0.00    +0.100 C 
ATOM     21  C   LIG    1       19.187 -29.587  14.253  0.00  0.00    +0.120 C 
ENDBRANCH  11  14
BRANCH   7  22
ATOM     22  C   LIG    1       24.919 -27.039  13.894  0.00  0.00    +0.087 C 
ATOM     23  C   LIG    1       25.833 -25.842  13.759  0.00  0.00    +0.027 C 
ATOM     24  C   LIG    1       24.353 -25.650  13.716  0.00  0.00    +0.027 C 
ENDBRANCH   7  22
BRANCH   5  25
ATOM     25  C   LIG    1       27.378 -29.530  10.536  0.00  0.00    +0.342 C 
ATOM     26  O   LIG    1       28.387 -29.814  11.167  0.00  0.00    -0.245 OA
BRANCH  25  27
ATOM     27  O   LIG    1       27.391 -29.381   9.192  0.00  0.00    -0.477 OA
ATOM     28  H   LIG    1       26.514 -29.538   8.763  0.00  0.00    +0.295 HD
ENDBRANCH  25  27
ENDBRANCH   5  25
TORSDOF 4
ENDMDL
MODEL 2
REMARK VINA RESULT:      -6.2      2.708      6.171
REMARK  Name = *****
REMARK                            x       y       z     vdW  Elec       q    Type
REMARK                         _______ _______ _______ _____ _____    ______ ____
ROOT
ATOM      1  C   LIG    1       25.107 -30.577   9.498  0.00  0.00    +0.048 C 
ATOM      2  C   LIG    1       24.650 -29.808  10.707  0.00  0.00    -0.001 C 
ATOM      3  C   LIG    1       23.307 -29.791  11.148  0.00  0.00    +0.052 C 
ATOM      4  C   LIG    1       22.234 -30.564  10.444  0.00  0.00    +0.204 C 
ATOM      5  C   LIG    1       20.852 -30.519  10.972  0.00  0.00    +0.122 C 
ATOM      6  C   LIG    1       20.637 -29.775  12.066  0.00  0.00    +0.105 C 
ATOM      7  N   LIG    1       21.595 -29.068  12.760  0.00  0.00    -0.343 NA
ATOM      8  O   LIG    1       22.447 -31.232   9.435  0.00  0.00    -0.286 OA
ATOM      9  C   LIG    1       22.938 -29.035  12.283  0.00  0.00    +0.055 C 
ATOM     10  C   LIG    1       23.928 -28.274  12.928  0.00  0.00    +0.052 C 
ATOM     11  C   LIG    1       25.274 -28.273  12.533  0.00  0.00    +0.068 C 
ATOM     12  C   LIG    1       25.607 -29.067  11.426  0.00  0.00    +0.148 C 
ATOM     13  F   LIG    1       26.882 -29.107  11.005  0.00  0.00    -0.203 F 
ENDROOT
BRANCH  11  14
ATOM     14  N   LIG    1       26.179 -27.520  13.291  0.00  0.00    -0.325 NA
ATOM     15  C   LIG    1       26.668 -26.286  12.635  0.00  0.00    +0.123 C 
ATOM     16  C   LIG    1       27.309 -25.329  13.682  0.00  0.00    +0.068 C 
ATOM     17  C   LIG    1       26.233 -24.652  14.538  0.00  0.00    +0.025 C 
ATOM     18  N   LIG    1       28.340 -25.976  14.532  0.00  0.00    -0.310 NA
ATOM     19  H   LIG    1       29.131 -26.212  13.933  0.00  0.00    +0.122 HD
ATOM     20  C   LIG    1       27.826 -27.241  15.104  0.00  0.00    +0.100 C 
ATOM     21  C   LIG    1       27.235 -28.210  14.053  0.00  0.00    +0.120 C 
ENDBRANCH  11  14
BRANCH   7  22
ATOM     22  C   LIG    1       21.169 -28.336  13.972  0.00  0.00    +0.087 C 
ATOM     23  C   LIG    1       20.650 -26.918  13.903  0.00  0.00    +0.027 C 
ATOM     24  C   LIG    1       19.716 -28.031  14.250  0.00  0.00    +0.027 C 
ENDBRANCH   7  22
BRANCH   5  25
ATOM     25  C   LIG    1       19.712 -31.247  10.375  0.00  0.00    +0.342 C 
ATOM     26  O   LIG    1       19.591 -32.463  10.417  0.00  0.00    -0.245 OA
BRANCH  25  27
ATOM     27  O   LIG    1       18.808 -30.457   9.752  0.00  0.00    -0.477 OA
ATOM     28  H   LIG    1       18.830 -29.513  10.047  0.00  0.00    +0.295 HD
ENDBRANCH  25  27
ENDBRANCH   5  25
TORSDOF 4
ENDMDL
MODEL 3
REMARK VINA RESULT:      -5.9      3.726      7.613
REMARK  Name = *****
REMARK                            x       y       z     vdW  Elec       q    Type
REMARK                         _______ _______ _______ _____ _____    ______ ____
ROOT
ATOM      1  C   LIG    1       23.348 -25.643  15.154  0.00  0.00    +0.048 C 
ATOM      2  C   LIG    1       23.240 -26.790  14.186  0.00  0.00    -0.001 C 
ATOM      3  C   LIG    1       22.033 -27.485  13.946  0.00  0.00    +0.052 C 
ATOM      4  C   LIG    1       20.755 -27.110  14.633  0.00  0.00    +0.204 C 
ATOM      5  C   LIG    1       19.522 -27.866  14.318  0.00  0.00    +0.122 C 
ATOM      6  C   LIG    1       19.623 -28.859  13.424  0.00  0.00    +0.105 C 
ATOM      7  N   LIG    1       20.769 -29.224  12.750  0.00  0.00    -0.343 NA
ATOM      8  O   LIG    1       20.683 -26.204  15.459  0.00  0.00    -0.286 OA
ATOM      9  C   LIG    1       21.999 -28.564  13.035  0.00  0.00    +0.055 C 
ATOM     10  C   LIG    1       23.200 -28.950  12.415  0.00  0.00    +0.052 C 
ATOM     11  C   LIG    1       24.417 -28.281  12.614  0.00  0.00    +0.068 C 
ATOM     12  C   LIG    1       24.400 -27.189  13.495  0.00  0.00    +0.148 C 
ATOM     13  F   LIG    1       25.535 -26.508  13.721  0.00  0.00    -0.203 F 
ENDROOT
BRANCH  11  14
ATOM     14  N   LIG    1       25.534 -28.723  11.894  0.00  0.00    -0.325 NA
ATOM     15  C   LIG    1       25.224 -29.553  10.708  0.00  0.00    +0.123 C 
ATOM     16  C   LIG    1       26.458 -29.635   9.763  0.00  0.00    +0.068 C 
ATOM     17  C   LIG    1       26.654 -28.319   9.003  0.00  0.00    +0.025 C 
ATOM     18  N   LIG    1       27.708 -30.050  10.445  0.00  0.00    -0.310 NA
ATOM     19  H   LIG    1       27.593 -31.019  10.742  0.00  0.00    +0.122 HD
ATOM     20  C   LIG    1       27.933 -29.238  11.662  0.00  0.00    +0.100 C 
ATOM     21  C   LIG    1       26.721 -29.201  12.624  0.00  0.00    +0.120 C 
ENDBRANCH  11  14
BRANCH   7  22
ATOM     22  C   LIG    1       20.671 -30.324  11.768  0.00  0.00    +0.087 C 
ATOM     23  C   LIG    1       20.775 -31.774  12.186  0.00  0.00    +0.027 C 
ATOM     24  C   LIG    1       19.467 -31.235  11.708  0.00  0.00    +0.027 C 
ENDBRANCH   7  22
BRANCH   5  25
ATOM     25  C   LIG    1       18.201 -27.585  14.919  0.00  0.00    +0.342 C 
ATOM     26  O   LIG    1       17.410 -28.459  15.249  0.00  0.00    -0.245 OA
BRANCH  25  27
ATOM     27  O   LIG    1       17.918 -26.270  15.060  0.00  0.00    -0.477 OA
ATOM     28  H   LIG    1       18.251 -25.707  14.318  0.00  0.00    +0.295 HD
ENDBRANCH  25  27
ENDBRANCH   5  25
TORSDOF 4
ENDMDL
MODEL 4
REMARK VINA RESULT:      -5.9      5.085      6.824
REMARK  Name = *****
REMARK                            x       y       z     vdW  Elec       q    Type
REMARK                         _______ _______ _______ _____ _____    ______ ____
ROOT
ATOM      1  C   LIG    1       23.354 -32.353   7.865  0.00  0.00    +0.048 C 
ATOM      2  C   LIG    1       24.198 -31.166   8.238  0.00  0.00    -0.001 C 
ATOM      3  C   LIG    1       24.791 -31.011   9.511  0.00  0.00    +0.052 C 
ATOM      4  C   LIG    1       24.636 -32.043  10.587  0.00  0.00    +0.204 C 
ATOM      5  C   LIG    1       25.303 -31.827  11.890  0.00  0.00    +0.122 C 
ATOM      6  C   LIG    1       26.017 -30.703  12.036  0.00  0.00    +0.105 C 
ATOM      7  N   LIG    1       26.208 -29.739  11.070  0.00  0.00    -0.343 NA
ATOM      8  O   LIG    1       23.968 -33.063  10.439  0.00  0.00    -0.286 OA
ATOM      9  C   LIG    1       25.561 -29.863   9.806  0.00  0.00    +0.055 C 
ATOM     10  C   LIG    1       25.681 -28.870   8.819  0.00  0.00    +0.052 C 
ATOM     11  C   LIG    1       25.120 -28.988   7.538  0.00  0.00    +0.068 C 
ATOM     12  C   LIG    1       24.397 -30.161   7.272  0.00  0.00    +0.148 C 
ATOM     13  F   LIG    1       23.841 -30.330   6.061  0.00  0.00    -0.203 F 
ENDROOT
BRANCH  11  14
ATOM     14  N   LIG    1       25.358 -27.958   6.621  0.00  0.00    -0.325 NA
ATOM     15  C   LIG    1       24.278 -26.950   6.520  0.00  0.00    +0.123 C 
ATOM     16  C   LIG    1       24.799 -25.661   5.820  0.00  0.00    +0.068 C 
ATOM     17  C   LIG    1       25.700 -24.853   6.760  0.00  0.00    +0.025 C 
ATOM     18  N   LIG    1       25.472 -25.915   4.522  0.00  0.00    -0.310 NA
ATOM     19  H   LIG    1       24.766 -26.252   3.868  0.00  0.00    +0.122 HD
ATOM     20  C   LIG    1       26.490 -26.980   4.661  0.00  0.00    +0.100 C 
ATOM     21  C   LIG    1       25.954 -28.278   5.312  0.00  0.00    +0.120 C 
ENDBRANCH  11  14
BRANCH   7  22
ATOM     22  C   LIG    1       27.065 -28.583  11.408  0.00  0.00    +0.087 C 
ATOM     23  C   LIG    1       26.521 -27.378  12.142  0.00  0.00    +0.027 C 
ATOM     24  C   LIG    1       27.483 -28.289  12.830  0.00  0.00    +0.027 C 
ENDBRANCH   7  22
BRANCH   5  25
ATOM     25  C   LIG    1       25.235 -32.776  13.023  0.00  0.00    +0.342 C 
ATOM     26  O   LIG    1       26.223 -33.267  13.552  0.00  0.00    -0.245 OA
BRANCH  25  27
ATOM     27  O   LIG    1       23.980 -33.080  13.423  0.00  0.00    -0.477 OA
ATOM     28  H   LIG    1       23.272 -32.628  12.902  0.00  0.00    +0.295 HD
ENDBRANCH  25  27
ENDBRANCH   5  25
TORSDOF 4
ENDMDL
MODEL 5
REMARK VINA RESULT:      -5.9      2.679      4.397
REMARK  Name = *****
REMARK                            x       y       z     vdW  Elec       q    Type
REMARK                         _______ _______ _______ _____ _____    ______ ____
ROOT
ATOM      1  C   LIG    1       21.688 -26.381  14.748  0.00  0.00    +0.048 C 
ATOM      2  C   LIG    1       22.055 -27.466  13.773  0.00  0.00    -0.001 C 
ATOM      3  C   LIG    1       23.361 -27.631  13.258  0.00  0.00    +0.052 C 
ATOM      4  C   LIG    1       24.492 -26.737  13.669  0.00  0.00    +0.204 C 
ATOM      5  C   LIG    1       25.839 -26.980  13.108  0.00  0.00    +0.122 C 
ATOM      6  C   LIG    1       25.972 -28.000  12.250  0.00  0.00    +0.105 C 
ATOM      7  N   LIG    1       24.969 -28.863  11.862  0.00  0.00    -0.343 NA
ATOM      8  O   LIG    1       24.349 -25.798  14.448  0.00  0.00    -0.286 OA
ATOM      9  C   LIG    1       23.639 -28.661  12.333  0.00  0.00    +0.055 C 
ATOM     10  C   LIG    1       22.579 -29.481  11.910  0.00  0.00    +0.052 C 
ATOM     11  C   LIG    1       21.271 -29.362  12.405  0.00  0.00    +0.068 C 
ATOM     12  C   LIG    1       21.045 -28.352  13.352  0.00  0.00    +0.148 C 
ATOM     13  F   LIG    1       19.813 -28.194  13.862  0.00  0.00    -0.203 F 
ENDROOT
BRANCH  11  14
ATOM     14  N   LIG    1       20.313 -30.276  11.950  0.00  0.00    -0.325 NA
ATOM     15  C   LIG    1       19.933 -31.321  12.928  0.00  0.00    +0.123 C 
ATOM     16  C   LIG    1       18.600 -32.004  12.506  0.00  0.00    +0.068 C 
ATOM     17  C   LIG    1       17.404 -31.082  12.768  0.00  0.00    +0.025 C 
ATOM     18  N   LIG    1       18.597 -32.497  11.106  0.00  0.00    -0.310 NA
ATOM     19  H   LIG    1       19.268 -33.264  11.046  0.00  0.00    +0.122 HD
ATOM     20  C   LIG    1       19.054 -31.438  10.178  0.00  0.00    +0.100 C 
ATOM     21  C   LIG    1       20.405 -30.797  10.575  0.00  0.00    +0.120 C 
ENDBRANCH  11  14
BRANCH   7  22
ATOM     22  C   LIG    1       25.322 -29.957  10.933  0.00  0.00    +0.087 C 
ATOM     23  C   LIG    1       25.306 -29.763   9.433  0.00  0.00    +0.027 C 
ATOM     24  C   LIG    1       26.608 -29.948  10.141  0.00  0.00    +0.027 C 
ENDBRANCH   7  22
BRANCH   5  25
ATOM     25  C   LIG    1       27.034 -26.176  13.444  0.00  0.00    +0.342 C 
ATOM     26  O   LIG    1       27.165 -24.999  13.133  0.00  0.00    -0.245 OA
BRANCH  25  27
ATOM     27  O   LIG    1       27.995 -26.853  14.112  0.00  0.00    -0.477 OA
ATOM     28  H   LIG    1       28.018 -27.821  13.910  0.00  0.00    +0.295 HD
ENDBRANCH  25  27
ENDBRANCH   5  25
TORSDOF 4
ENDMDL
MODEL 6
REMARK VINA RESULT:      -5.8      3.120      4.993
REMARK  Name = *****
REMARK                            x       y       z     vdW  Elec       q    Type
REMARK                         _______ _______ _______ _____ _____    ______ ____
ROOT
ATOM      1  C   LIG    1       21.619 -26.543  13.685  0.00  0.00    +0.048 C 
ATOM      2  C   LIG    1       22.488 -27.624  13.102  0.00  0.00    -0.001 C 
ATOM      3  C   LIG    1       23.898 -27.541  13.062  0.00  0.00    +0.052 C 
ATOM      4  C   LIG    1       24.637 -26.364  13.624  0.00  0.00    +0.204 C 
ATOM      5  C   LIG    1       26.116 -26.353  13.569  0.00  0.00    +0.122 C 
ATOM      6  C   LIG    1       26.718 -27.411  13.009  0.00  0.00    +0.105 C 
ATOM      7  N   LIG    1       26.083 -28.525  12.503  0.00  0.00    -0.343 NA
ATOM      8  O   LIG    1       24.069 -25.397  14.123  0.00  0.00    -0.286 OA
ATOM      9  C   LIG    1       24.659 -28.583  12.487  0.00  0.00    +0.055 C 
ATOM     10  C   LIG    1       23.975 -29.674  11.922  0.00  0.00    +0.052 C 
ATOM     11  C   LIG    1       22.578 -29.803  11.951  0.00  0.00    +0.068 C 
ATOM     12  C   LIG    1       21.862 -28.766  12.567  0.00  0.00    +0.148 C 
ATOM     13  F   LIG    1       20.522 -28.838  12.627  0.00  0.00    -0.203 F 
ENDROOT
BRANCH  11  14
ATOM     14  N   LIG    1       22.015 -30.963  11.407  0.00  0.00    -0.325 NA
ATOM     15  C   LIG    1       21.386 -31.874  12.390  0.00  0.00    +0.123 C 
ATOM     16  C   LIG    1       20.446 -32.885  11.673  0.00  0.00    +0.068 C 
ATOM     17  C   LIG    1       19.151 -32.204  11.218  0.00  0.00    +0.025 C 
ATOM     18  N   LIG    1       21.091 -33.610  10.550  0.00  0.00    -0.310 NA
ATOM     19  H   LIG    1       21.810 -34.217  10.945  0.00  0.00    +0.122 HD
ATOM     20  C   LIG    1       21.767 -32.661   9.636  0.00  0.00    +0.100 C 
ATOM     21  C   LIG    1       22.739 -31.690  10.348  0.00  0.00    +0.120 C 
ENDBRANCH  11  14
BRANCH   7  22
ATOM     22  C   LIG    1       26.924 -29.612  11.959  0.00  0.00    +0.087 C 
ATOM     23  C   LIG    1       27.396 -29.610  10.523  0.00  0.00    +0.027 C 
ATOM     24  C   LIG    1       28.382 -29.401  11.624  0.00  0.00    +0.027 C 
ENDBRANCH   7  22
BRANCH   5  25
ATOM     25  C   LIG    1       26.957 -25.258  14.098  0.00  0.00    +0.342 C 
ATOM     26  O   LIG    1       27.827 -24.699  13.444  0.00  0.00    -0.245 OA
BRANCH  25  27
ATOM     27  O   LIG    1       26.703 -24.929  15.385  0.00  0.00    -0.477 OA
ATOM     28  H   LIG    1       25.742 -24.806  15.585  0.00  0.00    +0.295 HD
ENDBRANCH  25  27
ENDBRANCH   5  25
TORSDOF 4
ENDMDL
MODEL 7
REMARK VINA RESULT:      -5.8      2.475      4.251
REMARK  Name = *****
REMARK                            x       y       z     vdW  Elec       q    Type
REMARK                         _______ _______ _______ _____ _____    ______ ____
ROOT
ATOM      1  C   LIG    1       22.784 -27.014  13.356  0.00  0.00    +0.048 C 
ATOM      2  C   LIG    1       22.645 -28.338  12.657  0.00  0.00    -0.001 C 
ATOM      3  C   LIG    1       23.746 -29.060  12.146  0.00  0.00    +0.052 C 
ATOM      4  C   LIG    1       25.153 -28.560  12.285  0.00  0.00    +0.204 C 
ATOM      5  C   LIG    1       26.262 -29.378  11.746  0.00  0.00    +0.122 C 
ATOM      6  C   LIG    1       25.940 -30.535  11.153  0.00  0.00    +0.105 C 
ATOM      7  N   LIG    1       24.667 -31.047  11.024  0.00  0.00    -0.343 NA
ATOM      8  O   LIG    1       25.429 -27.491  12.821  0.00  0.00    -0.286 OA
ATOM      9  C   LIG    1       23.549 -30.293  11.484  0.00  0.00    +0.055 C 
ATOM     10  C   LIG    1       22.232 -30.752  11.312  0.00  0.00    +0.052 C 
ATOM     11  C   LIG    1       21.110 -30.075  11.815  0.00  0.00    +0.068 C 
ATOM     12  C   LIG    1       21.353 -28.875  12.500  0.00  0.00    +0.148 C 
ATOM     13  F   LIG    1       20.317 -28.186  13.006  0.00  0.00    -0.203 F 
ENDROOT
BRANCH  11  14
ATOM     14  N   LIG    1       19.853 -30.663  11.631  0.00  0.00    -0.325 NA
ATOM     15  C   LIG    1       19.391 -31.514  12.751  0.00  0.00    +0.123 C 
ATOM     16  C   LIG    1       17.859 -31.767  12.648  0.00  0.00    +0.068 C 
ATOM     17  C   LIG    1       17.069 -30.516  13.048  0.00  0.00    +0.025 C 
ATOM     18  N   LIG    1       17.423 -32.274  11.323  0.00  0.00    -0.310 NA
ATOM     19  H   LIG    1       17.810 -33.210  11.207  0.00  0.00    +0.122 HD
ATOM     20  C   LIG    1       17.971 -31.431  10.236  0.00  0.00    +0.100 C 
ATOM     21  C   LIG    1       19.502 -31.224  10.314  0.00  0.00    +0.120 C 
ENDBRANCH  11  14
BRANCH   7  22
ATOM     22  C   LIG    1       24.516 -32.365  10.371  0.00  0.00    +0.087 C 
ATOM     23  C   LIG    1       24.414 -32.501   8.868  0.00  0.00    +0.027 C 
ATOM     24  C   LIG    1       25.634 -32.993   9.574  0.00  0.00    +0.027 C 
ENDBRANCH   7  22
BRANCH   5  25
ATOM     25  C   LIG    1       27.689 -28.999  11.832  0.00  0.00    +0.342 C 
ATOM     26  O   LIG    1       28.525 -29.325  11.000  0.00  0.00    -0.245 OA
BRANCH  25  27
ATOM     27  O   LIG    1       28.010 -28.272  12.926  0.00  0.00    -0.477 OA
ATOM     28  H   LIG    1       28.712 -27.594  12.764  0.00  0.00    +0.295 HD
ENDBRANCH  25  27
ENDBRANCH   5  25
TORSDOF 4
ENDMDL
MODEL 8
REMARK VINA RESULT:      -5.8      1.743      3.560
REMARK  Name = *****
REMARK                            x       y       z     vdW  Elec       q    Type
REMARK                         _______ _______ _______ _____ _____    ______ ____
ROOT
ATOM      1  C   LIG    1       24.315 -25.656  14.167  0.00  0.00    +0.048 C 
ATOM      2  C   LIG    1       23.533 -26.858  13.713  0.00  0.00    -0.001 C 
ATOM      3  C   LIG    1       24.084 -27.874  12.899  0.00  0.00    +0.052 C 
ATOM      4  C   LIG    1       25.512 -27.834  12.443  0.00  0.00    +0.204 C 
ATOM      5  C   LIG    1       26.030 -28.943  11.610  0.00  0.00    +0.122 C 
ATOM      6  C   LIG    1       25.179 -29.932  11.307  0.00  0.00    +0.105 C 
ATOM      7  N   LIG    1       23.868 -30.025  11.723  0.00  0.00    -0.343 NA
ATOM      8  O   LIG    1       26.274 -26.913  12.721  0.00  0.00    -0.286 OA
ATOM      9  C   LIG    1       23.293 -28.972  12.493  0.00  0.00    +0.055 C 
ATOM     10  C   LIG    1       21.943 -29.000  12.882  0.00  0.00    +0.052 C 
ATOM     11  C   LIG    1       21.359 -28.021  13.700  0.00  0.00    +0.068 C 
ATOM     12  C   LIG    1       22.188 -26.969  14.114  0.00  0.00    +0.148 C 
ATOM     13  F   LIG    1       21.683 -26.004  14.901  0.00  0.00    -0.203 F 
ENDROOT
BRANCH  11  14
ATOM     14  N   LIG    1       20.018 -28.189  14.068  0.00  0.00    -0.325 NA
ATOM     15  C   LIG    1       19.587 -27.390  15.238  0.00  0.00    +0.123 C 
ATOM     16  C   LIG    1       18.034 -27.317  15.305  0.00  0.00    +0.068 C 
ATOM     17  C   LIG    1       17.483 -26.367  14.237  0.00  0.00    +0.025 C 
ATOM     18  N   LIG    1       17.369 -28.642  15.237  0.00  0.00    -0.310 NA
ATOM     19  H   LIG    1       17.604 -29.151  16.089  0.00  0.00    +0.122 HD
ATOM     20  C   LIG    1       17.887 -29.428  14.095  0.00  0.00    +0.100 C 
ATOM     21  C   LIG    1       19.430 -29.540  14.060  0.00  0.00    +0.120 C 
ENDBRANCH  11  14
BRANCH   7  22
ATOM     22  C   LIG    1       23.097 -31.218  11.316  0.00  0.00    +0.087 C 
ATOM     23  C   LIG    1       22.371 -31.282   9.991  0.00  0.00    +0.027 C 
ATOM     24  C   LIG    1       23.573 -32.138  10.217  0.00  0.00    +0.027 C 
ENDBRANCH   7  22
BRANCH   5  25
ATOM     25  C   LIG    1       27.419 -29.023  11.109  0.00  0.00    +0.342 C 
ATOM     26  O   LIG    1       27.711 -29.429   9.992  0.00  0.00    -0.245 OA
BRANCH  25  27
ATOM     27  O   LIG    1       28.358 -28.628  11.998  0.00  0.00    -0.477 OA
ATOM     28  H   LIG    1       28.180 -27.744  12.403  0.00  0.00    +0.295 HD
ENDBRANCH  25  27
ENDBRANCH   5  25
TORSDOF 4
ENDMDL
MODEL 9
REMARK VINA RESULT:      -5.7      3.617      6.464
REMARK  Name = *****
REMARK                            x       y       z     vdW  Elec       q    Type
REMARK                         _______ _______ _______ _____ _____    ______ ____
ROOT
ATOM      1  C   LIG    1       21.311 -26.701  13.706  0.00  0.00    +0.048 C 
ATOM      2  C   LIG    1       22.643 -27.323  13.384  0.00  0.00    -0.001 C 
ATOM      3  C   LIG    1       22.780 -28.487  12.596  0.00  0.00    +0.052 C 
ATOM      4  C   LIG    1       21.593 -29.183  12.000  0.00  0.00    +0.204 C 
ATOM      5  C   LIG    1       21.811 -30.386  11.166  0.00  0.00    +0.122 C 
ATOM      6  C   LIG    1       23.075 -30.791  10.991  0.00  0.00    +0.105 C 
ATOM      7  N   LIG    1       24.198 -30.172  11.497  0.00  0.00    -0.343 NA
ATOM      8  O   LIG    1       20.439 -28.803  12.181  0.00  0.00    -0.286 OA
ATOM      9  C   LIG    1       24.058 -29.033  12.343  0.00  0.00    +0.055 C 
ATOM     10  C   LIG    1       25.175 -28.412  12.929  0.00  0.00    +0.052 C 
ATOM     11  C   LIG    1       25.086 -27.248  13.706  0.00  0.00    +0.068 C 
ATOM     12  C   LIG    1       23.803 -26.716  13.901  0.00  0.00    +0.148 C 
ATOM     13  F   LIG    1       23.659 -25.599  14.635  0.00  0.00    -0.203 F 
ENDROOT
BRANCH  11  14
ATOM     14  N   LIG    1       26.277 -26.689  14.188  0.00  0.00    -0.325 NA
ATOM     15  C   LIG    1       26.780 -25.530  13.417  0.00  0.00    +0.123 C 
ATOM     16  C   LIG    1       27.832 -24.738  14.247  0.00  0.00    +0.068 C 
ATOM     17  C   LIG    1       27.157 -23.925  15.357  0.00  0.00    +0.025 C 
ATOM     18  N   LIG    1       28.923 -25.583  14.792  0.00  0.00    -0.310 NA
ATOM     19  H   LIG    1       29.474 -25.925  14.005  0.00  0.00    +0.122 HD
ATOM     20  C   LIG    1       28.369 -26.766  15.490  0.00  0.00    +0.100 C 
ATOM     21  C   LIG    1       27.361 -27.578  14.642  0.00  0.00    +0.120 C 
ENDBRANCH  11  14
BRANCH   7  22
ATOM     22  C   LIG    1       25.516 -30.749  11.161  0.00  0.00    +0.087 C 
ATOM     23  C   LIG    1       25.733 -31.556   9.900  0.00  0.00    +0.027 C 
ATOM     24  C   LIG    1       26.360 -30.207  10.031  0.00  0.00    +0.027 C 
ENDBRANCH   7  22
BRANCH   5  25
ATOM     25  C   LIG    1       20.725 -31.150  10.515  0.00  0.00    +0.342 C 
ATOM     26  O   LIG    1       20.784 -32.352  10.295  0.00  0.00    -0.245 OA
BRANCH  25  27
ATOM     27  O   LIG    1       19.653 -30.407  10.157  0.00  0.00    -0.477 OA
ATOM     28  H   LIG    1       19.125 -30.072  10.923  0.00  0.00    +0.295 HD
ENDBRANCH  25  27
ENDBRANCH   5  25
TORSDOF 4
ENDMDL
