MODEL 1
REMARK VINA RESULT:      -4.0      0.000      0.000
REMARK  Name = *****
REMARK                            x       y       z     vdW  Elec       q    Type
REMARK                         _______ _______ _______ _____ _____    ______ ____
ROOT
ATOM      1  O   LIG    1       30.726 -22.200  10.241  0.00  0.00    -0.248 OA
ATOM      2  C   LIG    1       31.305 -21.823   9.236  0.00  0.00    +0.331 C 
ENDROOT
BRANCH   2   3
ATOM      3  O   LIG    1       32.171 -22.599   8.533  0.00  0.00    -0.479 OA
ATOM      4  H   LIG    1       32.637 -23.191   9.169  0.00  0.00    +0.295 HD
ENDBRANCH   2   3
BRANCH   2   5
ATOM      5  C   LIG    1       31.146 -20.452   8.597  0.00  0.00    +0.276 C 
BRANCH   5   6
ATOM      6  O   LIG    1       32.068 -19.536   9.196  0.00  0.00    -0.384 OA
ATOM      7  H   LIG    1       32.529 -19.087   8.461  0.00  0.00    +0.210 HD
ENDBRANCH   5   6
ENDBRANCH   2   5
TORSDOF 3
ENDMDL
MODEL 2
REMARK VINA RESULT:      -3.8      2.719      3.750
REMARK  Name = *****
REMARK                            x       y       z     vdW  Elec       q    Type
REMARK                         _______ _______ _______ _____ _____    ______ ____
ROOT
ATOM      1  O   LIG    1       31.385 -18.293   7.482  0.00  0.00    -0.248 OA
ATOM      2  C   LIG    1       31.814 -18.374   8.621  0.00  0.00    +0.331 C 
ENDROOT
BRANCH   2   3
ATOM      3  O   LIG    1       32.088 -19.552   9.239  0.00  0.00    -0.479 OA
ATOM      4  H   LIG    1       33.054 -19.574   9.441  0.00  0.00    +0.295 HD
ENDBRANCH   2   3
BRANCH   2   5
ATOM      5  C   LIG    1       32.132 -17.189   9.521  0.00  0.00    +0.276 C 
BRANCH   5   6
ATOM      6  O   LIG    1       32.689 -16.129   8.735  0.00  0.00    -0.384 OA
ATOM      7  H   LIG    1       33.320 -16.545   8.117  0.00  0.00    +0.210 HD
ENDBRANCH   5   6
ENDBRANCH   2   5
TORSDOF 3
ENDMDL
MODEL 3
REMARK VINA RESULT:      -3.7      2.679      3.673
REMARK  Name = *****
REMARK                            x       y       z     vdW  Elec       q    Type
REMARK                         _______ _______ _______ _____ _____    ______ ____
ROOT
ATOM      1  O   LIG    1       32.076 -19.571   9.196  0.00  0.00    -0.248 OA
ATOM      2  C   LIG    1       31.831 -18.444   8.798  0.00  0.00    +0.331 C 
ENDROOT
BRANCH   2   3
ATOM      3  O   LIG    1       31.250 -18.182   7.599  0.00  0.00    -0.479 OA
ATOM      4  H   LIG    1       30.473 -17.595   7.758  0.00  0.00    +0.295 HD
ENDBRANCH   2   3
BRANCH   2   5
ATOM      5  C   LIG    1       32.110 -17.164   9.571  0.00  0.00    +0.276 C 
BRANCH   5   6
ATOM      6  O   LIG    1       32.678 -16.189   8.690  0.00  0.00    -0.384 OA
ATOM      7  H   LIG    1       32.007 -16.014   8.002  0.00  0.00    +0.210 HD
ENDBRANCH   5   6
ENDBRANCH   2   5
TORSDOF 3
ENDMDL
MODEL 4
REMARK VINA RESULT:      -3.7      2.814      4.490
REMARK  Name = *****
REMARK                            x       y       z     vdW  Elec       q    Type
REMARK                         _______ _______ _______ _____ _____    ______ ____
ROOT
ATOM      1  O   LIG    1       32.730 -17.245  10.716  0.00  0.00    -0.248 OA
ATOM      2  C   LIG    1       32.417 -17.141   9.542  0.00  0.00    +0.331 C 
ENDROOT
BRANCH   2   3
ATOM      3  O   LIG    1       32.662 -16.034   8.795  0.00  0.00    -0.479 OA
ATOM      4  H   LIG    1       32.968 -15.317   9.400  0.00  0.00    +0.295 HD
ENDBRANCH   2   3
BRANCH   2   5
ATOM      5  C   LIG    1       31.729 -18.222   8.722  0.00  0.00    +0.276 C 
BRANCH   5   6
ATOM      6  O   LIG    1       32.097 -19.510   9.227  0.00  0.00    -0.384 OA
ATOM      7  H   LIG    1       32.294 -19.390  10.175  0.00  0.00    +0.210 HD
ENDBRANCH   5   6
ENDBRANCH   2   5
TORSDOF 3
ENDMDL
MODEL 5
REMARK VINA RESULT:      -3.7      1.128      2.538
REMARK  Name = *****
REMARK                            x       y       z     vdW  Elec       q    Type
REMARK                         _______ _______ _______ _____ _____    ______ ____
ROOT
ATOM      1  O   LIG    1       32.035 -19.338   9.330  0.00  0.00    -0.248 OA
ATOM      2  C   LIG    1       31.541 -20.109   8.524  0.00  0.00    +0.331 C 
ENDROOT
BRANCH   2   3
ATOM      3  O   LIG    1       31.530 -19.889   7.184  0.00  0.00    -0.479 OA
ATOM      4  H   LIG    1       31.086 -20.657   6.752  0.00  0.00    +0.295 HD
ENDBRANCH   2   3
BRANCH   2   5
ATOM      5  C   LIG    1       30.881 -21.434   8.874  0.00  0.00    +0.276 C 
BRANCH   5   6
ATOM      6  O   LIG    1       31.688 -22.132   9.827  0.00  0.00    -0.384 OA
ATOM      7  H   LIG    1       32.427 -22.529   9.326  0.00  0.00    +0.210 HD
ENDBRANCH   5   6
ENDBRANCH   2   5
TORSDOF 3
ENDMDL
MODEL 6
REMARK VINA RESULT:      -3.6      2.702      3.599
REMARK  Name = *****
REMARK                            x       y       z     vdW  Elec       q    Type
REMARK                         _______ _______ _______ _____ _____    ______ ____
ROOT
ATOM      1  O   LIG    1       32.110 -19.547   9.209  0.00  0.00    -0.248 OA
ATOM      2  C   LIG    1       31.714 -18.399   9.095  0.00  0.00    +0.331 C 
ENDROOT
BRANCH   2   3
ATOM      3  O   LIG    1       32.213 -17.518   8.190  0.00  0.00    -0.479 OA
ATOM      4  H   LIG    1       33.115 -17.822   7.932  0.00  0.00    +0.295 HD
ENDBRANCH   2   3
BRANCH   2   5
ATOM      5  C   LIG    1       30.598 -17.775   9.919  0.00  0.00    +0.276 C 
BRANCH   5   6
ATOM      6  O   LIG    1       30.572 -18.373  11.219  0.00  0.00    -0.384 OA
ATOM      7  H   LIG    1       30.453 -19.332  11.080  0.00  0.00    +0.210 HD
ENDBRANCH   5   6
ENDBRANCH   2   5
TORSDOF 3
ENDMDL
MODEL 7
REMARK VINA RESULT:      -3.6      2.818      3.686
REMARK  Name = *****
REMARK                            x       y       z     vdW  Elec       q    Type
REMARK                         _______ _______ _______ _____ _____    ______ ____
ROOT
ATOM      1  O   LIG    1       32.024 -18.656   9.892  0.00  0.00    -0.248 OA
ATOM      2  C   LIG    1       31.837 -18.158   8.795  0.00  0.00    +0.331 C 
ENDROOT
BRANCH   2   3
ATOM      3  O   LIG    1       32.358 -16.962   8.415  0.00  0.00    -0.479 OA
ATOM      4  H   LIG    1       32.537 -16.434   9.228  0.00  0.00    +0.295 HD
ENDBRANCH   2   3
BRANCH   2   5
ATOM      5  C   LIG    1       31.022 -18.788   7.676  0.00  0.00    +0.276 C 
BRANCH   5   6
ATOM      6  O   LIG    1       31.660 -19.994   7.241  0.00  0.00    -0.384 OA
ATOM      7  H   LIG    1       32.390 -20.161   7.867  0.00  0.00    +0.210 HD
ENDBRANCH   5   6
ENDBRANCH   2   5
TORSDOF 3
ENDMDL
MODEL 8
REMARK VINA RESULT:      -3.6      1.862      2.701
REMARK  Name = *****
REMARK                            x       y       z     vdW  Elec       q    Type
REMARK                         _______ _______ _______ _____ _____    ______ ____
ROOT
ATOM      1  O   LIG    1       32.169 -20.624   9.235  0.00  0.00    -0.248 OA
ATOM      2  C   LIG    1       31.528 -19.594   9.108  0.00  0.00    +0.331 C 
ENDROOT
BRANCH   2   3
ATOM      3  O   LIG    1       30.743 -19.073  10.086  0.00  0.00    -0.479 OA
ATOM      4  H   LIG    1       29.846 -19.476  10.006  0.00  0.00    +0.295 HD
ENDBRANCH   2   3
BRANCH   2   5
ATOM      5  C   LIG    1       31.516 -18.720   7.863  0.00  0.00    +0.276 C 
BRANCH   5   6
ATOM      6  O   LIG    1       32.212 -17.498   8.131  0.00  0.00    -0.384 OA
ATOM      7  H   LIG    1       33.162 -17.723   8.165  0.00  0.00    +0.210 HD
ENDBRANCH   5   6
ENDBRANCH   2   5
TORSDOF 3
ENDMDL
MODEL 9
REMARK VINA RESULT:      -3.5      1.401      2.045
REMARK  Name = *****
REMARK                            x       y       z     vdW  Elec       q    Type
REMARK                         _______ _______ _______ _____ _____    ______ ____
ROOT
ATOM      1  O   LIG    1       31.952 -21.921   9.317  0.00  0.00    -0.248 OA
ATOM      2  C   LIG    1       31.467 -20.862   8.955  0.00  0.00    +0.331 C 
ENDROOT
BRANCH   2   3
ATOM      3  O   LIG    1       32.028 -19.652   9.213  0.00  0.00    -0.479 OA
ATOM      4  H   LIG    1       32.957 -19.669   8.882  0.00  0.00    +0.295 HD
ENDBRANCH   2   3
BRANCH   2   5
ATOM      5  C   LIG    1       30.186 -20.718   8.148  0.00  0.00    +0.276 C 
BRANCH   5   6
ATOM      6  O   LIG    1       29.479 -19.550   8.579  0.00  0.00    -0.384 OA
ATOM      7  H   LIG    1       29.893 -19.270   9.418  0.00  0.00    +0.210 HD
ENDBRANCH   5   6
ENDBRANCH   2   5
TORSDOF 3
ENDMDL
