MODEL 1
REMARK VINA RESULT:      -8.8      0.000      0.000
REMARK  Name = *****
REMARK                            x       y       z     vdW  Elec       q    Type
REMARK                         _______ _______ _______ _____ _____    ______ ____
ROOT
ATOM      1  C   LIG    1       24.420 -21.325   3.875  0.00  0.00    +0.105 C 
ATOM      2  N   LIG    1       24.294 -20.179   4.782  0.00  0.00    -0.302 NA
ENDROOT
BRANCH   2   3
ATOM      3  C   LIG    1       25.455 -20.086   5.686  0.00  0.00    +0.089 C 
BRANCH   3   4
ATOM      4  C   LIG    1       26.818 -20.060   4.964  0.00  0.00    +0.050 C 
BRANCH   4   5
ATOM      5  C   LIG    1       28.000 -19.777   5.864  0.00  0.00    -0.046 A 
ATOM      6  C   LIG    1       28.092 -20.435   7.100  0.00  0.00    +0.005 A 
ATOM      7  C   LIG    1       29.146 -20.160   7.972  0.00  0.00    +0.025 A 
ATOM      8  C   LIG    1       30.118 -19.231   7.609  0.00  0.00    +0.048 A 
ATOM      9  C   LIG    1       30.019 -18.543   6.407  0.00  0.00    +0.025 A 
ATOM     10  C   LIG    1       28.961 -18.809   5.543  0.00  0.00    +0.005 A 
BRANCH   8  11
ATOM     11  N   LIG    1       31.193 -18.934   8.496  0.00  0.00    -0.221 N 
ATOM     12  H   LIG    1       31.681 -19.750   8.865  0.00  0.00    +0.173 HD
BRANCH  11  13
ATOM     13  S   LIG    1       30.875 -17.861   9.762  0.00  0.00    +0.040 S 
ATOM     14  O   LIG    1       30.641 -18.705  10.921  0.00  0.00    -0.155 OA
ATOM     15  O   LIG    1       29.909 -16.875   9.352  0.00  0.00    -0.155 OA
ATOM     16  C   LIG    1       32.461 -17.082   9.983  0.00  0.00    +0.218 C 
ENDBRANCH  11  13
ENDBRANCH   8  11
ENDBRANCH   4   5
ENDBRANCH   3   4
ENDBRANCH   2   3
BRANCH   2  17
ATOM     17  C   LIG    1       23.056 -20.278   5.593  0.00  0.00    +0.125 C 
BRANCH  17  18
ATOM     18  C   LIG    1       23.337 -20.455   7.090  0.00  0.00    +0.244 C 
BRANCH  18  19
ATOM     19  O   LIG    1       22.886 -21.746   7.511  0.00  0.00    -0.491 OA
BRANCH  19  20
ATOM     20  C   LIG    1       23.746 -22.784   7.300  0.00  0.00    +0.121 A 
ATOM     21  C   LIG    1       23.159 -23.948   6.808  0.00  0.00    +0.047 A 
ATOM     22  C   LIG    1       23.949 -25.048   6.485  0.00  0.00    +0.028 A 
ATOM     23  C   LIG    1       25.329 -24.997   6.685  0.00  0.00    +0.048 A 
ATOM     24  C   LIG    1       25.914 -23.862   7.240  0.00  0.00    +0.028 A 
ATOM     25  C   LIG    1       25.121 -22.759   7.553  0.00  0.00    +0.047 A 
BRANCH  23  26
ATOM     26  N   LIG    1       26.116 -26.158   6.467  0.00  0.00    -0.221 N 
ATOM     27  H   LIG    1       27.075 -26.122   6.826  0.00  0.00    +0.173 HD
BRANCH  26  28
ATOM     28  S   LIG    1       26.099 -26.817   4.908  0.00  0.00    +0.040 S 
ATOM     29  O   LIG    1       27.425 -27.345   4.589  0.00  0.00    -0.155 OA
ATOM     30  O   LIG    1       25.455 -25.828   4.074  0.00  0.00    -0.155 OA
ATOM     31  C   LIG    1       24.983 -28.185   5.115  0.00  0.00    +0.218 C 
ENDBRANCH  26  28
ENDBRANCH  23  26
ENDBRANCH  19  20
ENDBRANCH  18  19
ENDBRANCH  17  18
ENDBRANCH   2  17
TORSDOF 11
ENDMDL
MODEL 2
REMARK VINA RESULT:      -8.8      2.468      9.363
REMARK  Name = *****
REMARK                            x       y       z     vdW  Elec       q    Type
REMARK                         _______ _______ _______ _____ _____    ______ ____
ROOT
ATOM      1  C   LIG    1       23.273 -21.341   6.331  0.00  0.00    +0.105 C 
ATOM      2  N   LIG    1       24.183 -21.554   5.201  0.00  0.00    -0.302 NA
ENDROOT
BRANCH   2   3
ATOM      3  C   LIG    1       24.983 -22.779   5.387  0.00  0.00    +0.089 C 
BRANCH   3   4
ATOM      4  C   LIG    1       24.560 -23.633   6.601  0.00  0.00    +0.050 C 
BRANCH   4   5
ATOM      5  C   LIG    1       24.850 -25.110   6.462  0.00  0.00    -0.046 A 
ATOM      6  C   LIG    1       24.003 -25.902   5.672  0.00  0.00    +0.005 A 
ATOM      7  C   LIG    1       24.217 -27.277   5.562  0.00  0.00    +0.025 A 
ATOM      8  C   LIG    1       25.285 -27.866   6.236  0.00  0.00    +0.048 A 
ATOM      9  C   LIG    1       26.107 -27.101   7.054  0.00  0.00    +0.025 A 
ATOM     10  C   LIG    1       25.885 -25.733   7.172  0.00  0.00    +0.005 A 
BRANCH   8  11
ATOM     11  N   LIG    1       25.506 -29.269   6.140  0.00  0.00    -0.221 N 
ATOM     12  H   LIG    1       25.685 -29.610   5.196  0.00  0.00    +0.173 HD
BRANCH  11  13
ATOM     13  S   LIG    1       24.380 -30.282   6.890  0.00  0.00    +0.040 S 
ATOM     14  O   LIG    1       23.447 -30.650   5.840  0.00  0.00    -0.155 OA
ATOM     15  O   LIG    1       23.921 -29.694   8.122  0.00  0.00    -0.155 OA
ATOM     16  C   LIG    1       25.370 -31.719   7.251  0.00  0.00    +0.218 C 
ENDBRANCH  11  13
ENDBRANCH   8  11
ENDBRANCH   4   5
ENDBRANCH   3   4
ENDBRANCH   2   3
BRANCH   2  17
ATOM     17  C   LIG    1       25.098 -20.401   5.031  0.00  0.00    +0.125 C 
BRANCH  17  18
ATOM     18  C   LIG    1       26.226 -20.375   6.071  0.00  0.00    +0.244 C 
BRANCH  18  19
ATOM     19  O   LIG    1       27.488 -20.271   5.404  0.00  0.00    -0.491 OA
BRANCH  19  20
ATOM     20  C   LIG    1       28.571 -20.031   6.199  0.00  0.00    +0.121 A 
ATOM     21  C   LIG    1       29.269 -18.860   5.908  0.00  0.00    +0.047 A 
ATOM     22  C   LIG    1       30.348 -18.474   6.700  0.00  0.00    +0.028 A 
ATOM     23  C   LIG    1       30.752 -19.278   7.766  0.00  0.00    +0.048 A 
ATOM     24  C   LIG    1       30.102 -20.483   8.020  0.00  0.00    +0.028 A 
ATOM     25  C   LIG    1       29.016 -20.861   7.231  0.00  0.00    +0.047 A 
BRANCH  23  26
ATOM     26  N   LIG    1       31.922 -18.944   8.497  0.00  0.00    -0.221 N 
ATOM     27  H   LIG    1       32.352 -19.708   9.028  0.00  0.00    +0.173 HD
BRANCH  26  28
ATOM     28  S   LIG    1       31.866 -17.538   9.438  0.00  0.00    +0.040 S 
ATOM     29  O   LIG    1       32.278 -16.393   8.626  0.00  0.00    -0.155 OA
ATOM     30  O   LIG    1       32.533 -17.870  10.676  0.00  0.00    -0.155 OA
ATOM     31  C   LIG    1       30.124 -17.400   9.763  0.00  0.00    +0.218 C 
ENDBRANCH  26  28
ENDBRANCH  23  26
ENDBRANCH  19  20
ENDBRANCH  18  19
ENDBRANCH  17  18
ENDBRANCH   2  17
TORSDOF 11
ENDMDL
MODEL 3
REMARK VINA RESULT:      -8.7      1.919      2.583
REMARK  Name = *****
REMARK                            x       y       z     vdW  Elec       q    Type
REMARK                         _______ _______ _______ _____ _____    ______ ____
ROOT
ATOM      1  C   LIG    1       24.521 -20.135   3.333  0.00  0.00    +0.105 C 
ATOM      2  N   LIG    1       24.873 -20.432   4.726  0.00  0.00    -0.302 NA
ENDROOT
BRANCH   2   3
ATOM      3  C   LIG    1       26.256 -20.016   5.025  0.00  0.00    +0.089 C 
BRANCH   3   4
ATOM      4  C   LIG    1       26.946 -20.857   6.120  0.00  0.00    +0.050 C 
BRANCH   4   5
ATOM      5  C   LIG    1       28.241 -20.273   6.637  0.00  0.00    -0.046 A 
ATOM      6  C   LIG    1       28.808 -19.173   5.976  0.00  0.00    +0.005 A 
ATOM      7  C   LIG    1       30.026 -18.641   6.401  0.00  0.00    +0.025 A 
ATOM      8  C   LIG    1       30.681 -19.203   7.495  0.00  0.00    +0.048 A 
ATOM      9  C   LIG    1       30.151 -20.316   8.135  0.00  0.00    +0.025 A 
ATOM     10  C   LIG    1       28.942 -20.853   7.703  0.00  0.00    +0.005 A 
BRANCH   8  11
ATOM     11  N   LIG    1       31.930 -18.675   7.931  0.00  0.00    -0.221 N 
ATOM     12  H   LIG    1       32.644 -19.376   8.128  0.00  0.00    +0.173 HD
BRANCH  11  13
ATOM     13  S   LIG    1       31.895 -17.551   9.193  0.00  0.00    +0.040 S 
ATOM     14  O   LIG    1       32.512 -16.355   8.647  0.00  0.00    -0.155 OA
ATOM     15  O   LIG    1       32.380 -18.151  10.410  0.00  0.00    -0.155 OA
ATOM     16  C   LIG    1       30.150 -17.230   9.345  0.00  0.00    +0.218 C 
ENDBRANCH  11  13
ENDBRANCH   8  11
ENDBRANCH   4   5
ENDBRANCH   3   4
ENDBRANCH   2   3
BRANCH   2  17
ATOM     17  C   LIG    1       24.732 -21.881   5.012  0.00  0.00    +0.125 C 
BRANCH  17  18
ATOM     18  C   LIG    1       23.771 -22.169   6.172  0.00  0.00    +0.244 C 
BRANCH  18  19
ATOM     19  O   LIG    1       24.400 -23.052   7.105  0.00  0.00    -0.491 OA
BRANCH  19  20
ATOM     20  C   LIG    1       24.627 -24.326   6.670  0.00  0.00    +0.121 A 
ATOM     21  C   LIG    1       25.935 -24.780   6.829  0.00  0.00    +0.047 A 
ATOM     22  C   LIG    1       26.267 -26.089   6.490  0.00  0.00    +0.028 A 
ATOM     23  C   LIG    1       25.296 -26.938   5.958  0.00  0.00    +0.048 A 
ATOM     24  C   LIG    1       24.005 -26.471   5.732  0.00  0.00    +0.028 A 
ATOM     25  C   LIG    1       23.674 -25.162   6.083  0.00  0.00    +0.047 A 
BRANCH  23  26
ATOM     26  N   LIG    1       25.664 -28.232   5.503  0.00  0.00    -0.221 N 
ATOM     27  H   LIG    1       25.643 -28.372   4.488  0.00  0.00    +0.173 HD
BRANCH  26  28
ATOM     28  S   LIG    1       24.958 -29.554   6.290  0.00  0.00    +0.040 S 
ATOM     29  O   LIG    1       23.545 -29.640   5.923  0.00  0.00    -0.155 OA
ATOM     30  O   LIG    1       25.379 -29.458   7.670  0.00  0.00    -0.155 OA
ATOM     31  C   LIG    1       25.819 -30.914   5.538  0.00  0.00    +0.218 C 
ENDBRANCH  26  28
ENDBRANCH  23  26
ENDBRANCH  19  20
ENDBRANCH  18  19
ENDBRANCH  17  18
ENDBRANCH   2  17
TORSDOF 11
ENDMDL
MODEL 4
REMARK VINA RESULT:      -8.7      1.314      8.031
REMARK  Name = *****
REMARK                            x       y       z     vdW  Elec       q    Type
REMARK                         _______ _______ _______ _____ _____    ______ ____
ROOT
ATOM      1  C   LIG    1       23.990 -21.450   3.682  0.00  0.00    +0.105 C 
ATOM      2  N   LIG    1       24.415 -20.561   4.769  0.00  0.00    -0.302 NA
ENDROOT
BRANCH   2   3
ATOM      3  C   LIG    1       23.296 -20.266   5.683  0.00  0.00    +0.089 C 
BRANCH   3   4
ATOM      4  C   LIG    1       23.398 -20.967   7.054  0.00  0.00    +0.050 C 
BRANCH   4   5
ATOM      5  C   LIG    1       24.002 -22.352   7.008  0.00  0.00    -0.046 A 
ATOM      6  C   LIG    1       25.370 -22.511   7.277  0.00  0.00    +0.005 A 
ATOM      7  C   LIG    1       25.967 -23.770   7.197  0.00  0.00    +0.025 A 
ATOM      8  C   LIG    1       25.196 -24.879   6.854  0.00  0.00    +0.048 A 
ATOM      9  C   LIG    1       23.849 -24.731   6.546  0.00  0.00    +0.025 A 
ATOM     10  C   LIG    1       23.259 -23.473   6.615  0.00  0.00    +0.005 A 
BRANCH   8  11
ATOM     11  N   LIG    1       25.796 -26.167   6.758  0.00  0.00    -0.221 N 
ATOM     12  H   LIG    1       26.641 -26.288   7.315  0.00  0.00    +0.173 HD
BRANCH  11  13
ATOM     13  S   LIG    1       26.065 -26.780   5.206  0.00  0.00    +0.040 S 
ATOM     14  O   LIG    1       27.474 -27.132   5.180  0.00  0.00    -0.155 OA
ATOM     15  O   LIG    1       25.498 -25.901   4.215  0.00  0.00    -0.155 OA
ATOM     16  C   LIG    1       25.137 -28.300   5.251  0.00  0.00    +0.218 C 
ENDBRANCH  11  13
ENDBRANCH   8  11
ENDBRANCH   4   5
ENDBRANCH   3   4
ENDBRANCH   2   3
BRANCH   2  17
ATOM     17  C   LIG    1       24.950 -19.286   4.234  0.00  0.00    +0.125 C 
BRANCH  17  18
ATOM     18  C   LIG    1       26.473 -19.171   4.379  0.00  0.00    +0.244 C 
BRANCH  18  19
ATOM     19  O   LIG    1       26.945 -20.183   5.272  0.00  0.00    -0.491 OA
BRANCH  19  20
ATOM     20  C   LIG    1       28.113 -19.913   5.925  0.00  0.00    +0.121 A 
ATOM     21  C   LIG    1       28.357 -20.701   7.049  0.00  0.00    +0.047 A 
ATOM     22  C   LIG    1       29.552 -20.566   7.752  0.00  0.00    +0.028 A 
ATOM     23  C   LIG    1       30.493 -19.618   7.350  0.00  0.00    +0.048 A 
ATOM     24  C   LIG    1       30.227 -18.782   6.270  0.00  0.00    +0.028 A 
ATOM     25  C   LIG    1       29.034 -18.927   5.563  0.00  0.00    +0.047 A 
BRANCH  23  26
ATOM     26  N   LIG    1       31.655 -19.401   8.137  0.00  0.00    -0.221 N 
ATOM     27  H   LIG    1       31.987 -20.208   8.674  0.00  0.00    +0.173 HD
BRANCH  26  28
ATOM     28  S   LIG    1       31.685 -18.007   9.096  0.00  0.00    +0.040 S 
ATOM     29  O   LIG    1       32.273 -16.905   8.334  0.00  0.00    -0.155 OA
ATOM     30  O   LIG    1       32.225 -18.422  10.371  0.00  0.00    -0.155 OA
ATOM     31  C   LIG    1       29.949 -17.684   9.305  0.00  0.00    +0.218 C 
ENDBRANCH  26  28
ENDBRANCH  23  26
ENDBRANCH  19  20
ENDBRANCH  18  19
ENDBRANCH  17  18
ENDBRANCH   2  17
TORSDOF 11
ENDMDL
MODEL 5
REMARK VINA RESULT:      -8.5      2.352      3.098
REMARK  Name = *****
REMARK                            x       y       z     vdW  Elec       q    Type
REMARK                         _______ _______ _______ _____ _____    ______ ____
ROOT
ATOM      1  C   LIG    1       22.799 -21.004   4.912  0.00  0.00    +0.105 C 
ATOM      2  N   LIG    1       22.903 -21.384   6.324  0.00  0.00    -0.302 NA
ENDROOT
BRANCH   2   3
ATOM      3  C   LIG    1       24.116 -20.814   6.940  0.00  0.00    +0.089 C 
BRANCH   3   4
ATOM      4  C   LIG    1       25.165 -20.313   5.926  0.00  0.00    +0.050 C 
BRANCH   4   5
ATOM      5  C   LIG    1       26.600 -20.488   6.368  0.00  0.00    -0.046 A 
ATOM      6  C   LIG    1       26.870 -21.179   7.559  0.00  0.00    +0.005 A 
ATOM      7  C   LIG    1       28.181 -21.316   8.017  0.00  0.00    +0.025 A 
ATOM      8  C   LIG    1       29.230 -20.768   7.283  0.00  0.00    +0.048 A 
ATOM      9  C   LIG    1       28.975 -20.046   6.124  0.00  0.00    +0.025 A 
ATOM     10  C   LIG    1       27.667 -19.900   5.674  0.00  0.00    +0.005 A 
BRANCH   8  11
ATOM     11  N   LIG    1       30.571 -20.892   7.747  0.00  0.00    -0.221 N 
ATOM     12  H   LIG    1       30.720 -21.633   8.432  0.00  0.00    +0.173 HD
BRANCH  11  13
ATOM     13  S   LIG    1       31.337 -19.483   8.281  0.00  0.00    +0.040 S 
ATOM     14  O   LIG    1       31.879 -18.872   7.080  0.00  0.00    -0.155 OA
ATOM     15  O   LIG    1       32.177 -19.770   9.415  0.00  0.00    -0.155 OA
ATOM     16  C   LIG    1       29.952 -18.494   8.804  0.00  0.00    +0.218 C 
ENDBRANCH  11  13
ENDBRANCH   8  11
ENDBRANCH   4   5
ENDBRANCH   3   4
ENDBRANCH   2   3
BRANCH   2  17
ATOM     17  C   LIG    1       22.932 -22.859   6.477  0.00  0.00    +0.125 C 
BRANCH  17  18
ATOM     18  C   LIG    1       24.291 -23.383   6.958  0.00  0.00    +0.244 C 
BRANCH  18  19
ATOM     19  O   LIG    1       25.052 -23.838   5.835  0.00  0.00    -0.491 OA
BRANCH  19  20
ATOM     20  C   LIG    1       25.245 -25.186   5.745  0.00  0.00    +0.121 A 
ATOM     21  C   LIG    1       25.559 -25.819   6.946  0.00  0.00    +0.047 A 
ATOM     22  C   LIG    1       25.706 -27.204   6.989  0.00  0.00    +0.028 A 
ATOM     23  C   LIG    1       25.569 -27.955   5.822  0.00  0.00    +0.048 A 
ATOM     24  C   LIG    1       25.323 -27.323   4.607  0.00  0.00    +0.028 A 
ATOM     25  C   LIG    1       25.168 -25.938   4.569  0.00  0.00    +0.047 A 
BRANCH  23  26
ATOM     26  N   LIG    1       25.836 -29.350   5.847  0.00  0.00    -0.221 N 
ATOM     27  H   LIG    1       26.335 -29.724   5.033  0.00  0.00    +0.173 HD
BRANCH  26  28
ATOM     28  S   LIG    1       24.551 -30.370   6.265  0.00  0.00    +0.040 S 
ATOM     29  O   LIG    1       24.842 -31.729   5.809  0.00  0.00    -0.155 OA
ATOM     30  O   LIG    1       23.351 -29.674   5.860  0.00  0.00    -0.155 OA
ATOM     31  C   LIG    1       24.640 -30.340   8.040  0.00  0.00    +0.218 C 
ENDBRANCH  26  28
ENDBRANCH  23  26
ENDBRANCH  19  20
ENDBRANCH  18  19
ENDBRANCH  17  18
ENDBRANCH   2  17
TORSDOF 11
ENDMDL
MODEL 6
REMARK VINA RESULT:      -8.4      2.804      3.988
REMARK  Name = *****
REMARK                            x       y       z     vdW  Elec       q    Type
REMARK                         _______ _______ _______ _____ _____    ______ ____
ROOT
ATOM      1  C   LIG    1       22.905 -23.279   6.910  0.00  0.00    +0.105 C 
ATOM      2  N   LIG    1       24.364 -23.386   6.811  0.00  0.00    -0.302 NA
ENDROOT
BRANCH   2   3
ATOM      3  C   LIG    1       25.024 -22.205   7.398  0.00  0.00    +0.089 C 
BRANCH   3   4
ATOM      4  C   LIG    1       25.559 -21.198   6.359  0.00  0.00    +0.050 C 
BRANCH   4   5
ATOM      5  C   LIG    1       26.996 -20.778   6.573  0.00  0.00    -0.046 A 
ATOM      6  C   LIG    1       27.534 -19.752   5.781  0.00  0.00    +0.005 A 
ATOM      7  C   LIG    1       28.870 -19.374   5.923  0.00  0.00    +0.025 A 
ATOM      8  C   LIG    1       29.674 -20.016   6.863  0.00  0.00    +0.048 A 
ATOM      9  C   LIG    1       29.166 -21.060   7.626  0.00  0.00    +0.025 A 
ATOM     10  C   LIG    1       27.837 -21.444   7.475  0.00  0.00    +0.005 A 
BRANCH   8  11
ATOM     11  N   LIG    1       31.041 -19.647   7.008  0.00  0.00    -0.221 N 
ATOM     12  H   LIG    1       31.710 -20.383   6.784  0.00  0.00    +0.173 HD
BRANCH  11  13
ATOM     13  S   LIG    1       31.493 -18.915   8.463  0.00  0.00    +0.040 S 
ATOM     14  O   LIG    1       32.282 -17.760   8.073  0.00  0.00    -0.155 OA
ATOM     15  O   LIG    1       32.013 -19.898   9.378  0.00  0.00    -0.155 OA
ATOM     16  C   LIG    1       29.929 -18.312   9.066  0.00  0.00    +0.218 C 
ENDBRANCH  11  13
ENDBRANCH   8  11
ENDBRANCH   4   5
ENDBRANCH   3   4
ENDBRANCH   2   3
BRANCH   2  17
ATOM     17  C   LIG    1       24.792 -23.526   5.399  0.00  0.00    +0.125 C 
BRANCH  17  18
ATOM     18  C   LIG    1       25.147 -24.970   5.023  0.00  0.00    +0.244 C 
BRANCH  18  19
ATOM     19  O   LIG    1       25.882 -25.575   6.092  0.00  0.00    -0.491 OA
BRANCH  19  20
ATOM     20  C   LIG    1       25.487 -26.828   6.462  0.00  0.00    +0.121 A 
ATOM     21  C   LIG    1       24.529 -27.413   5.636  0.00  0.00    +0.047 A 
ATOM     22  C   LIG    1       24.104 -28.719   5.872  0.00  0.00    +0.028 A 
ATOM     23  C   LIG    1       24.615 -29.430   6.958  0.00  0.00    +0.048 A 
ATOM     24  C   LIG    1       25.521 -28.828   7.827  0.00  0.00    +0.028 A 
ATOM     25  C   LIG    1       25.951 -27.525   7.580  0.00  0.00    +0.047 A 
BRANCH  23  26
ATOM     26  N   LIG    1       24.094 -30.715   7.265  0.00  0.00    -0.221 N 
ATOM     27  H   LIG    1       23.835 -30.870   8.245  0.00  0.00    +0.173 HD
BRANCH  26  28
ATOM     28  S   LIG    1       24.942 -32.052   6.667  0.00  0.00    +0.040 S 
ATOM     29  O   LIG    1       25.470 -32.834   7.784  0.00  0.00    -0.155 OA
ATOM     30  O   LIG    1       25.804 -31.534   5.628  0.00  0.00    -0.155 OA
ATOM     31  C   LIG    1       23.637 -32.981   5.896  0.00  0.00    +0.218 C 
ENDBRANCH  26  28
ENDBRANCH  23  26
ENDBRANCH  19  20
ENDBRANCH  18  19
ENDBRANCH  17  18
ENDBRANCH   2  17
TORSDOF 11
ENDMDL
MODEL 7
REMARK VINA RESULT:      -8.3      2.810      3.959
REMARK  Name = *****
REMARK                            x       y       z     vdW  Elec       q    Type
REMARK                         _______ _______ _______ _____ _____    ______ ____
ROOT
ATOM      1  C   LIG    1       22.876 -23.572   6.855  0.00  0.00    +0.105 C 
ATOM      2  N   LIG    1       24.332 -23.416   6.777  0.00  0.00    -0.302 NA
ENDROOT
BRANCH   2   3
ATOM      3  C   LIG    1       24.758 -22.115   7.326  0.00  0.00    +0.089 C 
BRANCH   3   4
ATOM      4  C   LIG    1       25.362 -21.154   6.280  0.00  0.00    +0.050 C 
BRANCH   4   5
ATOM      5  C   LIG    1       26.821 -20.824   6.499  0.00  0.00    -0.046 A 
ATOM      6  C   LIG    1       27.540 -21.522   7.481  0.00  0.00    +0.005 A 
ATOM      7  C   LIG    1       28.875 -21.208   7.739  0.00  0.00    +0.025 A 
ATOM      8  C   LIG    1       29.500 -20.198   7.011  0.00  0.00    +0.048 A 
ATOM      9  C   LIG    1       28.790 -19.472   6.063  0.00  0.00    +0.025 A 
ATOM     10  C   LIG    1       27.455 -19.778   5.816  0.00  0.00    +0.005 A 
BRANCH   8  11
ATOM     11  N   LIG    1       30.859 -19.862   7.272  0.00  0.00    -0.221 N 
ATOM     12  H   LIG    1       31.534 -20.586   7.028  0.00  0.00    +0.173 HD
BRANCH  11  13
ATOM     13  S   LIG    1       31.224 -19.263   8.810  0.00  0.00    +0.040 S 
ATOM     14  O   LIG    1       32.162 -20.218   9.373  0.00  0.00    -0.155 OA
ATOM     15  O   LIG    1       30.015 -18.907   9.508  0.00  0.00    -0.155 OA
ATOM     16  C   LIG    1       32.138 -17.786   8.416  0.00  0.00    +0.218 C 
ENDBRANCH  11  13
ENDBRANCH   8  11
ENDBRANCH   4   5
ENDBRANCH   3   4
ENDBRANCH   2   3
BRANCH   2  17
ATOM     17  C   LIG    1       24.804 -23.526   5.376  0.00  0.00    +0.125 C 
BRANCH  17  18
ATOM     18  C   LIG    1       24.998 -24.979   4.924  0.00  0.00    +0.244 C 
BRANCH  18  19
ATOM     19  O   LIG    1       25.793 -25.676   5.887  0.00  0.00    -0.491 OA
BRANCH  19  20
ATOM     20  C   LIG    1       25.383 -26.937   6.209  0.00  0.00    +0.121 A 
ATOM     21  C   LIG    1       25.879 -27.431   7.414  0.00  0.00    +0.047 A 
ATOM     22  C   LIG    1       25.470 -28.678   7.882  0.00  0.00    +0.028 A 
ATOM     23  C   LIG    1       24.586 -29.448   7.126  0.00  0.00    +0.048 A 
ATOM     24  C   LIG    1       24.140 -28.992   5.889  0.00  0.00    +0.028 A 
ATOM     25  C   LIG    1       24.544 -27.739   5.430  0.00  0.00    +0.047 A 
BRANCH  23  26
ATOM     26  N   LIG    1       24.264 -30.766   7.546  0.00  0.00    -0.221 N 
ATOM     27  H   LIG    1       23.770 -30.841   8.441  0.00  0.00    +0.173 HD
BRANCH  26  28
ATOM     28  S   LIG    1       25.496 -31.923   7.460  0.00  0.00    +0.040 S 
ATOM     29  O   LIG    1       26.228 -31.950   8.725  0.00  0.00    -0.155 OA
ATOM     30  O   LIG    1       26.165 -31.688   6.201  0.00  0.00    -0.155 OA
ATOM     31  C   LIG    1       24.558 -33.427   7.319  0.00  0.00    +0.218 C 
ENDBRANCH  26  28
ENDBRANCH  23  26
ENDBRANCH  19  20
ENDBRANCH  18  19
ENDBRANCH  17  18
ENDBRANCH   2  17
TORSDOF 11
ENDMDL
MODEL 8
REMARK VINA RESULT:      -8.2      3.202      4.572
REMARK  Name = *****
REMARK                            x       y       z     vdW  Elec       q    Type
REMARK                         _______ _______ _______ _____ _____    ______ ____
ROOT
ATOM      1  C   LIG    1       22.943 -24.021   6.737  0.00  0.00    +0.105 C 
ATOM      2  N   LIG    1       24.035 -23.120   6.352  0.00  0.00    -0.302 NA
ENDROOT
BRANCH   2   3
ATOM      3  C   LIG    1       23.521 -21.786   5.991  0.00  0.00    +0.089 C 
BRANCH   3   4
ATOM      4  C   LIG    1       24.096 -20.635   6.844  0.00  0.00    +0.050 C 
BRANCH   4   5
ATOM      5  C   LIG    1       25.606 -20.602   6.918  0.00  0.00    -0.046 A 
ATOM      6  C   LIG    1       26.341 -20.296   5.763  0.00  0.00    +0.005 A 
ATOM      7  C   LIG    1       27.736 -20.303   5.788  0.00  0.00    +0.025 A 
ATOM      8  C   LIG    1       28.404 -20.610   6.971  0.00  0.00    +0.048 A 
ATOM      9  C   LIG    1       27.690 -20.954   8.112  0.00  0.00    +0.025 A 
ATOM     10  C   LIG    1       26.299 -20.958   8.082  0.00  0.00    +0.005 A 
BRANCH   8  11
ATOM     11  N   LIG    1       29.827 -20.631   7.006  0.00  0.00    -0.221 N 
ATOM     12  H   LIG    1       30.229 -21.264   7.698  0.00  0.00    +0.173 HD
BRANCH  11  13
ATOM     13  S   LIG    1       30.620 -19.141   7.094  0.00  0.00    +0.040 S 
ATOM     14  O   LIG    1       30.049 -18.348   6.020  0.00  0.00    -0.155 OA
ATOM     15  O   LIG    1       32.044 -19.338   7.199  0.00  0.00    -0.155 OA
ATOM     16  C   LIG    1       29.996 -18.489   8.629  0.00  0.00    +0.218 C 
ENDBRANCH  11  13
ENDBRANCH   8  11
ENDBRANCH   4   5
ENDBRANCH   3   4
ENDBRANCH   2   3
BRANCH   2  17
ATOM     17  C   LIG    1       24.798 -23.670   5.206  0.00  0.00    +0.125 C 
BRANCH  17  18
ATOM     18  C   LIG    1       25.551 -24.960   5.554  0.00  0.00    +0.244 C 
BRANCH  18  19
ATOM     19  O   LIG    1       24.927 -26.068   4.898  0.00  0.00    -0.491 OA
BRANCH  19  20
ATOM     20  C   LIG    1       24.965 -27.260   5.562  0.00  0.00    +0.121 A 
ATOM     21  C   LIG    1       25.506 -27.205   6.845  0.00  0.00    +0.047 A 
ATOM     22  C   LIG    1       25.529 -28.346   7.644  0.00  0.00    +0.028 A 
ATOM     23  C   LIG    1       25.038 -29.554   7.147  0.00  0.00    +0.048 A 
ATOM     24  C   LIG    1       24.559 -29.632   5.843  0.00  0.00    +0.028 A 
ATOM     25  C   LIG    1       24.529 -28.485   5.050  0.00  0.00    +0.047 A 
BRANCH  23  26
ATOM     26  N   LIG    1       25.170 -30.738   7.919  0.00  0.00    -0.221 N 
ATOM     27  H   LIG    1       25.095 -31.620   7.402  0.00  0.00    +0.173 HD
BRANCH  26  28
ATOM     28  S   LIG    1       24.277 -30.824   9.355  0.00  0.00    +0.040 S 
ATOM     29  O   LIG    1       22.934 -30.293   9.124  0.00  0.00    -0.155 OA
ATOM     30  O   LIG    1       25.139 -30.289  10.384  0.00  0.00    -0.155 OA
ATOM     31  C   LIG    1       24.155 -32.582   9.590  0.00  0.00    +0.218 C 
ENDBRANCH  26  28
ENDBRANCH  23  26
ENDBRANCH  19  20
ENDBRANCH  18  19
ENDBRANCH  17  18
ENDBRANCH   2  17
TORSDOF 11
ENDMDL
MODEL 9
REMARK VINA RESULT:      -8.1      2.646      9.587
REMARK  Name = *****
REMARK                            x       y       z     vdW  Elec       q    Type
REMARK                         _______ _______ _______ _____ _____    ______ ____
ROOT
ATOM      1  C   LIG    1       24.277 -22.126   7.573  0.00  0.00    +0.105 C 
ATOM      2  N   LIG    1       24.480 -22.615   6.205  0.00  0.00    -0.302 NA
ENDROOT
BRANCH   2   3
ATOM      3  C   LIG    1       25.458 -23.718   6.174  0.00  0.00    +0.089 C 
BRANCH   3   4
ATOM      4  C   LIG    1       25.120 -24.834   5.164  0.00  0.00    +0.050 C 
BRANCH   4   5
ATOM      5  C   LIG    1       25.287 -26.238   5.700  0.00  0.00    -0.046 A 
ATOM      6  C   LIG    1       24.899 -27.326   4.902  0.00  0.00    +0.005 A 
ATOM      7  C   LIG    1       24.997 -28.631   5.387  0.00  0.00    +0.025 A 
ATOM      8  C   LIG    1       25.490 -28.856   6.670  0.00  0.00    +0.048 A 
ATOM      9  C   LIG    1       25.840 -27.787   7.486  0.00  0.00    +0.025 A 
ATOM     10  C   LIG    1       25.731 -26.486   7.006  0.00  0.00    +0.005 A 
BRANCH   8  11
ATOM     11  N   LIG    1       25.584 -30.182   7.180  0.00  0.00    -0.221 N 
ATOM     12  H   LIG    1       26.160 -30.814   6.623  0.00  0.00    +0.173 HD
BRANCH  11  13
ATOM     13  S   LIG    1       24.138 -30.960   7.581  0.00  0.00    +0.040 S 
ATOM     14  O   LIG    1       23.544 -31.329   6.308  0.00  0.00    -0.155 OA
ATOM     15  O   LIG    1       23.405 -30.185   8.548  0.00  0.00    -0.155 OA
ATOM     16  C   LIG    1       24.731 -32.455   8.345  0.00  0.00    +0.218 C 
ENDBRANCH  11  13
ENDBRANCH   8  11
ENDBRANCH   4   5
ENDBRANCH   3   4
ENDBRANCH   2   3
BRANCH   2  17
ATOM     17  C   LIG    1       24.952 -21.526   5.317  0.00  0.00    +0.125 C 
BRANCH  17  18
ATOM     18  C   LIG    1       25.797 -20.479   6.053  0.00  0.00    +0.244 C 
BRANCH  18  19
ATOM     19  O   LIG    1       26.973 -20.191   5.290  0.00  0.00    -0.491 OA
BRANCH  19  20
ATOM     20  C   LIG    1       28.064 -19.777   5.998  0.00  0.00    +0.121 A 
ATOM     21  C   LIG    1       28.222 -20.378   7.245  0.00  0.00    +0.047 A 
ATOM     22  C   LIG    1       29.340 -20.088   8.025  0.00  0.00    +0.028 A 
ATOM     23  C   LIG    1       30.286 -19.170   7.570  0.00  0.00    +0.048 A 
ATOM     24  C   LIG    1       30.100 -18.515   6.357  0.00  0.00    +0.028 A 
ATOM     25  C   LIG    1       28.985 -18.815   5.575  0.00  0.00    +0.047 A 
BRANCH  23  26
ATOM     26  N   LIG    1       31.360 -18.788   8.417  0.00  0.00    -0.221 N 
ATOM     27  H   LIG    1       32.005 -19.538   8.686  0.00  0.00    +0.173 HD
BRANCH  26  28
ATOM     28  S   LIG    1       30.977 -17.836   9.764  0.00  0.00    +0.040 S 
ATOM     29  O   LIG    1       30.750 -18.700  10.922  0.00  0.00    -0.155 OA
ATOM     30  O   LIG    1       29.975 -16.900   9.307  0.00  0.00    -0.155 OA
ATOM     31  C   LIG    1       32.496 -16.948  10.012  0.00  0.00    +0.218 C 
ENDBRANCH  26  28
ENDBRANCH  23  26
ENDBRANCH  19  20
ENDBRANCH  18  19
ENDBRANCH  17  18
ENDBRANCH   2  17
TORSDOF 11
ENDMDL
