MODEL 1
REMARK VINA RESULT:      -8.8      0.000      0.000
REMARK  Name = *****
REMARK                            x       y       z     vdW  Elec       q    Type
REMARK                         _______ _______ _______ _____ _____    ______ ____
ROOT
ATOM      1  N   LIG    1       26.458 -21.186   8.393  0.00  0.00    -0.302 NA
ATOM      2  H   LIG    1       25.966 -20.836   9.221  0.00  0.00    +0.123 HD
ENDROOT
BRANCH   1   3
ATOM      3  C   LIG    1       25.467 -21.722   7.431  0.00  0.00    +0.023 C 
ATOM      4  C   LIG    1       24.033 -21.539   8.018  0.00  0.00    +0.026 C 
ATOM      5  C   LIG    1       22.966 -22.104   7.054  0.00  0.00    -0.006 C 
ATOM      6  C   LIG    1       23.062 -21.367   5.710  0.00  0.00    +0.038 C 
ATOM      7  C   LIG    1       24.457 -21.570   5.105  0.00  0.00    +0.068 C 
ATOM      8  C   LIG    1       24.721 -23.073   4.901  0.00  0.00    +0.038 C 
ATOM      9  C   LIG    1       24.624 -23.812   6.244  0.00  0.00    -0.006 C 
ATOM     10  C   LIG    1       23.223 -23.604   6.834  0.00  0.00    +0.007 C 
ATOM     11  C   LIG    1       25.513 -20.996   6.063  0.00  0.00    +0.057 C 
ATOM     12  C   LIG    1       25.678 -23.243   7.208  0.00  0.00    +0.026 C 
BRANCH   7  13
ATOM     13  O   LIG    1       24.553 -20.891   3.862  0.00  0.00    -0.389 OA
ATOM     14  H   LIG    1       23.888 -20.181   3.850  0.00  0.00    +0.210 HD
ENDBRANCH   7  13
ENDBRANCH   1   3
BRANCH   1  15
ATOM     15  C   LIG    1       27.270 -20.072   7.855  0.00  0.00    +0.178 C 
BRANCH  15  18
ATOM     16  C   LIG    1       31.134 -19.923   7.899  0.00  0.00    +0.179 C 
ATOM     17  N   LIG    1       29.710 -19.616   8.068  0.00  0.00    -0.285 N 
ATOM     18  C   LIG    1       28.731 -20.492   7.657  0.00  0.00    +0.230 C 
ATOM     19  O   LIG    1       29.013 -21.584   7.163  0.00  0.00    -0.274 OA
ATOM     20  C   LIG    1       29.507 -18.303   8.652  0.00  0.00    +0.109 C 
ATOM     21  C   LIG    1       30.854 -17.969   9.267  0.00  0.00    +0.022 C 
ATOM     22  C   LIG    1       31.832 -18.608   8.286  0.00  0.00    +0.039 C 
BRANCH  16  24
ATOM     23  N   LIG    1       31.926 -21.873   9.501  0.00  0.00    -0.195 NA
ATOM     24  C   LIG    1       31.589 -21.025   8.771  0.00  0.00    +0.085 C 
ENDBRANCH  16  24
ENDBRANCH  15  18
ENDBRANCH   1  15
TORSDOF 5
ENDMDL
MODEL 2
REMARK VINA RESULT:      -8.7      1.075      1.987
REMARK  Name = *****
REMARK                            x       y       z     vdW  Elec       q    Type
REMARK                         _______ _______ _______ _____ _____    ______ ____
ROOT
ATOM      1  N   LIG    1       26.442 -21.109   8.407  0.00  0.00    -0.302 NA
ATOM      2  H   LIG    1       25.959 -20.716   9.221  0.00  0.00    +0.123 HD
ENDROOT
BRANCH   1   3
ATOM      3  C   LIG    1       25.438 -21.682   7.479  0.00  0.00    +0.023 C 
ATOM      4  C   LIG    1       25.679 -21.111   6.047  0.00  0.00    +0.026 C 
ATOM      5  C   LIG    1       24.641 -21.667   5.048  0.00  0.00    -0.006 C 
ATOM      6  C   LIG    1       24.751 -23.199   5.009  0.00  0.00    +0.038 C 
ATOM      7  C   LIG    1       24.478 -23.774   6.405  0.00  0.00    +0.068 C 
ATOM      8  C   LIG    1       23.072 -23.360   6.873  0.00  0.00    +0.038 C 
ATOM      9  C   LIG    1       22.960 -21.829   6.912  0.00  0.00    -0.006 C 
ATOM     10  C   LIG    1       23.229 -21.267   5.509  0.00  0.00    +0.007 C 
ATOM     11  C   LIG    1       25.522 -23.227   7.392  0.00  0.00    +0.057 C 
ATOM     12  C   LIG    1       24.001 -21.273   7.896  0.00  0.00    +0.026 C 
BRANCH   7  13
ATOM     13  O   LIG    1       24.579 -25.191   6.377  0.00  0.00    -0.389 OA
ATOM     14  H   LIG    1       24.819 -25.498   7.267  0.00  0.00    +0.210 HD
ENDBRANCH   7  13
ENDBRANCH   1   3
BRANCH   1  15
ATOM     15  C   LIG    1       27.258 -20.030   7.809  0.00  0.00    +0.178 C 
BRANCH  15  18
ATOM     16  C   LIG    1       31.124 -19.939   7.916  0.00  0.00    +0.179 C 
ATOM     17  N   LIG    1       29.701 -19.613   8.067  0.00  0.00    -0.285 N 
ATOM     18  C   LIG    1       28.716 -20.469   7.629  0.00  0.00    +0.230 C 
ATOM     19  O   LIG    1       28.990 -21.560   7.126  0.00  0.00    -0.274 OA
ATOM     20  C   LIG    1       29.509 -18.304   8.664  0.00  0.00    +0.109 C 
ATOM     21  C   LIG    1       30.850 -17.998   9.304  0.00  0.00    +0.022 C 
ATOM     22  C   LIG    1       31.834 -18.640   8.330  0.00  0.00    +0.039 C 
BRANCH  16  24
ATOM     23  N   LIG    1       31.868 -21.916   9.508  0.00  0.00    -0.195 NA
ATOM     24  C   LIG    1       31.548 -21.058   8.782  0.00  0.00    +0.085 C 
ENDBRANCH  16  24
ENDBRANCH  15  18
ENDBRANCH   1  15
TORSDOF 5
ENDMDL
MODEL 3
REMARK VINA RESULT:      -8.1      1.292      1.577
REMARK  Name = *****
REMARK                            x       y       z     vdW  Elec       q    Type
REMARK                         _______ _______ _______ _____ _____    ______ ____
ROOT
ATOM      1  N   LIG    1       27.006 -21.361   8.248  0.00  0.00    -0.302 NA
ATOM      2  H   LIG    1       27.228 -20.364   8.325  0.00  0.00    +0.123 HD
ENDROOT
BRANCH   1   3
ATOM      3  C   LIG    1       25.832 -21.529   7.359  0.00  0.00    +0.023 C 
ATOM      4  C   LIG    1       24.562 -20.977   8.079  0.00  0.00    +0.026 C 
ATOM      5  C   LIG    1       23.307 -21.149   7.195  0.00  0.00    -0.006 C 
ATOM      6  C   LIG    1       23.513 -20.389   5.876  0.00  0.00    +0.038 C 
ATOM      7  C   LIG    1       24.739 -20.948   5.141  0.00  0.00    +0.068 C 
ATOM      8  C   LIG    1       24.536 -22.447   4.857  0.00  0.00    +0.038 C 
ATOM      9  C   LIG    1       24.329 -23.209   6.175  0.00  0.00    -0.006 C 
ATOM     10  C   LIG    1       23.098 -22.643   6.896  0.00  0.00    +0.007 C 
ATOM     11  C   LIG    1       25.985 -20.763   6.021  0.00  0.00    +0.057 C 
ATOM     12  C   LIG    1       25.571 -23.029   7.061  0.00  0.00    +0.026 C 
BRANCH   7  13
ATOM     13  O   LIG    1       24.936 -20.249   3.920  0.00  0.00    -0.389 OA
ATOM     14  H   LIG    1       24.159 -20.398   3.354  0.00  0.00    +0.210 HD
ENDBRANCH   7  13
ENDBRANCH   1   3
BRANCH   1  15
ATOM     15  C   LIG    1       28.222 -22.053   7.766  0.00  0.00    +0.178 C 
BRANCH  15  18
ATOM     16  C   LIG    1       31.234 -19.671   8.232  0.00  0.00    +0.179 C 
ATOM     17  N   LIG    1       30.012 -20.320   7.744  0.00  0.00    -0.285 N 
ATOM     18  C   LIG    1       29.490 -21.431   8.364  0.00  0.00    +0.230 C 
ATOM     19  O   LIG    1       30.007 -21.904   9.377  0.00  0.00    -0.274 OA
ATOM     20  C   LIG    1       29.502 -19.677   6.546  0.00  0.00    +0.109 C 
ATOM     21  C   LIG    1       30.183 -18.321   6.546  0.00  0.00    +0.022 C 
ATOM     22  C   LIG    1       31.554 -18.640   7.136  0.00  0.00    +0.039 C 
BRANCH  16  24
ATOM     23  N   LIG    1       30.843 -18.484  10.563  0.00  0.00    -0.195 NA
ATOM     24  C   LIG    1       31.043 -18.999   9.533  0.00  0.00    +0.085 C 
ENDBRANCH  16  24
ENDBRANCH  15  18
ENDBRANCH   1  15
TORSDOF 5
ENDMDL
MODEL 4
REMARK VINA RESULT:      -7.4      4.652      7.408
REMARK  Name = *****
REMARK                            x       y       z     vdW  Elec       q    Type
REMARK                         _______ _______ _______ _____ _____    ______ ____
ROOT
ATOM      1  N   LIG    1       24.209 -25.617   6.043  0.00  0.00    -0.302 NA
ATOM      2  H   LIG    1       23.392 -25.962   6.557  0.00  0.00    +0.123 HD
ENDROOT
BRANCH   1   3
ATOM      3  C   LIG    1       24.328 -24.155   6.248  0.00  0.00    +0.023 C 
ATOM      4  C   LIG    1       25.507 -23.870   7.229  0.00  0.00    +0.026 C 
ATOM      5  C   LIG    1       25.657 -22.354   7.488  0.00  0.00    -0.006 C 
ATOM      6  C   LIG    1       25.922 -21.640   6.155  0.00  0.00    +0.038 C 
ATOM      7  C   LIG    1       24.750 -21.882   5.194  0.00  0.00    +0.068 C 
ATOM      8  C   LIG    1       23.447 -21.358   5.821  0.00  0.00    +0.038 C 
ATOM      9  C   LIG    1       23.180 -22.070   7.155  0.00  0.00    -0.006 C 
ATOM     10  C   LIG    1       24.356 -21.815   8.107  0.00  0.00    +0.007 C 
ATOM     11  C   LIG    1       24.615 -23.391   4.931  0.00  0.00    +0.057 C 
ATOM     12  C   LIG    1       23.043 -23.580   6.901  0.00  0.00    +0.026 C 
BRANCH   7  13
ATOM     13  O   LIG    1       24.990 -21.225   3.958  0.00  0.00    -0.389 OA
ATOM     14  H   LIG    1       25.523 -20.431   4.133  0.00  0.00    +0.210 HD
ENDBRANCH   7  13
ENDBRANCH   1   3
BRANCH   1  15
ATOM     15  C   LIG    1       25.385 -26.383   6.511  0.00  0.00    +0.178 C 
BRANCH  15  18
ATOM     16  C   LIG    1       25.392 -29.919   8.078  0.00  0.00    +0.179 C 
ATOM     17  N   LIG    1       25.650 -28.504   7.792  0.00  0.00    -0.285 N 
ATOM     18  C   LIG    1       25.033 -27.857   6.745  0.00  0.00    +0.230 C 
ATOM     19  O   LIG    1       24.211 -28.432   6.030  0.00  0.00    -0.274 OA
ATOM     20  C   LIG    1       26.638 -27.942   8.696  0.00  0.00    +0.109 C 
ATOM     21  C   LIG    1       26.666 -28.922   9.854  0.00  0.00    +0.022 C 
ATOM     22  C   LIG    1       26.431 -30.261   9.160  0.00  0.00    +0.039 C 
BRANCH  16  24
ATOM     23  N   LIG    1       22.961 -30.347   9.029  0.00  0.00    -0.195 NA
ATOM     24  C   LIG    1       24.024 -30.160   8.583  0.00  0.00    +0.085 C 
ENDBRANCH  16  24
ENDBRANCH  15  18
ENDBRANCH   1  15
TORSDOF 5
ENDMDL
MODEL 5
REMARK VINA RESULT:      -7.3      4.732      7.506
REMARK  Name = *****
REMARK                            x       y       z     vdW  Elec       q    Type
REMARK                         _______ _______ _______ _____ _____    ______ ____
ROOT
ATOM      1  N   LIG    1       24.267 -25.656   6.086  0.00  0.00    -0.302 NA
ATOM      2  H   LIG    1       23.417 -25.979   6.558  0.00  0.00    +0.123 HD
ENDROOT
BRANCH   1   3
ATOM      3  C   LIG    1       24.385 -24.188   6.251  0.00  0.00    +0.023 C 
ATOM      4  C   LIG    1       23.046 -23.628   6.823  0.00  0.00    +0.026 C 
ATOM      5  C   LIG    1       23.117 -22.094   6.993  0.00  0.00    -0.006 C 
ATOM      6  C   LIG    1       24.264 -21.748   7.954  0.00  0.00    +0.038 C 
ATOM      7  C   LIG    1       25.592 -22.262   7.384  0.00  0.00    +0.068 C 
ATOM      8  C   LIG    1       25.849 -21.623   6.008  0.00  0.00    +0.038 C 
ATOM      9  C   LIG    1       24.703 -21.968   5.045  0.00  0.00    -0.006 C 
ATOM     10  C   LIG    1       23.382 -21.443   5.625  0.00  0.00    +0.007 C 
ATOM     11  C   LIG    1       25.520 -23.789   7.228  0.00  0.00    +0.057 C 
ATOM     12  C   LIG    1       24.623 -23.494   4.884  0.00  0.00    +0.026 C 
BRANCH   7  13
ATOM     13  O   LIG    1       26.658 -21.945   8.269  0.00  0.00    -0.389 OA
ATOM     14  H   LIG    1       26.384 -22.179   9.172  0.00  0.00    +0.210 HD
ENDBRANCH   7  13
ENDBRANCH   1   3
BRANCH   1  15
ATOM     15  C   LIG    1       25.405 -26.413   6.652  0.00  0.00    +0.178 C 
BRANCH  15  18
ATOM     16  C   LIG    1       25.391 -29.986   8.133  0.00  0.00    +0.179 C 
ATOM     17  N   LIG    1       25.654 -28.565   7.884  0.00  0.00    -0.285 N 
ATOM     18  C   LIG    1       25.048 -27.892   6.847  0.00  0.00    +0.230 C 
ATOM     19  O   LIG    1       24.233 -28.447   6.110  0.00  0.00    -0.274 OA
ATOM     20  C   LIG    1       26.634 -28.027   8.811  0.00  0.00    +0.109 C 
ATOM     21  C   LIG    1       26.649 -29.035   9.945  0.00  0.00    +0.022 C 
ATOM     22  C   LIG    1       26.419 -30.356   9.216  0.00  0.00    +0.039 C 
BRANCH  16  24
ATOM     23  N   LIG    1       22.951 -30.439   9.049  0.00  0.00    -0.195 NA
ATOM     24  C   LIG    1       24.018 -30.237   8.618  0.00  0.00    +0.085 C 
ENDBRANCH  16  24
ENDBRANCH  15  18
ENDBRANCH   1  15
TORSDOF 5
ENDMDL
MODEL 6
REMARK VINA RESULT:      -7.3      1.086      1.973
REMARK  Name = *****
REMARK                            x       y       z     vdW  Elec       q    Type
REMARK                         _______ _______ _______ _____ _____    ______ ____
ROOT
ATOM      1  N   LIG    1       26.459 -21.175   8.258  0.00  0.00    -0.302 NA
ATOM      2  H   LIG    1       25.930 -20.744   9.023  0.00  0.00    +0.123 HD
ENDROOT
BRANCH   1   3
ATOM      3  C   LIG    1       25.517 -21.854   7.338  0.00  0.00    +0.023 C 
ATOM      4  C   LIG    1       26.006 -23.314   7.089  0.00  0.00    +0.026 C 
ATOM      5  C   LIG    1       25.061 -24.055   6.118  0.00  0.00    -0.006 C 
ATOM      6  C   LIG    1       23.648 -24.089   6.718  0.00  0.00    +0.038 C 
ATOM      7  C   LIG    1       23.141 -22.656   6.933  0.00  0.00    +0.068 C 
ATOM      8  C   LIG    1       23.124 -21.904   5.591  0.00  0.00    +0.038 C 
ATOM      9  C   LIG    1       24.536 -21.870   4.988  0.00  0.00    -0.006 C 
ATOM     10  C   LIG    1       25.028 -23.308   4.774  0.00  0.00    +0.007 C 
ATOM     11  C   LIG    1       24.078 -21.929   7.910  0.00  0.00    +0.057 C 
ATOM     12  C   LIG    1       25.480 -21.144   5.959  0.00  0.00    +0.026 C 
BRANCH   7  13
ATOM     13  O   LIG    1       21.834 -22.680   7.489  0.00  0.00    -0.389 OA
ATOM     14  H   LIG    1       21.856 -23.222   8.296  0.00  0.00    +0.210 HD
ENDBRANCH   7  13
ENDBRANCH   1   3
BRANCH   1  15
ATOM     15  C   LIG    1       27.258 -20.109   7.615  0.00  0.00    +0.178 C 
BRANCH  15  18
ATOM     16  C   LIG    1       31.109 -19.930   7.929  0.00  0.00    +0.179 C 
ATOM     17  N   LIG    1       29.673 -19.642   8.011  0.00  0.00    -0.285 N 
ATOM     18  C   LIG    1       28.734 -20.510   7.502  0.00  0.00    +0.230 C 
ATOM     19  O   LIG    1       29.060 -21.582   6.990  0.00  0.00    -0.274 OA
ATOM     20  C   LIG    1       29.417 -18.352   8.626  0.00  0.00    +0.109 C 
ATOM     21  C   LIG    1       30.715 -18.030   9.344  0.00  0.00    +0.022 C 
ATOM     22  C   LIG    1       31.765 -18.625   8.410  0.00  0.00    +0.039 C 
BRANCH  16  24
ATOM     23  N   LIG    1       31.847 -21.919   9.509  0.00  0.00    -0.195 NA
ATOM     24  C   LIG    1       31.515 -21.060   8.791  0.00  0.00    +0.085 C 
ENDBRANCH  16  24
ENDBRANCH  15  18
ENDBRANCH   1  15
TORSDOF 5
ENDMDL
MODEL 7
REMARK VINA RESULT:      -7.1      4.474      5.950
REMARK  Name = *****
REMARK                            x       y       z     vdW  Elec       q    Type
REMARK                         _______ _______ _______ _____ _____    ______ ____
ROOT
ATOM      1  N   LIG    1       24.470 -19.636   3.737  0.00  0.00    -0.302 NA
ATOM      2  H   LIG    1       25.393 -19.609   3.292  0.00  0.00    +0.123 HD
ENDROOT
BRANCH   1   3
ATOM      3  C   LIG    1       24.532 -20.518   4.926  0.00  0.00    +0.023 C 
ATOM      4  C   LIG    1       23.342 -20.181   5.877  0.00  0.00    +0.026 C 
ATOM      5  C   LIG    1       23.377 -21.066   7.142  0.00  0.00    -0.006 C 
ATOM      6  C   LIG    1       23.291 -22.542   6.725  0.00  0.00    +0.038 C 
ATOM      7  C   LIG    1       24.478 -22.896   5.819  0.00  0.00    +0.068 C 
ATOM      8  C   LIG    1       25.798 -22.637   6.566  0.00  0.00    +0.038 C 
ATOM      9  C   LIG    1       25.886 -21.162   6.985  0.00  0.00    -0.006 C 
ATOM     10  C   LIG    1       24.696 -20.824   7.894  0.00  0.00    +0.007 C 
ATOM     11  C   LIG    1       24.430 -22.020   4.557  0.00  0.00    +0.057 C 
ATOM     12  C   LIG    1       25.838 -20.279   5.727  0.00  0.00    +0.026 C 
BRANCH   7  13
ATOM     13  O   LIG    1       24.404 -24.260   5.430  0.00  0.00    -0.389 OA
ATOM     14  H   LIG    1       25.214 -24.707   5.728  0.00  0.00    +0.210 HD
ENDBRANCH   7  13
ENDBRANCH   1   3
BRANCH   1  15
ATOM     15  C   LIG    1       24.086 -18.241   4.049  0.00  0.00    +0.178 C 
BRANCH  15  18
ATOM     16  C   LIG    1       25.709 -14.875   3.053  0.00  0.00    +0.179 C 
ATOM     17  N   LIG    1       24.810 -15.902   3.591  0.00  0.00    -0.285 N 
ATOM     18  C   LIG    1       25.098 -17.243   3.476  0.00  0.00    +0.230 C 
ATOM     19  O   LIG    1       26.141 -17.633   2.948  0.00  0.00    -0.274 OA
ATOM     20  C   LIG    1       23.618 -15.319   4.180  0.00  0.00    +0.109 C 
ATOM     21  C   LIG    1       23.998 -13.868   4.404  0.00  0.00    +0.022 C 
ATOM     22  C   LIG    1       24.902 -13.575   3.211  0.00  0.00    +0.039 C 
BRANCH  16  24
ATOM     23  N   LIG    1       28.007 -14.680   4.348  0.00  0.00    -0.195 NA
ATOM     24  C   LIG    1       26.983 -14.785   3.795  0.00  0.00    +0.085 C 
ENDBRANCH  16  24
ENDBRANCH  15  18
ENDBRANCH   1  15
TORSDOF 5
ENDMDL
MODEL 8
REMARK VINA RESULT:      -7.1      2.100      7.288
REMARK  Name = *****
REMARK                            x       y       z     vdW  Elec       q    Type
REMARK                         _______ _______ _______ _____ _____    ______ ____
ROOT
ATOM      1  N   LIG    1       27.908 -21.364   7.192  0.00  0.00    -0.302 NA
ATOM      2  H   LIG    1       28.270 -22.115   6.596  0.00  0.00    +0.123 HD
ENDROOT
BRANCH   1   3
ATOM      3  C   LIG    1       29.031 -20.492   7.607  0.00  0.00    +0.023 C 
ATOM      4  C   LIG    1       28.500 -19.409   8.598  0.00  0.00    +0.026 C 
ATOM      5  C   LIG    1       29.637 -18.462   9.043  0.00  0.00    -0.006 C 
ATOM      6  C   LIG    1       30.736 -19.285   9.732  0.00  0.00    +0.038 C 
ATOM      7  C   LIG    1       31.292 -20.329   8.754  0.00  0.00    +0.068 C 
ATOM      8  C   LIG    1       31.864 -19.625   7.511  0.00  0.00    +0.038 C 
ATOM      9  C   LIG    1       30.767 -18.801   6.822  0.00  0.00    -0.006 C 
ATOM     10  C   LIG    1       30.223 -17.758   7.808  0.00  0.00    +0.007 C 
ATOM     11  C   LIG    1       30.160 -21.275   8.325  0.00  0.00    +0.057 C 
ATOM     12  C   LIG    1       29.629 -19.740   6.389  0.00  0.00    +0.026 C 
BRANCH   7  13
ATOM     13  O   LIG    1       32.309 -21.094   9.386  0.00  0.00    -0.389 OA
ATOM     14  H   LIG    1       33.106 -21.059   8.830  0.00  0.00    +0.210 HD
ENDBRANCH   7  13
ENDBRANCH   1   3
BRANCH   1  15
ATOM     15  C   LIG    1       26.855 -20.659   6.430  0.00  0.00    +0.178 C 
BRANCH  15  18
ATOM     16  C   LIG    1       23.040 -21.292   6.371  0.00  0.00    +0.179 C 
ATOM     17  N   LIG    1       24.416 -20.941   6.005  0.00  0.00    -0.285 N 
ATOM     18  C   LIG    1       25.455 -21.075   6.897  0.00  0.00    +0.230 C 
ATOM     19  O   LIG    1       25.276 -21.530   8.028  0.00  0.00    -0.274 OA
ATOM     20  C   LIG    1       24.496 -20.412   4.655  0.00  0.00    +0.109 C 
ATOM     21  C   LIG    1       23.196 -20.861   4.014  0.00  0.00    +0.022 C 
ATOM     22  C   LIG    1       22.212 -20.788   5.177  0.00  0.00    +0.039 C 
BRANCH  16  24
ATOM     23  N   LIG    1       22.736 -23.895   6.735  0.00  0.00    -0.195 NA
ATOM     24  C   LIG    1       22.851 -22.746   6.553  0.00  0.00    +0.085 C 
ENDBRANCH  16  24
ENDBRANCH  15  18
ENDBRANCH   1  15
TORSDOF 5
ENDMDL
MODEL 9
REMARK VINA RESULT:      -7.0      2.047      7.001
REMARK  Name = *****
REMARK                            x       y       z     vdW  Elec       q    Type
REMARK                         _______ _______ _______ _____ _____    ______ ____
ROOT
ATOM      1  N   LIG    1       28.079 -21.479   8.298  0.00  0.00    -0.302 NA
ATOM      2  H   LIG    1       28.560 -22.351   8.540  0.00  0.00    +0.123 HD
ENDROOT
BRANCH   1   3
ATOM      3  C   LIG    1       29.086 -20.408   8.109  0.00  0.00    +0.023 C 
ATOM      4  C   LIG    1       30.514 -21.013   8.274  0.00  0.00    +0.026 C 
ATOM      5  C   LIG    1       31.598 -19.926   8.104  0.00  0.00    -0.006 C 
ATOM      6  C   LIG    1       31.469 -19.302   6.706  0.00  0.00    +0.038 C 
ATOM      7  C   LIG    1       30.080 -18.670   6.545  0.00  0.00    +0.068 C 
ATOM      8  C   LIG    1       29.871 -17.592   7.623  0.00  0.00    +0.038 C 
ATOM      9  C   LIG    1       30.000 -18.214   9.022  0.00  0.00    -0.006 C 
ATOM     10  C   LIG    1       31.395 -18.836   9.170  0.00  0.00    +0.007 C 
ATOM     11  C   LIG    1       29.007 -19.760   6.704  0.00  0.00    +0.057 C 
ATOM     12  C   LIG    1       28.930 -19.305   9.188  0.00  0.00    +0.026 C 
BRANCH   7  13
ATOM     13  O   LIG    1       29.953 -18.092   5.254  0.00  0.00    -0.389 OA
ATOM     14  H   LIG    1       30.579 -17.350   5.190  0.00  0.00    +0.210 HD
ENDBRANCH   7  13
ENDBRANCH   1   3
BRANCH   1  15
ATOM     15  C   LIG    1       27.257 -21.744   7.097  0.00  0.00    +0.178 C 
BRANCH  15  18
ATOM     16  C   LIG    1       23.419 -21.343   6.828  0.00  0.00    +0.179 C 
ATOM     17  N   LIG    1       24.862 -21.314   6.563  0.00  0.00    -0.285 N 
ATOM     18  C   LIG    1       25.769 -21.844   7.451  0.00  0.00    +0.230 C 
ATOM     19  O   LIG    1       25.402 -22.398   8.489  0.00  0.00    -0.274 OA
ATOM     20  C   LIG    1       25.166 -20.631   5.318  0.00  0.00    +0.109 C 
ATOM     21  C   LIG    1       23.843 -20.625   4.576  0.00  0.00    +0.022 C 
ATOM     22  C   LIG    1       22.831 -20.470   5.707  0.00  0.00    +0.039 C 
BRANCH  16  24
ATOM     23  N   LIG    1       22.455 -23.805   6.741  0.00  0.00    -0.195 NA
ATOM     24  C   LIG    1       22.856 -22.708   6.769  0.00  0.00    +0.085 C 
ENDBRANCH  16  24
ENDBRANCH  15  18
ENDBRANCH   1  15
TORSDOF 5
ENDMDL
