MODEL 1
REMARK VINA RESULT:      -8.2      0.000      0.000
REMARK  Name = *****
REMARK                            x       y       z     vdW  Elec       q    Type
REMARK                         _______ _______ _______ _____ _____    ______ ____
ROOT
ATOM      1  C   LIG    1       27.743 -19.612   5.006  0.00  0.00    +0.143 C 
ATOM      2  N   LIG    1       27.099 -20.197   6.171  0.00  0.00    -0.228 N 
ATOM      3  C   LIG    1       25.792 -20.639   6.019  0.00  0.00    +0.242 C 
ATOM      4  O   LIG    1       25.188 -20.501   4.950  0.00  0.00    -0.274 OA
ATOM      5  C   LIG    1       25.131 -21.326   7.215  0.00  0.00    +0.142 C 
ATOM      6  C   LIG    1       23.795 -20.586   7.453  0.00  0.00    +0.035 C 
ATOM      7  C   LIG    1       25.902 -21.210   8.518  0.00  0.00    +0.239 C 
ATOM      8  O   LIG    1       25.472 -21.606   9.602  0.00  0.00    -0.274 OA
ATOM      9  N   LIG    1       27.143 -20.653   8.459  0.00  0.00    -0.239 N 
ATOM     10  H   LIG    1       27.644 -20.585   9.333  0.00  0.00    +0.159 HD
ATOM     11  C   LIG    1       27.771 -20.133   7.371  0.00  0.00    +0.315 C 
ATOM     12  O   LIG    1       28.880 -19.621   7.513  0.00  0.00    -0.252 OA
ENDROOT
BRANCH   5  13
ATOM     13  C   LIG    1       24.992 -22.831   6.879  0.00  0.00    -0.050 C 
ATOM     14  C   LIG    1       23.597 -23.315   6.504  0.00  0.00    +0.032 C 
ATOM     15  C   LIG    1       23.432 -24.836   6.518  0.00  0.00    +0.005 C 
ATOM     16  C   LIG    1       24.607 -25.518   5.835  0.00  0.00    +0.004 C 
ATOM     17  C   LIG    1       25.916 -25.160   6.531  0.00  0.00    +0.027 C 
ATOM     18  C   LIG    1       26.021 -23.705   6.896  0.00  0.00    -0.026 C 
ENDBRANCH   5  13
TORSDOF 1
ENDMDL
MODEL 2
REMARK VINA RESULT:      -7.6      1.923      3.009
REMARK  Name = *****
REMARK                            x       y       z     vdW  Elec       q    Type
REMARK                         _______ _______ _______ _____ _____    ______ ____
ROOT
ATOM      1  C   LIG    1       22.976 -19.288   4.109  0.00  0.00    +0.143 C 
ATOM      2  N   LIG    1       24.189 -19.806   4.719  0.00  0.00    -0.228 N 
ATOM      3  C   LIG    1       24.045 -20.565   5.872  0.00  0.00    +0.242 C 
ATOM      4  O   LIG    1       22.935 -20.756   6.381  0.00  0.00    -0.274 OA
ATOM      5  C   LIG    1       25.307 -21.180   6.480  0.00  0.00    +0.142 C 
ATOM      6  C   LIG    1       25.324 -20.750   7.965  0.00  0.00    +0.035 C 
ATOM      7  C   LIG    1       26.609 -20.668   5.890  0.00  0.00    +0.239 C 
ATOM      8  O   LIG    1       27.720 -20.967   6.329  0.00  0.00    -0.274 OA
ATOM      9  N   LIG    1       26.520 -19.849   4.807  0.00  0.00    -0.239 N 
ATOM     10  H   LIG    1       27.395 -19.519   4.424  0.00  0.00    +0.159 HD
ATOM     11  C   LIG    1       25.394 -19.385   4.204  0.00  0.00    +0.315 C 
ATOM     12  O   LIG    1       25.505 -18.606   3.257  0.00  0.00    -0.252 OA
ENDROOT
BRANCH   5  13
ATOM     13  C   LIG    1       25.249 -22.709   6.245  0.00  0.00    -0.050 C 
ATOM     14  C   LIG    1       25.616 -23.591   7.432  0.00  0.00    +0.032 C 
ATOM     15  C   LIG    1       25.880 -25.055   7.072  0.00  0.00    +0.005 C 
ATOM     16  C   LIG    1       24.817 -25.582   6.121  0.00  0.00    +0.004 C 
ATOM     17  C   LIG    1       24.787 -24.760   4.838  0.00  0.00    +0.027 C 
ATOM     18  C   LIG    1       24.892 -23.279   5.073  0.00  0.00    -0.026 C 
ENDBRANCH   5  13
TORSDOF 1
ENDMDL
MODEL 3
REMARK VINA RESULT:      -7.0      2.131      5.025
REMARK  Name = *****
REMARK                            x       y       z     vdW  Elec       q    Type
REMARK                         _______ _______ _______ _____ _____    ______ ____
ROOT
ATOM      1  C   LIG    1       25.852 -25.203   6.981  0.00  0.00    +0.143 C 
ATOM      2  N   LIG    1       25.521 -23.906   6.415  0.00  0.00    -0.228 N 
ATOM      3  C   LIG    1       25.598 -22.807   7.259  0.00  0.00    +0.242 C 
ATOM      4  O   LIG    1       25.895 -22.933   8.452  0.00  0.00    -0.274 OA
ATOM      5  C   LIG    1       25.326 -21.428   6.656  0.00  0.00    +0.142 C 
ATOM      6  C   LIG    1       24.242 -20.774   7.544  0.00  0.00    +0.035 C 
ATOM      7  C   LIG    1       24.747 -21.453   5.253  0.00  0.00    +0.239 C 
ATOM      8  O   LIG    1       24.364 -20.446   4.655  0.00  0.00    -0.274 OA
ATOM      9  N   LIG    1       24.672 -22.662   4.633  0.00  0.00    -0.239 N 
ATOM     10  H   LIG    1       24.286 -22.662   3.699  0.00  0.00    +0.159 HD
ATOM     11  C   LIG    1       25.011 -23.878   5.136  0.00  0.00    +0.315 C 
ATOM     12  O   LIG    1       24.828 -24.880   4.446  0.00  0.00    -0.252 OA
ENDROOT
BRANCH   5  13
ATOM     13  C   LIG    1       26.671 -20.662   6.600  0.00  0.00    -0.050 C 
ATOM     14  C   LIG    1       27.502 -20.659   7.877  0.00  0.00    +0.032 C 
ATOM     15  C   LIG    1       28.630 -19.625   7.891  0.00  0.00    +0.005 C 
ATOM     16  C   LIG    1       29.388 -19.626   6.573  0.00  0.00    +0.004 C 
ATOM     17  C   LIG    1       28.450 -19.311   5.413  0.00  0.00    +0.027 C 
ATOM     18  C   LIG    1       27.128 -20.023   5.501  0.00  0.00    -0.026 C 
ENDBRANCH   5  13
TORSDOF 1
ENDMDL
MODEL 4
REMARK VINA RESULT:      -6.9      2.762      4.318
REMARK  Name = *****
REMARK                            x       y       z     vdW  Elec       q    Type
REMARK                         _______ _______ _______ _____ _____    ______ ____
ROOT
ATOM      1  C   LIG    1       27.670 -22.409   7.320  0.00  0.00    +0.143 C 
ATOM      2  N   LIG    1       26.245 -22.516   7.049  0.00  0.00    -0.228 N 
ATOM      3  C   LIG    1       25.472 -21.384   7.263  0.00  0.00    +0.242 C 
ATOM      4  O   LIG    1       25.967 -20.342   7.704  0.00  0.00    -0.274 OA
ATOM      5  C   LIG    1       23.986 -21.462   6.908  0.00  0.00    +0.142 C 
ATOM      6  C   LIG    1       23.217 -21.003   8.168  0.00  0.00    +0.035 C 
ATOM      7  C   LIG    1       23.479 -22.861   6.606  0.00  0.00    +0.239 C 
ATOM      8  O   LIG    1       22.293 -23.129   6.409  0.00  0.00    -0.274 OA
ATOM      9  N   LIG    1       24.406 -23.856   6.534  0.00  0.00    -0.239 N 
ATOM     10  H   LIG    1       24.054 -24.780   6.330  0.00  0.00    +0.159 HD
ATOM     11  C   LIG    1       25.745 -23.763   6.750  0.00  0.00    +0.315 C 
ATOM     12  O   LIG    1       26.428 -24.784   6.691  0.00  0.00    -0.252 OA
ENDROOT
BRANCH   5  13
ATOM     13  C   LIG    1       23.752 -20.591   5.649  0.00  0.00    -0.050 C 
ATOM     14  C   LIG    1       22.599 -19.598   5.717  0.00  0.00    +0.032 C 
ATOM     15  C   LIG    1       22.189 -19.016   4.363  0.00  0.00    +0.005 C 
ATOM     16  C   LIG    1       23.409 -18.603   3.555  0.00  0.00    +0.004 C 
ATOM     17  C   LIG    1       24.326 -19.799   3.316  0.00  0.00    +0.027 C 
ATOM     18  C   LIG    1       24.507 -20.665   4.532  0.00  0.00    -0.026 C 
ENDBRANCH   5  13
TORSDOF 1
ENDMDL
MODEL 5
REMARK VINA RESULT:      -6.6      2.928      4.811
REMARK  Name = *****
REMARK                            x       y       z     vdW  Elec       q    Type
REMARK                         _______ _______ _______ _____ _____    ______ ____
ROOT
ATOM      1  C   LIG    1       26.368 -25.720   6.111  0.00  0.00    +0.143 C 
ATOM      2  N   LIG    1       25.392 -24.667   6.341  0.00  0.00    -0.228 N 
ATOM      3  C   LIG    1       25.878 -23.421   6.709  0.00  0.00    +0.242 C 
ATOM      4  O   LIG    1       27.087 -23.226   6.875  0.00  0.00    -0.274 OA
ATOM      5  C   LIG    1       24.866 -22.286   6.878  0.00  0.00    +0.142 C 
ATOM      6  C   LIG    1       25.119 -21.688   8.281  0.00  0.00    +0.035 C 
ATOM      7  C   LIG    1       23.413 -22.726   6.875  0.00  0.00    +0.239 C 
ATOM      8  O   LIG    1       22.470 -21.969   7.108  0.00  0.00    -0.274 OA
ATOM      9  N   LIG    1       23.160 -24.030   6.579  0.00  0.00    -0.239 N 
ATOM     10  H   LIG    1       22.188 -24.308   6.578  0.00  0.00    +0.159 HD
ATOM     11  C   LIG    1       24.060 -25.017   6.327  0.00  0.00    +0.315 C 
ATOM     12  O   LIG    1       23.650 -26.159   6.125  0.00  0.00    -0.252 OA
ENDROOT
BRANCH   5  13
ATOM     13  C   LIG    1       25.064 -21.296   5.704  0.00  0.00    -0.050 C 
ATOM     14  C   LIG    1       24.014 -21.336   4.600  0.00  0.00    +0.032 C 
ATOM     15  C   LIG    1       24.420 -20.608   3.318  0.00  0.00    +0.005 C 
ATOM     16  C   LIG    1       25.041 -19.256   3.632  0.00  0.00    +0.004 C 
ATOM     17  C   LIG    1       26.275 -19.422   4.512  0.00  0.00    +0.027 C 
ATOM     18  C   LIG    1       26.089 -20.421   5.621  0.00  0.00    -0.026 C 
ENDBRANCH   5  13
TORSDOF 1
ENDMDL
MODEL 6
REMARK VINA RESULT:      -6.6      1.582      2.285
REMARK  Name = *****
REMARK                            x       y       z     vdW  Elec       q    Type
REMARK                         _______ _______ _______ _____ _____    ______ ____
ROOT
ATOM      1  C   LIG    1       27.857 -20.073   7.484  0.00  0.00    +0.143 C 
ATOM      2  N   LIG    1       26.548 -20.706   7.447  0.00  0.00    -0.228 N 
ATOM      3  C   LIG    1       26.098 -21.160   6.215  0.00  0.00    +0.242 C 
ATOM      4  O   LIG    1       26.763 -20.995   5.187  0.00  0.00    -0.274 OA
ATOM      5  C   LIG    1       24.757 -21.896   6.176  0.00  0.00    +0.142 C 
ATOM      6  C   LIG    1       23.904 -21.182   5.102  0.00  0.00    +0.035 C 
ATOM      7  C   LIG    1       23.952 -21.813   7.461  0.00  0.00    +0.239 C 
ATOM      8  O   LIG    1       22.806 -22.250   7.576  0.00  0.00    -0.274 OA
ATOM      9  N   LIG    1       24.555 -21.237   8.536  0.00  0.00    -0.239 N 
ATOM     10  H   LIG    1       24.007 -21.191   9.384  0.00  0.00    +0.159 HD
ATOM     11  C   LIG    1       25.790 -20.673   8.595  0.00  0.00    +0.315 C 
ATOM     12  O   LIG    1       26.155 -20.150   9.647  0.00  0.00    -0.252 OA
ENDROOT
BRANCH   5  13
ATOM     13  C   LIG    1       25.045 -23.390   5.893  0.00  0.00    -0.050 C 
ATOM     14  C   LIG    1       25.649 -24.193   7.039  0.00  0.00    +0.032 C 
ATOM     15  C   LIG    1       26.230 -25.546   6.622  0.00  0.00    +0.005 C 
ATOM     16  C   LIG    1       25.283 -26.281   5.688  0.00  0.00    +0.004 C 
ATOM     17  C   LIG    1       25.016 -25.456   4.433  0.00  0.00    +0.027 C 
ATOM     18  C   LIG    1       24.785 -23.997   4.714  0.00  0.00    -0.026 C 
ENDBRANCH   5  13
TORSDOF 1
ENDMDL
MODEL 7
REMARK VINA RESULT:      -6.2      2.450      4.387
REMARK  Name = *****
REMARK                            x       y       z     vdW  Elec       q    Type
REMARK                         _______ _______ _______ _____ _____    ______ ____
ROOT
ATOM      1  C   LIG    1       26.334 -20.426   9.081  0.00  0.00    +0.143 C 
ATOM      2  N   LIG    1       25.851 -21.115   7.895  0.00  0.00    -0.228 N 
ATOM      3  C   LIG    1       24.496 -21.016   7.611  0.00  0.00    +0.242 C 
ATOM      4  O   LIG    1       23.727 -20.402   8.358  0.00  0.00    -0.274 OA
ATOM      5  C   LIG    1       23.990 -21.672   6.325  0.00  0.00    +0.142 C 
ATOM      6  C   LIG    1       22.814 -22.586   6.740  0.00  0.00    +0.035 C 
ATOM      7  C   LIG    1       24.995 -22.582   5.640  0.00  0.00    +0.239 C 
ATOM      8  O   LIG    1       24.728 -23.277   4.659  0.00  0.00    -0.274 OA
ATOM      9  N   LIG    1       26.259 -22.602   6.144  0.00  0.00    -0.239 N 
ATOM     10  H   LIG    1       26.916 -23.211   5.676  0.00  0.00    +0.159 HD
ATOM     11  C   LIG    1       26.734 -21.936   7.230  0.00  0.00    +0.315 C 
ATOM     12  O   LIG    1       27.902 -22.114   7.572  0.00  0.00    -0.252 OA
ENDROOT
BRANCH   5  13
ATOM     13  C   LIG    1       23.619 -20.544   5.331  0.00  0.00    -0.050 C 
ATOM     14  C   LIG    1       24.695 -20.141   4.331  0.00  0.00    +0.032 C 
ATOM     15  C   LIG    1       24.424 -18.818   3.612  0.00  0.00    +0.005 C 
ATOM     16  C   LIG    1       22.980 -18.739   3.143  0.00  0.00    +0.004 C 
ATOM     17  C   LIG    1       22.023 -18.860   4.324  0.00  0.00    +0.027 C 
ATOM     18  C   LIG    1       22.418 -19.926   5.308  0.00  0.00    -0.026 C 
ENDBRANCH   5  13
TORSDOF 1
ENDMDL
MODEL 8
REMARK VINA RESULT:      -6.2      2.599      4.353
REMARK  Name = *****
REMARK                            x       y       z     vdW  Elec       q    Type
REMARK                         _______ _______ _______ _____ _____    ______ ____
ROOT
ATOM      1  C   LIG    1       23.567 -20.960   2.797  0.00  0.00    +0.143 C 
ATOM      2  N   LIG    1       23.621 -20.868   4.247  0.00  0.00    -0.228 N 
ATOM      3  C   LIG    1       24.346 -21.843   4.919  0.00  0.00    +0.242 C 
ATOM      4  O   LIG    1       24.887 -22.773   4.311  0.00  0.00    -0.274 OA
ATOM      5  C   LIG    1       24.474 -21.713   6.438  0.00  0.00    +0.142 C 
ATOM      6  C   LIG    1       24.016 -23.067   7.026  0.00  0.00    +0.035 C 
ATOM      7  C   LIG    1       23.568 -20.667   7.062  0.00  0.00    +0.239 C 
ATOM      8  O   LIG    1       23.456 -20.500   8.278  0.00  0.00    -0.274 OA
ATOM      9  N   LIG    1       22.864 -19.868   6.214  0.00  0.00    -0.239 N 
ATOM     10  H   LIG    1       22.267 -19.176   6.645  0.00  0.00    +0.159 HD
ATOM     11  C   LIG    1       22.831 -19.920   4.856  0.00  0.00    +0.315 C 
ATOM     12  O   LIG    1       22.093 -19.145   4.250  0.00  0.00    -0.252 OA
ENDROOT
BRANCH   5  13
ATOM     13  C   LIG    1       25.938 -21.325   6.759  0.00  0.00    -0.050 C 
ATOM     14  C   LIG    1       26.548 -20.220   5.905  0.00  0.00    +0.032 C 
ATOM     15  C   LIG    1       28.070 -20.107   6.015  0.00  0.00    +0.005 C 
ATOM     16  C   LIG    1       28.519 -20.187   7.465  0.00  0.00    +0.004 C 
ATOM     17  C   LIG    1       28.079 -21.506   8.092  0.00  0.00    +0.027 C 
ATOM     18  C   LIG    1       26.672 -21.898   7.736  0.00  0.00    -0.026 C 
ENDBRANCH   5  13
TORSDOF 1
ENDMDL
MODEL 9
REMARK VINA RESULT:      -6.0      2.225      4.328
REMARK  Name = *****
REMARK                            x       y       z     vdW  Elec       q    Type
REMARK                         _______ _______ _______ _____ _____    ______ ____
ROOT
ATOM      1  C   LIG    1       23.523 -21.250   4.177  0.00  0.00    +0.143 C 
ATOM      2  N   LIG    1       24.097 -21.188   5.511  0.00  0.00    -0.228 N 
ATOM      3  C   LIG    1       25.179 -22.017   5.776  0.00  0.00    +0.242 C 
ATOM      4  O   LIG    1       25.607 -22.804   4.925  0.00  0.00    -0.274 OA
ATOM      5  C   LIG    1       25.840 -21.905   7.151  0.00  0.00    +0.142 C 
ATOM      6  C   LIG    1       25.880 -23.338   7.728  0.00  0.00    +0.035 C 
ATOM      7  C   LIG    1       25.065 -21.077   8.161  0.00  0.00    +0.239 C 
ATOM      8  O   LIG    1       25.388 -20.968   9.344  0.00  0.00    -0.274 OA
ATOM      9  N   LIG    1       23.967 -20.412   7.708  0.00  0.00    -0.239 N 
ATOM     10  H   LIG    1       23.464 -19.864   8.391  0.00  0.00    +0.159 HD
ATOM     11  C   LIG    1       23.439 -20.433   6.455  0.00  0.00    +0.315 C 
ATOM     12  O   LIG    1       22.405 -19.804   6.236  0.00  0.00    -0.252 OA
ENDROOT
BRANCH   5  13
ATOM     13  C   LIG    1       27.225 -21.241   6.957  0.00  0.00    -0.050 C 
ATOM     14  C   LIG    1       27.278 -20.046   6.014  0.00  0.00    +0.032 C 
ATOM     15  C   LIG    1       28.691 -19.644   5.586  0.00  0.00    +0.005 C 
ATOM     16  C   LIG    1       29.637 -19.627   6.777  0.00  0.00    +0.004 C 
ATOM     17  C   LIG    1       29.698 -21.001   7.435  0.00  0.00    +0.027 C 
ATOM     18  C   LIG    1       28.353 -21.657   7.575  0.00  0.00    -0.026 C 
ENDBRANCH   5  13
TORSDOF 1
ENDMDL
