MODEL 1
REMARK VINA RESULT:       2.8      0.000      0.000
REMARK  Name = *****
REMARK                            x       y       z     vdW  Elec       q    Type
REMARK                         _______ _______ _______ _____ _____    ______ ____
ROOT
ATOM      1  C   LIG    1       23.560 -32.430  14.617  0.00  0.00    +0.165 A 
ATOM      2  C   LIG    1       23.081 -32.578  13.311  0.00  0.00    +0.202 A 
ATOM      3  C   LIG    1       22.787 -31.441  12.535  0.00  0.00    +0.182 A 
ATOM      4  O   LIG    1       22.169 -31.554  11.313  0.00  0.00    -0.452 OA
ATOM      5  C   LIG    1       22.863 -31.985  10.206  0.00  0.00    +0.129 A 
ATOM      6  C   LIG    1       22.137 -31.896   9.018  0.00  0.00    +0.046 A 
ATOM      7  C   LIG    1       22.675 -32.366   7.822  0.00  0.00    +0.007 A 
ATOM      8  C   LIG    1       23.947 -32.952   7.798  0.00  0.00    -0.045 A 
ATOM      9  C   LIG    1       24.487 -33.502   6.493  0.00  0.00    +0.058 C 
ATOM     10  C   LIG    1       25.835 -32.912   5.979  0.00  0.00    +0.091 C 
ATOM     11  N   LIG    1       26.243 -33.628   4.741  0.00  0.00    -0.298 NA
ATOM     12  C   LIG    1       27.681 -33.502   4.490  0.00  0.00    +0.105 C 
ATOM     13  C   LIG    1       25.451 -33.191   3.579  0.00  0.00    +0.089 C 
ATOM     14  C   LIG    1       25.474 -31.682   3.300  0.00  0.00    +0.051 C 
ATOM     15  C   LIG    1       25.500 -30.828   4.543  0.00  0.00    -0.038 A 
ATOM     16  C   LIG    1       25.390 -29.432   4.426  0.00  0.00    +0.053 A 
ATOM     17  C   LIG    1       25.560 -28.603   5.540  0.00  0.00    +0.162 A 
ATOM     18  C   LIG    1       25.894 -29.168   6.781  0.00  0.00    +0.170 A 
ATOM     19  O   LIG    1       26.172 -28.287   7.807  0.00  0.00    -0.449 OA
ATOM     20  C   LIG    1       26.040 -28.710   9.108  0.00  0.00    +0.170 A 
ATOM     21  C   LIG    1       27.092 -29.316   9.794  0.00  0.00    +0.159 A 
ATOM     22  C   LIG    1       26.972 -29.593  11.154  0.00  0.00    +0.049 A 
ATOM     23  C   LIG    1       25.819 -29.200  11.842  0.00  0.00    +0.007 A 
ATOM     24  C   LIG    1       24.772 -28.547  11.176  0.00  0.00    -0.038 A 
ATOM     25  C   LIG    1       23.614 -27.959  11.947  0.00  0.00    +0.095 C 
ATOM     26  C   LIG    1       22.444 -28.908  12.339  0.00  0.00    +0.105 C 
ATOM     27  N   LIG    1       21.382 -28.137  13.226  0.00  0.00    +0.245 N 
ATOM     28  C   LIG    1       20.896 -26.862  12.541  0.00  0.00    +0.193 C 
ATOM     29  C   LIG    1       20.141 -29.045  13.385  0.00  0.00    +0.193 C 
ATOM     30  C   LIG    1       21.948 -27.802  14.630  0.00  0.00    +0.138 C 
ATOM     31  C   LIG    1       23.139 -28.668  15.093  0.00  0.00    +0.086 C 
ATOM     32  C   LIG    1       23.223 -30.020  14.444  0.00  0.00    -0.027 A 
ATOM     33  C   LIG    1       24.884 -28.324   9.794  0.00  0.00    +0.053 A 
ATOM     34  C   LIG    1       25.984 -30.557   6.898  0.00  0.00    +0.055 A 
ATOM     35  C   LIG    1       25.765 -31.401   5.796  0.00  0.00    -0.023 A 
ATOM     36  C   LIG    1       24.671 -33.039   8.994  0.00  0.00    +0.007 A 
ATOM     37  C   LIG    1       24.146 -32.533  10.189  0.00  0.00    +0.046 A 
ATOM     38  C   LIG    1       22.868 -30.155  13.093  0.00  0.00    +0.050 A 
ATOM     39  C   LIG    1       23.620 -31.145  15.172  0.00  0.00    +0.053 A 
ENDROOT
BRANCH   1  41
ATOM     40  C   LIG    1       25.296 -33.825  15.500  0.00  0.00    +0.277 C 
ATOM     41  O   LIG    1       23.938 -33.402  15.500  0.00  0.00    -0.491 OA
ENDBRANCH   1  41
BRANCH   2  42
ATOM     42  O   LIG    1       22.830 -33.825  12.807  0.00  0.00    -0.501 OA
ATOM     43  H   LIG    1       22.689 -33.763  11.846  0.00  0.00    +0.292 HD
ENDBRANCH   2  42
BRANCH  17  44
ATOM     44  O   LIG    1       25.477 -27.233   5.487  0.00  0.00    -0.491 OA
ATOM     45  C   LIG    1       24.184 -26.685   5.708  0.00  0.00    +0.277 C 
ENDBRANCH  17  44
BRANCH  21  46
ATOM     46  O   LIG    1       28.244 -29.628   9.131  0.00  0.00    -0.503 OA
ATOM     47  H   LIG    1       28.887 -30.005   9.751  0.00  0.00    +0.292 HD
ENDBRANCH  21  46
TORSDOF 4
ENDMDL
MODEL 2
REMARK VINA RESULT:       3.2      3.268      8.052
REMARK  Name = *****
REMARK                            x       y       z     vdW  Elec       q    Type
REMARK                         _______ _______ _______ _____ _____    ______ ____
ROOT
ATOM      1  C   LIG    1       27.286 -28.793  13.289  0.00  0.00    +0.165 A 
ATOM      2  C   LIG    1       26.006 -28.227  13.283  0.00  0.00    +0.202 A 
ATOM      3  C   LIG    1       25.234 -28.248  12.106  0.00  0.00    +0.182 A 
ATOM      4  O   LIG    1       24.043 -27.564  12.025  0.00  0.00    -0.452 OA
ATOM      5  C   LIG    1       22.909 -28.044  12.638  0.00  0.00    +0.129 A 
ATOM      6  C   LIG    1       21.757 -27.320  12.332  0.00  0.00    +0.046 A 
ATOM      7  C   LIG    1       20.541 -27.634  12.936  0.00  0.00    +0.007 A 
ATOM      8  C   LIG    1       20.462 -28.671  13.874  0.00  0.00    -0.045 A 
ATOM      9  C   LIG    1       19.138 -28.958  14.555  0.00  0.00    +0.058 C 
ATOM     10  C   LIG    1       18.554 -30.393  14.391  0.00  0.00    +0.091 C 
ATOM     11  N   LIG    1       17.305 -30.509  15.190  0.00  0.00    -0.298 NA
ATOM     12  C   LIG    1       16.985 -31.904  15.497  0.00  0.00    +0.105 C 
ATOM     13  C   LIG    1       16.179 -29.826  14.533  0.00  0.00    +0.089 C 
ATOM     14  C   LIG    1       15.883 -30.283  13.098  0.00  0.00    +0.051 C 
ATOM     15  C   LIG    1       17.114 -30.624  12.295  0.00  0.00    -0.038 A 
ATOM     16  C   LIG    1       16.988 -30.929  10.930  0.00  0.00    +0.053 A 
ATOM     17  C   LIG    1       18.084 -31.392  10.194  0.00  0.00    +0.162 A 
ATOM     18  C   LIG    1       19.312 -31.603  10.838  0.00  0.00    +0.170 A 
ATOM     19  O   LIG    1       20.314 -32.182  10.083  0.00  0.00    -0.449 OA
ATOM     20  C   LIG    1       21.624 -31.994  10.454  0.00  0.00    +0.170 A 
ATOM     21  C   LIG    1       22.266 -32.850  11.349  0.00  0.00    +0.159 A 
ATOM     22  C   LIG    1       23.633 -32.720  11.583  0.00  0.00    +0.049 A 
ATOM     23  C   LIG    1       24.372 -31.772  10.868  0.00  0.00    +0.007 A 
ATOM     24  C   LIG    1       23.749 -30.935   9.929  0.00  0.00    -0.038 A 
ATOM     25  C   LIG    1       24.569 -30.043   9.026  0.00  0.00    +0.095 C 
ATOM     26  C   LIG    1       25.027 -28.665   9.585  0.00  0.00    +0.105 C 
ATOM     27  N   LIG    1       25.956 -27.926   8.537  0.00  0.00    +0.245 N 
ATOM     28  C   LIG    1       25.282 -27.808   7.172  0.00  0.00    +0.193 C 
ATOM     29  C   LIG    1       26.184 -26.481   9.034  0.00  0.00    +0.193 C 
ATOM     30  C   LIG    1       27.328 -28.634   8.391  0.00  0.00    +0.138 C 
ATOM     31  C   LIG    1       27.742 -29.535   9.574  0.00  0.00    +0.086 C 
ATOM     32  C   LIG    1       27.104 -29.180  10.887  0.00  0.00    -0.027 A 
ATOM     33  C   LIG    1       22.362 -31.040   9.744  0.00  0.00    +0.053 A 
ATOM     34  C   LIG    1       19.440 -31.281  12.191  0.00  0.00    +0.055 A 
ATOM     35  C   LIG    1       18.358 -30.767  12.926  0.00  0.00    -0.023 A 
ATOM     36  C   LIG    1       21.622 -29.394  14.178  0.00  0.00    +0.007 A 
ATOM     37  C   LIG    1       22.836 -29.102  13.544  0.00  0.00    +0.046 A 
ATOM     38  C   LIG    1       25.773 -28.735  10.905  0.00  0.00    +0.050 A 
ATOM     39  C   LIG    1       27.824 -29.260  12.083  0.00  0.00    +0.053 A 
ENDROOT
BRANCH   1  41
ATOM     40  C   LIG    1       28.193 -30.131  15.057  0.00  0.00    +0.277 C 
ATOM     41  O   LIG    1       28.160 -28.907  14.334  0.00  0.00    -0.491 OA
ENDBRANCH   1  41
BRANCH   2  42
ATOM     42  O   LIG    1       25.529 -27.592  14.396  0.00  0.00    -0.501 OA
ATOM     43  H   LIG    1       26.276 -27.277  14.935  0.00  0.00    +0.292 HD
ENDBRANCH   2  42
BRANCH  17  44
ATOM     44  O   LIG    1       18.020 -31.719   8.861  0.00  0.00    -0.491 OA
ATOM     45  C   LIG    1       17.674 -33.068   8.573  0.00  0.00    +0.277 C 
ENDBRANCH  17  44
BRANCH  21  46
ATOM     46  O   LIG    1       21.551 -33.822  11.986  0.00  0.00    -0.503 OA
ATOM     47  H   LIG    1       21.171 -34.430  11.333  0.00  0.00    +0.292 HD
ENDBRANCH  21  46
TORSDOF 4
ENDMDL
