MODEL 1
REMARK VINA RESULT:       7.7      0.000      0.000
REMARK  Name = *****
REMARK                            x       y       z     vdW  Elec       q    Type
REMARK                         _______ _______ _______ _____ _____    ______ ____
ROOT
ATOM      1  C   LIG    1       24.551 -13.991   4.234  0.00  0.00    +0.169 C 
ATOM      2  C   LIG    1       25.938 -13.585   4.884  0.00  0.00    +0.175 C 
ATOM      3  C   LIG    1       27.145 -14.333   4.192  0.00  0.00    +0.169 C 
ATOM      4  C   LIG    1       27.173 -13.809   2.713  0.00  0.00    +0.084 C 
ATOM      5  C   LIG    1       25.812 -13.835   1.993  0.00  0.00    +0.042 C 
ATOM      6  C   LIG    1       24.634 -13.293   2.829  0.00  0.00    +0.084 C 
ENDROOT
BRANCH   4   7
ATOM      7  N   LIG    1       28.163 -14.443   1.848  0.00  0.00    -0.325 NA
ATOM      8  H   LIG    1       29.062 -13.992   2.034  0.00  0.00    +0.118 HD
ATOM      9  H   LIG    1       28.335 -15.408   2.136  0.00  0.00    +0.118 HD
ENDBRANCH   4   7
BRANCH   6  10
ATOM     10  N   LIG    1       23.396 -13.351   2.064  0.00  0.00    -0.325 NA
ATOM     11  H   LIG    1       23.148 -12.414   1.743  0.00  0.00    +0.118 HD
ATOM     12  H   LIG    1       23.560 -13.882   1.205  0.00  0.00    +0.118 HD
ENDBRANCH   6  10
BRANCH   2  13
ATOM     13  O   LIG    1       25.905 -13.720   6.276  0.00  0.00    -0.387 OA
ATOM     14  H   LIG    1       25.165 -14.312   6.462  0.00  0.00    +0.210 HD
ENDBRANCH   2  13
BRANCH   1  15
ATOM     15  O   LIG    1       24.182 -15.400   4.018  0.00  0.00    -0.342 OA
BRANCH  15  18
ATOM     16  C   LIG    1       23.135 -18.405   3.837  0.00  0.00    +0.138 C 
ATOM     17  O   LIG    1       24.015 -17.745   4.809  0.00  0.00    -0.345 OA
ATOM     18  C   LIG    1       23.780 -16.286   5.102  0.00  0.00    +0.268 C 
ATOM     19  C   LIG    1       22.290 -16.253   5.562  0.00  0.00    +0.107 C 
ATOM     20  C   LIG    1       21.392 -16.513   4.352  0.00  0.00    +0.026 C 
ATOM     21  C   LIG    1       22.059 -17.427   3.311  0.00  0.00    +0.035 C 
BRANCH  19  22
ATOM     22  N   LIG    1       21.781 -15.157   6.396  0.00  0.00    -0.323 NA
ATOM     23  H   LIG    1       22.522 -14.647   6.869  0.00  0.00    +0.119 HD
ATOM     24  H   LIG    1       21.114 -15.477   7.094  0.00  0.00    +0.119 HD
ENDBRANCH  19  22
BRANCH  16  25
ATOM     25  C   LIG    1       22.583 -19.950   4.151  0.00  0.00    +0.079 C 
ATOM     26  C   LIG    1       22.323 -20.237   5.649  0.00  0.00    +0.026 C 
BRANCH  25  28
ATOM     27  C   LIG    1       24.429 -20.627   2.507  0.00  0.00    +0.101 C 
ATOM     28  N   LIG    1       23.559 -20.979   3.642  0.00  0.00    -0.314 NA
ATOM     29  H   LIG    1       23.034 -21.809   3.368  0.00  0.00    +0.122 HD
ENDBRANCH  25  28
ENDBRANCH  16  25
ENDBRANCH  15  18
ENDBRANCH   1  15
BRANCH   3  30
ATOM     30  O   LIG    1       26.860 -15.707   4.423  0.00  0.00    -0.341 OA
BRANCH  30  31
ATOM     31  C   LIG    1       27.786 -16.759   4.277  0.00  0.00    +0.281 C 
ATOM     32  C   LIG    1       27.271 -18.082   3.652  0.00  0.00    +0.190 C 
ATOM     33  C   LIG    1       27.330 -19.356   4.587  0.00  0.00    +0.121 C 
ATOM     34  C   LIG    1       28.609 -19.345   5.526  0.00  0.00    +0.104 C 
ATOM     35  C   LIG    1       28.378 -19.369   7.057  0.00  0.00    +0.045 C 
ATOM     36  C   LIG    1       29.475 -18.107   5.214  0.00  0.00    +0.199 C 
ATOM     37  O   LIG    1       28.681 -16.929   5.370  0.00  0.00    -0.346 OA
BRANCH  33  38
ATOM     38  N   LIG    1       25.990 -19.475   5.233  0.00  0.00    -0.311 NA
ATOM     39  H   LIG    1       25.327 -19.579   4.469  0.00  0.00    +0.122 HD
ATOM     40  C   LIG    1       25.831 -20.590   6.156  0.00  0.00    +0.101 C 
ENDBRANCH  33  38
BRANCH  32  41
ATOM     41  O   LIG    1       26.001 -17.999   3.000  0.00  0.00    -0.385 OA
ATOM     42  H   LIG    1       25.943 -17.091   2.631  0.00  0.00    +0.210 HD
ENDBRANCH  32  41
BRANCH  34  43
ATOM     43  O   LIG    1       29.369 -20.524   5.231  0.00  0.00    -0.385 OA
ATOM     44  H   LIG    1       28.974 -21.247   5.765  0.00  0.00    +0.210 HD
ENDBRANCH  34  43
ENDBRANCH  30  31
ENDBRANCH   3  30
TORSDOF 13
ENDMDL
MODEL 2
REMARK VINA RESULT:       8.5      1.941      5.731
REMARK  Name = *****
REMARK                            x       y       z     vdW  Elec       q    Type
REMARK                         _______ _______ _______ _____ _____    ______ ____
ROOT
ATOM      1  C   LIG    1       24.127 -20.075   4.337  0.00  0.00    +0.169 C 
ATOM      2  C   LIG    1       25.548 -20.321   3.680  0.00  0.00    +0.175 C 
ATOM      3  C   LIG    1       26.683 -19.526   4.438  0.00  0.00    +0.169 C 
ATOM      4  C   LIG    1       26.741 -20.145   5.879  0.00  0.00    +0.084 C 
ATOM      5  C   LIG    1       25.377 -20.279   6.580  0.00  0.00    +0.042 C 
ATOM      6  C   LIG    1       24.254 -20.857   5.693  0.00  0.00    +0.084 C 
ENDROOT
BRANCH   4   7
ATOM      7  N   LIG    1       27.669 -19.493   6.799  0.00  0.00    -0.325 NA
ATOM      8  H   LIG    1       27.218 -19.469   7.717  0.00  0.00    +0.118 HD
ATOM      9  H   LIG    1       28.488 -20.079   6.968  0.00  0.00    +0.118 HD
ENDBRANCH   4   7
BRANCH   6  10
ATOM     10  N   LIG    1       23.009 -20.953   6.442  0.00  0.00    -0.325 NA
ATOM     11  H   LIG    1       22.695 -21.924   6.462  0.00  0.00    +0.118 HD
ATOM     12  H   LIG    1       23.192 -20.721   7.422  0.00  0.00    +0.118 HD
ENDBRANCH   6  10
BRANCH   2  13
ATOM     13  O   LIG    1       25.515 -20.095   2.300  0.00  0.00    -0.387 OA
ATOM     14  H   LIG    1       25.270 -20.941   1.904  0.00  0.00    +0.210 HD
ENDBRANCH   2  13
BRANCH   1  15
ATOM     15  O   LIG    1       23.641 -18.719   4.641  0.00  0.00    -0.342 OA
BRANCH  15  18
ATOM     16  C   LIG    1       23.415 -15.539   4.624  0.00  0.00    +0.138 C 
ATOM     17  O   LIG    1       23.650 -16.497   3.537  0.00  0.00    -0.345 OA
ATOM     18  C   LIG    1       23.017 -17.860   3.644  0.00  0.00    +0.268 C 
ATOM     19  C   LIG    1       21.500 -17.534   3.802  0.00  0.00    +0.107 C 
ATOM     20  C   LIG    1       21.264 -16.933   5.188  0.00  0.00    +0.026 C 
ATOM     21  C   LIG    1       22.479 -16.140   5.698  0.00  0.00    +0.035 C 
BRANCH  19  22
ATOM     22  N   LIG    1       20.474 -18.525   3.453  0.00  0.00    -0.323 NA
ATOM     23  H   LIG    1       19.672 -18.496   4.078  0.00  0.00    +0.119 HD
ATOM     24  H   LIG    1       20.839 -19.474   3.440  0.00  0.00    +0.119 HD
ENDBRANCH  19  22
BRANCH  16  25
ATOM     25  C   LIG    1       23.116 -13.939   4.252  0.00  0.00    +0.079 C 
ATOM     26  C   LIG    1       23.576 -13.521   2.835  0.00  0.00    +0.026 C 
BRANCH  25  28
ATOM     27  C   LIG    1       23.612 -11.571   5.098  0.00  0.00    +0.101 C 
ATOM     28  N   LIG    1       23.785 -13.026   5.247  0.00  0.00    -0.314 NA
ATOM     29  H   LIG    1       24.789 -13.210   5.224  0.00  0.00    +0.122 HD
ENDBRANCH  25  28
ENDBRANCH  16  25
ENDBRANCH  15  18
ENDBRANCH   1  15
BRANCH   3  30
ATOM     30  O   LIG    1       26.288 -18.168   4.296  0.00  0.00    -0.341 OA
BRANCH  30  31
ATOM     31  C   LIG    1       26.990 -17.196   3.556  0.00  0.00    +0.281 C 
ATOM     32  C   LIG    1       28.265 -16.592   4.199  0.00  0.00    +0.190 C 
ATOM     33  C   LIG    1       28.221 -15.038   4.495  0.00  0.00    +0.121 C 
ATOM     34  C   LIG    1       27.420 -14.244   3.380  0.00  0.00    +0.104 C 
ATOM     35  C   LIG    1       26.178 -13.432   3.826  0.00  0.00    +0.045 C 
ATOM     36  C   LIG    1       26.955 -15.218   2.277  0.00  0.00    +0.199 C 
ATOM     37  O   LIG    1       26.172 -16.256   2.868  0.00  0.00    -0.346 OA
BRANCH  33  38
ATOM     38  N   LIG    1       27.782 -14.887   5.913  0.00  0.00    -0.311 NA
ATOM     39  H   LIG    1       28.596 -15.121   6.477  0.00  0.00    +0.122 HD
ATOM     40  C   LIG    1       27.310 -13.562   6.289  0.00  0.00    +0.101 C 
ENDBRANCH  33  38
BRANCH  32  41
ATOM     41  O   LIG    1       28.778 -17.302   5.329  0.00  0.00    -0.385 OA
ATOM     42  H   LIG    1       28.162 -17.116   6.070  0.00  0.00    +0.210 HD
ENDBRANCH  32  41
BRANCH  34  43
ATOM     43  O   LIG    1       28.318 -13.289   2.802  0.00  0.00    -0.385 OA
ATOM     44  H   LIG    1       29.045 -13.807   2.393  0.00  0.00    +0.210 HD
ENDBRANCH  34  43
ENDBRANCH  30  31
ENDBRANCH   3  30
TORSDOF 13
ENDMDL
MODEL 3
REMARK VINA RESULT:       9.6      2.182      6.214
REMARK  Name = *****
REMARK                            x       y       z     vdW  Elec       q    Type
REMARK                         _______ _______ _______ _____ _____    ______ ____
ROOT
ATOM      1  C   LIG    1       22.512 -18.755   5.733  0.00  0.00    +0.169 C 
ATOM      2  C   LIG    1       21.816 -17.333   5.654  0.00  0.00    +0.175 C 
ATOM      3  C   LIG    1       21.856 -16.748   4.188  0.00  0.00    +0.169 C 
ATOM      4  C   LIG    1       20.983 -17.724   3.320  0.00  0.00    +0.084 C 
ATOM      5  C   LIG    1       21.313 -19.216   3.500  0.00  0.00    +0.042 C 
ATOM      6  C   LIG    1       21.485 -19.664   4.967  0.00  0.00    +0.084 C 
ENDROOT
BRANCH   4   7
ATOM      7  N   LIG    1       20.955 -17.428   1.891  0.00  0.00    -0.325 NA
ATOM      8  H   LIG    1       20.329 -16.629   1.760  0.00  0.00    +0.118 HD
ATOM      9  H   LIG    1       21.854 -17.060   1.577  0.00  0.00    +0.118 HD
ENDBRANCH   4   7
BRANCH   6  10
ATOM     10  N   LIG    1       21.786 -21.087   5.035  0.00  0.00    -0.325 NA
ATOM     11  H   LIG    1       22.144 -21.317   5.964  0.00  0.00    +0.118 HD
ATOM     12  H   LIG    1       20.913 -21.615   4.958  0.00  0.00    +0.118 HD
ENDBRANCH   6  10
BRANCH   2  13
ATOM     13  O   LIG    1       22.320 -16.466   6.629  0.00  0.00    -0.387 OA
ATOM     14  H   LIG    1       22.002 -16.812   7.473  0.00  0.00    +0.210 HD
ENDBRANCH   2  13
BRANCH   1  15
ATOM     15  O   LIG    1       23.846 -18.995   5.157  0.00  0.00    -0.342 OA
BRANCH  15  18
ATOM     16  C   LIG    1       26.928 -19.646   5.645  0.00  0.00    +0.138 C 
ATOM     17  O   LIG    1       25.712 -20.335   6.095  0.00  0.00    -0.345 OA
ATOM     18  C   LIG    1       24.502 -20.295   5.197  0.00  0.00    +0.268 C 
ATOM     19  C   LIG    1       25.036 -20.889   3.857  0.00  0.00    +0.107 C 
ATOM     20  C   LIG    1       25.981 -19.878   3.209  0.00  0.00    +0.026 C 
ATOM     21  C   LIG    1       26.724 -19.020   4.247  0.00  0.00    +0.035 C 
BRANCH  19  22
ATOM     22  N   LIG    1       24.120 -21.488   2.878  0.00  0.00    -0.323 NA
ATOM     23  H   LIG    1       23.349 -20.871   2.633  0.00  0.00    +0.119 HD
ATOM     24  H   LIG    1       23.735 -22.373   3.197  0.00  0.00    +0.119 HD
ENDBRANCH  19  22
BRANCH  16  25
ATOM     25  C   LIG    1       28.412 -20.376   5.877  0.00  0.00    +0.079 C 
ATOM     26  C   LIG    1       28.435 -21.417   7.021  0.00  0.00    +0.026 C 
BRANCH  25  28
ATOM     27  C   LIG    1       29.399 -18.045   5.476  0.00  0.00    +0.101 C 
ATOM     28  N   LIG    1       29.474 -19.346   6.162  0.00  0.00    -0.314 NA
ATOM     29  H   LIG    1       30.382 -19.751   5.932  0.00  0.00    +0.122 HD
ENDBRANCH  25  28
ENDBRANCH  16  25
ENDBRANCH  15  18
ENDBRANCH   1  15
BRANCH   3  30
ATOM     30  O   LIG    1       23.246 -16.648   3.908  0.00  0.00    -0.341 OA
BRANCH  30  31
ATOM     31  C   LIG    1       23.841 -15.639   3.125  0.00  0.00    +0.281 C 
ATOM     32  C   LIG    1       25.373 -15.440   3.260  0.00  0.00    +0.190 C 
ATOM     33  C   LIG    1       25.841 -14.035   3.817  0.00  0.00    +0.121 C 
ATOM     34  C   LIG    1       24.911 -12.855   3.310  0.00  0.00    +0.104 C 
ATOM     35  C   LIG    1       24.180 -12.004   4.377  0.00  0.00    +0.045 C 
ATOM     36  C   LIG    1       23.835 -13.412   2.355  0.00  0.00    +0.199 C 
ATOM     37  O   LIG    1       23.094 -14.431   3.028  0.00  0.00    -0.346 OA
BRANCH  33  38
ATOM     38  N   LIG    1       26.022 -14.199   5.290  0.00  0.00    -0.311 NA
ATOM     39  H   LIG    1       26.020 -15.202   5.455  0.00  0.00    +0.122 HD
ATOM     40  C   LIG    1       27.242 -13.628   5.843  0.00  0.00    +0.101 C 
ENDBRANCH  33  38
BRANCH  32  41
ATOM     41  O   LIG    1       26.073 -16.498   3.920  0.00  0.00    -0.385 OA
ATOM     42  H   LIG    1       26.295 -16.162   4.815  0.00  0.00    +0.210 HD
ENDBRANCH  32  41
BRANCH  34  43
ATOM     43  O   LIG    1       25.739 -11.937   2.584  0.00  0.00    -0.385 OA
ATOM     44  H   LIG    1       26.543 -11.802   3.129  0.00  0.00    +0.210 HD
ENDBRANCH  34  43
ENDBRANCH  30  31
ENDBRANCH   3  30
TORSDOF 13
ENDMDL
MODEL 4
REMARK VINA RESULT:      10.4      1.926      5.135
REMARK  Name = *****
REMARK                            x       y       z     vdW  Elec       q    Type
REMARK                         _______ _______ _______ _____ _____    ______ ____
ROOT
ATOM      1  C   LIG    1       24.704 -13.411   3.798  0.00  0.00    +0.169 C 
ATOM      2  C   LIG    1       23.418 -14.071   3.148  0.00  0.00    +0.175 C 
ATOM      3  C   LIG    1       22.797 -15.179   4.087  0.00  0.00    +0.169 C 
ATOM      4  C   LIG    1       22.311 -14.420   5.373  0.00  0.00    +0.084 C 
ATOM      5  C   LIG    1       23.350 -13.465   5.988  0.00  0.00    +0.042 C 
ATOM      6  C   LIG    1       24.082 -12.568   4.968  0.00  0.00    +0.084 C 
ENDROOT
BRANCH   4   7
ATOM      7  N   LIG    1       21.781 -15.270   6.434  0.00  0.00    -0.325 NA
ATOM      8  H   LIG    1       22.579 -15.607   6.979  0.00  0.00    +0.118 HD
ATOM      9  H   LIG    1       21.262 -14.718   7.119  0.00  0.00    +0.118 HD
ENDBRANCH   4   7
BRANCH   6  10
ATOM     10  N   LIG    1       25.035 -11.698   5.644  0.00  0.00    -0.325 NA
ATOM     11  H   LIG    1       25.177 -10.852   5.090  0.00  0.00    +0.118 HD
ATOM     12  H   LIG    1       24.620 -11.367   6.518  0.00  0.00    +0.118 HD
ENDBRANCH   6  10
BRANCH   2  13
ATOM     13  O   LIG    1       23.674 -14.506   1.844  0.00  0.00    -0.387 OA
ATOM     14  H   LIG    1       23.582 -13.722   1.287  0.00  0.00    +0.210 HD
ENDBRANCH   2  13
BRANCH   1  15
ATOM     15  O   LIG    1       25.792 -14.229   4.359  0.00  0.00    -0.342 OA
BRANCH  15  18
ATOM     16  C   LIG    1       27.888 -16.503   5.134  0.00  0.00    +0.138 C 
ATOM     17  O   LIG    1       27.175 -16.233   3.880  0.00  0.00    -0.345 OA
ATOM     18  C   LIG    1       26.854 -14.800   3.541  0.00  0.00    +0.268 C 
ATOM     19  C   LIG    1       28.252 -14.108   3.567  0.00  0.00    +0.107 C 
ATOM     20  C   LIG    1       28.735 -14.022   5.015  0.00  0.00    +0.026 C 
ATOM     21  C   LIG    1       28.220 -15.187   5.876  0.00  0.00    +0.035 C 
BRANCH  19  22
ATOM     22  N   LIG    1       28.490 -12.858   2.835  0.00  0.00    -0.323 NA
ATOM     23  H   LIG    1       28.848 -12.117   3.431  0.00  0.00    +0.119 HD
ATOM     24  H   LIG    1       27.655 -12.518   2.365  0.00  0.00    +0.119 HD
ENDBRANCH  19  22
BRANCH  16  25
ATOM     25  C   LIG    1       29.107 -17.644   5.151  0.00  0.00    +0.079 C 
ATOM     26  C   LIG    1       28.773 -18.940   4.377  0.00  0.00    +0.026 C 
BRANCH  25  28
ATOM     27  C   LIG    1       29.403 -19.444   6.952  0.00  0.00    +0.101 C 
ATOM     28  N   LIG    1       29.462 -18.024   6.566  0.00  0.00    -0.314 NA
ATOM     29  H   LIG    1       28.842 -17.518   7.197  0.00  0.00    +0.122 HD
ENDBRANCH  25  28
ENDBRANCH  16  25
ENDBRANCH  15  18
ENDBRANCH   1  15
BRANCH   3  30
ATOM     30  O   LIG    1       23.845 -16.132   4.215  0.00  0.00    -0.341 OA
BRANCH  30  31
ATOM     31  C   LIG    1       23.861 -17.401   3.605  0.00  0.00    +0.281 C 
ATOM     32  C   LIG    1       22.713 -18.381   3.965  0.00  0.00    +0.190 C 
ATOM     33  C   LIG    1       23.148 -19.717   4.693  0.00  0.00    +0.121 C 
ATOM     34  C   LIG    1       24.540 -20.258   4.160  0.00  0.00    +0.104 C 
ATOM     35  C   LIG    1       25.693 -20.410   5.183  0.00  0.00    +0.045 C 
ATOM     36  C   LIG    1       25.054 -19.348   3.025  0.00  0.00    +0.199 C 
ATOM     37  O   LIG    1       25.146 -18.006   3.506  0.00  0.00    -0.346 OA
BRANCH  33  38
ATOM     38  N   LIG    1       23.008 -19.469   6.157  0.00  0.00    -0.311 NA
ATOM     39  H   LIG    1       22.085 -19.060   6.278  0.00  0.00    +0.122 HD
ATOM     40  C   LIG    1       23.122 -20.644   7.010  0.00  0.00    +0.101 C 
ENDBRANCH  33  38
BRANCH  32  41
ATOM     41  O   LIG    1       21.590 -17.793   4.625  0.00  0.00    -0.385 OA
ATOM     42  H   LIG    1       21.953 -17.295   5.390  0.00  0.00    +0.210 HD
ENDBRANCH  32  41
BRANCH  34  43
ATOM     43  O   LIG    1       24.317 -21.571   3.631  0.00  0.00    -0.385 OA
ATOM     44  H   LIG    1       24.820 -22.188   4.204  0.00  0.00    +0.210 HD
ENDBRANCH  34  43
ENDBRANCH  30  31
ENDBRANCH   3  30
TORSDOF 13
ENDMDL
