MODEL 1
REMARK VINA RESULT:      -2.5      0.000      0.000
REMARK  Name = *****
REMARK                            x       y       z     vdW  Elec       q    Type
REMARK                         _______ _______ _______ _____ _____    ______ ____
ROOT
ATOM      1  C   LIG    1       22.723 -18.739   4.284  0.00  0.00    +0.006 A 
ATOM      2  C   LIG    1       23.263 -19.805   5.050  0.00  0.00    +0.040 A 
ATOM      3  C   LIG    1       22.449 -20.892   5.386  0.00  0.00    +0.024 A 
ATOM      4  C   LIG    1       21.170 -21.031   4.859  0.00  0.00    +0.003 A 
ATOM      5  C   LIG    1       20.698 -20.085   3.963  0.00  0.00    +0.020 A 
ATOM      6  C   LIG    1       21.457 -18.945   3.687  0.00  0.00    +0.047 A 
ATOM      7 CL   LIG    1       20.758 -17.832   2.556  0.00  0.00    -0.083 Cl
ENDROOT
BRANCH   2   8
ATOM      8  N   LIG    1       24.614 -19.785   5.458  0.00  0.00    -0.281 N 
ATOM      9  H   LIG    1       24.786 -19.419   6.394  0.00  0.00    +0.155 HD
ATOM     10  C   LIG    1       25.727 -19.967   4.617  0.00  0.00    +0.248 C 
ATOM     11  O   LIG    1       25.707 -20.168   3.406  0.00  0.00    -0.270 OA
BRANCH  10  12
ATOM     12  C   LIG    1       27.055 -19.824   5.304  0.00  0.00    +0.037 A 
ATOM     13  C   LIG    1       27.966 -18.836   4.949  0.00  0.00    +0.013 A 
ATOM     14  C   LIG    1       29.179 -18.718   5.628  0.00  0.00    +0.001 A 
ATOM     15  C   LIG    1       29.475 -19.578   6.686  0.00  0.00    +0.000 A 
ATOM     16  C   LIG    1       28.566 -20.566   7.061  0.00  0.00    +0.001 A 
ATOM     17  C   LIG    1       27.354 -20.695   6.373  0.00  0.00    +0.013 A 
ENDBRANCH  10  12
ENDBRANCH   2   8
BRANCH   1  18
ATOM     18  C   LIG    1       23.461 -17.428   4.070  0.00  0.00    +0.123 C 
BRANCH  18  20
ATOM     19  C   LIG    1       21.816 -16.542   5.558  0.00  0.00    +0.105 C 
ATOM     20  N   LIG    1       22.717 -16.192   4.447  0.00  0.00    -0.293 NA
BRANCH  20  21
ATOM     21  C   LIG    1       23.654 -15.097   4.865  0.00  0.00    +0.180 C 
BRANCH  21  22
ATOM     22  C   LIG    1       24.177 -14.248   3.673  0.00  0.00    +0.230 C 
ATOM     23  N   LIG    1       25.449 -14.487   3.157  0.00  0.00    -0.296 N 
ATOM     24  C   LIG    1       26.053 -13.512   2.236  0.00  0.00    +0.136 C 
ATOM     25  C   LIG    1       27.269 -12.851   2.909  0.00  0.00    +0.178 C 
ATOM     26  O   LIG    1       28.214 -13.832   3.382  0.00  0.00    -0.377 OA
ATOM     27  C   LIG    1       27.596 -14.763   4.287  0.00  0.00    +0.178 C 
ATOM     28  C   LIG    1       26.430 -15.482   3.601  0.00  0.00    +0.136 C 
ATOM     29  O   LIG    1       23.465 -13.359   3.193  0.00  0.00    -0.274 OA
ENDBRANCH  21  22
ENDBRANCH  20  21
ENDBRANCH  18  20
ENDBRANCH   1  18
TORSDOF 6
ENDMDL
MODEL 2
REMARK VINA RESULT:      -1.5      2.379      5.517
REMARK  Name = *****
REMARK                            x       y       z     vdW  Elec       q    Type
REMARK                         _______ _______ _______ _____ _____    ______ ____
ROOT
ATOM      1  C   LIG    1       26.916 -19.583   5.040  0.00  0.00    +0.006 A 
ATOM      2  C   LIG    1       25.789 -20.357   5.423  0.00  0.00    +0.040 A 
ATOM      3  C   LIG    1       25.945 -21.375   6.370  0.00  0.00    +0.024 A 
ATOM      4  C   LIG    1       27.139 -21.548   7.061  0.00  0.00    +0.003 A 
ATOM      5  C   LIG    1       28.192 -20.678   6.826  0.00  0.00    +0.020 A 
ATOM      6  C   LIG    1       28.090 -19.715   5.819  0.00  0.00    +0.047 A 
ATOM      7 CL   LIG    1       29.475 -18.692   5.614  0.00  0.00    -0.083 Cl
ENDROOT
BRANCH   2   8
ATOM      8  N   LIG    1       24.517 -20.097   4.870  0.00  0.00    -0.281 N 
ATOM      9  H   LIG    1       24.517 -19.703   3.930  0.00  0.00    +0.155 HD
ATOM     10  C   LIG    1       23.303 -20.082   5.581  0.00  0.00    +0.248 C 
ATOM     11  O   LIG    1       23.153 -20.288   6.782  0.00  0.00    -0.270 OA
BRANCH  10  12
ATOM     12  C   LIG    1       22.105 -19.704   4.757  0.00  0.00    +0.037 A 
ATOM     13  C   LIG    1       21.098 -20.614   4.459  0.00  0.00    +0.013 A 
ATOM     14  C   LIG    1       19.988 -20.218   3.712  0.00  0.00    +0.001 A 
ATOM     15  C   LIG    1       19.871 -18.897   3.279  0.00  0.00    +0.000 A 
ATOM     16  C   LIG    1       20.868 -17.971   3.581  0.00  0.00    +0.001 A 
ATOM     17  C   LIG    1       21.988 -18.368   4.318  0.00  0.00    +0.013 A 
ENDBRANCH  10  12
ENDBRANCH   2   8
BRANCH   1  18
ATOM     18  C   LIG    1       26.887 -18.620   3.864  0.00  0.00    +0.123 C 
BRANCH  18  20
ATOM     19  C   LIG    1       27.995 -16.549   4.301  0.00  0.00    +0.105 C 
ATOM     20  N   LIG    1       26.670 -17.184   4.204  0.00  0.00    -0.293 NA
BRANCH  20  21
ATOM     21  C   LIG    1       25.841 -16.496   3.158  0.00  0.00    +0.180 C 
BRANCH  21  22
ATOM     22  C   LIG    1       26.304 -15.041   2.869  0.00  0.00    +0.230 C 
ATOM     23  N   LIG    1       25.779 -13.986   3.612  0.00  0.00    -0.296 N 
ATOM     24  C   LIG    1       25.990 -12.602   3.156  0.00  0.00    +0.136 C 
ATOM     25  C   LIG    1       24.644 -11.988   2.734  0.00  0.00    +0.178 C 
ATOM     26  O   LIG    1       23.661 -12.086   3.785  0.00  0.00    -0.377 OA
ATOM     27  C   LIG    1       23.470 -13.450   4.199  0.00  0.00    +0.178 C 
ATOM     28  C   LIG    1       24.792 -14.047   4.693  0.00  0.00    +0.136 C 
ATOM     29  O   LIG    1       27.130 -14.825   1.974  0.00  0.00    -0.274 OA
ENDBRANCH  21  22
ENDBRANCH  20  21
ENDBRANCH  18  20
ENDBRANCH   1  18
TORSDOF 6
ENDMDL
MODEL 3
REMARK VINA RESULT:      -0.2      2.084      5.834
REMARK  Name = *****
REMARK                            x       y       z     vdW  Elec       q    Type
REMARK                         _______ _______ _______ _____ _____    ______ ____
ROOT
ATOM      1  C   LIG    1       26.071 -14.729   3.289  0.00  0.00    +0.006 A 
ATOM      2  C   LIG    1       27.335 -14.855   3.923  0.00  0.00    +0.040 A 
ATOM      3  C   LIG    1       28.265 -13.815   3.812  0.00  0.00    +0.024 A 
ATOM      4  C   LIG    1       27.929 -12.598   3.230  0.00  0.00    +0.003 A 
ATOM      5  C   LIG    1       26.636 -12.400   2.770  0.00  0.00    +0.020 A 
ATOM      6  C   LIG    1       25.720 -13.454   2.785  0.00  0.00    +0.047 A 
ATOM      7 CL   LIG    1       24.139 -13.086   2.177  0.00  0.00    -0.083 Cl
ENDROOT
BRANCH   2   8
ATOM      8  N   LIG    1       27.652 -16.007   4.674  0.00  0.00    -0.281 N 
ATOM      9  H   LIG    1       28.110 -15.837   5.568  0.00  0.00    +0.155 HD
ATOM     10  C   LIG    1       27.635 -17.329   4.193  0.00  0.00    +0.248 C 
ATOM     11  O   LIG    1       27.349 -17.693   3.056  0.00  0.00    -0.270 OA
BRANCH  10  12
ATOM     12  C   LIG    1       28.087 -18.358   5.189  0.00  0.00    +0.037 A 
ATOM     13  C   LIG    1       29.094 -18.099   6.110  0.00  0.00    +0.013 A 
ATOM     14  C   LIG    1       29.469 -19.073   7.038  0.00  0.00    +0.001 A 
ATOM     15  C   LIG    1       28.816 -20.305   7.061  0.00  0.00    +0.000 A 
ATOM     16  C   LIG    1       27.795 -20.573   6.151  0.00  0.00    +0.001 A 
ATOM     17  C   LIG    1       27.426 -19.605   5.211  0.00  0.00    +0.013 A 
ENDBRANCH  10  12
ENDBRANCH   2   8
BRANCH   1  18
ATOM     18  C   LIG    1       25.098 -15.890   3.166  0.00  0.00    +0.123 C 
BRANCH  18  20
ATOM     19  C   LIG    1       23.526 -14.870   4.648  0.00  0.00    +0.105 C 
ATOM     20  N   LIG    1       24.220 -16.133   4.348  0.00  0.00    -0.293 NA
BRANCH  20  21
ATOM     21  C   LIG    1       23.222 -17.220   4.071  0.00  0.00    +0.180 C 
BRANCH  21  22
ATOM     22  C   LIG    1       23.880 -18.573   3.684  0.00  0.00    +0.230 C 
ATOM     23  N   LIG    1       23.395 -19.761   4.227  0.00  0.00    -0.296 N 
ATOM     24  C   LIG    1       24.186 -20.995   4.094  0.00  0.00    +0.136 C 
ATOM     25  C   LIG    1       24.684 -21.440   5.481  0.00  0.00    +0.178 C 
ATOM     26  O   LIG    1       23.597 -21.571   6.419  0.00  0.00    -0.377 OA
ATOM     27  C   LIG    1       22.853 -20.347   6.535  0.00  0.00    +0.178 C 
ATOM     28  C   LIG    1       22.288 -19.934   5.172  0.00  0.00    +0.136 C 
ATOM     29  O   LIG    1       24.837 -18.589   2.901  0.00  0.00    -0.274 OA
ENDBRANCH  21  22
ENDBRANCH  20  21
ENDBRANCH  18  20
ENDBRANCH   1  18
TORSDOF 6
ENDMDL
