MODEL 1
REMARK VINA RESULT:      -8.0      0.000      0.000
REMARK  Name = *****
REMARK                            x       y       z     vdW  Elec       q    Type
REMARK                         _______ _______ _______ _____ _____    ______ ____
ROOT
ATOM      1  N   LIG    1       25.076 -18.663   4.048  0.00  0.00    -0.337 NA
ATOM      2  C   LIG    1       23.707 -18.918   4.186  0.00  0.00    +0.050 C 
ATOM      3  C   LIG    1       23.562 -20.248   4.589  0.00  0.00    +0.008 C 
ATOM      4  C   LIG    1       22.247 -20.784   4.550  0.00  0.00    +0.010 C 
ATOM      5  C   LIG    1       21.134 -20.004   4.240  0.00  0.00    +0.001 C 
ATOM      6  C   LIG    1       21.298 -18.666   3.958  0.00  0.00    +0.002 C 
ATOM      7  C   LIG    1       24.868 -20.734   4.996  0.00  0.00    +0.015 C 
ATOM      8  C   LIG    1       22.577 -18.107   3.928  0.00  0.00    +0.026 C 
ATOM      9  C   LIG    1       25.794 -19.709   4.674  0.00  0.00    +0.051 C 
ENDROOT
BRANCH   7  10
ATOM     10  C   LIG    1       25.193 -22.036   5.671  0.00  0.00    -0.015 C 
ATOM     11  C   LIG    1       24.914 -23.283   5.073  0.00  0.00    +0.011 C 
ATOM     12  C   LIG    1       25.203 -24.511   5.686  0.00  0.00    +0.039 C 
ATOM     13  C   LIG    1       25.750 -24.523   6.951  0.00  0.00    +0.123 C 
ATOM     14  F   LIG    1       26.000 -25.688   7.560  0.00  0.00    -0.205 F 
ATOM     15  C   LIG    1       26.021 -23.333   7.595  0.00  0.00    +0.039 C 
ATOM     16  C   LIG    1       25.745 -22.114   6.958  0.00  0.00    +0.011 C 
ENDBRANCH   7  10
BRANCH   1  18
ATOM     17  C   LIG    1       24.843 -16.129   3.699  0.00  0.00    +0.030 C 
ATOM     18  C   LIG    1       25.555 -17.433   3.367  0.00  0.00    +0.082 C 
ATOM     19  C   LIG    1       27.046 -17.067   3.554  0.00  0.00    +0.030 C 
ENDBRANCH   1  18
BRANCH   9  20
ATOM     20  C   LIG    1       27.233 -19.687   4.764  0.00  0.00    +0.025 C 
ATOM     21  C   LIG    1       27.920 -19.492   5.905  0.00  0.00    +0.006 C 
BRANCH  21  22
ATOM     22  C   LIG    1       29.414 -19.231   6.063  0.00  0.00    +0.140 C 
BRANCH  22  23
ATOM     23  O   LIG    1       29.801 -18.218   5.123  0.00  0.00    -0.388 OA
ATOM     24  H   LIG    1       30.022 -17.410   5.620  0.00  0.00    +0.210 HD
ENDBRANCH  22  23
BRANCH  22  25
ATOM     25  C   LIG    1       29.942 -18.787   7.464  0.00  0.00    +0.067 C 
BRANCH  25  26
ATOM     26  C   LIG    1       30.821 -19.758   8.307  0.00  0.00    +0.128 C 
BRANCH  26  27
ATOM     27  O   LIG    1       30.693 -19.299   9.662  0.00  0.00    -0.391 OA
ATOM     28  H   LIG    1       29.744 -19.212   9.874  0.00  0.00    +0.210 HD
ENDBRANCH  26  27
BRANCH  26  29
ATOM     29  C   LIG    1       30.428 -21.232   8.255  0.00  0.00    +0.151 C 
BRANCH  29  30
ATOM     30  C   LIG    1       31.134 -22.168   9.182  0.00  0.00    +0.307 C 
ATOM     31  O   LIG    1       30.911 -22.278  10.412  0.00  0.00    -0.251 OA
BRANCH  30  32
ATOM     32  O   LIG    1       32.197 -22.767   8.632  0.00  0.00    -0.481 OA
ATOM     33  H   LIG    1       32.961 -22.259   8.980  0.00  0.00    +0.295 HD
ENDBRANCH  30  32
ENDBRANCH  29  30
ENDBRANCH  26  29
ENDBRANCH  25  26
ENDBRANCH  22  25
ENDBRANCH  21  22
ENDBRANCH   9  20
TORSDOF 11
ENDMDL
MODEL 2
REMARK VINA RESULT:      -7.7      1.423      1.957
REMARK  Name = *****
REMARK                            x       y       z     vdW  Elec       q    Type
REMARK                         _______ _______ _______ _____ _____    ______ ____
ROOT
ATOM      1  N   LIG    1       24.973 -18.763   4.058  0.00  0.00    -0.337 NA
ATOM      2  C   LIG    1       23.604 -19.013   4.212  0.00  0.00    +0.050 C 
ATOM      3  C   LIG    1       23.459 -20.348   4.598  0.00  0.00    +0.008 C 
ATOM      4  C   LIG    1       22.141 -20.877   4.570  0.00  0.00    +0.010 C 
ATOM      5  C   LIG    1       21.028 -20.087   4.288  0.00  0.00    +0.001 C 
ATOM      6  C   LIG    1       21.194 -18.746   4.022  0.00  0.00    +0.002 C 
ATOM      7  C   LIG    1       24.768 -20.846   4.980  0.00  0.00    +0.015 C 
ATOM      8  C   LIG    1       22.475 -18.193   3.982  0.00  0.00    +0.026 C 
ATOM      9  C   LIG    1       25.695 -19.821   4.659  0.00  0.00    +0.051 C 
ENDROOT
BRANCH   7  10
ATOM     10  C   LIG    1       25.096 -22.159   5.631  0.00  0.00    -0.015 C 
ATOM     11  C   LIG    1       24.875 -23.395   4.986  0.00  0.00    +0.011 C 
ATOM     12  C   LIG    1       25.168 -24.633   5.576  0.00  0.00    +0.039 C 
ATOM     13  C   LIG    1       25.659 -24.669   6.863  0.00  0.00    +0.123 C 
ATOM     14  F   LIG    1       25.911 -25.845   7.450  0.00  0.00    -0.205 F 
ATOM     15  C   LIG    1       25.872 -23.493   7.552  0.00  0.00    +0.039 C 
ATOM     16  C   LIG    1       25.593 -22.262   6.938  0.00  0.00    +0.011 C 
ENDBRANCH   7  10
BRANCH   1  18
ATOM     17  C   LIG    1       24.724 -16.229   3.722  0.00  0.00    +0.030 C 
ATOM     18  C   LIG    1       25.448 -17.525   3.388  0.00  0.00    +0.082 C 
ATOM     19  C   LIG    1       26.935 -17.150   3.589  0.00  0.00    +0.030 C 
ENDBRANCH   1  18
BRANCH   9  20
ATOM     20  C   LIG    1       27.134 -19.807   4.729  0.00  0.00    +0.025 C 
ATOM     21  C   LIG    1       27.840 -19.757   5.875  0.00  0.00    +0.006 C 
BRANCH  21  22
ATOM     22  C   LIG    1       29.336 -19.514   6.041  0.00  0.00    +0.140 C 
BRANCH  22  23
ATOM     23  O   LIG    1       29.641 -18.201   5.551  0.00  0.00    -0.388 OA
ATOM     24  H   LIG    1       29.892 -17.644   6.310  0.00  0.00    +0.210 HD
ENDBRANCH  22  23
BRANCH  22  25
ATOM     25  C   LIG    1       29.948 -19.628   7.473  0.00  0.00    +0.067 C 
BRANCH  25  26
ATOM     26  C   LIG    1       30.429 -18.347   8.216  0.00  0.00    +0.128 C 
BRANCH  26  27
ATOM     27  O   LIG    1       29.838 -18.429   9.524  0.00  0.00    -0.391 OA
ATOM     28  H   LIG    1       29.599 -17.528   9.815  0.00  0.00    +0.210 HD
ENDBRANCH  26  27
BRANCH  26  29
ATOM     29  C   LIG    1       31.939 -18.192   8.375  0.00  0.00    +0.151 C 
BRANCH  29  30
ATOM     30  C   LIG    1       32.430 -17.234   9.412  0.00  0.00    +0.307 C 
ATOM     31  O   LIG    1       32.538 -17.482  10.637  0.00  0.00    -0.251 OA
BRANCH  30  32
ATOM     32  O   LIG    1       32.569 -15.982   8.962  0.00  0.00    -0.481 OA
ATOM     33  H   LIG    1       33.343 -16.031   8.360  0.00  0.00    +0.295 HD
ENDBRANCH  30  32
ENDBRANCH  29  30
ENDBRANCH  26  29
ENDBRANCH  25  26
ENDBRANCH  22  25
ENDBRANCH  21  22
ENDBRANCH   9  20
TORSDOF 11
ENDMDL
MODEL 3
REMARK VINA RESULT:      -7.7      6.795     10.801
REMARK  Name = *****
REMARK                            x       y       z     vdW  Elec       q    Type
REMARK                         _______ _______ _______ _____ _____    ______ ____
ROOT
ATOM      1  N   LIG    1       25.417 -30.540   8.075  0.00  0.00    -0.337 NA
ATOM      2  C   LIG    1       24.852 -31.493   8.930  0.00  0.00    +0.050 C 
ATOM      3  C   LIG    1       25.038 -31.048  10.241  0.00  0.00    +0.008 C 
ATOM      4  C   LIG    1       24.758 -31.982  11.274  0.00  0.00    +0.010 C 
ATOM      5  C   LIG    1       24.214 -33.239  11.014  0.00  0.00    +0.001 C 
ATOM      6  C   LIG    1       23.935 -33.604   9.716  0.00  0.00    +0.002 C 
ATOM      7  C   LIG    1       25.457 -29.659  10.184  0.00  0.00    +0.015 C 
ATOM      8  C   LIG    1       24.246 -32.743   8.663  0.00  0.00    +0.026 C 
ATOM      9  C   LIG    1       25.658 -29.358   8.813  0.00  0.00    +0.051 C 
ENDROOT
BRANCH   7  10
ATOM     10  C   LIG    1       25.606 -28.698  11.330  0.00  0.00    -0.015 C 
ATOM     11  C   LIG    1       24.588 -28.503  12.286  0.00  0.00    +0.011 C 
ATOM     12  C   LIG    1       24.703 -27.608  13.360  0.00  0.00    +0.039 C 
ATOM     13  C   LIG    1       25.842 -26.843  13.483  0.00  0.00    +0.123 C 
ATOM     14  F   LIG    1       25.950 -25.962  14.484  0.00  0.00    -0.205 F 
ATOM     15  C   LIG    1       26.862 -26.974  12.563  0.00  0.00    +0.039 C 
ATOM     16  C   LIG    1       26.738 -27.889  11.507  0.00  0.00    +0.011 C 
ENDBRANCH   7  10
BRANCH   1  18
ATOM     17  C   LIG    1       26.532 -32.027   6.302  0.00  0.00    +0.030 C 
ATOM     18  C   LIG    1       25.634 -30.845   6.637  0.00  0.00    +0.082 C 
ATOM     19  C   LIG    1       24.373 -31.119   5.784  0.00  0.00    +0.030 C 
ENDBRANCH   1  18
BRANCH   9  20
ATOM     20  C   LIG    1       26.168 -28.166   8.183  0.00  0.00    +0.025 C 
ATOM     21  C   LIG    1       25.612 -27.577   7.108  0.00  0.00    +0.006 C 
BRANCH  21  22
ATOM     22  C   LIG    1       26.196 -26.462   6.247  0.00  0.00    +0.140 C 
BRANCH  22  23
ATOM     23  O   LIG    1       27.116 -27.044   5.312  0.00  0.00    -0.388 OA
ATOM     24  H   LIG    1       26.992 -28.009   5.323  0.00  0.00    +0.210 HD
ENDBRANCH  22  23
BRANCH  22  25
ATOM     25  C   LIG    1       25.211 -25.567   5.430  0.00  0.00    +0.067 C 
BRANCH  25  26
ATOM     26  C   LIG    1       24.956 -24.094   5.866  0.00  0.00    +0.128 C 
BRANCH  26  27
ATOM     27  O   LIG    1       24.819 -23.359   4.638  0.00  0.00    -0.391 OA
ATOM     28  H   LIG    1       24.093 -22.714   4.741  0.00  0.00    +0.210 HD
ENDBRANCH  26  27
BRANCH  26  29
ATOM     29  C   LIG    1       23.712 -23.853   6.717  0.00  0.00    +0.151 C 
BRANCH  29  30
ATOM     30  C   LIG    1       23.183 -22.457   6.788  0.00  0.00    +0.307 C 
ATOM     31  O   LIG    1       23.203 -21.724   7.806  0.00  0.00    -0.251 OA
BRANCH  30  32
ATOM     32  O   LIG    1       22.484 -22.093   5.707  0.00  0.00    -0.481 OA
ATOM     33  H   LIG    1       22.153 -22.942   5.342  0.00  0.00    +0.295 HD
ENDBRANCH  30  32
ENDBRANCH  29  30
ENDBRANCH  26  29
ENDBRANCH  25  26
ENDBRANCH  22  25
ENDBRANCH  21  22
ENDBRANCH   9  20
TORSDOF 11
ENDMDL
MODEL 4
REMARK VINA RESULT:      -7.5      4.025      6.593
REMARK  Name = *****
REMARK                            x       y       z     vdW  Elec       q    Type
REMARK                         _______ _______ _______ _____ _____    ______ ____
ROOT
ATOM      1  N   LIG    1       25.288 -20.558   5.201  0.00  0.00    -0.337 NA
ATOM      2  C   LIG    1       25.868 -19.481   4.521  0.00  0.00    +0.050 C 
ATOM      3  C   LIG    1       27.065 -19.166   5.169  0.00  0.00    +0.008 C 
ATOM      4  C   LIG    1       27.690 -17.948   4.791  0.00  0.00    +0.010 C 
ATOM      5  C   LIG    1       27.209 -17.156   3.749  0.00  0.00    +0.001 C 
ATOM      6  C   LIG    1       26.089 -17.554   3.053  0.00  0.00    +0.002 C 
ATOM      7  C   LIG    1       27.378 -20.254   6.078  0.00  0.00    +0.015 C 
ATOM      8  C   LIG    1       25.408 -18.714   3.425  0.00  0.00    +0.026 C 
ATOM      9  C   LIG    1       26.261 -21.127   6.057  0.00  0.00    +0.051 C 
ENDROOT
BRANCH   7  10
ATOM     10  C   LIG    1       28.644 -20.460   6.860  0.00  0.00    -0.015 C 
ATOM     11  C   LIG    1       28.769 -21.470   7.838  0.00  0.00    +0.011 C 
ATOM     12  C   LIG    1       29.939 -21.678   8.583  0.00  0.00    +0.039 C 
ATOM     13  C   LIG    1       31.017 -20.842   8.395  0.00  0.00    +0.123 C 
ATOM     14  F   LIG    1       32.128 -21.009   9.123  0.00  0.00    -0.205 F 
ATOM     15  C   LIG    1       30.944 -19.821   7.469  0.00  0.00    +0.039 C 
ATOM     16  C   LIG    1       29.774 -19.641   6.717  0.00  0.00    +0.011 C 
ENDBRANCH   7  10
BRANCH   1  18
ATOM     17  C   LIG    1       22.792 -19.970   5.344  0.00  0.00    +0.030 C 
ATOM     18  C   LIG    1       23.880 -20.953   4.938  0.00  0.00    +0.082 C 
ATOM     19  C   LIG    1       23.512 -21.288   3.473  0.00  0.00    +0.030 C 
ENDBRANCH   1  18
BRANCH   9  20
ATOM     20  C   LIG    1       25.982 -22.307   6.835  0.00  0.00    +0.025 C 
ATOM     21  C   LIG    1       25.801 -23.536   6.316  0.00  0.00    +0.006 C 
BRANCH  21  22
ATOM     22  C   LIG    1       25.287 -24.785   7.025  0.00  0.00    +0.140 C 
BRANCH  22  23
ATOM     23  O   LIG    1       23.872 -24.880   6.808  0.00  0.00    -0.388 OA
ATOM     24  H   LIG    1       23.465 -25.246   7.614  0.00  0.00    +0.210 HD
ENDBRANCH  22  23
BRANCH  22  25
ATOM     25  C   LIG    1       25.909 -26.163   6.637  0.00  0.00    +0.067 C 
BRANCH  25  26
ATOM     26  C   LIG    1       25.897 -26.630   5.151  0.00  0.00    +0.128 C 
BRANCH  26  27
ATOM     27  O   LIG    1       27.115 -27.375   4.983  0.00  0.00    -0.391 OA
ATOM     28  H   LIG    1       27.690 -26.894   4.357  0.00  0.00    +0.210 HD
ENDBRANCH  26  27
BRANCH  26  29
ATOM     29  C   LIG    1       24.726 -27.518   4.738  0.00  0.00    +0.151 C 
BRANCH  29  30
ATOM     30  C   LIG    1       24.552 -28.813   5.462  0.00  0.00    +0.307 C 
ATOM     31  O   LIG    1       25.483 -29.525   5.910  0.00  0.00    -0.251 OA
BRANCH  30  32
ATOM     32  O   LIG    1       23.299 -29.282   5.430  0.00  0.00    -0.481 OA
ATOM     33  H   LIG    1       23.002 -29.100   4.512  0.00  0.00    +0.295 HD
ENDBRANCH  30  32
ENDBRANCH  29  30
ENDBRANCH  26  29
ENDBRANCH  25  26
ENDBRANCH  22  25
ENDBRANCH  21  22
ENDBRANCH   9  20
TORSDOF 11
ENDMDL
MODEL 5
REMARK VINA RESULT:      -7.3      7.348     11.360
REMARK  Name = *****
REMARK                            x       y       z     vdW  Elec       q    Type
REMARK                         _______ _______ _______ _____ _____    ______ ____
ROOT
ATOM      1  N   LIG    1       25.737 -29.750  10.757  0.00  0.00    -0.337 NA
ATOM      2  C   LIG    1       25.569 -31.059  11.224  0.00  0.00    +0.050 C 
ATOM      3  C   LIG    1       25.468 -31.896  10.110  0.00  0.00    +0.008 C 
ATOM      4  C   LIG    1       25.048 -33.230  10.355  0.00  0.00    +0.010 C 
ATOM      5  C   LIG    1       24.855 -33.726  11.643  0.00  0.00    +0.001 C 
ATOM      6  C   LIG    1       25.074 -32.905  12.728  0.00  0.00    +0.002 C 
ATOM      7  C   LIG    1       25.882 -31.136   8.944  0.00  0.00    +0.015 C 
ATOM      8  C   LIG    1       25.432 -31.570  12.536  0.00  0.00    +0.026 C 
ATOM      9  C   LIG    1       26.073 -29.801   9.383  0.00  0.00    +0.051 C 
ENDROOT
BRANCH   7  10
ATOM     10  C   LIG    1       26.115 -31.648   7.551  0.00  0.00    -0.015 C 
ATOM     11  C   LIG    1       27.194 -32.498   7.232  0.00  0.00    +0.011 C 
ATOM     12  C   LIG    1       27.435 -32.984   5.939  0.00  0.00    +0.039 C 
ATOM     13  C   LIG    1       26.612 -32.592   4.906  0.00  0.00    +0.123 C 
ATOM     14  F   LIG    1       26.850 -33.022   3.661  0.00  0.00    -0.205 F 
ATOM     15  C   LIG    1       25.554 -31.741   5.153  0.00  0.00    +0.039 C 
ATOM     16  C   LIG    1       25.316 -31.282   6.458  0.00  0.00    +0.011 C 
ENDBRANCH   7  10
BRANCH   1  18
ATOM     17  C   LIG    1       24.385 -28.574  12.596  0.00  0.00    +0.030 C 
ATOM     18  C   LIG    1       25.597 -28.592  11.677  0.00  0.00    +0.082 C 
ATOM     19  C   LIG    1       26.770 -28.327  12.650  0.00  0.00    +0.030 C 
ENDBRANCH   1  18
BRANCH   9  20
ATOM     20  C   LIG    1       26.385 -28.608   8.638  0.00  0.00    +0.025 C 
ATOM     21  C   LIG    1       25.557 -28.028   7.748  0.00  0.00    +0.006 C 
BRANCH  21  22
ATOM     22  C   LIG    1       25.880 -26.912   6.761  0.00  0.00    +0.140 C 
BRANCH  22  23
ATOM     23  O   LIG    1       26.643 -27.466   5.680  0.00  0.00    -0.388 OA
ATOM     24  H   LIG    1       26.370 -28.393   5.559  0.00  0.00    +0.210 HD
ENDBRANCH  22  23
BRANCH  22  25
ATOM     25  C   LIG    1       24.692 -26.118   6.130  0.00  0.00    +0.067 C 
BRANCH  25  26
ATOM     26  C   LIG    1       24.648 -24.566   6.242  0.00  0.00    +0.128 C 
BRANCH  26  27
ATOM     27  O   LIG    1       24.869 -24.087   4.905  0.00  0.00    -0.391 OA
ATOM     28  H   LIG    1       25.349 -24.774   4.403  0.00  0.00    +0.210 HD
ENDBRANCH  26  27
BRANCH  26  29
ATOM     29  C   LIG    1       23.342 -23.969   6.761  0.00  0.00    +0.151 C 
BRANCH  29  30
ATOM     30  C   LIG    1       23.200 -22.481   6.724  0.00  0.00    +0.307 C 
ATOM     31  O   LIG    1       23.206 -21.726   7.726  0.00  0.00    -0.251 OA
BRANCH  30  32
ATOM     32  O   LIG    1       22.859 -22.005   5.522  0.00  0.00    -0.481 OA
ATOM     33  H   LIG    1       21.884 -22.121   5.490  0.00  0.00    +0.295 HD
ENDBRANCH  30  32
ENDBRANCH  29  30
ENDBRANCH  26  29
ENDBRANCH  25  26
ENDBRANCH  22  25
ENDBRANCH  21  22
ENDBRANCH   9  20
TORSDOF 11
ENDMDL
MODEL 6
REMARK VINA RESULT:      -7.2      7.522     11.518
REMARK  Name = *****
REMARK                            x       y       z     vdW  Elec       q    Type
REMARK                         _______ _______ _______ _____ _____    ______ ____
ROOT
ATOM      1  N   LIG    1       24.338 -32.163   7.894  0.00  0.00    -0.337 NA
ATOM      2  C   LIG    1       25.013 -32.428   6.697  0.00  0.00    +0.050 C 
ATOM      3  C   LIG    1       25.145 -31.220   6.009  0.00  0.00    +0.008 C 
ATOM      4  C   LIG    1       25.582 -31.302   4.660  0.00  0.00    +0.010 C 
ATOM      5  C   LIG    1       25.973 -32.506   4.076  0.00  0.00    +0.001 C 
ATOM      6  C   LIG    1       25.939 -33.665   4.819  0.00  0.00    +0.002 C 
ATOM      7  C   LIG    1       24.816 -30.146   6.929  0.00  0.00    +0.015 C 
ATOM      8  C   LIG    1       25.462 -33.644   6.131  0.00  0.00    +0.026 C 
ATOM      9  C   LIG    1       24.341 -30.764   8.113  0.00  0.00    +0.051 C 
ENDROOT
BRANCH   7  10
ATOM     10  C   LIG    1       24.983 -28.668   6.711  0.00  0.00    -0.015 C 
ATOM     11  C   LIG    1       24.233 -27.960   5.748  0.00  0.00    +0.011 C 
ATOM     12  C   LIG    1       24.375 -26.583   5.523  0.00  0.00    +0.039 C 
ATOM     13  C   LIG    1       25.315 -25.875   6.239  0.00  0.00    +0.123 C 
ATOM     14  F   LIG    1       25.484 -24.568   6.011  0.00  0.00    -0.205 F 
ATOM     15  C   LIG    1       26.095 -26.520   7.178  0.00  0.00    +0.039 C 
ATOM     16  C   LIG    1       25.925 -27.894   7.405  0.00  0.00    +0.011 C 
ENDBRANCH   7  10
BRANCH   1  18
ATOM     17  C   LIG    1       24.492 -33.565  10.040  0.00  0.00    +0.030 C 
ATOM     18  C   LIG    1       23.793 -33.270   8.721  0.00  0.00    +0.082 C 
ATOM     19  C   LIG    1       22.307 -33.165   9.136  0.00  0.00    +0.030 C 
ENDBRANCH   1  18
BRANCH   9  20
ATOM     20  C   LIG    1       23.785 -30.187   9.310  0.00  0.00    +0.025 C 
ATOM     21  C   LIG    1       24.493 -29.914  10.423  0.00  0.00    +0.006 C 
BRANCH  21  22
ATOM     22  C   LIG    1       23.960 -29.520  11.796  0.00  0.00    +0.140 C 
BRANCH  22  23
ATOM     23  O   LIG    1       23.937 -30.689  12.628  0.00  0.00    -0.388 OA
ATOM     24  H   LIG    1       24.748 -30.696  13.166  0.00  0.00    +0.210 HD
ENDBRANCH  22  23
BRANCH  22  25
ATOM     25  C   LIG    1       24.713 -28.404  12.588  0.00  0.00    +0.067 C 
BRANCH  25  26
ATOM     26  C   LIG    1       26.250 -28.514  12.814  0.00  0.00    +0.128 C 
BRANCH  26  27
ATOM     27  O   LIG    1       26.471 -29.874  13.224  0.00  0.00    -0.391 OA
ATOM     28  H   LIG    1       26.903 -30.354  12.491  0.00  0.00    +0.210 HD
ENDBRANCH  26  27
BRANCH  26  29
ATOM     29  C   LIG    1       27.128 -28.224  11.600  0.00  0.00    +0.151 C 
BRANCH  29  30
ATOM     30  C   LIG    1       28.108 -29.276  11.190  0.00  0.00    +0.307 C 
ATOM     31  O   LIG    1       27.846 -30.274  10.476  0.00  0.00    -0.251 OA
BRANCH  30  32
ATOM     32  O   LIG    1       29.286 -29.185  11.818  0.00  0.00    -0.481 OA
ATOM     33  H   LIG    1       29.153 -28.460  12.466  0.00  0.00    +0.295 HD
ENDBRANCH  30  32
ENDBRANCH  29  30
ENDBRANCH  26  29
ENDBRANCH  25  26
ENDBRANCH  22  25
ENDBRANCH  21  22
ENDBRANCH   9  20
TORSDOF 11
ENDMDL
MODEL 7
REMARK VINA RESULT:      -7.2      9.326     11.869
REMARK  Name = *****
REMARK                            x       y       z     vdW  Elec       q    Type
REMARK                         _______ _______ _______ _____ _____    ______ ____
ROOT
ATOM      1  N   LIG    1       22.814 -29.138  12.167  0.00  0.00    -0.337 NA
ATOM      2  C   LIG    1       22.051 -28.210  12.884  0.00  0.00    +0.050 C 
ATOM      3  C   LIG    1       22.923 -27.480  13.695  0.00  0.00    +0.008 C 
ATOM      4  C   LIG    1       22.328 -26.652  14.684  0.00  0.00    +0.010 C 
ATOM      5  C   LIG    1       20.948 -26.478  14.777  0.00  0.00    +0.001 C 
ATOM      6  C   LIG    1       20.119 -27.125  13.888  0.00  0.00    +0.002 C 
ATOM      7  C   LIG    1       24.278 -27.756  13.251  0.00  0.00    +0.015 C 
ATOM      8  C   LIG    1       20.654 -27.993  12.934  0.00  0.00    +0.026 C 
ATOM      9  C   LIG    1       24.179 -28.777  12.273  0.00  0.00    +0.051 C 
ENDROOT
BRANCH   7  10
ATOM     10  C   LIG    1       25.543 -27.075  13.690  0.00  0.00    -0.015 C 
ATOM     11  C   LIG    1       26.423 -27.655  14.629  0.00  0.00    +0.011 C 
ATOM     12  C   LIG    1       27.607 -27.036  15.058  0.00  0.00    +0.039 C 
ATOM     13  C   LIG    1       27.925 -25.783  14.582  0.00  0.00    +0.123 C 
ATOM     14  F   LIG    1       29.034 -25.167  15.008  0.00  0.00    -0.205 F 
ATOM     15  C   LIG    1       27.088 -25.156  13.680  0.00  0.00    +0.039 C 
ATOM     16  C   LIG    1       25.919 -25.799  13.246  0.00  0.00    +0.011 C 
ENDBRANCH   7  10
BRANCH   1  18
ATOM     17  C   LIG    1       22.547 -30.439   9.969  0.00  0.00    +0.030 C 
ATOM     18  C   LIG    1       22.162 -30.250  11.429  0.00  0.00    +0.082 C 
ATOM     19  C   LIG    1       22.331 -31.671  12.015  0.00  0.00    +0.030 C 
ENDBRANCH   1  18
BRANCH   9  20
ATOM     20  C   LIG    1       25.207 -29.504  11.573  0.00  0.00    +0.025 C 
ATOM     21  C   LIG    1       25.885 -29.031  10.511  0.00  0.00    +0.006 C 
BRANCH  21  22
ATOM     22  C   LIG    1       26.817 -29.797   9.578  0.00  0.00    +0.140 C 
BRANCH  22  23
ATOM     23  O   LIG    1       27.882 -30.357  10.360  0.00  0.00    -0.388 OA
ATOM     24  H   LIG    1       27.626 -30.315  11.298  0.00  0.00    +0.210 HD
ENDBRANCH  22  23
BRANCH  22  25
ATOM     25  C   LIG    1       26.215 -30.955   8.721  0.00  0.00    +0.067 C 
BRANCH  25  26
ATOM     26  C   LIG    1       25.488 -30.634   7.382  0.00  0.00    +0.128 C 
BRANCH  26  27
ATOM     27  O   LIG    1       24.432 -31.605   7.287  0.00  0.00    -0.391 OA
ATOM     28  H   LIG    1       23.683 -31.204   6.806  0.00  0.00    +0.210 HD
ENDBRANCH  26  27
BRANCH  26  29
ATOM     29  C   LIG    1       24.876 -29.240   7.270  0.00  0.00    +0.151 C 
BRANCH  29  30
ATOM     30  C   LIG    1       24.196 -28.885   5.988  0.00  0.00    +0.307 C 
ATOM     31  O   LIG    1       24.320 -27.796   5.377  0.00  0.00    -0.251 OA
BRANCH  30  32
ATOM     32  O   LIG    1       23.257 -29.764   5.618  0.00  0.00    -0.481 OA
ATOM     33  H   LIG    1       23.253 -29.707   4.638  0.00  0.00    +0.295 HD
ENDBRANCH  30  32
ENDBRANCH  29  30
ENDBRANCH  26  29
ENDBRANCH  25  26
ENDBRANCH  22  25
ENDBRANCH  21  22
ENDBRANCH   9  20
TORSDOF 11
ENDMDL
MODEL 8
REMARK VINA RESULT:      -7.1      9.091     12.128
REMARK  Name = *****
REMARK                            x       y       z     vdW  Elec       q    Type
REMARK                         _______ _______ _______ _____ _____    ______ ____
ROOT
ATOM      1  N   LIG    1       21.213 -29.473  12.803  0.00  0.00    -0.337 NA
ATOM      2  C   LIG    1       20.622 -28.449  13.551  0.00  0.00    +0.050 C 
ATOM      3  C   LIG    1       21.642 -27.603  13.992  0.00  0.00    +0.008 C 
ATOM      4  C   LIG    1       21.287 -26.637  14.972  0.00  0.00    +0.010 C 
ATOM      5  C   LIG    1       19.971 -26.454  15.394  0.00  0.00    +0.001 C 
ATOM      6  C   LIG    1       18.969 -27.230  14.854  0.00  0.00    +0.002 C 
ATOM      7  C   LIG    1       22.848 -27.939  13.257  0.00  0.00    +0.015 C 
ATOM      8  C   LIG    1       19.277 -28.230  13.931  0.00  0.00    +0.026 C 
ATOM      9  C   LIG    1       22.543 -29.097  12.497  0.00  0.00    +0.051 C 
ENDROOT
BRANCH   7  10
ATOM     10  C   LIG    1       24.154 -27.197  13.248  0.00  0.00    -0.015 C 
ATOM     11  C   LIG    1       24.256 -25.850  13.654  0.00  0.00    +0.011 C 
ATOM     12  C   LIG    1       25.463 -25.135  13.649  0.00  0.00    +0.039 C 
ATOM     13  C   LIG    1       26.609 -25.748  13.192  0.00  0.00    +0.123 C 
ATOM     14  F   LIG    1       27.761 -25.067  13.151  0.00  0.00    -0.205 F 
ATOM     15  C   LIG    1       26.565 -27.057  12.759  0.00  0.00    +0.039 C 
ATOM     16  C   LIG    1       25.353 -27.764  12.791  0.00  0.00    +0.011 C 
ENDBRANCH   7  10
BRANCH   1  18
ATOM     17  C   LIG    1       20.089 -30.863  10.959  0.00  0.00    +0.030 C 
ATOM     18  C   LIG    1       20.440 -30.685  12.429  0.00  0.00    +0.082 C 
ATOM     19  C   LIG    1       21.062 -32.052  12.801  0.00  0.00    +0.030 C 
ENDBRANCH   1  18
BRANCH   9  20
ATOM     20  C   LIG    1       23.387 -29.919  11.667  0.00  0.00    +0.025 C 
ATOM     21  C   LIG    1       23.441 -29.841  10.324  0.00  0.00    +0.006 C 
BRANCH  21  22
ATOM     22  C   LIG    1       24.122 -30.805   9.358  0.00  0.00    +0.140 C 
BRANCH  22  23
ATOM     23  O   LIG    1       23.146 -31.269   8.415  0.00  0.00    -0.388 OA
ATOM     24  H   LIG    1       23.616 -31.693   7.674  0.00  0.00    +0.210 HD
ENDBRANCH  22  23
BRANCH  22  25
ATOM     25  C   LIG    1       25.347 -30.287   8.540  0.00  0.00    +0.067 C 
BRANCH  25  26
ATOM     26  C   LIG    1       25.424 -28.790   8.118  0.00  0.00    +0.128 C 
BRANCH  26  27
ATOM     27  O   LIG    1       26.769 -28.384   8.421  0.00  0.00    -0.391 OA
ATOM     28  H   LIG    1       27.383 -28.901   7.864  0.00  0.00    +0.210 HD
ENDBRANCH  26  27
BRANCH  26  29
ATOM     29  C   LIG    1       25.147 -28.494   6.647  0.00  0.00    +0.151 C 
BRANCH  29  30
ATOM     30  C   LIG    1       24.638 -29.616   5.800  0.00  0.00    +0.307 C 
ATOM     31  O   LIG    1       25.348 -30.376   5.099  0.00  0.00    -0.251 OA
BRANCH  30  32
ATOM     32  O   LIG    1       23.305 -29.636   5.682  0.00  0.00    -0.481 OA
ATOM     33  H   LIG    1       23.012 -28.834   6.167  0.00  0.00    +0.295 HD
ENDBRANCH  30  32
ENDBRANCH  29  30
ENDBRANCH  26  29
ENDBRANCH  25  26
ENDBRANCH  22  25
ENDBRANCH  21  22
ENDBRANCH   9  20
TORSDOF 11
ENDMDL
MODEL 9
REMARK VINA RESULT:      -7.0      7.936     12.116
REMARK  Name = *****
REMARK                            x       y       z     vdW  Elec       q    Type
REMARK                         _______ _______ _______ _____ _____    ______ ____
ROOT
ATOM      1  N   LIG    1       24.580 -32.053   8.254  0.00  0.00    -0.337 NA
ATOM      2  C   LIG    1       25.235 -32.348   7.053  0.00  0.00    +0.050 C 
ATOM      3  C   LIG    1       25.296 -31.170   6.304  0.00  0.00    +0.008 C 
ATOM      4  C   LIG    1       25.703 -31.300   4.949  0.00  0.00    +0.010 C 
ATOM      5  C   LIG    1       26.133 -32.513   4.414  0.00  0.00    +0.001 C 
ATOM      6  C   LIG    1       26.170 -33.635   5.213  0.00  0.00    +0.002 C 
ATOM      7  C   LIG    1       24.942 -30.067   7.179  0.00  0.00    +0.015 C 
ATOM      8  C   LIG    1       25.726 -33.569   6.535  0.00  0.00    +0.026 C 
ATOM      9  C   LIG    1       24.525 -30.647   8.404  0.00  0.00    +0.051 C 
ENDROOT
BRANCH   7  10
ATOM     10  C   LIG    1       25.036 -28.597   6.886  0.00  0.00    -0.015 C 
ATOM     11  C   LIG    1       24.213 -27.966   5.928  0.00  0.00    +0.011 C 
ATOM     12  C   LIG    1       24.287 -26.597   5.634  0.00  0.00    +0.039 C 
ATOM     13  C   LIG    1       25.229 -25.819   6.270  0.00  0.00    +0.123 C 
ATOM     14  F   LIG    1       25.331 -24.518   5.975  0.00  0.00    -0.205 F 
ATOM     15  C   LIG    1       26.077 -26.386   7.199  0.00  0.00    +0.039 C 
ATOM     16  C   LIG    1       25.976 -27.754   7.497  0.00  0.00    +0.011 C 
ENDBRANCH   7  10
BRANCH   1  18
ATOM     17  C   LIG    1       24.877 -33.367  10.440  0.00  0.00    +0.030 C 
ATOM     18  C   LIG    1       24.106 -33.141   9.148  0.00  0.00    +0.082 C 
ATOM     19  C   LIG    1       22.640 -33.057   9.633  0.00  0.00    +0.030 C 
ENDBRANCH   1  18
BRANCH   9  20
ATOM     20  C   LIG    1       23.973 -30.036   9.587  0.00  0.00    +0.025 C 
ATOM     21  C   LIG    1       24.686 -29.726  10.687  0.00  0.00    +0.006 C 
BRANCH  21  22
ATOM     22  C   LIG    1       24.160 -29.292  12.050  0.00  0.00    +0.140 C 
BRANCH  22  23
ATOM     23  O   LIG    1       24.927 -28.164  12.496  0.00  0.00    -0.388 OA
ATOM     24  H   LIG    1       25.714 -28.088  11.928  0.00  0.00    +0.210 HD
ENDBRANCH  22  23
BRANCH  22  25
ATOM     25  C   LIG    1       22.653 -28.904  12.171  0.00  0.00    +0.067 C 
BRANCH  25  26
ATOM     26  C   LIG    1       22.164 -28.054  13.380  0.00  0.00    +0.128 C 
BRANCH  26  27
ATOM     27  O   LIG    1       22.491 -26.696  13.040  0.00  0.00    -0.391 OA
ATOM     28  H   LIG    1       23.278 -26.428  13.552  0.00  0.00    +0.210 HD
ENDBRANCH  26  27
BRANCH  26  29
ATOM     29  C   LIG    1       20.671 -28.129  13.692  0.00  0.00    +0.151 C 
BRANCH  29  30
ATOM     30  C   LIG    1       19.914 -26.842  13.759  0.00  0.00    +0.307 C 
ATOM     31  O   LIG    1       19.371 -26.372  14.788  0.00  0.00    -0.251 OA
BRANCH  30  32
ATOM     32  O   LIG    1       19.676 -26.297  12.561  0.00  0.00    -0.481 OA
ATOM     33  H   LIG    1       20.295 -26.766  11.960  0.00  0.00    +0.295 HD
ENDBRANCH  30  32
ENDBRANCH  29  30
ENDBRANCH  26  29
ENDBRANCH  25  26
ENDBRANCH  22  25
ENDBRANCH  21  22
ENDBRANCH   9  20
TORSDOF 11
ENDMDL
