MODEL 1
REMARK VINA RESULT:      -7.9      0.000      0.000
REMARK  Name = *****
REMARK                            x       y       z     vdW  Elec       q    Type
REMARK                         _______ _______ _______ _____ _____    ______ ____
ROOT
ATOM      1  N   LIG    1       26.350 -21.238   6.366  0.00  0.00    -0.298 N 
ATOM      2  C   LIG    1       27.684 -20.851   6.723  0.00  0.00    +0.049 A 
ATOM      3  C   LIG    1       28.360 -19.801   6.051  0.00  0.00    +0.034 A 
ATOM      4  C   LIG    1       29.702 -19.468   6.333  0.00  0.00    +0.018 A 
ATOM      5  C   LIG    1       30.404 -20.127   7.328  0.00  0.00    +0.020 A 
ATOM      6  C   LIG    1       29.765 -21.132   8.041  0.00  0.00    +0.054 A 
ATOM      7  S   LIG    1       27.606 -18.729   4.860  0.00  0.00    -0.086 S 
ATOM      8  C   LIG    1       26.053 -19.524   4.581  0.00  0.00    +0.034 A 
ATOM      9  C   LIG    1       25.254 -18.901   3.600  0.00  0.00    +0.017 A 
ATOM     10  C   LIG    1       24.040 -19.445   3.216  0.00  0.00    +0.001 A 
ATOM     11  C   LIG    1       23.656 -20.658   3.760  0.00  0.00    +0.002 A 
ATOM     12  C   LIG    1       24.448 -21.275   4.741  0.00  0.00    +0.024 A 
ATOM     13  C   LIG    1       28.436 -21.495   7.732  0.00  0.00    +0.043 A 
ATOM     14  C   LIG    1       25.629 -20.693   5.250  0.00  0.00    +0.048 A 
ENDROOT
BRANCH   6  15
ATOM     15  C   LIG    1       30.473 -21.781   9.112  0.00  0.00    +0.099 C 
ATOM     16  N   LIG    1       31.062 -22.304   9.954  0.00  0.00    -0.191 NA
ENDBRANCH   6  15
BRANCH   1  17
ATOM     17  C   LIG    1       25.621 -22.229   7.238  0.00  0.00    +0.115 C 
BRANCH  17  19
ATOM     18  C   LIG    1       23.612 -23.764   6.859  0.00  0.00    +0.010 C 
ATOM     19  C   LIG    1       25.099 -23.506   6.509  0.00  0.00    +0.018 C 
BRANCH  19  20
ATOM     20  C   LIG    1       25.917 -24.770   6.876  0.00  0.00    +0.088 C 
BRANCH  20  21
ATOM     21  N   LIG    1       25.355 -26.039   6.364  0.00  0.00    -0.308 NA
ATOM     22  C   LIG    1       25.911 -27.183   7.086  0.00  0.00    +0.104 C 
ATOM     23  C   LIG    1       25.545 -26.188   4.921  0.00  0.00    +0.104 C 
ENDBRANCH  20  21
ENDBRANCH  19  20
ENDBRANCH  17  19
ENDBRANCH   1  17
TORSDOF 5
ENDMDL
MODEL 2
REMARK VINA RESULT:      -7.3      1.842      2.454
REMARK  Name = *****
REMARK                            x       y       z     vdW  Elec       q    Type
REMARK                         _______ _______ _______ _____ _____    ______ ____
ROOT
ATOM      1  N   LIG    1       27.191 -20.474   6.092  0.00  0.00    -0.298 N 
ATOM      2  C   LIG    1       28.511 -20.234   6.600  0.00  0.00    +0.049 A 
ATOM      3  C   LIG    1       29.309 -19.165   6.121  0.00  0.00    +0.034 A 
ATOM      4  C   LIG    1       30.640 -18.970   6.548  0.00  0.00    +0.018 A 
ATOM      5  C   LIG    1       31.208 -19.796   7.503  0.00  0.00    +0.020 A 
ATOM      6  C   LIG    1       30.446 -20.829   8.030  0.00  0.00    +0.054 A 
ATOM      7  S   LIG    1       28.733 -17.902   5.021  0.00  0.00    -0.086 S 
ATOM      8  C   LIG    1       27.163 -18.539   4.522  0.00  0.00    +0.034 A 
ATOM      9  C   LIG    1       26.495 -17.742   3.568  0.00  0.00    +0.017 A 
ATOM     10  C   LIG    1       25.286 -18.143   3.023  0.00  0.00    +0.001 A 
ATOM     11  C   LIG    1       24.779 -19.380   3.377  0.00  0.00    +0.002 A 
ATOM     12  C   LIG    1       25.440 -20.169   4.331  0.00  0.00    +0.024 A 
ATOM     13  C   LIG    1       29.128 -21.051   7.573  0.00  0.00    +0.043 A 
ATOM     14  C   LIG    1       26.607 -19.745   5.001  0.00  0.00    +0.048 A 
ENDROOT
BRANCH   6  15
ATOM     15  C   LIG    1       31.013 -21.654   9.062  0.00  0.00    +0.099 C 
ATOM     16  N   LIG    1       31.492 -22.318   9.875  0.00  0.00    -0.191 NA
ENDBRANCH   6  15
BRANCH   1  17
ATOM     17  C   LIG    1       26.326 -21.506   6.771  0.00  0.00    +0.115 C 
BRANCH  17  19
ATOM     18  C   LIG    1       25.742 -20.705   9.128  0.00  0.00    +0.010 C 
ATOM     19  C   LIG    1       25.203 -20.938   7.694  0.00  0.00    +0.018 C 
BRANCH  19  20
ATOM     20  C   LIG    1       23.976 -21.879   7.776  0.00  0.00    +0.088 C 
BRANCH  20  21
ATOM     21  N   LIG    1       23.596 -22.513   6.495  0.00  0.00    -0.308 NA
ATOM     22  C   LIG    1       22.582 -21.721   5.802  0.00  0.00    +0.104 C 
ATOM     23  C   LIG    1       23.151 -23.896   6.672  0.00  0.00    +0.104 C 
ENDBRANCH  20  21
ENDBRANCH  19  20
ENDBRANCH  17  19
ENDBRANCH   1  17
TORSDOF 5
ENDMDL
MODEL 3
REMARK VINA RESULT:      -6.7      2.176      6.069
REMARK  Name = *****
REMARK                            x       y       z     vdW  Elec       q    Type
REMARK                         _______ _______ _______ _____ _____    ______ ____
ROOT
ATOM      1  N   LIG    1       25.863 -21.414   5.660  0.00  0.00    -0.298 N 
ATOM      2  C   LIG    1       25.194 -20.338   4.986  0.00  0.00    +0.049 A 
ATOM      3  C   LIG    1       23.803 -20.381   4.714  0.00  0.00    +0.034 A 
ATOM      4  C   LIG    1       23.149 -19.371   3.977  0.00  0.00    +0.018 A 
ATOM      5  C   LIG    1       23.840 -18.259   3.528  0.00  0.00    +0.020 A 
ATOM      6  C   LIG    1       25.194 -18.156   3.810  0.00  0.00    +0.054 A 
ATOM      7  S   LIG    1       22.703 -21.627   5.327  0.00  0.00    -0.086 S 
ATOM      8  C   LIG    1       23.828 -22.813   5.997  0.00  0.00    +0.034 A 
ATOM      9  C   LIG    1       23.207 -23.973   6.507  0.00  0.00    +0.017 A 
ATOM     10  C   LIG    1       23.959 -25.027   7.000  0.00  0.00    +0.001 A 
ATOM     11  C   LIG    1       25.337 -24.954   6.915  0.00  0.00    +0.002 A 
ATOM     12  C   LIG    1       25.955 -23.798   6.413  0.00  0.00    +0.024 A 
ATOM     13  C   LIG    1       25.860 -19.186   4.512  0.00  0.00    +0.043 A 
ATOM     14  C   LIG    1       25.231 -22.653   6.016  0.00  0.00    +0.048 A 
ENDROOT
BRANCH   6  15
ATOM     15  C   LIG    1       25.903 -16.976   3.394  0.00  0.00    +0.099 C 
ATOM     16  N   LIG    1       26.495 -16.038   3.074  0.00  0.00    -0.191 NA
ENDBRANCH   6  15
BRANCH   1  17
ATOM     17  C   LIG    1       27.298 -21.227   6.084  0.00  0.00    +0.115 C 
BRANCH  17  19
ATOM     18  C   LIG    1       26.213 -20.450   8.265  0.00  0.00    +0.010 C 
ATOM     19  C   LIG    1       27.519 -20.959   7.605  0.00  0.00    +0.018 C 
BRANCH  19  20
ATOM     20  C   LIG    1       28.638 -19.920   7.864  0.00  0.00    +0.088 C 
BRANCH  20  21
ATOM     21  N   LIG    1       29.986 -20.342   7.427  0.00  0.00    -0.308 NA
ATOM     22  C   LIG    1       30.756 -20.874   8.550  0.00  0.00    +0.104 C 
ATOM     23  C   LIG    1       30.715 -19.263   6.757  0.00  0.00    +0.104 C 
ENDBRANCH  20  21
ENDBRANCH  19  20
ENDBRANCH  17  19
ENDBRANCH   1  17
TORSDOF 5
ENDMDL
MODEL 4
REMARK VINA RESULT:      -6.4      1.407      5.116
REMARK  Name = *****
REMARK                            x       y       z     vdW  Elec       q    Type
REMARK                         _______ _______ _______ _____ _____    ______ ____
ROOT
ATOM      1  N   LIG    1       26.220 -21.406   6.723  0.00  0.00    -0.298 N 
ATOM      2  C   LIG    1       25.389 -20.746   5.757  0.00  0.00    +0.049 A 
ATOM      3  C   LIG    1       25.890 -19.709   4.929  0.00  0.00    +0.034 A 
ATOM      4  C   LIG    1       25.063 -18.993   4.037  0.00  0.00    +0.018 A 
ATOM      5  C   LIG    1       23.725 -19.315   3.896  0.00  0.00    +0.020 A 
ATOM      6  C   LIG    1       23.204 -20.352   4.656  0.00  0.00    +0.054 A 
ATOM      7  S   LIG    1       27.596 -19.244   4.833  0.00  0.00    -0.086 S 
ATOM      8  C   LIG    1       28.299 -20.142   6.182  0.00  0.00    +0.034 A 
ATOM      9  C   LIG    1       29.674 -19.898   6.383  0.00  0.00    +0.017 A 
ATOM     10  C   LIG    1       30.353 -20.472   7.446  0.00  0.00    +0.001 A 
ATOM     11  C   LIG    1       29.639 -21.232   8.355  0.00  0.00    +0.002 A 
ATOM     12  C   LIG    1       28.273 -21.479   8.151  0.00  0.00    +0.024 A 
ATOM     13  C   LIG    1       24.019 -21.043   5.579  0.00  0.00    +0.043 A 
ATOM     14  C   LIG    1       27.571 -21.017   7.017  0.00  0.00    +0.048 A 
ENDROOT
BRANCH   6  15
ATOM     15  C   LIG    1       21.827 -20.726   4.471  0.00  0.00    +0.099 C 
ATOM     16  N   LIG    1       20.725 -21.018   4.296  0.00  0.00    -0.191 NA
ENDBRANCH   6  15
BRANCH   1  17
ATOM     17  C   LIG    1       25.682 -22.620   7.437  0.00  0.00    +0.115 C 
BRANCH  17  19
ATOM     18  C   LIG    1       23.716 -24.103   6.749  0.00  0.00    +0.010 C 
ATOM     19  C   LIG    1       25.215 -23.789   6.514  0.00  0.00    +0.018 C 
BRANCH  19  20
ATOM     20  C   LIG    1       26.032 -25.085   6.745  0.00  0.00    +0.088 C 
BRANCH  20  21
ATOM     21  N   LIG    1       25.395 -26.316   6.231  0.00  0.00    -0.308 NA
ATOM     22  C   LIG    1       25.686 -27.456   7.100  0.00  0.00    +0.104 C 
ATOM     23  C   LIG    1       25.777 -26.602   4.847  0.00  0.00    +0.104 C 
ENDBRANCH  20  21
ENDBRANCH  19  20
ENDBRANCH  17  19
ENDBRANCH   1  17
TORSDOF 5
ENDMDL
MODEL 5
REMARK VINA RESULT:      -6.2      5.367      9.689
REMARK  Name = *****
REMARK                            x       y       z     vdW  Elec       q    Type
REMARK                         _______ _______ _______ _____ _____    ______ ____
ROOT
ATOM      1  N   LIG    1       26.154 -29.599   8.511  0.00  0.00    -0.298 N 
ATOM      2  C   LIG    1       25.625 -28.659   7.565  0.00  0.00    +0.049 A 
ATOM      3  C   LIG    1       24.761 -29.065   6.517  0.00  0.00    +0.034 A 
ATOM      4  C   LIG    1       24.303 -28.166   5.529  0.00  0.00    +0.018 A 
ATOM      5  C   LIG    1       24.642 -26.825   5.577  0.00  0.00    +0.020 A 
ATOM      6  C   LIG    1       25.451 -26.378   6.611  0.00  0.00    +0.054 A 
ATOM      7  S   LIG    1       24.078 -30.691   6.357  0.00  0.00    -0.086 S 
ATOM      8  C   LIG    1       24.990 -31.593   7.572  0.00  0.00    +0.034 A 
ATOM      9  C   LIG    1       24.686 -32.970   7.617  0.00  0.00    +0.017 A 
ATOM     10  C   LIG    1       25.369 -33.825   8.466  0.00  0.00    +0.001 A 
ATOM     11  C   LIG    1       26.410 -33.316   9.221  0.00  0.00    +0.002 A 
ATOM     12  C   LIG    1       26.708 -31.945   9.182  0.00  0.00    +0.024 A 
ATOM     13  C   LIG    1       25.944 -27.283   7.577  0.00  0.00    +0.043 A 
ATOM     14  C   LIG    1       25.959 -31.019   8.425  0.00  0.00    +0.048 A 
ENDROOT
BRANCH   6  15
ATOM     15  C   LIG    1       25.759 -24.975   6.695  0.00  0.00    +0.099 C 
ATOM     16  N   LIG    1       25.988 -23.848   6.783  0.00  0.00    -0.191 NA
ENDBRANCH   6  15
BRANCH   1  17
ATOM     17  C   LIG    1       26.912 -29.080   9.707  0.00  0.00    +0.115 C 
BRANCH  17  19
ATOM     18  C   LIG    1       26.870 -27.633  11.814  0.00  0.00    +0.010 C 
ATOM     19  C   LIG    1       26.031 -28.534  10.873  0.00  0.00    +0.018 C 
BRANCH  19  20
ATOM     20  C   LIG    1       25.398 -29.669  11.715  0.00  0.00    +0.088 C 
BRANCH  20  21
ATOM     21  N   LIG    1       24.000 -29.996  11.359  0.00  0.00    -0.308 NA
ATOM     22  C   LIG    1       23.061 -29.264  12.207  0.00  0.00    +0.104 C 
ATOM     23  C   LIG    1       23.738 -31.436  11.407  0.00  0.00    +0.104 C 
ENDBRANCH  20  21
ENDBRANCH  19  20
ENDBRANCH  17  19
ENDBRANCH   1  17
TORSDOF 5
ENDMDL
MODEL 6
REMARK VINA RESULT:      -6.0      2.165      5.171
REMARK  Name = *****
REMARK                            x       y       z     vdW  Elec       q    Type
REMARK                         _______ _______ _______ _____ _____    ______ ____
ROOT
ATOM      1  N   LIG    1       24.630 -22.734   6.864  0.00  0.00    -0.298 N 
ATOM      2  C   LIG    1       25.004 -24.036   6.391  0.00  0.00    +0.049 A 
ATOM      3  C   LIG    1       24.895 -24.390   5.023  0.00  0.00    +0.034 A 
ATOM      4  C   LIG    1       25.177 -25.692   4.558  0.00  0.00    +0.018 A 
ATOM      5  C   LIG    1       25.626 -26.674   5.424  0.00  0.00    +0.020 A 
ATOM      6  C   LIG    1       25.789 -26.357   6.765  0.00  0.00    +0.054 A 
ATOM      7  S   LIG    1       24.492 -23.253   3.726  0.00  0.00    -0.086 S 
ATOM      8  C   LIG    1       24.000 -21.820   4.633  0.00  0.00    +0.034 A 
ATOM      9  C   LIG    1       23.553 -20.752   3.826  0.00  0.00    +0.017 A 
ATOM     10  C   LIG    1       23.065 -19.585   4.392  0.00  0.00    +0.001 A 
ATOM     11  C   LIG    1       22.953 -19.513   5.769  0.00  0.00    +0.002 A 
ATOM     12  C   LIG    1       23.404 -20.573   6.571  0.00  0.00    +0.024 A 
ATOM     13  C   LIG    1       25.468 -25.066   7.240  0.00  0.00    +0.043 A 
ATOM     14  C   LIG    1       24.021 -21.727   6.042  0.00  0.00    +0.048 A 
ENDROOT
BRANCH   6  15
ATOM     15  C   LIG    1       26.308 -27.358   7.657  0.00  0.00    +0.099 C 
ATOM     16  N   LIG    1       26.750 -28.158   8.361  0.00  0.00    -0.191 NA
ENDBRANCH   6  15
BRANCH   1  17
ATOM     17  C   LIG    1       24.945 -22.360   8.291  0.00  0.00    +0.115 C 
BRANCH  17  19
ATOM     18  C   LIG    1       26.187 -20.235   8.983  0.00  0.00    +0.010 C 
ATOM     19  C   LIG    1       26.343 -21.705   8.520  0.00  0.00    +0.018 C 
BRANCH  19  20
ATOM     20  C   LIG    1       27.221 -21.729   7.244  0.00  0.00    +0.088 C 
BRANCH  20  21
ATOM     21  N   LIG    1       27.744 -20.410   6.829  0.00  0.00    -0.308 NA
ATOM     22  C   LIG    1       27.203 -20.020   5.528  0.00  0.00    +0.104 C 
ATOM     23  C   LIG    1       29.207 -20.372   6.820  0.00  0.00    +0.104 C 
ENDBRANCH  20  21
ENDBRANCH  19  20
ENDBRANCH  17  19
ENDBRANCH   1  17
TORSDOF 5
ENDMDL
MODEL 7
REMARK VINA RESULT:      -5.9      5.362      9.829
REMARK  Name = *****
REMARK                            x       y       z     vdW  Elec       q    Type
REMARK                         _______ _______ _______ _____ _____    ______ ____
ROOT
ATOM      1  N   LIG    1       26.133 -29.608   8.499  0.00  0.00    -0.298 N 
ATOM      2  C   LIG    1       25.600 -28.656   7.568  0.00  0.00    +0.049 A 
ATOM      3  C   LIG    1       24.716 -29.045   6.529  0.00  0.00    +0.034 A 
ATOM      4  C   LIG    1       24.253 -28.134   5.555  0.00  0.00    +0.018 A 
ATOM      5  C   LIG    1       24.607 -26.797   5.607  0.00  0.00    +0.020 A 
ATOM      6  C   LIG    1       25.436 -26.366   6.633  0.00  0.00    +0.054 A 
ATOM      7  S   LIG    1       24.014 -30.663   6.369  0.00  0.00    -0.086 S 
ATOM      8  C   LIG    1       24.934 -31.583   7.563  0.00  0.00    +0.034 A 
ATOM      9  C   LIG    1       24.616 -32.957   7.603  0.00  0.00    +0.017 A 
ATOM     10  C   LIG    1       25.302 -33.825   8.436  0.00  0.00    +0.001 A 
ATOM     11  C   LIG    1       26.360 -33.332   9.179  0.00  0.00    +0.002 A 
ATOM     12  C   LIG    1       26.672 -31.965   9.145  0.00  0.00    +0.024 A 
ATOM     13  C   LIG    1       25.934 -27.283   7.585  0.00  0.00    +0.043 A 
ATOM     14  C   LIG    1       25.921 -31.025   8.406  0.00  0.00    +0.048 A 
ENDROOT
BRANCH   6  15
ATOM     15  C   LIG    1       25.761 -24.968   6.723  0.00  0.00    +0.099 C 
ATOM     16  N   LIG    1       26.019 -23.848   6.822  0.00  0.00    -0.191 NA
ENDBRANCH   6  15
BRANCH   1  17
ATOM     17  C   LIG    1       26.914 -29.106   9.687  0.00  0.00    +0.115 C 
BRANCH  17  19
ATOM     18  C   LIG    1       26.713 -27.513  11.676  0.00  0.00    +0.010 C 
ATOM     19  C   LIG    1       26.059 -28.701  10.929  0.00  0.00    +0.018 C 
BRANCH  19  20
ATOM     20  C   LIG    1       25.880 -29.872  11.927  0.00  0.00    +0.088 C 
BRANCH  20  21
ATOM     21  N   LIG    1       26.076 -29.509  13.347  0.00  0.00    -0.308 NA
ATOM     22  C   LIG    1       27.049 -30.397  13.982  0.00  0.00    +0.104 C 
ATOM     23  C   LIG    1       24.818 -29.490  14.094  0.00  0.00    +0.104 C 
ENDBRANCH  20  21
ENDBRANCH  19  20
ENDBRANCH  17  19
ENDBRANCH   1  17
TORSDOF 5
ENDMDL
MODEL 8
REMARK VINA RESULT:      -5.8      6.005     10.402
REMARK  Name = *****
REMARK                            x       y       z     vdW  Elec       q    Type
REMARK                         _______ _______ _______ _____ _____    ______ ____
ROOT
ATOM      1  N   LIG    1       24.867 -30.672   7.442  0.00  0.00    -0.298 N 
ATOM      2  C   LIG    1       24.824 -30.787   8.872  0.00  0.00    +0.049 A 
ATOM      3  C   LIG    1       25.631 -31.721   9.568  0.00  0.00    +0.034 A 
ATOM      4  C   LIG    1       25.535 -31.904  10.965  0.00  0.00    +0.018 A 
ATOM      5  C   LIG    1       24.675 -31.132  11.725  0.00  0.00    +0.020 A 
ATOM      6  C   LIG    1       23.898 -30.175  11.088  0.00  0.00    +0.054 A 
ATOM      7  S   LIG    1       26.905 -32.696   8.818  0.00  0.00    -0.086 S 
ATOM      8  C   LIG    1       26.625 -32.406   7.098  0.00  0.00    +0.034 A 
ATOM      9  C   LIG    1       27.481 -33.132   6.243  0.00  0.00    +0.017 A 
ATOM     10  C   LIG    1       27.338 -33.068   4.867  0.00  0.00    +0.001 A 
ATOM     11  C   LIG    1       26.290 -32.334   4.344  0.00  0.00    +0.002 A 
ATOM     12  C   LIG    1       25.442 -31.606   5.193  0.00  0.00    +0.024 A 
ATOM     13  C   LIG    1       23.962 -30.018   9.686  0.00  0.00    +0.043 A 
ATOM     14  C   LIG    1       25.627 -31.544   6.591  0.00  0.00    +0.048 A 
ENDROOT
BRANCH   6  15
ATOM     15  C   LIG    1       23.044 -29.332  11.882  0.00  0.00    +0.099 C 
ATOM     16  N   LIG    1       22.339 -28.676  12.516  0.00  0.00    -0.191 NA
ENDBRANCH   6  15
BRANCH   1  17
ATOM     17  C   LIG    1       24.128 -29.537   6.780  0.00  0.00    +0.115 C 
BRANCH  17  19
ATOM     18  C   LIG    1       25.839 -27.781   7.504  0.00  0.00    +0.010 C 
ATOM     19  C   LIG    1       25.014 -28.339   6.318  0.00  0.00    +0.018 C 
BRANCH  19  20
ATOM     20  C   LIG    1       24.175 -27.183   5.716  0.00  0.00    +0.088 C 
BRANCH  20  21
ATOM     21  N   LIG    1       24.744 -25.834   5.922  0.00  0.00    -0.308 NA
ATOM     22  C   LIG    1       23.753 -24.935   6.513  0.00  0.00    +0.104 C 
ATOM     23  C   LIG    1       25.293 -25.270   4.689  0.00  0.00    +0.104 C 
ENDBRANCH  20  21
ENDBRANCH  19  20
ENDBRANCH  17  19
ENDBRANCH   1  17
TORSDOF 5
ENDMDL
MODEL 9
REMARK VINA RESULT:      -5.5      8.967     10.394
REMARK  Name = *****
REMARK                            x       y       z     vdW  Elec       q    Type
REMARK                         _______ _______ _______ _____ _____    ______ ____
ROOT
ATOM      1  N   LIG    1       22.698 -28.780  12.989  0.00  0.00    -0.298 N 
ATOM      2  C   LIG    1       24.047 -28.312  12.849  0.00  0.00    +0.049 A 
ATOM      3  C   LIG    1       24.482 -27.105  13.452  0.00  0.00    +0.034 A 
ATOM      4  C   LIG    1       25.781 -26.589  13.251  0.00  0.00    +0.018 A 
ATOM      5  C   LIG    1       26.709 -27.278  12.490  0.00  0.00    +0.020 A 
ATOM      6  C   LIG    1       26.337 -28.486  11.917  0.00  0.00    +0.054 A 
ATOM      7  S   LIG    1       23.515 -26.149  14.587  0.00  0.00    -0.086 S 
ATOM      8  C   LIG    1       21.929 -26.915  14.453  0.00  0.00    +0.034 A 
ATOM      9  C   LIG    1       20.922 -26.295  15.223  0.00  0.00    +0.017 A 
ATOM     10  C   LIG    1       19.609 -26.734  15.168  0.00  0.00    +0.001 A 
ATOM     11  C   LIG    1       19.286 -27.748  14.285  0.00  0.00    +0.002 A 
ATOM     12  C   LIG    1       20.289 -28.369  13.524  0.00  0.00    +0.024 A 
ATOM     13  C   LIG    1       25.026 -28.984  12.082  0.00  0.00    +0.043 A 
ATOM     14  C   LIG    1       21.656 -28.037  13.640  0.00  0.00    +0.048 A 
ENDROOT
BRANCH   6  15
ATOM     15  C   LIG    1       27.316 -29.232  11.171  0.00  0.00    +0.099 C 
ATOM     16  N   LIG    1       28.105 -29.845  10.596  0.00  0.00    -0.191 NA
ENDBRANCH   6  15
BRANCH   1  17
ATOM     17  C   LIG    1       22.349 -30.157  12.484  0.00  0.00    +0.115 C 
BRANCH  17  19
ATOM     18  C   LIG    1       20.557 -30.656  10.729  0.00  0.00    +0.010 C 
ATOM     19  C   LIG    1       22.035 -30.252  10.958  0.00  0.00    +0.018 C 
BRANCH  19  20
ATOM     20  C   LIG    1       22.943 -31.277  10.233  0.00  0.00    +0.088 C 
BRANCH  20  21
ATOM     21  N   LIG    1       23.153 -31.007   8.794  0.00  0.00    -0.308 NA
ATOM     22  C   LIG    1       23.458 -32.241   8.072  0.00  0.00    +0.104 C 
ATOM     23  C   LIG    1       24.187 -29.997   8.565  0.00  0.00    +0.104 C 
ENDBRANCH  20  21
ENDBRANCH  19  20
ENDBRANCH  17  19
ENDBRANCH   1  17
TORSDOF 5
ENDMDL
