MODEL 1
REMARK VINA RESULT:      -6.8      0.000      0.000
REMARK  Name = *****
REMARK                            x       y       z     vdW  Elec       q    Type
REMARK                         _______ _______ _______ _____ _____    ______ ____
ROOT
ATOM      1  C   LIG    1       21.400 -18.763   4.077  0.00  0.00    +0.105 C 
ATOM      2  N   LIG    1       22.571 -18.035   3.595  0.00  0.00    -0.297 NA
ENDROOT
BRANCH   2   3
ATOM      3  C   LIG    1       23.812 -18.831   3.615  0.00  0.00    +0.120 C 
BRANCH   3   4
ATOM      4  C   LIG    1       23.988 -19.807   4.779  0.00  0.00    -0.026 A 
ATOM      5  C   LIG    1       25.249 -20.137   5.360  0.00  0.00    -0.013 A 
ATOM      6  C   LIG    1       25.285 -21.034   6.463  0.00  0.00    -0.018 A 
ATOM      7  C   LIG    1       26.511 -21.381   7.062  0.00  0.00    +0.008 A 
ATOM      8  C   LIG    1       27.709 -20.854   6.589  0.00  0.00    +0.001 A 
ATOM      9  C   LIG    1       27.695 -19.967   5.526  0.00  0.00    +0.001 A 
ATOM     10  C   LIG    1       24.098 -21.570   6.974  0.00  0.00    +0.008 A 
ATOM     11  C   LIG    1       22.869 -21.221   6.430  0.00  0.00    +0.001 A 
ATOM     12  C   LIG    1       26.483 -19.609   4.918  0.00  0.00    +0.009 A 
ATOM     13  C   LIG    1       22.816 -20.343   5.350  0.00  0.00    +0.005 A 
ENDBRANCH   3   4
ENDBRANCH   2   3
BRANCH   2  14
ATOM     14  C   LIG    1       22.745 -16.746   4.281  0.00  0.00    +0.111 C 
BRANCH  14  15
ATOM     15  C   LIG    1       24.086 -16.066   4.146  0.00  0.00    -0.011 C 
ATOM     16  C   LIG    1       24.261 -14.747   3.966  0.00  0.00    +0.005 C 
BRANCH  16  17
ATOM     17  C   LIG    1       25.599 -14.149   3.951  0.00  0.00    -0.025 A 
ATOM     18  C   LIG    1       26.299 -13.996   2.750  0.00  0.00    +0.008 A 
ATOM     19  C   LIG    1       27.595 -13.470   2.754  0.00  0.00    +0.001 A 
ATOM     20  C   LIG    1       28.194 -13.097   3.956  0.00  0.00    +0.000 A 
ATOM     21  C   LIG    1       27.498 -13.237   5.155  0.00  0.00    +0.001 A 
ATOM     22  C   LIG    1       26.203 -13.761   5.152  0.00  0.00    +0.008 A 
ENDBRANCH  16  17
ENDBRANCH  14  15
ENDBRANCH   2  14
TORSDOF 5
ENDMDL
MODEL 2
REMARK VINA RESULT:      -6.6      1.114      1.573
REMARK  Name = *****
REMARK                            x       y       z     vdW  Elec       q    Type
REMARK                         _______ _______ _______ _____ _____    ______ ____
ROOT
ATOM      1  C   LIG    1       20.611 -18.895   3.970  0.00  0.00    +0.105 C 
ATOM      2  N   LIG    1       21.973 -18.435   3.715  0.00  0.00    -0.297 NA
ENDROOT
BRANCH   2   3
ATOM      3  C   LIG    1       22.932 -19.529   3.474  0.00  0.00    +0.120 C 
BRANCH   3   4
ATOM      4  C   LIG    1       23.508 -20.226   4.708  0.00  0.00    -0.026 A 
ATOM      5  C   LIG    1       24.880 -20.159   5.093  0.00  0.00    -0.013 A 
ATOM      6  C   LIG    1       25.294 -20.822   6.281  0.00  0.00    -0.018 A 
ATOM      7  C   LIG    1       26.639 -20.777   6.694  0.00  0.00    +0.008 A 
ATOM      8  C   LIG    1       27.589 -20.083   5.950  0.00  0.00    +0.001 A 
ATOM      9  C   LIG    1       27.204 -19.417   4.799  0.00  0.00    +0.001 A 
ATOM     10  C   LIG    1       24.363 -21.516   7.062  0.00  0.00    +0.008 A 
ATOM     11  C   LIG    1       23.022 -21.551   6.703  0.00  0.00    +0.001 A 
ATOM     12  C   LIG    1       25.868 -19.451   4.374  0.00  0.00    +0.009 A 
ATOM     13  C   LIG    1       22.600 -20.906   5.544  0.00  0.00    +0.005 A 
ENDBRANCH   3   4
ENDBRANCH   2   3
BRANCH   2  14
ATOM     14  C   LIG    1       22.453 -17.516   4.758  0.00  0.00    +0.111 C 
BRANCH  14  15
ATOM     15  C   LIG    1       22.977 -16.173   4.309  0.00  0.00    -0.011 C 
ATOM     16  C   LIG    1       24.277 -15.862   4.183  0.00  0.00    +0.005 C 
BRANCH  16  17
ATOM     17  C   LIG    1       24.703 -14.570   3.638  0.00  0.00    -0.025 A 
ATOM     18  C   LIG    1       23.816 -13.491   3.583  0.00  0.00    +0.008 A 
ATOM     19  C   LIG    1       24.219 -12.277   3.017  0.00  0.00    +0.001 A 
ATOM     20  C   LIG    1       25.507 -12.140   2.502  0.00  0.00    +0.000 A 
ATOM     21  C   LIG    1       26.400 -13.208   2.563  0.00  0.00    +0.001 A 
ATOM     22  C   LIG    1       25.999 -14.420   3.131  0.00  0.00    +0.008 A 
ENDBRANCH  16  17
ENDBRANCH  14  15
ENDBRANCH   2  14
TORSDOF 5
ENDMDL
MODEL 3
REMARK VINA RESULT:      -6.3      1.163      2.048
REMARK  Name = *****
REMARK                            x       y       z     vdW  Elec       q    Type
REMARK                         _______ _______ _______ _____ _____    ______ ____
ROOT
ATOM      1  C   LIG    1       22.276 -20.176   5.233  0.00  0.00    +0.105 C 
ATOM      2  N   LIG    1       22.697 -19.217   4.216  0.00  0.00    -0.297 NA
ENDROOT
BRANCH   2   3
ATOM      3  C   LIG    1       24.085 -19.412   3.757  0.00  0.00    +0.120 C 
BRANCH   3   4
ATOM      4  C   LIG    1       25.075 -19.981   4.775  0.00  0.00    -0.026 A 
ATOM      5  C   LIG    1       26.400 -19.486   4.961  0.00  0.00    -0.013 A 
ATOM      6  C   LIG    1       27.220 -20.074   5.963  0.00  0.00    -0.018 A 
ATOM      7  C   LIG    1       28.532 -19.613   6.175  0.00  0.00    +0.008 A 
ATOM      8  C   LIG    1       29.052 -18.572   5.413  0.00  0.00    +0.001 A 
ATOM      9  C   LIG    1       28.266 -17.975   4.442  0.00  0.00    +0.001 A 
ATOM     10  C   LIG    1       26.723 -21.113   6.760  0.00  0.00    +0.008 A 
ATOM     11  C   LIG    1       25.422 -21.569   6.600  0.00  0.00    +0.001 A 
ATOM     12  C   LIG    1       26.956 -18.422   4.218  0.00  0.00    +0.009 A 
ATOM     13  C   LIG    1       24.605 -21.003   5.625  0.00  0.00    +0.005 A 
ENDBRANCH   3   4
ENDBRANCH   2   3
BRANCH   2  14
ATOM     14  C   LIG    1       22.455 -17.826   4.628  0.00  0.00    +0.111 C 
BRANCH  14  15
ATOM     15  C   LIG    1       23.294 -16.755   3.975  0.00  0.00    -0.011 C 
ATOM     16  C   LIG    1       23.456 -15.511   4.455  0.00  0.00    +0.005 C 
BRANCH  16  17
ATOM     17  C   LIG    1       24.374 -14.562   3.819  0.00  0.00    -0.025 A 
ATOM     18  C   LIG    1       23.895 -13.378   3.248  0.00  0.00    +0.008 A 
ATOM     19  C   LIG    1       24.773 -12.503   2.601  0.00  0.00    +0.001 A 
ATOM     20  C   LIG    1       26.131 -12.809   2.520  0.00  0.00    +0.000 A 
ATOM     21  C   LIG    1       26.617 -13.981   3.096  0.00  0.00    +0.001 A 
ATOM     22  C   LIG    1       25.740 -14.855   3.745  0.00  0.00    +0.008 A 
ENDBRANCH  16  17
ENDBRANCH  14  15
ENDBRANCH   2  14
TORSDOF 5
ENDMDL
MODEL 4
REMARK VINA RESULT:      -4.8      1.330      2.607
REMARK  Name = *****
REMARK                            x       y       z     vdW  Elec       q    Type
REMARK                         _______ _______ _______ _____ _____    ______ ____
ROOT
ATOM      1  C   LIG    1       20.930 -20.066   4.273  0.00  0.00    +0.105 C 
ATOM      2  N   LIG    1       22.159 -19.279   4.328  0.00  0.00    -0.297 NA
ENDROOT
BRANCH   2   3
ATOM      3  C   LIG    1       23.242 -19.924   5.094  0.00  0.00    +0.120 C 
BRANCH   3   4
ATOM      4  C   LIG    1       24.672 -19.492   4.765  0.00  0.00    -0.026 A 
ATOM      5  C   LIG    1       25.831 -20.009   5.417  0.00  0.00    -0.013 A 
ATOM      6  C   LIG    1       27.113 -19.555   5.002  0.00  0.00    -0.018 A 
ATOM      7  C   LIG    1       28.279 -20.043   5.621  0.00  0.00    +0.008 A 
ATOM      8  C   LIG    1       28.201 -20.978   6.648  0.00  0.00    +0.001 A 
ATOM      9  C   LIG    1       26.963 -21.445   7.057  0.00  0.00    +0.001 A 
ATOM     10  C   LIG    1       27.229 -18.626   3.960  0.00  0.00    +0.008 A 
ATOM     11  C   LIG    1       26.102 -18.151   3.304  0.00  0.00    +0.001 A 
ATOM     12  C   LIG    1       25.792 -20.970   6.451  0.00  0.00    +0.009 A 
ATOM     13  C   LIG    1       24.839 -18.586   3.697  0.00  0.00    +0.005 A 
ENDBRANCH   3   4
ENDBRANCH   2   3
BRANCH   2  14
ATOM     14  C   LIG    1       21.917 -17.903   4.790  0.00  0.00    +0.111 C 
BRANCH  14  15
ATOM     15  C   LIG    1       22.691 -16.800   4.111  0.00  0.00    -0.011 C 
ATOM     16  C   LIG    1       23.124 -15.683   4.719  0.00  0.00    +0.005 C 
BRANCH  16  17
ATOM     17  C   LIG    1       23.962 -14.708   4.015  0.00  0.00    -0.025 A 
ATOM     18  C   LIG    1       25.261 -15.039   3.616  0.00  0.00    +0.008 A 
ATOM     19  C   LIG    1       26.069 -14.085   2.989  0.00  0.00    +0.001 A 
ATOM     20  C   LIG    1       25.583 -12.798   2.762  0.00  0.00    +0.000 A 
ATOM     21  C   LIG    1       24.286 -12.465   3.147  0.00  0.00    +0.001 A 
ATOM     22  C   LIG    1       23.477 -13.418   3.771  0.00  0.00    +0.008 A 
ENDBRANCH  16  17
ENDBRANCH  14  15
ENDBRANCH   2  14
TORSDOF 5
ENDMDL
