MODEL 1
REMARK VINA RESULT:       1.3      0.000      0.000
REMARK  Name = *****
REMARK                            x       y       z     vdW  Elec       q    Type
REMARK                         _______ _______ _______ _____ _____    ______ ____
ROOT
ATOM      1  N   LIG    1       23.038 -17.714   4.996  0.00  0.00    -0.302 NA
ATOM      2  C   LIG    1       24.165 -17.297   4.154  0.00  0.00    +0.085 C 
ATOM      3  C   LIG    1       23.797 -16.291   3.064  0.00  0.00    +0.025 C 
ATOM      4  C   LIG    1       23.143 -15.033   3.650  0.00  0.00    +0.044 C 
ATOM      5  C   LIG    1       21.990 -15.440   4.583  0.00  0.00    +0.025 C 
ATOM      6  C   LIG    1       22.370 -16.541   5.587  0.00  0.00    +0.085 C 
ENDROOT
BRANCH   4   7
ATOM      7  C   LIG    1       24.152 -14.099   4.276  0.00  0.00    +0.095 A 
ATOM      8  C   LIG    1       25.544 -13.985   3.988  0.00  0.00    +0.045 A 
ATOM      9  C   LIG    1       25.982 -12.991   4.848  0.00  0.00    +0.170 A 
ATOM     10  C   LIG    1       27.290 -12.530   4.929  0.00  0.00    +0.088 A 
ATOM     11  C   LIG    1       28.194 -13.139   4.065  0.00  0.00    +0.127 A 
ATOM     12  C   LIG    1       27.811 -14.146   3.178  0.00  0.00    +0.039 A 
ATOM     13  F   LIG    1       29.475 -12.746   4.085  0.00  0.00    -0.205 F 
ATOM     14  O   LIG    1       24.937 -12.546   5.589  0.00  0.00    -0.354 OA
ATOM     15  C   LIG    1       26.478 -14.588   3.125  0.00  0.00    +0.016 A 
ATOM     16  N   LIG    1       23.793 -13.232   5.235  0.00  0.00    -0.082 NA
ENDBRANCH   4   7
BRANCH   1  17
ATOM     17  C   LIG    1       22.078 -18.650   4.381  0.00  0.00    +0.089 C 
BRANCH  17  18
ATOM     18  C   LIG    1       22.669 -20.034   4.040  0.00  0.00    +0.058 C 
BRANCH  18  21
ATOM     19  C   LIG    1       22.772 -21.540   6.703  0.00  0.00    +0.066 C 
ATOM     20  C   LIG    1       23.991 -21.014   5.993  0.00  0.00    +0.049 C 
ATOM     21  C   LIG    1       23.922 -20.375   4.811  0.00  0.00    +0.039 C 
ATOM     22  C   LIG    1       25.201 -19.876   4.236  0.00  0.00    +0.258 C 
ATOM     23  O   LIG    1       25.225 -19.399   3.108  0.00  0.00    -0.267 OA
ATOM     24  N   LIG    1       26.322 -19.998   5.041  0.00  0.00    -0.296 N 
ATOM     25  C   LIG    1       27.584 -19.551   4.459  0.00  0.00    +0.126 C 
ATOM     26  C   LIG    1       28.738 -19.462   5.443  0.00  0.00    +0.022 C 
ATOM     27  C   LIG    1       28.796 -20.741   6.257  0.00  0.00    +0.009 C 
ATOM     28  C   LIG    1       27.509 -20.877   7.046  0.00  0.00    +0.074 C 
ATOM     29  C   LIG    1       26.256 -20.719   6.204  0.00  0.00    +0.113 C 
ATOM     30  N   LIG    1       25.162 -21.224   6.676  0.00  0.00    -0.238 NA
ENDBRANCH  18  21
ENDBRANCH  17  18
ENDBRANCH   1  17
TORSDOF 4
ENDMDL
MODEL 2
REMARK VINA RESULT:       1.8      2.318      6.601
REMARK  Name = *****
REMARK                            x       y       z     vdW  Elec       q    Type
REMARK                         _______ _______ _______ _____ _____    ______ ____
ROOT
ATOM      1  N   LIG    1       23.232 -16.306   4.300  0.00  0.00    -0.302 NA
ATOM      2  C   LIG    1       22.438 -17.163   5.187  0.00  0.00    +0.085 C 
ATOM      3  C   LIG    1       21.983 -18.477   4.551  0.00  0.00    +0.025 C 
ATOM      4  C   LIG    1       23.170 -19.295   4.028  0.00  0.00    +0.044 C 
ATOM      5  C   LIG    1       24.055 -18.407   3.137  0.00  0.00    +0.025 C 
ATOM      6  C   LIG    1       24.391 -17.044   3.767  0.00  0.00    +0.085 C 
ENDROOT
BRANCH   4   7
ATOM      7  C   LIG    1       23.914 -20.003   5.137  0.00  0.00    +0.095 A 
ATOM      8  C   LIG    1       25.324 -20.104   5.326  0.00  0.00    +0.045 A 
ATOM      9  C   LIG    1       25.452 -20.860   6.479  0.00  0.00    +0.170 A 
ATOM     10  C   LIG    1       26.660 -21.223   7.062  0.00  0.00    +0.088 A 
ATOM     11  C   LIG    1       27.801 -20.772   6.405  0.00  0.00    +0.127 A 
ATOM     12  C   LIG    1       27.733 -20.007   5.240  0.00  0.00    +0.039 A 
ATOM     13  F   LIG    1       29.003 -21.081   6.909  0.00  0.00    -0.205 F 
ATOM     14  O   LIG    1       24.219 -21.185   6.943  0.00  0.00    -0.354 OA
ATOM     15  C   LIG    1       26.493 -19.661   4.679  0.00  0.00    +0.016 A 
ATOM     16  N   LIG    1       23.257 -20.651   6.110  0.00  0.00    -0.082 NA
ENDBRANCH   4   7
BRANCH   1  17
ATOM     17  C   LIG    1       22.488 -15.598   3.242  0.00  0.00    +0.089 C 
BRANCH  17  18
ATOM     18  C   LIG    1       23.059 -14.210   2.883  0.00  0.00    +0.058 C 
BRANCH  18  21
ATOM     19  C   LIG    1       23.091 -13.127   5.746  0.00  0.00    +0.066 C 
ATOM     20  C   LIG    1       24.331 -13.331   4.915  0.00  0.00    +0.049 C 
ATOM     21  C   LIG    1       24.292 -13.830   3.667  0.00  0.00    +0.039 C 
ATOM     22  C   LIG    1       25.588 -13.947   2.945  0.00  0.00    +0.258 C 
ATOM     23  O   LIG    1       25.640 -14.508   1.857  0.00  0.00    -0.267 OA
ATOM     24  N   LIG    1       26.693 -13.401   3.579  0.00  0.00    -0.296 N 
ATOM     25  C   LIG    1       27.971 -13.557   2.892  0.00  0.00    +0.126 C 
ATOM     26  C   LIG    1       29.108 -12.738   3.480  0.00  0.00    +0.022 C 
ATOM     27  C   LIG    1       29.133 -12.930   4.984  0.00  0.00    +0.009 C 
ATOM     28  C   LIG    1       27.830 -12.417   5.564  0.00  0.00    +0.074 C 
ATOM     29  C   LIG    1       26.595 -12.969   4.875  0.00  0.00    +0.113 C 
ATOM     30  N   LIG    1       25.485 -12.934   5.540  0.00  0.00    -0.238 NA
ENDBRANCH  18  21
ENDBRANCH  17  18
ENDBRANCH   1  17
TORSDOF 4
ENDMDL
MODEL 3
REMARK VINA RESULT:       2.2      1.190      1.586
REMARK  Name = *****
REMARK                            x       y       z     vdW  Elec       q    Type
REMARK                         _______ _______ _______ _____ _____    ______ ____
ROOT
ATOM      1  N   LIG    1       22.034 -18.090   3.515  0.00  0.00    -0.302 NA
ATOM      2  C   LIG    1       21.479 -16.795   3.926  0.00  0.00    +0.085 C 
ATOM      3  C   LIG    1       22.131 -16.200   5.174  0.00  0.00    +0.025 C 
ATOM      4  C   LIG    1       23.646 -16.041   5.002  0.00  0.00    +0.044 C 
ATOM      5  C   LIG    1       24.252 -17.369   4.517  0.00  0.00    +0.025 C 
ATOM      6  C   LIG    1       23.494 -17.995   3.334  0.00  0.00    +0.085 C 
ENDROOT
BRANCH   4   7
ATOM      7  C   LIG    1       24.007 -14.844   4.153  0.00  0.00    +0.095 A 
ATOM      8  C   LIG    1       25.294 -14.265   3.950  0.00  0.00    +0.045 A 
ATOM      9  C   LIG    1       25.049 -13.201   3.098  0.00  0.00    +0.170 A 
ATOM     10  C   LIG    1       26.018 -12.330   2.615  0.00  0.00    +0.088 A 
ATOM     11  C   LIG    1       27.318 -12.582   3.045  0.00  0.00    +0.127 A 
ATOM     12  C   LIG    1       27.623 -13.638   3.904  0.00  0.00    +0.039 A 
ATOM     13  F   LIG    1       28.306 -11.784   2.620  0.00  0.00    -0.205 F 
ATOM     14  O   LIG    1       23.724 -13.148   2.813  0.00  0.00    -0.354 OA
ATOM     15  C   LIG    1       26.616 -14.498   4.372  0.00  0.00    +0.016 A 
ATOM     16  N   LIG    1       23.070 -14.172   3.467  0.00  0.00    -0.082 NA
ENDBRANCH   4   7
BRANCH   1  17
ATOM     17  C   LIG    1       21.649 -19.253   4.335  0.00  0.00    +0.089 C 
BRANCH  17  18
ATOM     18  C   LIG    1       22.458 -20.534   4.044  0.00  0.00    +0.058 C 
BRANCH  18  21
ATOM     19  C   LIG    1       22.677 -21.517   6.934  0.00  0.00    +0.066 C 
ATOM     20  C   LIG    1       23.855 -21.055   6.117  0.00  0.00    +0.049 C 
ATOM     21  C   LIG    1       23.735 -20.650   4.841  0.00  0.00    +0.039 C 
ATOM     22  C   LIG    1       24.976 -20.186   4.160  0.00  0.00    +0.258 C 
ATOM     23  O   LIG    1       24.961 -19.923   2.964  0.00  0.00    -0.267 OA
ATOM     24  N   LIG    1       26.108 -20.088   4.952  0.00  0.00    -0.296 N 
ATOM     25  C   LIG    1       27.334 -19.678   4.275  0.00  0.00    +0.126 C 
ATOM     26  C   LIG    1       28.487 -19.339   5.205  0.00  0.00    +0.022 C 
ATOM     27  C   LIG    1       28.633 -20.440   6.237  0.00  0.00    +0.009 C 
ATOM     28  C   LIG    1       27.363 -20.510   7.061  0.00  0.00    +0.074 C 
ATOM     29  C   LIG    1       26.097 -20.586   6.229  0.00  0.00    +0.113 C 
ATOM     30  N   LIG    1       25.041 -21.063   6.805  0.00  0.00    -0.238 NA
ENDBRANCH  18  21
ENDBRANCH  17  18
ENDBRANCH   1  17
TORSDOF 4
ENDMDL
