MODEL 1
REMARK VINA RESULT:      -2.7      0.000      0.000
REMARK  Name = *****
REMARK                            x       y       z     vdW  Elec       q    Type
REMARK                         _______ _______ _______ _____ _____    ______ ____
ROOT
ATOM      1  C   LIG    1       24.969 -15.788   3.419  0.00  0.00    +0.284 C 
ENDROOT
BRANCH   1   3
ATOM      2  O   LIG    1       27.202 -14.506   4.643  0.00  0.00    -0.257 OA
ATOM      3  P   LIG    1       26.727 -15.313   3.486  0.00  0.00    +0.356 P 
BRANCH   3   4
ATOM      4  O   LIG    1       27.591 -16.662   3.323  0.00  0.00    -0.323 OA
ATOM      5  H   LIG    1       28.408 -16.651   3.851  0.00  0.00    +0.220 HD
ENDBRANCH   3   4
BRANCH   3   6
ATOM      6  O   LIG    1       27.075 -14.612   2.082  0.00  0.00    -0.323 OA
ATOM      7  H   LIG    1       26.301 -14.202   1.657  0.00  0.00    +0.220 HD
ENDBRANCH   3   6
ENDBRANCH   1   3
BRANCH   1   8
ATOM      8  P   LIG    1       23.855 -14.559   4.130  0.00  0.00    +0.356 P 
ATOM      9  O   LIG    1       22.765 -14.999   5.041  0.00  0.00    -0.257 OA
BRANCH   8  10
ATOM     10  O   LIG    1       23.286 -13.641   2.946  0.00  0.00    -0.323 OA
ATOM     11  H   LIG    1       23.950 -13.473   2.243  0.00  0.00    +0.220 HD
ENDBRANCH   8  10
BRANCH   8  12
ATOM     12  O   LIG    1       24.784 -13.493   4.888  0.00  0.00    -0.323 OA
ATOM     13  H   LIG    1       25.712 -13.793   4.974  0.00  0.00    +0.220 HD
ENDBRANCH   8  12
ENDBRANCH   1   8
BRANCH   1  14
ATOM     14  N   LIG    1       24.886 -17.101   4.151  0.00  0.00    -0.291 NA
ATOM     15  H   LIG    1       24.298 -16.956   4.978  0.00  0.00    +0.124 HD
BRANCH  14  16
ATOM     16  C   LIG    1       24.344 -18.233   3.382  0.00  0.00    +0.055 C 
ATOM     17  C   LIG    1       25.072 -19.568   3.606  0.00  0.00    +0.019 C 
ATOM     18  C   LIG    1       24.850 -20.139   5.002  0.00  0.00    +0.002 C 
ATOM     19  C   LIG    1       23.364 -20.329   5.283  0.00  0.00    +0.000 C 
ATOM     20  C   LIG    1       22.587 -19.031   5.089  0.00  0.00    +0.002 C 
ATOM     21  C   LIG    1       22.845 -18.411   3.715  0.00  0.00    +0.019 C 
ENDBRANCH  14  16
ENDBRANCH   1  14
TORSDOF 8
ENDMDL
MODEL 2
REMARK VINA RESULT:      -2.7      0.319      1.589
REMARK  Name = *****
REMARK                            x       y       z     vdW  Elec       q    Type
REMARK                         _______ _______ _______ _____ _____    ______ ____
ROOT
ATOM      1  C   LIG    1       25.054 -15.641   3.367  0.00  0.00    +0.284 C 
ENDROOT
BRANCH   1   3
ATOM      2  O   LIG    1       27.320 -14.437   2.124  0.00  0.00    -0.257 OA
ATOM      3  P   LIG    1       26.800 -15.119   3.341  0.00  0.00    +0.356 P 
BRANCH   3   4
ATOM      4  O   LIG    1       27.051 -14.230   4.659  0.00  0.00    -0.323 OA
ATOM      5  H   LIG    1       26.224 -13.907   5.057  0.00  0.00    +0.220 HD
ENDBRANCH   3   4
BRANCH   3   6
ATOM      6  O   LIG    1       27.677 -16.409   3.728  0.00  0.00    -0.323 OA
ATOM      7  H   LIG    1       27.148 -17.133   4.108  0.00  0.00    +0.220 HD
ENDBRANCH   3   6
ENDBRANCH   1   3
BRANCH   1   8
ATOM      8  P   LIG    1       23.945 -14.437   4.129  0.00  0.00    +0.356 P 
ATOM      9  O   LIG    1       24.508 -13.380   5.011  0.00  0.00    -0.257 OA
BRANCH   8  10
ATOM     10  O   LIG    1       22.757 -15.228   4.856  0.00  0.00    -0.323 OA
ATOM     11  H   LIG    1       22.529 -16.069   4.405  0.00  0.00    +0.220 HD
ENDBRANCH   8  10
BRANCH   8  12
ATOM     12  O   LIG    1       23.131 -13.751   2.928  0.00  0.00    -0.323 OA
ATOM     13  H   LIG    1       22.603 -14.394   2.412  0.00  0.00    +0.220 HD
ENDBRANCH   8  12
ENDBRANCH   1   8
BRANCH   1  14
ATOM     14  N   LIG    1       25.043 -16.951   4.108  0.00  0.00    -0.291 NA
ATOM     15  H   LIG    1       24.400 -16.852   4.901  0.00  0.00    +0.124 HD
BRANCH  14  16
ATOM     16  C   LIG    1       24.645 -18.131   3.324  0.00  0.00    +0.055 C 
ATOM     17  C   LIG    1       25.467 -19.398   3.606  0.00  0.00    +0.019 C 
ATOM     18  C   LIG    1       25.212 -19.975   4.995  0.00  0.00    +0.002 C 
ATOM     19  C   LIG    1       23.734 -20.287   5.192  0.00  0.00    +0.000 C 
ATOM     20  C   LIG    1       22.863 -19.061   4.935  0.00  0.00    +0.002 C 
ATOM     21  C   LIG    1       23.148 -18.432   3.571  0.00  0.00    +0.019 C 
ENDBRANCH  14  16
ENDBRANCH   1  14
TORSDOF 8
ENDMDL
MODEL 3
REMARK VINA RESULT:      -1.7      3.284      5.666
REMARK  Name = *****
REMARK                            x       y       z     vdW  Elec       q    Type
REMARK                         _______ _______ _______ _____ _____    ______ ____
ROOT
ATOM      1  C   LIG    1       24.064 -18.201   3.661  0.00  0.00    +0.284 C 
ENDROOT
BRANCH   1   3
ATOM      2  O   LIG    1       22.104 -16.686   5.074  0.00  0.00    -0.257 OA
ATOM      3  P   LIG    1       22.456 -18.013   4.499  0.00  0.00    +0.356 P 
BRANCH   3   4
ATOM      4  O   LIG    1       21.323 -18.523   3.475  0.00  0.00    -0.323 OA
ATOM      5  H   LIG    1       20.427 -18.256   3.743  0.00  0.00    +0.220 HD
ENDBRANCH   3   4
BRANCH   3   6
ATOM      6  O   LIG    1       22.362 -19.186   5.594  0.00  0.00    -0.323 OA
ATOM      7  H   LIG    1       23.123 -19.792   5.573  0.00  0.00    +0.220 HD
ENDBRANCH   3   6
ENDBRANCH   1   3
BRANCH   1   8
ATOM      8  P   LIG    1       24.860 -19.793   3.959  0.00  0.00    +0.356 P 
ATOM      9  O   LIG    1       25.341 -20.127   5.327  0.00  0.00    -0.257 OA
BRANCH   8  10
ATOM     10  O   LIG    1       26.017 -19.996   2.871  0.00  0.00    -0.323 OA
ATOM     11  H   LIG    1       26.185 -20.941   2.667  0.00  0.00    +0.220 HD
ENDBRANCH   8  10
BRANCH   8  12
ATOM     12  O   LIG    1       23.819 -20.915   3.474  0.00  0.00    -0.323 OA
ATOM     13  H   LIG    1       22.886 -20.636   3.577  0.00  0.00    +0.220 HD
ENDBRANCH   8  12
ENDBRANCH   1   8
BRANCH   1  14
ATOM     14  N   LIG    1       24.906 -17.058   4.162  0.00  0.00    -0.291 NA
ATOM     15  H   LIG    1       25.818 -17.442   4.434  0.00  0.00    +0.124 HD
BRANCH  14  16
ATOM     16  C   LIG    1       25.125 -15.955   3.213  0.00  0.00    +0.055 C 
ATOM     17  C   LIG    1       24.388 -14.652   3.561  0.00  0.00    +0.019 C 
ATOM     18  C   LIG    1       24.944 -13.968   4.805  0.00  0.00    +0.002 C 
ATOM     19  C   LIG    1       26.431 -13.673   4.645  0.00  0.00    +0.000 C 
ATOM     20  C   LIG    1       27.221 -14.934   4.309  0.00  0.00    +0.002 C 
ATOM     21  C   LIG    1       26.640 -15.666   3.099  0.00  0.00    +0.019 C 
ENDBRANCH  14  16
ENDBRANCH   1  14
TORSDOF 8
ENDMDL
MODEL 4
REMARK VINA RESULT:      -1.7      3.184      5.626
REMARK  Name = *****
REMARK                            x       y       z     vdW  Elec       q    Type
REMARK                         _______ _______ _______ _____ _____    ______ ____
ROOT
ATOM      1  C   LIG    1       23.984 -18.110   3.613  0.00  0.00    +0.284 C 
ENDROOT
BRANCH   1   3
ATOM      2  O   LIG    1       22.076 -16.594   5.094  0.00  0.00    -0.257 OA
ATOM      3  P   LIG    1       22.398 -17.916   4.489  0.00  0.00    +0.356 P 
BRANCH   3   4
ATOM      4  O   LIG    1       21.236 -18.393   3.482  0.00  0.00    -0.323 OA
ATOM      5  H   LIG    1       21.077 -19.352   3.519  0.00  0.00    +0.220 HD
ENDBRANCH   3   4
BRANCH   3   6
ATOM      6  O   LIG    1       22.312 -19.106   5.565  0.00  0.00    -0.323 OA
ATOM      7  H   LIG    1       23.007 -19.060   6.245  0.00  0.00    +0.220 HD
ENDBRANCH   3   6
ENDBRANCH   1   3
BRANCH   1   8
ATOM      8  P   LIG    1       24.747 -19.730   3.836  0.00  0.00    +0.356 P 
ATOM      9  O   LIG    1       24.259 -20.885   3.036  0.00  0.00    -0.257 OA
BRANCH   8  10
ATOM     10  O   LIG    1       24.765 -20.074   5.401  0.00  0.00    -0.323 OA
ATOM     11  H   LIG    1       25.484 -19.612   5.883  0.00  0.00    +0.220 HD
ENDBRANCH   8  10
BRANCH   8  12
ATOM     12  O   LIG    1       26.318 -19.529   3.576  0.00  0.00    -0.323 OA
ATOM     13  H   LIG    1       26.873 -20.059   4.183  0.00  0.00    +0.220 HD
ENDBRANCH   8  12
ENDBRANCH   1   8
BRANCH   1  14
ATOM     14  N   LIG    1       24.863 -17.006   4.139  0.00  0.00    -0.291 NA
ATOM     15  H   LIG    1       25.756 -17.428   4.415  0.00  0.00    +0.124 HD
BRANCH  14  16
ATOM     16  C   LIG    1       25.134 -15.900   3.207  0.00  0.00    +0.055 C 
ATOM     17  C   LIG    1       24.433 -14.578   3.556  0.00  0.00    +0.019 C 
ATOM     18  C   LIG    1       24.987 -13.927   4.819  0.00  0.00    +0.002 C 
ATOM     19  C   LIG    1       26.485 -13.677   4.690  0.00  0.00    +0.000 C 
ATOM     20  C   LIG    1       27.240 -14.959   4.354  0.00  0.00    +0.002 C 
ATOM     21  C   LIG    1       26.659 -15.658   3.124  0.00  0.00    +0.019 C 
ENDBRANCH  14  16
ENDBRANCH   1  14
TORSDOF 8
ENDMDL
MODEL 5
REMARK VINA RESULT:      -1.2      3.054      4.943
REMARK  Name = *****
REMARK                            x       y       z     vdW  Elec       q    Type
REMARK                         _______ _______ _______ _____ _____    ______ ____
ROOT
ATOM      1  C   LIG    1       24.312 -17.861   4.247  0.00  0.00    +0.284 C 
ENDROOT
BRANCH   1   3
ATOM      2  O   LIG    1       24.281 -20.407   2.965  0.00  0.00    -0.257 OA
ATOM      3  P   LIG    1       25.125 -19.273   3.430  0.00  0.00    +0.356 P 
BRANCH   3   4
ATOM      4  O   LIG    1       26.015 -18.678   2.228  0.00  0.00    -0.323 OA
ATOM      5  H   LIG    1       26.889 -18.369   2.525  0.00  0.00    +0.220 HD
ENDBRANCH   3   4
BRANCH   3   6
ATOM      6  O   LIG    1       26.303 -19.761   4.408  0.00  0.00    -0.323 OA
ATOM      7  H   LIG    1       26.434 -19.175   5.173  0.00  0.00    +0.220 HD
ENDBRANCH   3   6
ENDBRANCH   1   3
BRANCH   1   8
ATOM      8  P   LIG    1       22.522 -18.038   4.399  0.00  0.00    +0.356 P 
ATOM      9  O   LIG    1       21.715 -18.370   3.194  0.00  0.00    -0.257 OA
BRANCH   8  10
ATOM     10  O   LIG    1       21.943 -16.746   5.148  0.00  0.00    -0.323 OA
ATOM     11  H   LIG    1       22.286 -16.652   6.062  0.00  0.00    +0.220 HD
ENDBRANCH   8  10
BRANCH   8  12
ATOM     12  O   LIG    1       22.273 -19.151   5.528  0.00  0.00    -0.323 OA
ATOM     13  H   LIG    1       23.030 -19.764   5.629  0.00  0.00    +0.220 HD
ENDBRANCH   8  12
ENDBRANCH   1   8
BRANCH   1  14
ATOM     14  N   LIG    1       24.682 -16.659   3.420  0.00  0.00    -0.291 NA
ATOM     15  H   LIG    1       23.832 -16.338   2.943  0.00  0.00    +0.124 HD
BRANCH  14  16
ATOM     16  C   LIG    1       25.263 -15.525   4.156  0.00  0.00    +0.055 C 
ATOM     17  C   LIG    1       26.558 -14.961   3.550  0.00  0.00    +0.019 C 
ATOM     18  C   LIG    1       26.333 -14.252   2.219  0.00  0.00    +0.002 C 
ATOM     19  C   LIG    1       25.321 -13.123   2.369  0.00  0.00    +0.000 C 
ATOM     20  C   LIG    1       24.005 -13.623   2.957  0.00  0.00    +0.002 C 
ATOM     21  C   LIG    1       24.218 -14.390   4.262  0.00  0.00    +0.019 C 
ENDBRANCH  14  16
ENDBRANCH   1  14
TORSDOF 8
ENDMDL
MODEL 6
REMARK VINA RESULT:      -0.9      1.935      2.994
REMARK  Name = *****
REMARK                            x       y       z     vdW  Elec       q    Type
REMARK                         _______ _______ _______ _____ _____    ______ ____
ROOT
ATOM      1  C   LIG    1       26.136 -13.819   2.442  0.00  0.00    +0.284 C 
ENDROOT
BRANCH   1   3
ATOM      2  O   LIG    1       26.873 -13.286   5.144  0.00  0.00    -0.257 OA
ATOM      3  P   LIG    1       27.359 -13.637   3.781  0.00  0.00    +0.356 P 
BRANCH   3   4
ATOM      4  O   LIG    1       28.241 -14.983   3.806  0.00  0.00    -0.323 OA
ATOM      5  H   LIG    1       28.861 -15.011   4.556  0.00  0.00    +0.220 HD
ENDBRANCH   3   4
BRANCH   3   6
ATOM      6  O   LIG    1       28.474 -12.605   3.256  0.00  0.00    -0.323 OA
ATOM      7  H   LIG    1       28.111 -11.731   3.028  0.00  0.00    +0.220 HD
ENDBRANCH   3   6
ENDBRANCH   1   3
BRANCH   1   8
ATOM      8  P   LIG    1       24.717 -12.713   2.595  0.00  0.00    +0.356 P 
ATOM      9  O   LIG    1       24.688 -11.448   1.813  0.00  0.00    -0.257 OA
BRANCH   8  10
ATOM     10  O   LIG    1       24.449 -12.441   4.150  0.00  0.00    -0.323 OA
ATOM     11  H   LIG    1       23.677 -11.854   4.305  0.00  0.00    +0.220 HD
ENDBRANCH   8  10
BRANCH   8  12
ATOM     12  O   LIG    1       23.422 -13.590   2.236  0.00  0.00    -0.323 OA
ATOM     13  H   LIG    1       23.060 -14.066   3.012  0.00  0.00    +0.220 HD
ENDBRANCH   8  12
ENDBRANCH   1   8
BRANCH   1  14
ATOM     14  N   LIG    1       25.718 -15.265   2.482  0.00  0.00    -0.291 NA
ATOM     15  H   LIG    1       26.378 -15.793   1.902  0.00  0.00    +0.124 HD
BRANCH  14  16
ATOM     16  C   LIG    1       25.668 -15.883   3.817  0.00  0.00    +0.055 C 
ATOM     17  C   LIG    1       24.272 -15.916   4.458  0.00  0.00    +0.019 C 
ATOM     18  C   LIG    1       23.315 -16.870   3.751  0.00  0.00    +0.002 C 
ATOM     19  C   LIG    1       23.881 -18.284   3.718  0.00  0.00    +0.000 C 
ATOM     20  C   LIG    1       25.267 -18.319   3.080  0.00  0.00    +0.002 C 
ATOM     21  C   LIG    1       26.223 -17.324   3.738  0.00  0.00    +0.019 C 
ENDBRANCH  14  16
ENDBRANCH   1  14
TORSDOF 8
ENDMDL
MODEL 7
REMARK VINA RESULT:      -0.5      3.112      4.917
REMARK  Name = *****
REMARK                            x       y       z     vdW  Elec       q    Type
REMARK                         _______ _______ _______ _____ _____    ______ ____
ROOT
ATOM      1  C   LIG    1       24.289 -17.723   4.399  0.00  0.00    +0.284 C 
ENDROOT
BRANCH   1   3
ATOM      2  O   LIG    1       26.336 -19.680   4.731  0.00  0.00    -0.257 OA
ATOM      3  P   LIG    1       25.310 -19.115   3.813  0.00  0.00    +0.356 P 
BRANCH   3   4
ATOM      4  O   LIG    1       24.302 -20.258   3.292  0.00  0.00    -0.323 OA
ATOM      5  H   LIG    1       24.347 -21.069   3.827  0.00  0.00    +0.220 HD
ENDBRANCH   3   4
BRANCH   3   6
ATOM      6  O   LIG    1       25.944 -18.668   2.406  0.00  0.00    -0.323 OA
ATOM      7  H   LIG    1       26.768 -19.139   2.190  0.00  0.00    +0.220 HD
ENDBRANCH   3   6
ENDBRANCH   1   3
BRANCH   1   8
ATOM      8  P   LIG    1       22.514 -18.036   4.316  0.00  0.00    +0.356 P 
ATOM      9  O   LIG    1       21.562 -16.942   4.649  0.00  0.00    -0.257 OA
BRANCH   8  10
ATOM     10  O   LIG    1       22.190 -19.362   5.154  0.00  0.00    -0.323 OA
ATOM     11  H   LIG    1       21.860 -19.169   6.057  0.00  0.00    +0.220 HD
ENDBRANCH   8  10
BRANCH   8  12
ATOM     12  O   LIG    1       22.218 -18.564   2.830  0.00  0.00    -0.323 OA
ATOM     13  H   LIG    1       21.535 -19.265   2.806  0.00  0.00    +0.220 HD
ENDBRANCH   8  12
ENDBRANCH   1   8
BRANCH   1  14
ATOM     14  N   LIG    1       24.687 -16.553   3.540  0.00  0.00    -0.291 NA
ATOM     15  H   LIG    1       23.856 -16.257   3.017  0.00  0.00    +0.124 HD
BRANCH  14  16
ATOM     16  C   LIG    1       25.233 -15.387   4.252  0.00  0.00    +0.055 C 
ATOM     17  C   LIG    1       26.540 -14.829   3.667  0.00  0.00    +0.019 C 
ATOM     18  C   LIG    1       26.349 -14.170   2.306  0.00  0.00    +0.002 C 
ATOM     19  C   LIG    1       25.320 -13.048   2.385  0.00  0.00    +0.000 C 
ATOM     20  C   LIG    1       23.992 -13.543   2.950  0.00  0.00    +0.002 C 
ATOM     21  C   LIG    1       24.173 -14.261   4.287  0.00  0.00    +0.019 C 
ENDBRANCH  14  16
ENDBRANCH   1  14
TORSDOF 8
ENDMDL
MODEL 8
REMARK VINA RESULT:      -0.3      1.911      3.752
REMARK  Name = *****
REMARK                            x       y       z     vdW  Elec       q    Type
REMARK                         _______ _______ _______ _____ _____    ______ ____
ROOT
ATOM      1  C   LIG    1       25.981 -14.137   4.373  0.00  0.00    +0.284 C 
ENDROOT
BRANCH   1   3
ATOM      2  O   LIG    1       23.212 -14.819   4.361  0.00  0.00    -0.257 OA
ATOM      3  P   LIG    1       24.229 -13.789   4.012  0.00  0.00    +0.356 P 
BRANCH   3   4
ATOM      4  O   LIG    1       23.876 -12.370   4.686  0.00  0.00    -0.323 OA
ATOM      5  H   LIG    1       23.203 -11.875   4.189  0.00  0.00    +0.220 HD
ENDBRANCH   3   4
BRANCH   3   6
ATOM      6  O   LIG    1       24.148 -13.366   2.463  0.00  0.00    -0.323 OA
ATOM      7  H   LIG    1       24.718 -13.906   1.888  0.00  0.00    +0.220 HD
ENDBRANCH   3   6
ENDBRANCH   1   3
BRANCH   1   8
ATOM      8  P   LIG    1       27.111 -13.626   3.062  0.00  0.00    +0.356 P 
ATOM      9  O   LIG    1       27.193 -14.429   1.812  0.00  0.00    -0.257 OA
BRANCH   8  10
ATOM     10  O   LIG    1       28.562 -13.397   3.700  0.00  0.00    -0.323 OA
ATOM     11  H   LIG    1       28.562 -12.718   4.408  0.00  0.00    +0.220 HD
ENDBRANCH   8  10
BRANCH   8  12
ATOM     12  O   LIG    1       26.723 -12.112   2.697  0.00  0.00    -0.323 OA
ATOM     13  H   LIG    1       26.085 -12.053   1.957  0.00  0.00    +0.220 HD
ENDBRANCH   8  12
ENDBRANCH   1   8
BRANCH   1  14
ATOM     14  N   LIG    1       26.047 -15.622   4.615  0.00  0.00    -0.291 NA
ATOM     15  H   LIG    1       25.084 -15.962   4.712  0.00  0.00    +0.124 HD
BRANCH  14  16
ATOM     16  C   LIG    1       26.723 -16.414   3.575  0.00  0.00    +0.055 C 
ATOM     17  C   LIG    1       27.950 -17.201   4.062  0.00  0.00    +0.019 C 
ATOM     18  C   LIG    1       27.588 -18.350   4.996  0.00  0.00    +0.002 C 
ATOM     19  C   LIG    1       26.614 -19.311   4.324  0.00  0.00    +0.000 C 
ATOM     20  C   LIG    1       25.365 -18.589   3.827  0.00  0.00    +0.002 C 
ATOM     21  C   LIG    1       25.712 -17.395   2.937  0.00  0.00    +0.019 C 
ENDBRANCH  14  16
ENDBRANCH   1  14
TORSDOF 8
ENDMDL
MODEL 9
REMARK VINA RESULT:      -0.1      1.735      3.557
REMARK  Name = *****
REMARK                            x       y       z     vdW  Elec       q    Type
REMARK                         _______ _______ _______ _____ _____    ______ ____
ROOT
ATOM      1  C   LIG    1       25.045 -14.474   3.955  0.00  0.00    +0.284 C 
ENDROOT
BRANCH   1   3
ATOM      2  O   LIG    1       23.568 -12.040   4.107  0.00  0.00    -0.257 OA
ATOM      3  P   LIG    1       24.424 -12.910   3.254  0.00  0.00    +0.356 P 
BRANCH   3   4
ATOM      4  O   LIG    1       25.697 -12.102   2.690  0.00  0.00    -0.323 OA
ATOM      5  H   LIG    1       26.081 -11.499   3.350  0.00  0.00    +0.220 HD
ENDBRANCH   3   4
BRANCH   3   6
ATOM      6  O   LIG    1       23.711 -13.275   1.861  0.00  0.00    -0.323 OA
ATOM      7  H   LIG    1       23.147 -12.558   1.520  0.00  0.00    +0.220 HD
ENDBRANCH   3   6
ENDBRANCH   1   3
BRANCH   1   8
ATOM      8  P   LIG    1       26.660 -14.967   3.317  0.00  0.00    +0.356 P 
ATOM      9  O   LIG    1       27.047 -16.404   3.336  0.00  0.00    -0.257 OA
BRANCH   8  10
ATOM     10  O   LIG    1       27.781 -14.055   4.007  0.00  0.00    -0.323 OA
ATOM     11  H   LIG    1       27.759 -13.125   3.695  0.00  0.00    +0.220 HD
ENDBRANCH   8  10
BRANCH   8  12
ATOM     12  O   LIG    1       26.738 -14.416   1.812  0.00  0.00    -0.323 OA
ATOM     13  H   LIG    1       26.953 -13.461   1.769  0.00  0.00    +0.220 HD
ENDBRANCH   8  12
ENDBRANCH   1   8
BRANCH   1  14
ATOM     14  N   LIG    1       23.987 -15.497   3.638  0.00  0.00    -0.291 NA
ATOM     15  H   LIG    1       24.305 -16.026   2.819  0.00  0.00    +0.124 HD
BRANCH  14  16
ATOM     16  C   LIG    1       23.667 -16.447   4.715  0.00  0.00    +0.055 C 
ATOM     17  C   LIG    1       22.167 -16.591   5.021  0.00  0.00    +0.019 C 
ATOM     18  C   LIG    1       21.396 -17.279   3.900  0.00  0.00    +0.002 C 
ATOM     19  C   LIG    1       21.978 -18.656   3.604  0.00  0.00    +0.000 C 
ATOM     20  C   LIG    1       23.467 -18.578   3.282  0.00  0.00    +0.002 C 
ATOM     21  C   LIG    1       24.248 -17.836   4.367  0.00  0.00    +0.019 C 
ENDBRANCH  14  16
ENDBRANCH   1  14
TORSDOF 8
ENDMDL
