MODEL 1
REMARK VINA RESULT:      -8.8      0.000      0.000
REMARK  Name = *****
REMARK                            x       y       z     vdW  Elec       q    Type
REMARK                         _______ _______ _______ _____ _____    ______ ____
ROOT
ATOM      1  C   LIG    1       30.798 -19.250   6.502  0.00  0.00    +0.044 C 
ATOM      2  C   LIG    1       29.460 -19.905   6.691  0.00  0.00    -0.050 C 
ATOM      3  C   LIG    1       28.421 -19.611   5.793  0.00  0.00    +0.013 C 
ATOM      4  C   LIG    1       27.160 -20.217   5.950  0.00  0.00    +0.004 C 
ATOM      5  C   LIG    1       25.935 -20.137   5.227  0.00  0.00    -0.017 C 
ATOM      6  C   LIG    1       25.556 -19.390   3.998  0.00  0.00    +0.037 C 
ATOM      7  C   LIG    1       24.019 -19.375   3.817  0.00  0.00    +0.007 C 
ATOM      8  C   LIG    1       23.375 -20.757   4.083  0.00  0.00    +0.025 C 
ATOM      9  C   LIG    1       23.637 -21.250   5.527  0.00  0.00    +0.101 C 
ATOM     10  N   LIG    1       23.346 -22.676   5.659  0.00  0.00    -0.306 NA
ATOM     11  H   LIG    1       22.342 -22.832   5.669  0.00  0.00    +0.123 HD
ATOM     12  C   LIG    1       24.005 -23.360   6.788  0.00  0.00    +0.103 C 
ATOM     13  C   LIG    1       24.955 -22.546   7.695  0.00  0.00    +0.137 C 
ATOM     14  N   LIG    1       25.675 -21.568   6.911  0.00  0.00    -0.341 NA
ATOM     15  C   LIG    1       25.052 -20.972   5.862  0.00  0.00    +0.040 C 
ATOM     16  C   LIG    1       26.969 -21.120   7.010  0.00  0.00    +0.050 C 
ATOM     17  C   LIG    1       27.994 -21.424   7.917  0.00  0.00    +0.026 C 
ATOM     18  C   LIG    1       29.235 -20.803   7.738  0.00  0.00    +0.005 C 
ENDROOT
TORSDOF 0
ENDMDL
MODEL 2
REMARK VINA RESULT:      -8.5      1.137      2.998
REMARK  Name = *****
REMARK                            x       y       z     vdW  Elec       q    Type
REMARK                         _______ _______ _______ _____ _____    ______ ____
ROOT
ATOM      1  C   LIG    1       30.405 -20.383   8.374  0.00  0.00    +0.044 C 
ATOM      2  C   LIG    1       29.264 -20.253   7.407  0.00  0.00    -0.050 C 
ATOM      3  C   LIG    1       28.077 -20.964   7.648  0.00  0.00    +0.013 C 
ATOM      4  C   LIG    1       26.994 -20.853   6.755  0.00  0.00    +0.004 C 
ATOM      5  C   LIG    1       25.688 -21.422   6.719  0.00  0.00    -0.017 C 
ATOM      6  C   LIG    1       24.978 -22.333   7.656  0.00  0.00    +0.037 C 
ATOM      7  C   LIG    1       23.709 -22.921   6.993  0.00  0.00    +0.007 C 
ATOM      8  C   LIG    1       22.894 -21.857   6.219  0.00  0.00    +0.025 C 
ATOM      9  C   LIG    1       23.720 -21.212   5.080  0.00  0.00    +0.101 C 
ATOM     10  N   LIG    1       23.086 -19.986   4.598  0.00  0.00    -0.306 NA
ATOM     11  H   LIG    1       22.271 -20.209   4.033  0.00  0.00    +0.123 HD
ATOM     12  C   LIG    1       23.977 -19.038   3.902  0.00  0.00    +0.103 C 
ATOM     13  C   LIG    1       25.477 -19.387   3.775  0.00  0.00    +0.137 C 
ATOM     14  N   LIG    1       25.929 -20.082   4.960  0.00  0.00    -0.341 NA
ATOM     15  C   LIG    1       25.079 -20.930   5.594  0.00  0.00    +0.040 C 
ATOM     16  C   LIG    1       27.123 -20.017   5.632  0.00  0.00    +0.050 C 
ATOM     17  C   LIG    1       28.301 -19.302   5.374  0.00  0.00    +0.026 C 
ATOM     18  C   LIG    1       29.363 -19.435   6.277  0.00  0.00    +0.005 C 
ENDROOT
TORSDOF 0
ENDMDL
MODEL 3
REMARK VINA RESULT:      -7.6      2.465      5.242
REMARK  Name = *****
REMARK                            x       y       z     vdW  Elec       q    Type
REMARK                         _______ _______ _______ _____ _____    ______ ____
ROOT
ATOM      1  C   LIG    1       24.095 -28.291   5.820  0.00  0.00    +0.044 C 
ATOM      2  C   LIG    1       24.690 -26.942   6.102  0.00  0.00    -0.050 C 
ATOM      3  C   LIG    1       23.872 -25.803   6.029  0.00  0.00    +0.013 C 
ATOM      4  C   LIG    1       24.411 -24.529   6.293  0.00  0.00    +0.004 C 
ATOM      5  C   LIG    1       23.861 -23.215   6.308  0.00  0.00    -0.017 C 
ATOM      6  C   LIG    1       22.479 -22.715   6.077  0.00  0.00    +0.037 C 
ATOM      7  C   LIG    1       22.478 -21.180   5.876  0.00  0.00    +0.007 C 
ATOM      8  C   LIG    1       23.381 -20.445   6.895  0.00  0.00    +0.025 C 
ATOM      9  C   LIG    1       24.858 -20.895   6.790  0.00  0.00    +0.101 C 
ATOM     10  N   LIG    1       25.622 -20.478   7.964  0.00  0.00    -0.306 NA
ATOM     11  H   LIG    1       25.807 -19.479   7.928  0.00  0.00    +0.123 HD
ATOM     12  C   LIG    1       26.857 -21.241   8.226  0.00  0.00    +0.103 C 
ATOM     13  C   LIG    1       27.217 -22.415   7.288  0.00  0.00    +0.137 C 
ATOM     14  N   LIG    1       26.014 -23.093   6.855  0.00  0.00    -0.341 NA
ATOM     15  C   LIG    1       24.885 -22.368   6.645  0.00  0.00    +0.040 C 
ATOM     16  C   LIG    1       25.770 -24.425   6.634  0.00  0.00    +0.050 C 
ATOM     17  C   LIG    1       26.602 -25.551   6.709  0.00  0.00    +0.026 C 
ATOM     18  C   LIG    1       26.040 -26.804   6.438  0.00  0.00    +0.005 C 
ENDROOT
TORSDOF 0
ENDMDL
MODEL 4
REMARK VINA RESULT:      -7.0      2.203      5.248
REMARK  Name = *****
REMARK                            x       y       z     vdW  Elec       q    Type
REMARK                         _______ _______ _______ _____ _____    ______ ____
ROOT
ATOM      1  C   LIG    1       25.578 -27.754   7.248  0.00  0.00    +0.044 C 
ATOM      2  C   LIG    1       25.301 -26.394   6.678  0.00  0.00    -0.050 C 
ATOM      3  C   LIG    1       26.022 -25.289   7.160  0.00  0.00    +0.013 C 
ATOM      4  C   LIG    1       25.779 -24.004   6.636  0.00  0.00    +0.004 C 
ATOM      5  C   LIG    1       26.329 -22.717   6.898  0.00  0.00    -0.017 C 
ATOM      6  C   LIG    1       27.406 -22.267   7.821  0.00  0.00    +0.037 C 
ATOM      7  C   LIG    1       27.389 -20.728   7.974  0.00  0.00    +0.007 C 
ATOM      8  C   LIG    1       27.207 -19.997   6.622  0.00  0.00    +0.025 C 
ATOM      9  C   LIG    1       25.875 -20.378   5.934  0.00  0.00    +0.101 C 
ATOM     10  N   LIG    1       25.873 -19.977   4.528  0.00  0.00    -0.306 NA
ATOM     11  H   LIG    1       25.755 -18.970   4.449  0.00  0.00    +0.123 HD
ATOM     12  C   LIG    1       24.922 -20.697   3.659  0.00  0.00    +0.103 C 
ATOM     13  C   LIG    1       24.053 -21.815   4.279  0.00  0.00    +0.137 C 
ATOM     14  N   LIG    1       24.802 -22.525   5.291  0.00  0.00    -0.341 NA
ATOM     15  C   LIG    1       25.690 -21.841   6.060  0.00  0.00    +0.040 C 
ATOM     16  C   LIG    1       24.815 -23.856   5.624  0.00  0.00    +0.050 C 
ATOM     17  C   LIG    1       24.085 -24.947   5.132  0.00  0.00    +0.026 C 
ATOM     18  C   LIG    1       24.345 -26.211   5.675  0.00  0.00    +0.005 C 
ENDROOT
TORSDOF 0
ENDMDL
MODEL 5
REMARK VINA RESULT:      -6.5      1.932      3.521
REMARK  Name = *****
REMARK                            x       y       z     vdW  Elec       q    Type
REMARK                         _______ _______ _______ _____ _____    ______ ____
ROOT
ATOM      1  C   LIG    1       29.807 -20.770   8.062  0.00  0.00    +0.044 C 
ATOM      2  C   LIG    1       28.387 -21.061   7.672  0.00  0.00    -0.050 C 
ATOM      3  C   LIG    1       28.018 -22.379   7.360  0.00  0.00    +0.013 C 
ATOM      4  C   LIG    1       26.690 -22.673   6.996  0.00  0.00    +0.004 C 
ATOM      5  C   LIG    1       26.013 -23.874   6.637  0.00  0.00    -0.017 C 
ATOM      6  C   LIG    1       26.476 -25.286   6.551  0.00  0.00    +0.037 C 
ATOM      7  C   LIG    1       25.446 -26.155   5.791  0.00  0.00    +0.007 C 
ATOM      8  C   LIG    1       23.988 -25.869   6.228  0.00  0.00    +0.025 C 
ATOM      9  C   LIG    1       23.586 -24.397   5.971  0.00  0.00    +0.101 C 
ATOM     10  N   LIG    1       22.367 -24.048   6.696  0.00  0.00    -0.306 NA
ATOM     11  H   LIG    1       21.556 -24.465   6.246  0.00  0.00    +0.123 HD
ATOM     12  C   LIG    1       22.159 -22.608   6.943  0.00  0.00    +0.103 C 
ATOM     13  C   LIG    1       23.238 -21.611   6.462  0.00  0.00    +0.137 C 
ATOM     14  N   LIG    1       24.554 -22.196   6.599  0.00  0.00    -0.341 NA
ATOM     15  C   LIG    1       24.710 -23.529   6.390  0.00  0.00    +0.040 C 
ATOM     16  C   LIG    1       25.750 -21.629   6.958  0.00  0.00    +0.050 C 
ATOM     17  C   LIG    1       26.101 -20.306   7.264  0.00  0.00    +0.026 C 
ATOM     18  C   LIG    1       27.429 -20.044   7.619  0.00  0.00    +0.005 C 
ENDROOT
TORSDOF 0
ENDMDL
MODEL 6
REMARK VINA RESULT:      -6.3      6.590      9.213
REMARK  Name = *****
REMARK                            x       y       z     vdW  Elec       q    Type
REMARK                         _______ _______ _______ _____ _____    ______ ____
ROOT
ATOM      1  C   LIG    1       25.517 -24.327   6.011  0.00  0.00    +0.044 C 
ATOM      2  C   LIG    1       25.325 -25.807   6.176  0.00  0.00    -0.050 C 
ATOM      3  C   LIG    1       25.835 -26.441   7.321  0.00  0.00    +0.013 C 
ATOM      4  C   LIG    1       25.663 -27.827   7.496  0.00  0.00    +0.004 C 
ATOM      5  C   LIG    1       26.044 -28.743   8.519  0.00  0.00    -0.017 C 
ATOM      6  C   LIG    1       26.748 -28.545   9.815  0.00  0.00    +0.037 C 
ATOM      7  C   LIG    1       27.216 -29.901  10.396  0.00  0.00    +0.007 C 
ATOM      8  C   LIG    1       26.130 -30.999  10.293  0.00  0.00    +0.025 C 
ATOM      9  C   LIG    1       25.724 -31.275   8.825  0.00  0.00    +0.101 C 
ATOM     10  N   LIG    1       24.476 -32.032   8.756  0.00  0.00    -0.306 NA
ATOM     11  H   LIG    1       24.637 -33.003   9.011  0.00  0.00    +0.123 HD
ATOM     12  C   LIG    1       23.736 -31.929   7.483  0.00  0.00    +0.103 C 
ATOM     13  C   LIG    1       24.303 -31.022   6.367  0.00  0.00    +0.137 C 
ATOM     14  N   LIG    1       24.933 -29.856   6.945  0.00  0.00    -0.341 NA
ATOM     15  C   LIG    1       25.586 -29.975   8.130  0.00  0.00    +0.040 C 
ATOM     16  C   LIG    1       24.970 -28.554   6.513  0.00  0.00    +0.050 C 
ATOM     17  C   LIG    1       24.456 -27.939   5.362  0.00  0.00    +0.026 C 
ATOM     18  C   LIG    1       24.647 -26.560   5.214  0.00  0.00    +0.005 C 
ENDROOT
TORSDOF 0
ENDMDL
MODEL 7
REMARK VINA RESULT:      -6.2      1.233      4.776
REMARK  Name = *****
REMARK                            x       y       z     vdW  Elec       q    Type
REMARK                         _______ _______ _______ _____ _____    ______ ____
ROOT
ATOM      1  C   LIG    1       21.965 -18.533   3.401  0.00  0.00    +0.044 C 
ATOM      2  C   LIG    1       22.765 -19.407   4.323  0.00  0.00    -0.050 C 
ATOM      3  C   LIG    1       24.153 -19.216   4.416  0.00  0.00    +0.013 C 
ATOM      4  C   LIG    1       24.920 -20.023   5.278  0.00  0.00    +0.004 C 
ATOM      5  C   LIG    1       26.308 -20.077   5.596  0.00  0.00    -0.017 C 
ATOM      6  C   LIG    1       27.462 -19.255   5.142  0.00  0.00    +0.037 C 
ATOM      7  C   LIG    1       28.800 -19.933   5.521  0.00  0.00    +0.007 C 
ATOM      8  C   LIG    1       28.798 -20.490   6.966  0.00  0.00    +0.025 C 
ATOM      9  C   LIG    1       27.697 -21.558   7.172  0.00  0.00    +0.101 C 
ATOM     10  N   LIG    1       27.467 -21.812   8.592  0.00  0.00    -0.306 NA
ATOM     11  H   LIG    1       28.229 -22.361   8.981  0.00  0.00    +0.123 HD
ATOM     12  C   LIG    1       26.157 -22.400   8.933  0.00  0.00    +0.103 C 
ATOM     13  C   LIG    1       25.143 -22.658   7.795  0.00  0.00    +0.137 C 
ATOM     14  N   LIG    1       25.242 -21.619   6.794  0.00  0.00    -0.341 NA
ATOM     15  C   LIG    1       26.458 -21.079   6.519  0.00  0.00    +0.040 C 
ATOM     16  C   LIG    1       24.271 -21.009   6.041  0.00  0.00    +0.050 C 
ATOM     17  C   LIG    1       22.887 -21.216   5.959  0.00  0.00    +0.026 C 
ATOM     18  C   LIG    1       22.151 -20.401   5.091  0.00  0.00    +0.005 C 
ENDROOT
TORSDOF 0
ENDMDL
MODEL 8
REMARK VINA RESULT:      -6.0      2.255      5.285
REMARK  Name = *****
REMARK                            x       y       z     vdW  Elec       q    Type
REMARK                         _______ _______ _______ _____ _____    ______ ____
ROOT
ATOM      1  C   LIG    1       23.301 -21.593   6.737  0.00  0.00    +0.044 C 
ATOM      2  C   LIG    1       24.759 -21.604   7.091  0.00  0.00    -0.050 C 
ATOM      3  C   LIG    1       25.619 -20.674   6.485  0.00  0.00    +0.013 C 
ATOM      4  C   LIG    1       26.990 -20.666   6.806  0.00  0.00    +0.004 C 
ATOM      5  C   LIG    1       28.093 -19.869   6.382  0.00  0.00    -0.017 C 
ATOM      6  C   LIG    1       28.181 -18.712   5.451  0.00  0.00    +0.037 C 
ATOM      7  C   LIG    1       29.654 -18.423   5.075  0.00  0.00    +0.007 C 
ATOM      8  C   LIG    1       30.602 -18.476   6.297  0.00  0.00    +0.025 C 
ATOM      9  C   LIG    1       30.594 -19.867   6.975  0.00  0.00    +0.101 C 
ATOM     10  N   LIG    1       31.196 -19.809   8.306  0.00  0.00    -0.306 NA
ATOM     11  H   LIG    1       32.206 -19.728   8.233  0.00  0.00    +0.123 HD
ATOM     12  C   LIG    1       30.813 -20.896   9.228  0.00  0.00    +0.103 C 
ATOM     13  C   LIG    1       29.803 -21.959   8.741  0.00  0.00    +0.137 C 
ATOM     14  N   LIG    1       28.816 -21.351   7.877  0.00  0.00    -0.341 NA
ATOM     15  C   LIG    1       29.192 -20.335   7.056  0.00  0.00    +0.040 C 
ATOM     16  C   LIG    1       27.473 -21.596   7.742  0.00  0.00    +0.050 C 
ATOM     17  C   LIG    1       26.630 -22.534   8.356  0.00  0.00    +0.026 C 
ATOM     18  C   LIG    1       25.273 -22.520   8.014  0.00  0.00    +0.005 C 
ENDROOT
TORSDOF 0
ENDMDL
MODEL 9
REMARK VINA RESULT:      -6.0      7.018      9.151
REMARK  Name = *****
REMARK                            x       y       z     vdW  Elec       q    Type
REMARK                         _______ _______ _______ _____ _____    ______ ____
ROOT
ATOM      1  C   LIG    1       27.554 -28.543  12.515  0.00  0.00    +0.044 C 
ATOM      2  C   LIG    1       26.834 -29.112  11.327  0.00  0.00    -0.050 C 
ATOM      3  C   LIG    1       26.666 -28.317  10.182  0.00  0.00    +0.013 C 
ATOM      4  C   LIG    1       25.997 -28.833   9.056  0.00  0.00    +0.004 C 
ATOM      5  C   LIG    1       25.677 -28.300   7.774  0.00  0.00    -0.017 C 
ATOM      6  C   LIG    1       25.974 -26.986   7.144  0.00  0.00    +0.037 C 
ATOM      7  C   LIG    1       25.117 -26.782   5.872  0.00  0.00    +0.007 C 
ATOM      8  C   LIG    1       25.064 -28.046   4.980  0.00  0.00    +0.025 C 
ATOM      9  C   LIG    1       24.450 -29.254   5.727  0.00  0.00    +0.101 C 
ATOM     10  N   LIG    1       24.727 -30.505   5.023  0.00  0.00    -0.306 NA
ATOM     11  H   LIG    1       24.145 -30.580   4.193  0.00  0.00    +0.123 HD
ATOM     12  C   LIG    1       24.648 -31.730   5.843  0.00  0.00    +0.103 C 
ATOM     13  C   LIG    1       24.327 -31.595   7.349  0.00  0.00    +0.137 C 
ATOM     14  N   LIG    1       24.932 -30.394   7.881  0.00  0.00    -0.341 NA
ATOM     15  C   LIG    1       25.013 -29.289   7.096  0.00  0.00    +0.040 C 
ATOM     16  C   LIG    1       25.511 -30.151   9.101  0.00  0.00    +0.050 C 
ATOM     17  C   LIG    1       25.668 -30.959  10.236  0.00  0.00    +0.026 C 
ATOM     18  C   LIG    1       26.334 -30.417  11.342  0.00  0.00    +0.005 C 
ENDROOT
TORSDOF 0
ENDMDL
