MODEL 1
REMARK VINA RESULT:      -5.5      0.000      0.000
REMARK  Name = *****
REMARK                            x       y       z     vdW  Elec       q    Type
REMARK                         _______ _______ _______ _____ _____    ______ ____
ROOT
ATOM      1  C   LIG    1       30.964 -18.112   8.477  0.00  0.00    +0.203 C 
ENDROOT
BRANCH   1   2
ATOM      2  N   LIG    1       31.487 -17.422   9.650  0.00  0.00    -0.293 N 
ATOM      3  C   LIG    1       30.787 -17.282  10.837  0.00  0.00    +0.216 C 
ATOM      4  O   LIG    1       29.742 -17.840  11.121  0.00  0.00    -0.276 OA
ATOM      5  C   LIG    1       31.532 -16.301  11.705  0.00  0.00    +0.097 C 
ATOM      6  C   LIG    1       32.893 -16.203  11.024  0.00  0.00    +0.028 C 
ATOM      7  C   LIG    1       32.590 -16.501   9.568  0.00  0.00    +0.109 C 
ENDBRANCH   1   2
BRANCH   1  11
ATOM      8  N   LIG    1       30.612 -20.364   7.558  0.00  0.00    -0.328 N 
ATOM      9  H   LIG    1       30.003 -19.931   6.865  0.00  0.00    +0.145 HD
ATOM     10  H   LIG    1       30.812 -21.351   7.490  0.00  0.00    +0.145 HD
ATOM     11  C   LIG    1       31.254 -19.615   8.501  0.00  0.00    +0.228 C 
ATOM     12  O   LIG    1       32.095 -20.122   9.239  0.00  0.00    -0.274 OA
ENDBRANCH   1  11
TORSDOF 2
ENDMDL
MODEL 2
REMARK VINA RESULT:      -5.5      1.466      1.906
REMARK  Name = *****
REMARK                            x       y       z     vdW  Elec       q    Type
REMARK                         _______ _______ _______ _____ _____    ______ ____
ROOT
ATOM      1  C   LIG    1       30.462 -18.214   9.271  0.00  0.00    +0.203 C 
ENDROOT
BRANCH   1   2
ATOM      2  N   LIG    1       31.130 -17.310  10.199  0.00  0.00    -0.293 N 
ATOM      3  C   LIG    1       32.152 -16.449   9.835  0.00  0.00    +0.216 C 
ATOM      4  O   LIG    1       32.513 -16.208   8.696  0.00  0.00    -0.276 OA
ATOM      5  C   LIG    1       32.756 -15.882  11.094  0.00  0.00    +0.097 C 
ATOM      6  C   LIG    1       31.724 -16.236  12.160  0.00  0.00    +0.028 C 
ATOM      7  C   LIG    1       31.071 -17.496  11.625  0.00  0.00    +0.109 C 
ENDBRANCH   1   2
BRANCH   1  11
ATOM      8  N   LIG    1       31.720 -19.147   7.378  0.00  0.00    -0.328 N 
ATOM      9  H   LIG    1       31.364 -18.371   6.822  0.00  0.00    +0.145 HD
ATOM     10  H   LIG    1       32.386 -19.784   6.964  0.00  0.00    +0.145 HD
ATOM     11  C   LIG    1       31.407 -19.274   8.700  0.00  0.00    +0.228 C 
ATOM     12  O   LIG    1       31.954 -20.127   9.395  0.00  0.00    -0.274 OA
ENDBRANCH   1  11
TORSDOF 2
ENDMDL
MODEL 3
REMARK VINA RESULT:      -5.4      1.725      4.145
REMARK  Name = *****
REMARK                            x       y       z     vdW  Elec       q    Type
REMARK                         _______ _______ _______ _____ _____    ______ ____
ROOT
ATOM      1  C   LIG    1       31.883 -17.952   8.784  0.00  0.00    +0.203 C 
ENDROOT
BRANCH   1   2
ATOM      2  N   LIG    1       30.923 -19.008   8.486  0.00  0.00    -0.293 N 
ATOM      3  C   LIG    1       31.149 -20.350   8.740  0.00  0.00    +0.216 C 
ATOM      4  O   LIG    1       32.078 -20.810   9.382  0.00  0.00    -0.276 OA
ATOM      5  C   LIG    1       30.060 -21.144   8.064  0.00  0.00    +0.097 C 
ATOM      6  C   LIG    1       29.019 -20.081   7.729  0.00  0.00    +0.028 C 
ATOM      7  C   LIG    1       29.836 -18.815   7.561  0.00  0.00    +0.109 C 
ENDBRANCH   1   2
BRANCH   1  11
ATOM      8  N   LIG    1       30.526 -17.132  10.662  0.00  0.00    -0.328 N 
ATOM      9  H   LIG    1       29.712 -17.249  10.060  0.00  0.00    +0.145 HD
ATOM     10  H   LIG    1       30.391 -16.855  11.624  0.00  0.00    +0.145 HD
ATOM     11  C   LIG    1       31.779 -17.454  10.228  0.00  0.00    +0.228 C 
ATOM     12  O   LIG    1       32.732 -17.447  11.004  0.00  0.00    -0.274 OA
ENDBRANCH   1  11
TORSDOF 2
ENDMDL
MODEL 4
REMARK VINA RESULT:      -5.4      9.128      9.623
REMARK  Name = *****
REMARK                            x       y       z     vdW  Elec       q    Type
REMARK                         _______ _______ _______ _____ _____    ______ ____
ROOT
ATOM      1  C   LIG    1       25.088 -23.031   6.293  0.00  0.00    +0.203 C 
ENDROOT
BRANCH   1   2
ATOM      2  N   LIG    1       24.420 -21.809   5.861  0.00  0.00    -0.293 N 
ATOM      3  C   LIG    1       23.481 -21.134   6.623  0.00  0.00    +0.216 C 
ATOM      4  O   LIG    1       23.211 -21.358   7.790  0.00  0.00    -0.276 OA
ATOM      5  C   LIG    1       22.834 -20.089   5.749  0.00  0.00    +0.097 C 
ATOM      6  C   LIG    1       23.771 -20.019   4.548  0.00  0.00    +0.028 C 
ATOM      7  C   LIG    1       24.375 -21.408   4.479  0.00  0.00    +0.109 C 
ENDBRANCH   1   2
BRANCH   1  11
ATOM      8  N   LIG    1       24.725 -25.022   4.899  0.00  0.00    -0.328 N 
ATOM      9  H   LIG    1       25.563 -24.752   4.384  0.00  0.00    +0.145 HD
ATOM     10  H   LIG    1       24.267 -25.893   4.672  0.00  0.00    +0.145 HD
ATOM     11  C   LIG    1       24.282 -24.289   5.961  0.00  0.00    +0.228 C 
ATOM     12  O   LIG    1       23.360 -24.698   6.663  0.00  0.00    -0.274 OA
ENDBRANCH   1  11
TORSDOF 2
ENDMDL
MODEL 5
REMARK VINA RESULT:      -5.3      2.618      4.813
REMARK  Name = *****
REMARK                            x       y       z     vdW  Elec       q    Type
REMARK                         _______ _______ _______ _____ _____    ______ ____
ROOT
ATOM      1  C   LIG    1       31.270 -19.483   7.284  0.00  0.00    +0.203 C 
ENDROOT
BRANCH   1   2
ATOM      2  N   LIG    1       29.897 -19.969   7.250  0.00  0.00    -0.293 N 
ATOM      3  C   LIG    1       29.452 -21.073   7.958  0.00  0.00    +0.216 C 
ATOM      4  O   LIG    1       30.078 -21.674   8.814  0.00  0.00    -0.276 OA
ATOM      5  C   LIG    1       28.068 -21.415   7.469  0.00  0.00    +0.097 C 
ATOM      6  C   LIG    1       27.662 -20.170   6.688  0.00  0.00    +0.028 C 
ATOM      7  C   LIG    1       28.982 -19.604   6.200  0.00  0.00    +0.109 C 
ENDBRANCH   1   2
BRANCH   1  11
ATOM      8  N   LIG    1       31.397 -19.019   9.695  0.00  0.00    -0.328 N 
ATOM      9  H   LIG    1       31.182 -20.004   9.845  0.00  0.00    +0.145 HD
ATOM     10  H   LIG    1       31.608 -18.434  10.490  0.00  0.00    +0.145 HD
ATOM     11  C   LIG    1       31.519 -18.505   8.436  0.00  0.00    +0.228 C 
ATOM     12  O   LIG    1       31.917 -17.356   8.264  0.00  0.00    -0.274 OA
ENDBRANCH   1  11
TORSDOF 2
ENDMDL
MODEL 6
REMARK VINA RESULT:      -5.3      6.783      8.314
REMARK  Name = *****
REMARK                            x       y       z     vdW  Elec       q    Type
REMARK                         _______ _______ _______ _____ _____    ______ ____
ROOT
ATOM      1  C   LIG    1       25.921 -21.693   7.187  0.00  0.00    +0.203 C 
ENDROOT
BRANCH   1   2
ATOM      2  N   LIG    1       24.875 -21.045   6.406  0.00  0.00    -0.293 N 
ATOM      3  C   LIG    1       23.539 -21.029   6.770  0.00  0.00    +0.216 C 
ATOM      4  O   LIG    1       23.085 -21.392   7.842  0.00  0.00    -0.276 OA
ATOM      5  C   LIG    1       22.742 -20.506   5.603  0.00  0.00    +0.097 C 
ATOM      6  C   LIG    1       23.812 -19.895   4.703  0.00  0.00    +0.028 C 
ATOM      7  C   LIG    1       25.054 -20.706   5.018  0.00  0.00    +0.109 C 
ENDBRANCH   1   2
BRANCH   1  11
ATOM      8  N   LIG    1       27.676 -20.108   7.858  0.00  0.00    -0.328 N 
ATOM      9  H   LIG    1       28.066 -20.221   6.923  0.00  0.00    +0.145 HD
ATOM     10  H   LIG    1       28.091 -19.435   8.486  0.00  0.00    +0.145 HD
ATOM     11  C   LIG    1       26.537 -20.760   8.233  0.00  0.00    +0.228 C 
ATOM     12  O   LIG    1       25.995 -20.508   9.307  0.00  0.00    -0.274 OA
ENDBRANCH   1  11
TORSDOF 2
ENDMDL
MODEL 7
REMARK VINA RESULT:      -5.3      3.359      4.401
REMARK  Name = *****
REMARK                            x       y       z     vdW  Elec       q    Type
REMARK                         _______ _______ _______ _____ _____    ______ ____
ROOT
ATOM      1  C   LIG    1       30.969 -20.058   9.042  0.00  0.00    +0.203 C 
ENDROOT
BRANCH   1   2
ATOM      2  N   LIG    1       30.152 -19.787   7.866  0.00  0.00    -0.293 N 
ATOM      3  C   LIG    1       28.911 -20.360   7.641  0.00  0.00    +0.216 C 
ATOM      4  O   LIG    1       28.270 -21.017   8.443  0.00  0.00    -0.276 OA
ATOM      5  C   LIG    1       28.503 -20.050   6.223  0.00  0.00    +0.097 C 
ATOM      6  C   LIG    1       29.475 -18.945   5.821  0.00  0.00    +0.028 C 
ATOM      7  C   LIG    1       30.705 -19.221   6.664  0.00  0.00    +0.109 C 
ENDBRANCH   1   2
BRANCH   1  11
ATOM      8  N   LIG    1       32.062 -22.165   8.406  0.00  0.00    -0.328 N 
ATOM      9  H   LIG    1       32.544 -21.638   7.679  0.00  0.00    +0.145 HD
ATOM     10  H   LIG    1       32.295 -23.138   8.545  0.00  0.00    +0.145 HD
ATOM     11  C   LIG    1       31.197 -21.555   9.267  0.00  0.00    +0.228 C 
ATOM     12  O   LIG    1       30.733 -22.166  10.227  0.00  0.00    -0.274 OA
ENDBRANCH   1  11
TORSDOF 2
ENDMDL
MODEL 8
REMARK VINA RESULT:      -5.3      2.654      4.806
REMARK  Name = *****
REMARK                            x       y       z     vdW  Elec       q    Type
REMARK                         _______ _______ _______ _____ _____    ______ ____
ROOT
ATOM      1  C   LIG    1       30.101 -18.283   8.699  0.00  0.00    +0.203 C 
ENDROOT
BRANCH   1   2
ATOM      2  N   LIG    1       29.462 -19.188   7.752  0.00  0.00    -0.293 N 
ATOM      3  C   LIG    1       29.443 -18.983   6.383  0.00  0.00    +0.216 C 
ATOM      4  O   LIG    1       30.080 -18.139   5.777  0.00  0.00    -0.276 OA
ATOM      5  C   LIG    1       28.480 -19.971   5.776  0.00  0.00    +0.097 C 
ATOM      6  C   LIG    1       28.257 -20.971   6.905  0.00  0.00    +0.028 C 
ATOM      7  C   LIG    1       28.474 -20.151   8.162  0.00  0.00    +0.109 C 
ENDBRANCH   1   2
BRANCH   1  11
ATOM      8  N   LIG    1       32.419 -17.467   8.742  0.00  0.00    -0.328 N 
ATOM      9  H   LIG    1       32.040 -16.532   8.599  0.00  0.00    +0.145 HD
ATOM     10  H   LIG    1       33.411 -17.578   8.893  0.00  0.00    +0.145 HD
ATOM     11  C   LIG    1       31.600 -18.553   8.851  0.00  0.00    +0.228 C 
ATOM     12  O   LIG    1       32.054 -19.651   9.166  0.00  0.00    -0.274 OA
ENDBRANCH   1  11
TORSDOF 2
ENDMDL
MODEL 9
REMARK VINA RESULT:      -5.1      8.460      9.905
REMARK  Name = *****
REMARK                            x       y       z     vdW  Elec       q    Type
REMARK                         _______ _______ _______ _____ _____    ______ ____
ROOT
ATOM      1  C   LIG    1       24.763 -22.214   7.640  0.00  0.00    +0.203 C 
ENDROOT
BRANCH   1   2
ATOM      2  N   LIG    1       24.777 -23.486   6.928  0.00  0.00    -0.293 N 
ATOM      3  C   LIG    1       23.640 -24.223   6.643  0.00  0.00    +0.216 C 
ATOM      4  O   LIG    1       22.489 -23.848   6.790  0.00  0.00    -0.276 OA
ATOM      5  C   LIG    1       24.074 -25.577   6.143  0.00  0.00    +0.097 C 
ATOM      6  C   LIG    1       25.554 -25.372   5.836  0.00  0.00    +0.028 C 
ATOM      7  C   LIG    1       25.973 -24.277   6.798  0.00  0.00    +0.109 C 
ENDBRANCH   1   2
BRANCH   1  11
ATOM      8  N   LIG    1       23.172 -20.638   6.627  0.00  0.00    -0.328 N 
ATOM      9  H   LIG    1       22.445 -21.100   7.171  0.00  0.00    +0.145 HD
ATOM     10  H   LIG    1       22.935 -19.823   6.079  0.00  0.00    +0.145 HD
ATOM     11  C   LIG    1       24.478 -21.027   6.717  0.00  0.00    +0.228 C 
ATOM     12  O   LIG    1       25.365 -20.375   6.171  0.00  0.00    -0.274 OA
ENDBRANCH   1  11
TORSDOF 2
ENDMDL
