MODEL 1
REMARK VINA RESULT:      -7.3      0.000      0.000
REMARK  Name = *****
REMARK                            x       y       z     vdW  Elec       q    Type
REMARK                         _______ _______ _______ _____ _____    ______ ____
ROOT
ATOM      1  C   LIG    1       30.804 -19.647   7.739  0.00  0.00    +0.146 A 
ATOM      2  C   LIG    1       30.378 -20.922   8.137  0.00  0.00    +0.101 A 
ATOM      3  C   LIG    1       29.183 -21.442   7.613  0.00  0.00    +0.019 A 
ATOM      4  C   LIG    1       28.432 -20.707   6.695  0.00  0.00    +0.001 A 
ATOM      5  C   LIG    1       28.865 -19.445   6.298  0.00  0.00    +0.004 A 
ATOM      6  C   LIG    1       30.040 -18.909   6.827  0.00  0.00    +0.047 A 
ENDROOT
BRANCH   2   7
ATOM      7  C   LIG    1       31.084 -21.770   9.126  0.00  0.00    +0.340 C 
ATOM      8  O   LIG    1       30.657 -22.074  10.224  0.00  0.00    -0.245 OA
BRANCH   7   9
ATOM      9  O   LIG    1       32.236 -22.290   8.664  0.00  0.00    -0.477 OA
ATOM     10  H   LIG    1       32.038 -22.468   7.720  0.00  0.00    +0.295 HD
ENDBRANCH   7   9
ENDBRANCH   2   7
BRANCH   1  11
ATOM     11  O   LIG    1       31.918 -19.062   8.386  0.00  0.00    -0.425 OA
BRANCH  11  13
ATOM     12  C   LIG    1       31.008 -17.973  10.265  0.00  0.00    +0.136 C 
ATOM     13  C   LIG    1       31.842 -17.825   9.028  0.00  0.00    +0.309 C 
ATOM     14  O   LIG    1       32.336 -16.770   8.655  0.00  0.00    -0.251 OA
ENDBRANCH  11  13
ENDBRANCH   1  11
TORSDOF 4
ENDMDL
MODEL 2
REMARK VINA RESULT:      -6.7      5.529      7.053
REMARK  Name = *****
REMARK                            x       y       z     vdW  Elec       q    Type
REMARK                         _______ _______ _______ _____ _____    ______ ____
ROOT
ATOM      1  C   LIG    1       25.368 -22.608   6.897  0.00  0.00    +0.146 A 
ATOM      2  C   LIG    1       23.979 -22.539   6.719  0.00  0.00    +0.101 A 
ATOM      3  C   LIG    1       23.251 -23.724   6.524  0.00  0.00    +0.019 A 
ATOM      4  C   LIG    1       23.899 -24.961   6.520  0.00  0.00    +0.001 A 
ATOM      5  C   LIG    1       25.277 -25.023   6.704  0.00  0.00    +0.004 A 
ATOM      6  C   LIG    1       26.013 -23.850   6.879  0.00  0.00    +0.047 A 
ENDROOT
BRANCH   2   7
ATOM      7  C   LIG    1       23.201 -21.278   6.677  0.00  0.00    +0.340 C 
ATOM      8  O   LIG    1       22.483 -20.925   5.761  0.00  0.00    -0.245 OA
BRANCH   7   9
ATOM      9  O   LIG    1       23.265 -20.569   7.819  0.00  0.00    -0.477 OA
ATOM     10  H   LIG    1       22.861 -21.170   8.480  0.00  0.00    +0.295 HD
ENDBRANCH   7   9
ENDBRANCH   2   7
BRANCH   1  11
ATOM     11  O   LIG    1       26.116 -21.407   6.933  0.00  0.00    -0.425 OA
BRANCH  11  13
ATOM     12  C   LIG    1       27.936 -20.272   7.905  0.00  0.00    +0.136 C 
ATOM     13  C   LIG    1       26.570 -20.849   8.129  0.00  0.00    +0.309 C 
ATOM     14  O   LIG    1       25.990 -20.841   9.206  0.00  0.00    -0.251 OA
ENDBRANCH  11  13
ENDBRANCH   1  11
TORSDOF 4
ENDMDL
MODEL 3
REMARK VINA RESULT:      -6.6      5.525      6.956
REMARK  Name = *****
REMARK                            x       y       z     vdW  Elec       q    Type
REMARK                         _______ _______ _______ _____ _____    ______ ____
ROOT
ATOM      1  C   LIG    1       24.876 -20.500   5.199  0.00  0.00    +0.146 A 
ATOM      2  C   LIG    1       23.592 -20.692   5.729  0.00  0.00    +0.101 A 
ATOM      3  C   LIG    1       22.520 -19.936   5.226  0.00  0.00    +0.019 A 
ATOM      4  C   LIG    1       22.725 -19.011   4.202  0.00  0.00    +0.001 A 
ATOM      5  C   LIG    1       24.001 -18.829   3.675  0.00  0.00    +0.004 A 
ATOM      6  C   LIG    1       25.077 -19.561   4.180  0.00  0.00    +0.047 A 
ENDROOT
BRANCH   2   7
ATOM      7  C   LIG    1       23.273 -21.626   6.835  0.00  0.00    +0.340 C 
ATOM      8  O   LIG    1       22.798 -22.737   6.702  0.00  0.00    -0.245 OA
BRANCH   7   9
ATOM      9  O   LIG    1       23.661 -21.179   8.044  0.00  0.00    -0.477 OA
ATOM     10  H   LIG    1       24.515 -20.735   7.855  0.00  0.00    +0.295 HD
ENDBRANCH   7   9
ENDBRANCH   2   7
BRANCH   1  11
ATOM     11  O   LIG    1       25.975 -21.145   5.813  0.00  0.00    -0.425 OA
BRANCH  11  13
ATOM     12  C   LIG    1       28.110 -20.217   6.172  0.00  0.00    +0.136 C 
ATOM     13  C   LIG    1       26.769 -20.514   6.773  0.00  0.00    +0.309 C 
ATOM     14  O   LIG    1       26.462 -20.258   7.929  0.00  0.00    -0.251 OA
ENDBRANCH  11  13
ENDBRANCH   1  11
TORSDOF 4
ENDMDL
MODEL 4
REMARK VINA RESULT:      -6.6      2.230      3.880
REMARK  Name = *****
REMARK                            x       y       z     vdW  Elec       q    Type
REMARK                         _______ _______ _______ _____ _____    ______ ____
ROOT
ATOM      1  C   LIG    1       29.025 -20.793   7.871  0.00  0.00    +0.146 A 
ATOM      2  C   LIG    1       30.386 -20.805   8.210  0.00  0.00    +0.101 A 
ATOM      3  C   LIG    1       31.251 -19.870   7.619  0.00  0.00    +0.019 A 
ATOM      4  C   LIG    1       30.762 -18.927   6.713  0.00  0.00    +0.001 A 
ATOM      5  C   LIG    1       29.409 -18.915   6.386  0.00  0.00    +0.004 A 
ATOM      6  C   LIG    1       28.544 -19.852   6.952  0.00  0.00    +0.047 A 
ENDROOT
BRANCH   2   7
ATOM      7  C   LIG    1       31.010 -21.780   9.136  0.00  0.00    +0.340 C 
ATOM      8  O   LIG    1       30.629 -22.020  10.265  0.00  0.00    -0.245 OA
BRANCH   7   9
ATOM      9  O   LIG    1       32.009 -22.489   8.578  0.00  0.00    -0.477 OA
ATOM     10  H   LIG    1       31.670 -23.409   8.598  0.00  0.00    +0.295 HD
ENDBRANCH   7   9
ENDBRANCH   2   7
BRANCH   1  11
ATOM     11  O   LIG    1       28.191 -21.832   8.345  0.00  0.00    -0.425 OA
BRANCH  11  13
ATOM     12  C   LIG    1       26.211 -22.605   7.330  0.00  0.00    +0.136 C 
ATOM     13  C   LIG    1       26.800 -21.713   8.381  0.00  0.00    +0.309 C 
ATOM     14  O   LIG    1       26.142 -20.988   9.114  0.00  0.00    -0.251 OA
ENDBRANCH  11  13
ENDBRANCH   1  11
TORSDOF 4
ENDMDL
MODEL 5
REMARK VINA RESULT:      -6.5      6.581      7.772
REMARK  Name = *****
REMARK                            x       y       z     vdW  Elec       q    Type
REMARK                         _______ _______ _______ _____ _____    ______ ____
ROOT
ATOM      1  C   LIG    1       24.088 -21.684   6.871  0.00  0.00    +0.146 A 
ATOM      2  C   LIG    1       24.695 -22.948   6.888  0.00  0.00    +0.101 A 
ATOM      3  C   LIG    1       25.857 -23.143   7.653  0.00  0.00    +0.019 A 
ATOM      4  C   LIG    1       26.396 -22.095   8.401  0.00  0.00    +0.001 A 
ATOM      5  C   LIG    1       25.785 -20.845   8.386  0.00  0.00    +0.004 A 
ATOM      6  C   LIG    1       24.642 -20.634   7.614  0.00  0.00    +0.047 A 
ENDROOT
BRANCH   2   7
ATOM      7  C   LIG    1       24.220 -24.116   6.109  0.00  0.00    +0.340 C 
ATOM      8  O   LIG    1       23.519 -25.011   6.541  0.00  0.00    -0.245 OA
BRANCH   7   9
ATOM      9  O   LIG    1       24.546 -24.061   4.805  0.00  0.00    -0.477 OA
ATOM     10  H   LIG    1       24.256 -24.934   4.464  0.00  0.00    +0.295 HD
ENDBRANCH   7   9
ENDBRANCH   2   7
BRANCH   1  11
ATOM     11  O   LIG    1       23.015 -21.450   5.979  0.00  0.00    -0.425 OA
BRANCH  11  13
ATOM     12  C   LIG    1       22.432 -19.488   4.814  0.00  0.00    +0.136 C 
ATOM     13  C   LIG    1       23.188 -20.782   4.766  0.00  0.00    +0.309 C 
ATOM     14  O   LIG    1       23.818 -21.173   3.793  0.00  0.00    -0.251 OA
ENDBRANCH  11  13
ENDBRANCH   1  11
TORSDOF 4
ENDMDL
MODEL 6
REMARK VINA RESULT:      -6.4      4.753      6.969
REMARK  Name = *****
REMARK                            x       y       z     vdW  Elec       q    Type
REMARK                         _______ _______ _______ _____ _____    ______ ____
ROOT
ATOM      1  C   LIG    1       24.836 -21.614   6.501  0.00  0.00    +0.146 A 
ATOM      2  C   LIG    1       26.041 -21.035   6.925  0.00  0.00    +0.101 A 
ATOM      3  C   LIG    1       26.739 -20.182   6.054  0.00  0.00    +0.019 A 
ATOM      4  C   LIG    1       26.235 -19.902   4.783  0.00  0.00    +0.001 A 
ATOM      5  C   LIG    1       25.036 -20.474   4.370  0.00  0.00    +0.004 A 
ATOM      6  C   LIG    1       24.343 -21.339   5.219  0.00  0.00    +0.047 A 
ENDROOT
BRANCH   2   7
ATOM      7  C   LIG    1       26.676 -21.290   8.240  0.00  0.00    +0.340 C 
ATOM      8  O   LIG    1       27.853 -21.538   8.416  0.00  0.00    -0.245 OA
BRANCH   7   9
ATOM      9  O   LIG    1       25.842 -21.117   9.282  0.00  0.00    -0.477 OA
ATOM     10  H   LIG    1       26.420 -20.722   9.969  0.00  0.00    +0.295 HD
ENDBRANCH   7   9
ENDBRANCH   2   7
BRANCH   1  11
ATOM     11  O   LIG    1       24.220 -22.592   7.316  0.00  0.00    -0.425 OA
BRANCH  11  13
ATOM     12  C   LIG    1       25.324 -24.568   6.667  0.00  0.00    +0.136 C 
ATOM     13  C   LIG    1       24.000 -23.898   6.875  0.00  0.00    +0.309 C 
ATOM     14  O   LIG    1       22.919 -24.429   6.656  0.00  0.00    -0.251 OA
ENDBRANCH  11  13
ENDBRANCH   1  11
TORSDOF 4
ENDMDL
MODEL 7
REMARK VINA RESULT:      -6.3      5.982      8.133
REMARK  Name = *****
REMARK                            x       y       z     vdW  Elec       q    Type
REMARK                         _______ _______ _______ _____ _____    ______ ____
ROOT
ATOM      1  C   LIG    1       25.386 -22.776   6.397  0.00  0.00    +0.146 A 
ATOM      2  C   LIG    1       25.227 -21.470   5.912  0.00  0.00    +0.101 A 
ATOM      3  C   LIG    1       25.658 -20.388   6.697  0.00  0.00    +0.019 A 
ATOM      4  C   LIG    1       26.252 -20.607   7.941  0.00  0.00    +0.001 A 
ATOM      5  C   LIG    1       26.414 -21.906   8.414  0.00  0.00    +0.004 A 
ATOM      6  C   LIG    1       25.971 -22.989   7.652  0.00  0.00    +0.047 A 
ENDROOT
BRANCH   2   7
ATOM      7  C   LIG    1       24.584 -21.128   4.621  0.00  0.00    +0.340 C 
ATOM      8  O   LIG    1       25.095 -20.472   3.734  0.00  0.00    -0.245 OA
BRANCH   7   9
ATOM      9  O   LIG    1       23.382 -21.707   4.449  0.00  0.00    -0.477 OA
ATOM     10  H   LIG    1       23.251 -22.205   5.284  0.00  0.00    +0.295 HD
ENDBRANCH   7   9
ENDBRANCH   2   7
BRANCH   1  11
ATOM     11  O   LIG    1       24.809 -23.850   5.679  0.00  0.00    -0.425 OA
BRANCH  11  13
ATOM     12  C   LIG    1       24.282 -26.111   6.071  0.00  0.00    +0.136 C 
ATOM     13  C   LIG    1       23.843 -24.687   6.239  0.00  0.00    +0.309 C 
ATOM     14  O   LIG    1       22.789 -24.351   6.761  0.00  0.00    -0.251 OA
ENDBRANCH  11  13
ENDBRANCH   1  11
TORSDOF 4
ENDMDL
MODEL 8
REMARK VINA RESULT:      -6.2      6.124      8.200
REMARK  Name = *****
REMARK                            x       y       z     vdW  Elec       q    Type
REMARK                         _______ _______ _______ _____ _____    ______ ____
ROOT
ATOM      1  C   LIG    1       25.326 -22.620   6.414  0.00  0.00    +0.146 A 
ATOM      2  C   LIG    1       24.359 -21.631   6.649  0.00  0.00    +0.101 A 
ATOM      3  C   LIG    1       24.583 -20.676   7.655  0.00  0.00    +0.019 A 
ATOM      4  C   LIG    1       25.759 -20.701   8.406  0.00  0.00    +0.001 A 
ATOM      5  C   LIG    1       26.717 -21.680   8.163  0.00  0.00    +0.004 A 
ATOM      6  C   LIG    1       26.498 -22.646   7.180  0.00  0.00    +0.047 A 
ENDROOT
BRANCH   2   7
ATOM      7  C   LIG    1       23.067 -21.534   5.929  0.00  0.00    +0.340 C 
ATOM      8  O   LIG    1       22.711 -20.592   5.248  0.00  0.00    -0.245 OA
BRANCH   7   9
ATOM      9  O   LIG    1       22.328 -22.656   6.000  0.00  0.00    -0.477 OA
ATOM     10  H   LIG    1       22.219 -22.793   6.965  0.00  0.00    +0.295 HD
ENDBRANCH   7   9
ENDBRANCH   2   7
BRANCH   1  11
ATOM     11  O   LIG    1       25.029 -23.669   5.513  0.00  0.00    -0.425 OA
BRANCH  11  13
ATOM     12  C   LIG    1       25.803 -25.888   5.665  0.00  0.00    +0.136 C 
ATOM     13  C   LIG    1       24.671 -24.946   5.949  0.00  0.00    +0.309 C 
ATOM     14  O   LIG    1       23.609 -25.282   6.454  0.00  0.00    -0.251 OA
ENDBRANCH  11  13
ENDBRANCH   1  11
TORSDOF 4
ENDMDL
MODEL 9
REMARK VINA RESULT:      -6.2      3.978      5.321
REMARK  Name = *****
REMARK                            x       y       z     vdW  Elec       q    Type
REMARK                         _______ _______ _______ _____ _____    ______ ____
ROOT
ATOM      1  C   LIG    1       25.969 -20.872   6.166  0.00  0.00    +0.146 A 
ATOM      2  C   LIG    1       25.162 -21.045   7.300  0.00  0.00    +0.101 A 
ATOM      3  C   LIG    1       23.790 -20.759   7.218  0.00  0.00    +0.019 A 
ATOM      4  C   LIG    1       23.228 -20.320   6.018  0.00  0.00    +0.001 A 
ATOM      5  C   LIG    1       24.032 -20.156   4.894  0.00  0.00    +0.004 A 
ATOM      6  C   LIG    1       25.401 -20.418   4.969  0.00  0.00    +0.047 A 
ENDROOT
BRANCH   2   7
ATOM      7  C   LIG    1       25.664 -21.478   8.626  0.00  0.00    +0.340 C 
ATOM      8  O   LIG    1       25.976 -22.615   8.922  0.00  0.00    -0.245 OA
BRANCH   7   9
ATOM      9  O   LIG    1       25.858 -20.461   9.486  0.00  0.00    -0.477 OA
ATOM     10  H   LIG    1       25.218 -20.650  10.204  0.00  0.00    +0.295 HD
ENDBRANCH   7   9
ENDBRANCH   2   7
BRANCH   1  11
ATOM     11  O   LIG    1       27.371 -21.007   6.293  0.00  0.00    -0.425 OA
BRANCH  11  13
ATOM     12  C   LIG    1       28.754 -19.181   5.745  0.00  0.00    +0.136 C 
ATOM     13  C   LIG    1       28.169 -20.006   6.851  0.00  0.00    +0.309 C 
ATOM     14  O   LIG    1       28.398 -19.823   8.039  0.00  0.00    -0.251 OA
ENDBRANCH  11  13
ENDBRANCH   1  11
TORSDOF 4
ENDMDL
