MODEL 1
REMARK VINA RESULT:      -7.1      0.000      0.000
REMARK  Name = *****
REMARK                            x       y       z     vdW  Elec       q    Type
REMARK                         _______ _______ _______ _____ _____    ______ ____
ROOT
ATOM      1  C   LIG    1       26.972 -21.052   7.171  0.00  0.00    +0.234 C 
ATOM      2  N   LIG    1       28.267 -21.086   6.711  0.00  0.00    -0.284 N 
ATOM      3  H   LIG    1       28.365 -21.609   5.857  0.00  0.00    +0.155 HD
ATOM      4  O   LIG    1       26.562 -20.256   8.049  0.00  0.00    -0.274 OA
ENDROOT
BRANCH   2   5
ATOM      5  C   LIG    1       29.378 -20.291   7.135  0.00  0.00    +0.039 A 
ATOM      6  C   LIG    1       30.168 -20.742   8.240  0.00  0.00    -0.029 A 
ATOM      7  C   LIG    1       30.136 -22.140   8.809  0.00  0.00    +0.045 C 
ATOM      8  C   LIG    1       31.186 -19.918   8.775  0.00  0.00    +0.005 A 
ATOM      9  C   LIG    1       31.442 -18.660   8.260  0.00  0.00    +0.001 A 
ATOM     10  C   LIG    1       30.723 -18.229   7.158  0.00  0.00    +0.005 A 
ATOM     11  C   LIG    1       29.709 -19.023   6.575  0.00  0.00    -0.029 A 
ATOM     12  C   LIG    1       29.038 -18.404   5.377  0.00  0.00    +0.045 C 
ENDBRANCH   2   5
BRANCH   1  13
ATOM     13  C   LIG    1       25.960 -22.105   6.586  0.00  0.00    +0.143 C 
BRANCH  13  14
ATOM     14  C   LIG    1       26.084 -23.421   7.424  0.00  0.00    +0.025 C 
ATOM     15  C   LIG    1       25.907 -24.768   6.735  0.00  0.00    +0.006 C 
ENDBRANCH  13  14
BRANCH  13  16
ATOM     16  N   LIG    1       24.623 -21.447   6.431  0.00  0.00    -0.292 NA
BRANCH  16  17
ATOM     17  C   LIG    1       23.627 -22.020   7.367  0.00  0.00    +0.082 C 
ATOM     18  C   LIG    1       22.652 -22.999   6.711  0.00  0.00    +0.020 C 
ENDBRANCH  16  17
BRANCH  16  19
ATOM     19  C   LIG    1       24.119 -21.422   5.034  0.00  0.00    +0.085 C 
BRANCH  19  21
ATOM     20  C   LIG    1       22.527 -19.389   5.041  0.00  0.00    +0.005 C 
ATOM     21  C   LIG    1       23.817 -20.005   4.513  0.00  0.00    +0.012 C 
ENDBRANCH  19  21
ENDBRANCH  16  19
ENDBRANCH  13  16
ENDBRANCH   1  13
TORSDOF 7
ENDMDL
MODEL 2
REMARK VINA RESULT:      -7.1      1.519      6.750
REMARK  Name = *****
REMARK                            x       y       z     vdW  Elec       q    Type
REMARK                         _______ _______ _______ _____ _____    ______ ____
ROOT
ATOM      1  C   LIG    1       27.401 -21.538   7.463  0.00  0.00    +0.234 C 
ATOM      2  N   LIG    1       26.522 -21.976   6.500  0.00  0.00    -0.284 N 
ATOM      3  H   LIG    1       26.931 -21.999   5.580  0.00  0.00    +0.155 HD
ATOM      4  O   LIG    1       27.213 -21.677   8.695  0.00  0.00    -0.274 OA
ENDROOT
BRANCH   2   5
ATOM      5  C   LIG    1       25.256 -22.615   6.681  0.00  0.00    +0.039 A 
ATOM      6  C   LIG    1       25.158 -24.027   6.470  0.00  0.00    -0.029 A 
ATOM      7  C   LIG    1       26.335 -24.969   6.380  0.00  0.00    +0.045 C 
ATOM      8  C   LIG    1       23.898 -24.670   6.502  0.00  0.00    +0.005 A 
ATOM      9  C   LIG    1       22.732 -23.961   6.727  0.00  0.00    +0.001 A 
ATOM     10  C   LIG    1       22.813 -22.603   6.985  0.00  0.00    +0.005 A 
ATOM     11  C   LIG    1       24.050 -21.919   6.982  0.00  0.00    -0.029 A 
ATOM     12  C   LIG    1       23.953 -20.448   7.294  0.00  0.00    +0.045 C 
ENDBRANCH   2   5
BRANCH   1  13
ATOM     13  C   LIG    1       28.696 -20.785   6.984  0.00  0.00    +0.143 C 
BRANCH  13  14
ATOM     14  C   LIG    1       28.275 -19.717   5.920  0.00  0.00    +0.025 C 
ATOM     15  C   LIG    1       29.306 -18.714   5.417  0.00  0.00    +0.006 C 
ENDBRANCH  13  14
BRANCH  13  16
ATOM     16  N   LIG    1       29.476 -20.362   8.192  0.00  0.00    -0.292 NA
BRANCH  16  17
ATOM     17  C   LIG    1       29.089 -19.002   8.636  0.00  0.00    +0.082 C 
ATOM     18  C   LIG    1       30.277 -18.093   8.953  0.00  0.00    +0.020 C 
ENDBRANCH  16  17
BRANCH  16  19
ATOM     19  C   LIG    1       30.947 -20.497   8.039  0.00  0.00    +0.085 C 
BRANCH  19  21
ATOM     20  C   LIG    1       30.627 -22.249   9.907  0.00  0.00    +0.005 C 
ATOM     21  C   LIG    1       31.545 -21.668   8.839  0.00  0.00    +0.012 C 
ENDBRANCH  19  21
ENDBRANCH  16  19
ENDBRANCH  13  16
ENDBRANCH   1  13
TORSDOF 7
ENDMDL
MODEL 3
REMARK VINA RESULT:      -6.8      0.342      1.988
REMARK  Name = *****
REMARK                            x       y       z     vdW  Elec       q    Type
REMARK                         _______ _______ _______ _____ _____    ______ ____
ROOT
ATOM      1  C   LIG    1       26.780 -21.169   7.092  0.00  0.00    +0.234 C 
ATOM      2  N   LIG    1       28.083 -21.250   6.662  0.00  0.00    -0.284 N 
ATOM      3  H   LIG    1       28.189 -21.816   5.837  0.00  0.00    +0.155 HD
ATOM      4  O   LIG    1       26.367 -20.324   7.921  0.00  0.00    -0.274 OA
ENDROOT
BRANCH   2   5
ATOM      5  C   LIG    1       29.201 -20.458   7.072  0.00  0.00    +0.039 A 
ATOM      6  C   LIG    1       29.523 -19.279   6.325  0.00  0.00    -0.029 A 
ATOM      7  C   LIG    1       28.605 -18.612   5.330  0.00  0.00    +0.045 C 
ATOM      8  C   LIG    1       30.700 -18.550   6.614  0.00  0.00    +0.005 A 
ATOM      9  C   LIG    1       31.573 -18.951   7.608  0.00  0.00    +0.001 A 
ATOM     10  C   LIG    1       31.251 -20.058   8.375  0.00  0.00    +0.005 A 
ATOM     11  C   LIG    1       30.077 -20.810   8.139  0.00  0.00    -0.029 A 
ATOM     12  C   LIG    1       29.879 -21.974   9.074  0.00  0.00    +0.045 C 
ENDBRANCH   2   5
BRANCH   1  13
ATOM     13  C   LIG    1       25.759 -22.230   6.536  0.00  0.00    +0.143 C 
BRANCH  13  14
ATOM     14  C   LIG    1       25.908 -23.541   7.378  0.00  0.00    +0.025 C 
ATOM     15  C   LIG    1       25.871 -24.892   6.675  0.00  0.00    +0.006 C 
ENDBRANCH  13  14
BRANCH  13  16
ATOM     16  N   LIG    1       24.416 -21.578   6.407  0.00  0.00    -0.292 NA
BRANCH  16  17
ATOM     17  C   LIG    1       23.426 -22.197   7.320  0.00  0.00    +0.082 C 
ATOM     18  C   LIG    1       22.521 -23.228   6.644  0.00  0.00    +0.020 C 
ENDBRANCH  16  17
BRANCH  16  19
ATOM     19  C   LIG    1       23.911 -21.502   5.012  0.00  0.00    +0.085 C 
BRANCH  19  21
ATOM     20  C   LIG    1       22.489 -19.348   5.046  0.00  0.00    +0.005 C 
ATOM     21  C   LIG    1       23.721 -20.062   4.503  0.00  0.00    +0.012 C 
ENDBRANCH  19  21
ENDBRANCH  16  19
ENDBRANCH  13  16
ENDBRANCH   1  13
TORSDOF 7
ENDMDL
MODEL 4
REMARK VINA RESULT:      -6.8      1.337      6.752
REMARK  Name = *****
REMARK                            x       y       z     vdW  Elec       q    Type
REMARK                         _______ _______ _______ _____ _____    ______ ____
ROOT
ATOM      1  C   LIG    1       28.069 -20.170   7.032  0.00  0.00    +0.234 C 
ATOM      2  N   LIG    1       27.257 -20.812   6.127  0.00  0.00    -0.284 N 
ATOM      3  H   LIG    1       27.774 -21.275   5.398  0.00  0.00    +0.155 HD
ATOM      4  O   LIG    1       27.681 -19.760   8.152  0.00  0.00    -0.274 OA
ENDROOT
BRANCH   2   5
ATOM      5  C   LIG    1       25.862 -21.103   6.240  0.00  0.00    +0.039 A 
ATOM      6  C   LIG    1       24.943 -20.432   5.372  0.00  0.00    -0.029 A 
ATOM      7  C   LIG    1       25.332 -19.673   4.126  0.00  0.00    +0.045 C 
ATOM      8  C   LIG    1       23.548 -20.588   5.548  0.00  0.00    +0.005 A 
ATOM      9  C   LIG    1       23.032 -21.379   6.558  0.00  0.00    +0.001 A 
ATOM     10  C   LIG    1       23.906 -22.078   7.374  0.00  0.00    +0.005 A 
ATOM     11  C   LIG    1       25.308 -21.969   7.226  0.00  0.00    -0.029 A 
ATOM     12  C   LIG    1       26.107 -22.808   8.190  0.00  0.00    +0.045 C 
ENDBRANCH   2   5
BRANCH   1  13
ATOM     13  C   LIG    1       29.562 -19.901   6.614  0.00  0.00    +0.143 C 
BRANCH  13  14
ATOM     14  C   LIG    1       29.634 -18.491   5.937  0.00  0.00    +0.025 C 
ATOM     15  C   LIG    1       28.558 -18.085   4.937  0.00  0.00    +0.006 C 
ENDBRANCH  13  14
BRANCH  13  16
ATOM     16  N   LIG    1       30.448 -20.210   7.782  0.00  0.00    -0.292 NA
BRANCH  16  17
ATOM     17  C   LIG    1       30.063 -21.485   8.430  0.00  0.00    +0.082 C 
ATOM     18  C   LIG    1       31.180 -22.121   9.259  0.00  0.00    +0.020 C 
ENDBRANCH  16  17
BRANCH  16  19
ATOM     19  C   LIG    1       30.561 -19.102   8.765  0.00  0.00    +0.085 C 
BRANCH  19  21
ATOM     20  C   LIG    1       31.903 -16.952   9.259  0.00  0.00    +0.005 C 
ATOM     21  C   LIG    1       31.920 -18.380   8.726  0.00  0.00    +0.012 C 
ENDBRANCH  19  21
ENDBRANCH  16  19
ENDBRANCH  13  16
ENDBRANCH   1  13
TORSDOF 7
ENDMDL
MODEL 5
REMARK VINA RESULT:      -6.6      1.307      6.848
REMARK  Name = *****
REMARK                            x       y       z     vdW  Elec       q    Type
REMARK                         _______ _______ _______ _____ _____    ______ ____
ROOT
ATOM      1  C   LIG    1       27.874 -20.400   7.285  0.00  0.00    +0.234 C 
ATOM      2  N   LIG    1       27.194 -20.955   6.226  0.00  0.00    -0.284 N 
ATOM      3  H   LIG    1       27.803 -21.410   5.566  0.00  0.00    +0.155 HD
ATOM      4  O   LIG    1       27.325 -20.024   8.348  0.00  0.00    -0.274 OA
ENDROOT
BRANCH   2   5
ATOM      5  C   LIG    1       25.788 -21.179   6.096  0.00  0.00    +0.039 A 
ATOM      6  C   LIG    1       25.037 -20.352   5.200  0.00  0.00    -0.029 A 
ATOM      7  C   LIG    1       25.639 -19.467   4.135  0.00  0.00    +0.045 C 
ATOM      8  C   LIG    1       23.627 -20.450   5.149  0.00  0.00    +0.005 A 
ATOM      9  C   LIG    1       22.934 -21.330   5.961  0.00  0.00    +0.001 A 
ATOM     10  C   LIG    1       23.647 -22.174   6.795  0.00  0.00    +0.005 A 
ATOM     11  C   LIG    1       25.058 -22.128   6.868  0.00  0.00    -0.029 A 
ATOM     12  C   LIG    1       25.670 -23.125   7.819  0.00  0.00    +0.045 C 
ENDBRANCH   2   5
BRANCH   1  13
ATOM     13  C   LIG    1       29.425 -20.190   7.129  0.00  0.00    +0.143 C 
BRANCH  13  14
ATOM     14  C   LIG    1       29.687 -19.473   5.763  0.00  0.00    +0.025 C 
ATOM     15  C   LIG    1       28.834 -18.273   5.371  0.00  0.00    +0.006 C 
ENDBRANCH  13  14
BRANCH  13  16
ATOM     16  N   LIG    1       29.955 -19.591   8.396  0.00  0.00    -0.292 NA
BRANCH  16  17
ATOM     17  C   LIG    1       30.262 -18.152   8.226  0.00  0.00    +0.082 C 
ATOM     18  C   LIG    1       30.217 -17.351   9.528  0.00  0.00    +0.020 C 
ENDBRANCH  16  17
BRANCH  16  19
ATOM     19  C   LIG    1       31.098 -20.335   8.985  0.00  0.00    +0.085 C 
BRANCH  19  21
ATOM     20  C   LIG    1       31.831 -22.778   8.587  0.00  0.00    +0.005 C 
ATOM     21  C   LIG    1       30.811 -21.830   9.207  0.00  0.00    +0.012 C 
ENDBRANCH  19  21
ENDBRANCH  16  19
ENDBRANCH  13  16
ENDBRANCH   1  13
TORSDOF 7
ENDMDL
MODEL 6
REMARK VINA RESULT:      -6.5      1.371      6.615
REMARK  Name = *****
REMARK                            x       y       z     vdW  Elec       q    Type
REMARK                         _______ _______ _______ _____ _____    ______ ____
ROOT
ATOM      1  C   LIG    1       27.552 -20.461   8.031  0.00  0.00    +0.234 C 
ATOM      2  N   LIG    1       27.290 -20.989   6.789  0.00  0.00    -0.284 N 
ATOM      3  H   LIG    1       28.110 -21.365   6.343  0.00  0.00    +0.155 HD
ATOM      4  O   LIG    1       26.666 -20.185   8.875  0.00  0.00    -0.274 OA
ENDROOT
BRANCH   2   5
ATOM      5  C   LIG    1       26.020 -21.288   6.204  0.00  0.00    +0.039 A 
ATOM      6  C   LIG    1       25.487 -20.397   5.218  0.00  0.00    -0.029 A 
ATOM      7  C   LIG    1       26.280 -19.333   4.500  0.00  0.00    +0.045 C 
ATOM      8  C   LIG    1       24.176 -20.583   4.721  0.00  0.00    +0.005 A 
ATOM      9  C   LIG    1       23.371 -21.613   5.172  0.00  0.00    +0.001 A 
ATOM     10  C   LIG    1       23.889 -22.515   6.087  0.00  0.00    +0.005 A 
ATOM     11  C   LIG    1       25.199 -22.384   6.599  0.00  0.00    -0.029 A 
ATOM     12  C   LIG    1       25.602 -23.460   7.574  0.00  0.00    +0.045 C 
ENDBRANCH   2   5
BRANCH   1  13
ATOM     13  C   LIG    1       29.051 -20.150   8.392  0.00  0.00    +0.143 C 
BRANCH  13  14
ATOM     14  C   LIG    1       29.912 -21.407   8.034  0.00  0.00    +0.025 C 
ATOM     15  C   LIG    1       31.038 -21.835   8.968  0.00  0.00    +0.006 C 
ENDBRANCH  13  14
BRANCH  13  16
ATOM     16  N   LIG    1       29.413 -18.814   7.818  0.00  0.00    -0.292 NA
BRANCH  16  17
ATOM     17  C   LIG    1       30.186 -18.957   6.563  0.00  0.00    +0.082 C 
ATOM     18  C   LIG    1       29.502 -18.343   5.341  0.00  0.00    +0.020 C 
ENDBRANCH  16  17
BRANCH  16  19
ATOM     19  C   LIG    1       30.085 -17.904   8.781  0.00  0.00    +0.085 C 
BRANCH  19  21
ATOM     20  C   LIG    1       32.332 -16.752   9.321  0.00  0.00    +0.005 C 
ATOM     21  C   LIG    1       31.621 -17.953   8.707  0.00  0.00    +0.012 C 
ENDBRANCH  19  21
ENDBRANCH  16  19
ENDBRANCH  13  16
ENDBRANCH   1  13
TORSDOF 7
ENDMDL
MODEL 7
REMARK VINA RESULT:      -6.3      1.373      6.466
REMARK  Name = *****
REMARK                            x       y       z     vdW  Elec       q    Type
REMARK                         _______ _______ _______ _____ _____    ______ ____
ROOT
ATOM      1  C   LIG    1       28.055 -20.180   6.999  0.00  0.00    +0.234 C 
ATOM      2  N   LIG    1       27.255 -20.867   6.117  0.00  0.00    -0.284 N 
ATOM      3  H   LIG    1       27.781 -21.391   5.438  0.00  0.00    +0.155 HD
ATOM      4  O   LIG    1       27.645 -19.685   8.076  0.00  0.00    -0.274 OA
ENDROOT
BRANCH   2   5
ATOM      5  C   LIG    1       25.851 -21.122   6.209  0.00  0.00    +0.039 A 
ATOM      6  C   LIG    1       25.378 -22.035   7.205  0.00  0.00    -0.029 A 
ATOM      7  C   LIG    1       26.188 -22.520   8.383  0.00  0.00    +0.045 C 
ATOM      8  C   LIG    1       24.017 -22.418   7.236  0.00  0.00    +0.005 A 
ATOM      9  C   LIG    1       23.110 -21.936   6.310  0.00  0.00    +0.001 A 
ATOM     10  C   LIG    1       23.538 -21.012   5.372  0.00  0.00    +0.005 A 
ATOM     11  C   LIG    1       24.884 -20.583   5.312  0.00  0.00    -0.029 A 
ATOM     12  C   LIG    1       25.171 -19.566   4.238  0.00  0.00    +0.045 C 
ENDBRANCH   2   5
BRANCH   1  13
ATOM     13  C   LIG    1       29.564 -19.971   6.607  0.00  0.00    +0.143 C 
BRANCH  13  14
ATOM     14  C   LIG    1       29.695 -18.591   5.881  0.00  0.00    +0.025 C 
ATOM     15  C   LIG    1       28.575 -18.118   4.963  0.00  0.00    +0.006 C 
ENDBRANCH  13  14
BRANCH  13  16
ATOM     16  N   LIG    1       30.414 -20.262   7.807  0.00  0.00    -0.292 NA
BRANCH  16  17
ATOM     17  C   LIG    1       29.991 -21.514   8.477  0.00  0.00    +0.082 C 
ATOM     18  C   LIG    1       31.084 -22.161   9.328  0.00  0.00    +0.020 C 
ENDBRANCH  16  17
BRANCH  16  19
ATOM     19  C   LIG    1       30.519 -19.130   8.763  0.00  0.00    +0.085 C 
BRANCH  19  21
ATOM     20  C   LIG    1       31.868 -16.979   9.231  0.00  0.00    +0.005 C 
ATOM     21  C   LIG    1       31.882 -18.417   8.726  0.00  0.00    +0.012 C 
ENDBRANCH  19  21
ENDBRANCH  16  19
ENDBRANCH  13  16
ENDBRANCH   1  13
TORSDOF 7
ENDMDL
MODEL 8
REMARK VINA RESULT:      -6.3      1.432      2.933
REMARK  Name = *****
REMARK                            x       y       z     vdW  Elec       q    Type
REMARK                         _______ _______ _______ _____ _____    ______ ____
ROOT
ATOM      1  C   LIG    1       25.886 -20.619   6.521  0.00  0.00    +0.234 C 
ATOM      2  N   LIG    1       27.134 -20.598   5.944  0.00  0.00    -0.284 N 
ATOM      3  H   LIG    1       27.101 -20.672   4.941  0.00  0.00    +0.155 HD
ATOM      4  O   LIG    1       25.657 -20.277   7.706  0.00  0.00    -0.274 OA
ENDROOT
BRANCH   2   5
ATOM      5  C   LIG    1       28.381 -20.237   6.544  0.00  0.00    +0.039 A 
ATOM      6  C   LIG    1       29.137 -19.164   5.974  0.00  0.00    -0.029 A 
ATOM      7  C   LIG    1       28.597 -18.160   4.984  0.00  0.00    +0.045 C 
ATOM      8  C   LIG    1       30.436 -18.872   6.452  0.00  0.00    +0.005 A 
ATOM      9  C   LIG    1       31.015 -19.610   7.468  0.00  0.00    +0.001 A 
ATOM     10  C   LIG    1       30.277 -20.618   8.067  0.00  0.00    +0.005 A 
ATOM     11  C   LIG    1       28.969 -20.936   7.637  0.00  0.00    -0.029 A 
ATOM     12  C   LIG    1       28.310 -22.051   8.408  0.00  0.00    +0.045 C 
ENDBRANCH   2   5
BRANCH   1  13
ATOM     13  C   LIG    1       24.685 -21.144   5.650  0.00  0.00    +0.143 C 
BRANCH  13  14
ATOM     14  C   LIG    1       23.777 -22.040   6.558  0.00  0.00    +0.025 C 
ATOM     15  C   LIG    1       24.173 -23.488   6.816  0.00  0.00    +0.006 C 
ENDBRANCH  13  14
BRANCH  13  16
ATOM     16  N   LIG    1       24.086 -19.984   4.915  0.00  0.00    -0.292 NA
BRANCH  16  17
ATOM     17  C   LIG    1       22.646 -19.834   5.226  0.00  0.00    +0.082 C 
ATOM     18  C   LIG    1       21.972 -18.672   4.494  0.00  0.00    +0.020 C 
ENDBRANCH  16  17
BRANCH  16  19
ATOM     19  C   LIG    1       24.338 -20.001   3.451  0.00  0.00    +0.085 C 
BRANCH  19  21
ATOM     20  C   LIG    1       25.524 -17.711   3.331  0.00  0.00    +0.005 C 
ATOM     21  C   LIG    1       25.586 -19.204   3.031  0.00  0.00    +0.012 C 
ENDBRANCH  19  21
ENDBRANCH  16  19
ENDBRANCH  13  16
ENDBRANCH   1  13
TORSDOF 7
ENDMDL
MODEL 9
REMARK VINA RESULT:      -6.3      1.748      6.293
REMARK  Name = *****
REMARK                            x       y       z     vdW  Elec       q    Type
REMARK                         _______ _______ _______ _____ _____    ______ ____
ROOT
ATOM      1  C   LIG    1       28.377 -20.881   7.505  0.00  0.00    +0.234 C 
ATOM      2  N   LIG    1       27.195 -20.188   7.388  0.00  0.00    -0.284 N 
ATOM      3  H   LIG    1       27.310 -19.196   7.515  0.00  0.00    +0.155 HD
ATOM      4  O   LIG    1       28.532 -22.067   7.129  0.00  0.00    -0.274 OA
ENDROOT
BRANCH   2   5
ATOM      5  C   LIG    1       25.943 -20.652   6.877  0.00  0.00    +0.039 A 
ATOM      6  C   LIG    1       25.093 -21.426   7.730  0.00  0.00    -0.029 A 
ATOM      7  C   LIG    1       25.246 -21.537   9.228  0.00  0.00    +0.045 C 
ATOM      8  C   LIG    1       23.915 -22.019   7.219  0.00  0.00    +0.005 A 
ATOM      9  C   LIG    1       23.555 -21.881   5.891  0.00  0.00    +0.001 A 
ATOM     10  C   LIG    1       24.338 -21.092   5.064  0.00  0.00    +0.005 A 
ATOM     11  C   LIG    1       25.513 -20.463   5.532  0.00  0.00    -0.029 A 
ATOM     12  C   LIG    1       26.235 -19.634   4.501  0.00  0.00    +0.045 C 
ENDBRANCH   2   5
BRANCH   1  13
ATOM     13  C   LIG    1       29.591 -20.149   8.188  0.00  0.00    +0.143 C 
BRANCH  13  14
ATOM     14  C   LIG    1       30.820 -21.117   8.168  0.00  0.00    +0.025 C 
ATOM     15  C   LIG    1       31.102 -21.997   9.380  0.00  0.00    +0.006 C 
ENDBRANCH  13  14
BRANCH  13  16
ATOM     16  N   LIG    1       29.715 -18.778   7.597  0.00  0.00    -0.292 NA
BRANCH  16  17
ATOM     17  C   LIG    1       30.190 -18.835   6.195  0.00  0.00    +0.082 C 
ATOM     18  C   LIG    1       29.260 -18.143   5.197  0.00  0.00    +0.020 C 
ENDBRANCH  16  17
BRANCH  16  19
ATOM     19  C   LIG    1       30.521 -17.837   8.417  0.00  0.00    +0.085 C 
BRANCH  19  21
ATOM     20  C   LIG    1       30.816 -16.731  10.731  0.00  0.00    +0.005 C 
ATOM     21  C   LIG    1       30.066 -17.753   9.885  0.00  0.00    +0.012 C 
ENDBRANCH  19  21
ENDBRANCH  16  19
ENDBRANCH  13  16
ENDBRANCH   1  13
TORSDOF 7
ENDMDL
