MODEL 1
REMARK VINA RESULT:      -5.2      0.000      0.000
REMARK  Name = *****
REMARK                            x       y       z     vdW  Elec       q    Type
REMARK                         _______ _______ _______ _____ _____    ______ ____
ROOT
ATOM      1  C   LIG    1       22.678 -19.286   4.100  0.00  0.00    +0.159 A 
ATOM      2  C   LIG    1       22.738 -20.535   4.892  0.00  0.00    +0.179 A 
ATOM      3  F   LIG    1       21.585 -21.147   5.213  0.00  0.00    -0.200 F 
ATOM      4  C   LIG    1       23.939 -20.966   5.258  0.00  0.00    +0.135 A 
ATOM      5  N   LIG    1       25.070 -20.258   4.899  0.00  0.00    -0.269 N 
ATOM      6  C   LIG    1       24.992 -19.120   4.085  0.00  0.00    +0.352 A 
ATOM      7  O   LIG    1       26.012 -18.563   3.692  0.00  0.00    -0.244 OA
ATOM      8  N   LIG    1       23.746 -18.641   3.738  0.00  0.00    -0.175 NA
ENDROOT
BRANCH   5   9
ATOM      9  C   LIG    1       26.400 -20.720   5.273  0.00  0.00    +0.235 C 
ATOM     10  O   LIG    1       27.349 -19.659   5.083  0.00  0.00    -0.340 OA
ATOM     11  C   LIG    1       28.587 -20.036   5.701  0.00  0.00    +0.203 C 
ATOM     12  S   LIG    1       28.248 -21.193   7.062  0.00  0.00    -0.123 S 
ATOM     13  C   LIG    1       26.476 -21.163   6.735  0.00  0.00    +0.126 C 
BRANCH  11  14
ATOM     14  C   LIG    1       29.293 -18.771   6.215  0.00  0.00    +0.198 C 
BRANCH  14  15
ATOM     15  O   LIG    1       29.466 -17.794   5.183  0.00  0.00    -0.392 OA
ATOM     16  H   LIG    1       28.659 -17.247   5.187  0.00  0.00    +0.209 HD
ENDBRANCH  14  15
ENDBRANCH  11  14
ENDBRANCH   5   9
BRANCH   1  17
ATOM     17  N   LIG    1       21.471 -18.756   3.727  0.00  0.00    -0.341 N 
ATOM     18  H   LIG    1       21.415 -17.746   3.649  0.00  0.00    +0.144 HD
ATOM     19  H   LIG    1       21.024 -19.262   2.969  0.00  0.00    +0.144 HD
ENDBRANCH   1  17
TORSDOF 4
ENDMDL
MODEL 2
REMARK VINA RESULT:      -4.1      1.687      2.067
REMARK  Name = *****
REMARK                            x       y       z     vdW  Elec       q    Type
REMARK                         _______ _______ _______ _____ _____    ______ ____
ROOT
ATOM      1  C   LIG    1       22.328 -20.002   4.671  0.00  0.00    +0.159 A 
ATOM      2  C   LIG    1       23.329 -19.338   3.806  0.00  0.00    +0.179 A 
ATOM      3  F   LIG    1       22.893 -18.581   2.785  0.00  0.00    -0.200 F 
ATOM      4  C   LIG    1       24.609 -19.554   4.083  0.00  0.00    +0.135 A 
ATOM      5  N   LIG    1       24.964 -20.366   5.142  0.00  0.00    -0.269 N 
ATOM      6  C   LIG    1       23.998 -20.922   5.992  0.00  0.00    +0.352 A 
ATOM      7  O   LIG    1       24.334 -21.557   6.986  0.00  0.00    -0.244 OA
ATOM      8  N   LIG    1       22.666 -20.740   5.686  0.00  0.00    -0.175 NA
ENDROOT
BRANCH   5   9
ATOM      9  C   LIG    1       26.363 -20.603   5.477  0.00  0.00    +0.235 C 
ATOM     10  O   LIG    1       27.187 -19.635   4.810  0.00  0.00    -0.340 OA
ATOM     11  C   LIG    1       28.513 -19.712   5.353  0.00  0.00    +0.203 C 
ATOM     12  S   LIG    1       28.423 -20.328   7.062  0.00  0.00    -0.123 S 
ATOM     13  C   LIG    1       26.631 -20.498   6.978  0.00  0.00    +0.126 C 
BRANCH  11  14
ATOM     14  C   LIG    1       29.154 -18.317   5.303  0.00  0.00    +0.198 C 
BRANCH  14  15
ATOM     15  O   LIG    1       28.413 -17.414   4.474  0.00  0.00    -0.392 OA
ATOM     16  H   LIG    1       28.148 -17.922   3.686  0.00  0.00    +0.209 HD
ENDBRANCH  14  15
ENDBRANCH  11  14
ENDBRANCH   5   9
BRANCH   1  17
ATOM     17  N   LIG    1       20.988 -19.864   4.418  0.00  0.00    -0.341 N 
ATOM     18  H   LIG    1       20.528 -20.630   3.939  0.00  0.00    +0.144 HD
ATOM     19  H   LIG    1       20.466 -19.482   5.201  0.00  0.00    +0.144 HD
ENDBRANCH   1  17
TORSDOF 4
ENDMDL
MODEL 3
REMARK VINA RESULT:      -4.1      3.698      4.977
REMARK  Name = *****
REMARK                            x       y       z     vdW  Elec       q    Type
REMARK                         _______ _______ _______ _____ _____    ______ ____
ROOT
ATOM      1  C   LIG    1       25.555 -14.744   3.678  0.00  0.00    +0.159 A 
ATOM      2  C   LIG    1       24.161 -14.857   4.162  0.00  0.00    +0.179 A 
ATOM      3  F   LIG    1       23.525 -13.740   4.551  0.00  0.00    -0.200 F 
ATOM      4  C   LIG    1       23.628 -16.073   4.201  0.00  0.00    +0.135 A 
ATOM      5  N   LIG    1       24.367 -17.169   3.799  0.00  0.00    -0.269 N 
ATOM      6  C   LIG    1       25.659 -17.026   3.275  0.00  0.00    +0.352 A 
ATOM      7  O   LIG    1       26.262 -17.997   2.829  0.00  0.00    -0.244 OA
ATOM      8  N   LIG    1       26.236 -15.774   3.272  0.00  0.00    -0.175 NA
ENDROOT
BRANCH   5   9
ATOM      9  C   LIG    1       23.799 -18.510   3.817  0.00  0.00    +0.235 C 
ATOM     10  O   LIG    1       24.723 -19.415   4.440  0.00  0.00    -0.340 OA
ATOM     11  C   LIG    1       24.049 -20.658   4.689  0.00  0.00    +0.203 C 
ATOM     12  S   LIG    1       22.269 -20.342   4.884  0.00  0.00    -0.123 S 
ATOM     13  C   LIG    1       22.480 -18.577   4.588  0.00  0.00    +0.126 C 
BRANCH  11  14
ATOM     14  C   LIG    1       24.638 -21.298   5.956  0.00  0.00    +0.198 C 
BRANCH  14  15
ATOM     15  O   LIG    1       26.038 -21.571   5.821  0.00  0.00    -0.392 OA
ATOM     16  H   LIG    1       26.326 -21.946   6.673  0.00  0.00    +0.209 HD
ENDBRANCH  14  15
ENDBRANCH  11  14
ENDBRANCH   5   9
BRANCH   1  17
ATOM     17  N   LIG    1       26.187 -13.528   3.654  0.00  0.00    -0.341 N 
ATOM     18  H   LIG    1       27.131 -13.491   4.022  0.00  0.00    +0.144 HD
ATOM     19  H   LIG    1       26.054 -13.021   2.784  0.00  0.00    +0.144 HD
ENDBRANCH   1  17
TORSDOF 4
ENDMDL
MODEL 4
REMARK VINA RESULT:      -3.7      3.970      5.228
REMARK  Name = *****
REMARK                            x       y       z     vdW  Elec       q    Type
REMARK                         _______ _______ _______ _____ _____    ______ ____
ROOT
ATOM      1  C   LIG    1       25.876 -19.825   4.441  0.00  0.00    +0.159 A 
ATOM      2  C   LIG    1       24.937 -18.933   3.725  0.00  0.00    +0.179 A 
ATOM      3  F   LIG    1       23.708 -19.393   3.439  0.00  0.00    -0.200 F 
ATOM      4  C   LIG    1       25.381 -17.728   3.387  0.00  0.00    +0.135 A 
ATOM      5  N   LIG    1       26.670 -17.348   3.705  0.00  0.00    -0.269 N 
ATOM      6  C   LIG    1       27.515 -18.183   4.450  0.00  0.00    +0.352 A 
ATOM      7  O   LIG    1       28.620 -17.790   4.811  0.00  0.00    -0.244 OA
ATOM      8  N   LIG    1       27.078 -19.451   4.767  0.00  0.00    -0.175 NA
ENDROOT
BRANCH   5   9
ATOM      9  C   LIG    1       27.175 -16.025   3.360  0.00  0.00    +0.235 C 
ATOM     10  O   LIG    1       26.204 -15.334   2.560  0.00  0.00    -0.340 OA
ATOM     11  C   LIG    1       26.593 -13.957   2.457  0.00  0.00    +0.203 C 
ATOM     12  S   LIG    1       27.574 -13.503   3.918  0.00  0.00    -0.123 S 
ATOM     13  C   LIG    1       27.465 -15.170   4.594  0.00  0.00    +0.126 C 
BRANCH  11  14
ATOM     14  C   LIG    1       25.330 -13.089   2.349  0.00  0.00    +0.198 C 
BRANCH  14  15
ATOM     15  O   LIG    1       24.259 -13.594   3.155  0.00  0.00    -0.392 OA
ATOM     16  H   LIG    1       24.597 -14.402   3.582  0.00  0.00    +0.209 HD
ENDBRANCH  14  15
ENDBRANCH  11  14
ENDBRANCH   5   9
BRANCH   1  17
ATOM     17  N   LIG    1       25.504 -21.099   4.781  0.00  0.00    -0.341 N 
ATOM     18  H   LIG    1       25.289 -21.272   5.758  0.00  0.00    +0.144 HD
ATOM     19  H   LIG    1       24.852 -21.518   4.126  0.00  0.00    +0.144 HD
ENDBRANCH   1  17
TORSDOF 4
ENDMDL
MODEL 5
REMARK VINA RESULT:      -3.5      3.560      4.416
REMARK  Name = *****
REMARK                            x       y       z     vdW  Elec       q    Type
REMARK                         _______ _______ _______ _____ _____    ______ ____
ROOT
ATOM      1  C   LIG    1       22.996 -20.220   4.717  0.00  0.00    +0.159 A 
ATOM      2  C   LIG    1       24.349 -20.352   4.130  0.00  0.00    +0.179 A 
ATOM      3  F   LIG    1       24.911 -21.571   4.081  0.00  0.00    -0.200 F 
ATOM      4  C   LIG    1       24.937 -19.240   3.704  0.00  0.00    +0.135 A 
ATOM      5  N   LIG    1       24.290 -18.025   3.815  0.00  0.00    -0.269 N 
ATOM      6  C   LIG    1       22.980 -17.937   4.305  0.00  0.00    +0.352 A 
ATOM      7  O   LIG    1       22.383 -16.866   4.302  0.00  0.00    -0.244 OA
ATOM      8  N   LIG    1       22.378 -19.079   4.790  0.00  0.00    -0.175 NA
ENDROOT
BRANCH   5   9
ATOM      9  C   LIG    1       24.907 -16.794   3.339  0.00  0.00    +0.235 C 
ATOM     10  O   LIG    1       24.398 -15.680   4.089  0.00  0.00    -0.340 OA
ATOM     11  C   LIG    1       25.202 -14.527   3.798  0.00  0.00    +0.203 C 
ATOM     12  S   LIG    1       26.871 -15.068   3.322  0.00  0.00    -0.123 S 
ATOM     13  C   LIG    1       26.429 -16.807   3.489  0.00  0.00    +0.126 C 
BRANCH  11  14
ATOM     14  C   LIG    1       25.248 -13.625   5.041  0.00  0.00    +0.198 C 
BRANCH  14  15
ATOM     15  O   LIG    1       26.588 -13.400   5.494  0.00  0.00    -0.392 OA
ATOM     16  H   LIG    1       26.567 -12.570   6.003  0.00  0.00    +0.209 HD
ENDBRANCH  14  15
ENDBRANCH  11  14
ENDBRANCH   5   9
BRANCH   1  17
ATOM     17  N   LIG    1       22.346 -21.317   5.220  0.00  0.00    -0.341 N 
ATOM     18  H   LIG    1       21.332 -21.289   5.226  0.00  0.00    +0.144 HD
ATOM     19  H   LIG    1       22.742 -22.199   4.909  0.00  0.00    +0.144 HD
ENDBRANCH   1  17
TORSDOF 4
ENDMDL
MODEL 6
REMARK VINA RESULT:      -3.3      3.826      5.050
REMARK  Name = *****
REMARK                            x       y       z     vdW  Elec       q    Type
REMARK                         _______ _______ _______ _____ _____    ______ ____
ROOT
ATOM      1  C   LIG    1       25.008 -14.630   3.863  0.00  0.00    +0.159 A 
ATOM      2  C   LIG    1       25.956 -15.679   3.424  0.00  0.00    +0.179 A 
ATOM      3  F   LIG    1       27.194 -15.310   3.055  0.00  0.00    -0.200 F 
ATOM      4  C   LIG    1       25.511 -16.929   3.401  0.00  0.00    +0.135 A 
ATOM      5  N   LIG    1       24.212 -17.212   3.780  0.00  0.00    -0.269 N 
ATOM      6  C   LIG    1       23.358 -16.211   4.263  0.00  0.00    +0.352 A 
ATOM      7  O   LIG    1       22.244 -16.495   4.689  0.00  0.00    -0.244 OA
ATOM      8  N   LIG    1       23.797 -14.904   4.248  0.00  0.00    -0.175 NA
ENDROOT
BRANCH   5   9
ATOM      9  C   LIG    1       23.706 -18.578   3.780  0.00  0.00    +0.235 C 
ATOM     10  O   LIG    1       24.770 -19.485   4.106  0.00  0.00    -0.340 OA
ATOM     11  C   LIG    1       24.206 -20.779   4.363  0.00  0.00    +0.203 C 
ATOM     12  S   LIG    1       22.497 -20.579   4.951  0.00  0.00    -0.123 S 
ATOM     13  C   LIG    1       22.582 -18.785   4.797  0.00  0.00    +0.126 C 
BRANCH  11  14
ATOM     14  C   LIG    1       25.069 -21.500   5.411  0.00  0.00    +0.198 C 
BRANCH  14  15
ATOM     15  O   LIG    1       26.403 -20.979   5.460  0.00  0.00    -0.392 OA
ATOM     16  H   LIG    1       26.912 -21.589   6.024  0.00  0.00    +0.209 HD
ENDBRANCH  14  15
ENDBRANCH  11  14
ENDBRANCH   5   9
BRANCH   1  17
ATOM     17  N   LIG    1       25.382 -13.312   3.868  0.00  0.00    -0.341 N 
ATOM     18  H   LIG    1       24.648 -12.624   3.735  0.00  0.00    +0.144 HD
ATOM     19  H   LIG    1       26.047 -13.083   4.600  0.00  0.00    +0.144 HD
ENDBRANCH   1  17
TORSDOF 4
ENDMDL
MODEL 7
REMARK VINA RESULT:      -3.1      4.148      5.124
REMARK  Name = *****
REMARK                            x       y       z     vdW  Elec       q    Type
REMARK                         _______ _______ _______ _____ _____    ______ ____
ROOT
ATOM      1  C   LIG    1       23.912 -19.404   3.577  0.00  0.00    +0.159 A 
ATOM      2  C   LIG    1       22.793 -18.683   4.223  0.00  0.00    +0.179 A 
ATOM      3  F   LIG    1       21.689 -19.375   4.552  0.00  0.00    -0.200 F 
ATOM      4  C   LIG    1       22.944 -17.379   4.420  0.00  0.00    +0.135 A 
ATOM      5  N   LIG    1       24.109 -16.747   4.030  0.00  0.00    -0.269 N 
ATOM      6  C   LIG    1       25.183 -17.465   3.488  0.00  0.00    +0.352 A 
ATOM      7  O   LIG    1       26.247 -16.906   3.242  0.00  0.00    -0.244 OA
ATOM      8  N   LIG    1       25.019 -18.811   3.240  0.00  0.00    -0.175 NA
ENDROOT
BRANCH   5   9
ATOM      9  C   LIG    1       24.304 -15.320   4.251  0.00  0.00    +0.235 C 
ATOM     10  O   LIG    1       25.609 -14.937   3.791  0.00  0.00    -0.340 OA
ATOM     11  C   LIG    1       25.684 -13.504   3.767  0.00  0.00    +0.203 C 
ATOM     12  S   LIG    1       24.015 -12.823   3.530  0.00  0.00    -0.123 S 
ATOM     13  C   LIG    1       23.274 -14.466   3.510  0.00  0.00    +0.126 C 
BRANCH  11  14
ATOM     14  C   LIG    1       26.622 -13.073   2.629  0.00  0.00    +0.198 C 
BRANCH  14  15
ATOM     15  O   LIG    1       27.083 -14.189   1.858  0.00  0.00    -0.392 OA
ATOM     16  H   LIG    1       28.029 -14.291   2.065  0.00  0.00    +0.209 HD
ENDBRANCH  14  15
ENDBRANCH  11  14
ENDBRANCH   5   9
BRANCH   1  17
ATOM     17  N   LIG    1       23.811 -20.742   3.300  0.00  0.00    -0.341 N 
ATOM     18  H   LIG    1       22.876 -21.132   3.244  0.00  0.00    +0.144 HD
ATOM     19  H   LIG    1       24.441 -21.052   2.567  0.00  0.00    +0.144 HD
ENDBRANCH   1  17
TORSDOF 4
ENDMDL
MODEL 8
REMARK VINA RESULT:      -3.1      3.302      4.222
REMARK  Name = *****
REMARK                            x       y       z     vdW  Elec       q    Type
REMARK                         _______ _______ _______ _____ _____    ______ ____
ROOT
ATOM      1  C   LIG    1       23.623 -20.354   4.545  0.00  0.00    +0.159 A 
ATOM      2  C   LIG    1       22.774 -19.174   4.266  0.00  0.00    +0.179 A 
ATOM      3  F   LIG    1       21.444 -19.290   4.420  0.00  0.00    -0.200 F 
ATOM      4  C   LIG    1       23.384 -18.069   3.855  0.00  0.00    +0.135 A 
ATOM      5  N   LIG    1       24.758 -18.049   3.705  0.00  0.00    -0.269 N 
ATOM      6  C   LIG    1       25.546 -19.156   4.048  0.00  0.00    +0.352 A 
ATOM      7  O   LIG    1       26.770 -19.087   4.005  0.00  0.00    -0.244 OA
ATOM      8  N   LIG    1       24.917 -20.321   4.433  0.00  0.00    -0.175 NA
ENDROOT
BRANCH   5   9
ATOM      9  C   LIG    1       25.453 -16.844   3.273  0.00  0.00    +0.235 C 
ATOM     10  O   LIG    1       24.762 -15.686   3.768  0.00  0.00    -0.340 OA
ATOM     11  C   LIG    1       25.595 -14.536   3.566  0.00  0.00    +0.203 C 
ATOM     12  S   LIG    1       27.337 -15.054   3.554  0.00  0.00    -0.123 S 
ATOM     13  C   LIG    1       26.895 -16.786   3.780  0.00  0.00    +0.126 C 
BRANCH  11  14
ATOM     14  C   LIG    1       25.328 -13.523   4.691  0.00  0.00    +0.198 C 
BRANCH  14  15
ATOM     15  O   LIG    1       26.505 -13.251   5.461  0.00  0.00    -0.392 OA
ATOM     16  H   LIG    1       26.437 -12.321   5.742  0.00  0.00    +0.209 HD
ENDBRANCH  14  15
ENDBRANCH  11  14
ENDBRANCH   5   9
BRANCH   1  17
ATOM     17  N   LIG    1       23.059 -21.543   4.928  0.00  0.00    -0.341 N 
ATOM     18  H   LIG    1       23.552 -22.391   4.671  0.00  0.00    +0.144 HD
ATOM     19  H   LIG    1       22.703 -21.534   5.879  0.00  0.00    +0.144 HD
ENDBRANCH   1  17
TORSDOF 4
ENDMDL
MODEL 9
REMARK VINA RESULT:      -3.0      4.486      5.857
REMARK  Name = *****
REMARK                            x       y       z     vdW  Elec       q    Type
REMARK                         _______ _______ _______ _____ _____    ______ ____
ROOT
ATOM      1  C   LIG    1       26.601 -14.006   4.047  0.00  0.00    +0.159 A 
ATOM      2  C   LIG    1       25.165 -13.775   4.320  0.00  0.00    +0.179 A 
ATOM      3  F   LIG    1       24.776 -12.552   4.717  0.00  0.00    -0.200 F 
ATOM      4  C   LIG    1       24.345 -14.809   4.175  0.00  0.00    +0.135 A 
ATOM      5  N   LIG    1       24.839 -16.038   3.782  0.00  0.00    -0.269 N 
ATOM      6  C   LIG    1       26.192 -16.212   3.458  0.00  0.00    +0.352 A 
ATOM      7  O   LIG    1       26.594 -17.282   3.014  0.00  0.00    -0.244 OA
ATOM      8  N   LIG    1       27.057 -15.155   3.647  0.00  0.00    -0.175 NA
ENDROOT
BRANCH   5   9
ATOM      9  C   LIG    1       23.957 -17.184   3.600  0.00  0.00    +0.235 C 
ATOM     10  O   LIG    1       24.658 -18.389   3.944  0.00  0.00    -0.340 OA
ATOM     11  C   LIG    1       23.710 -19.464   4.017  0.00  0.00    +0.203 C 
ATOM     12  S   LIG    1       22.075 -18.791   4.443  0.00  0.00    -0.123 S 
ATOM     13  C   LIG    1       22.703 -17.102   4.471  0.00  0.00    +0.126 C 
BRANCH  11  14
ATOM     14  C   LIG    1       24.183 -20.475   5.073  0.00  0.00    +0.198 C 
BRANCH  14  15
ATOM     15  O   LIG    1       25.272 -21.277   4.601  0.00  0.00    -0.392 OA
ATOM     16  H   LIG    1       25.248 -21.224   3.629  0.00  0.00    +0.209 HD
ENDBRANCH  14  15
ENDBRANCH  11  14
ENDBRANCH   5   9
BRANCH   1  17
ATOM     17  N   LIG    1       27.513 -12.998   4.220  0.00  0.00    -0.341 N 
ATOM     18  H   LIG    1       27.394 -12.165   3.653  0.00  0.00    +0.144 HD
ATOM     19  H   LIG    1       27.734 -12.815   5.195  0.00  0.00    +0.144 HD
ENDBRANCH   1  17
TORSDOF 4
ENDMDL
