MODEL 1
REMARK VINA RESULT:      -5.6      0.000      0.000
REMARK  Name = *****
REMARK                            x       y       z     vdW  Elec       q    Type
REMARK                         _______ _______ _______ _____ _____    ______ ____
ROOT
ATOM      1  C   LIG    1       25.550 -18.861   3.885  0.00  0.00    +0.162 A 
ATOM      2  C   LIG    1       26.003 -19.723   4.907  0.00  0.00    +0.028 A 
ATOM      3  C   LIG    1       25.071 -20.611   5.496  0.00  0.00    +0.028 A 
ATOM      4  C   LIG    1       25.508 -21.447   6.556  0.00  0.00    +0.012 A 
ATOM      5  C   LIG    1       26.831 -21.436   7.002  0.00  0.00    +0.001 A 
ATOM      6  C   LIG    1       27.752 -20.594   6.401  0.00  0.00    +0.001 A 
ATOM      7  C   LIG    1       23.749 -20.616   4.998  0.00  0.00    +0.162 A 
ATOM      8  N   LIG    1       23.371 -19.769   4.014  0.00  0.00    -0.131 NA
ATOM      9  C   LIG    1       27.344 -19.748   5.368  0.00  0.00    +0.012 A 
ATOM     10  N   LIG    1       24.269 -18.906   3.451  0.00  0.00    -0.131 NA
ENDROOT
BRANCH   1  11
ATOM     11  N   LIG    1       26.456 -17.937   3.276  0.00  0.00    -0.266 N 
ATOM     12  H   LIG    1       27.388 -18.095   3.666  0.00  0.00    +0.168 HD
BRANCH  11  13
ATOM     13  N   LIG    1       26.075 -16.567   3.269  0.00  0.00    -0.255 NA
ATOM     14  H   LIG    1       26.470 -16.123   2.432  0.00  0.00    +0.140 HD
ATOM     15  H   LIG    1       25.062 -16.496   3.118  0.00  0.00    +0.140 HD
ENDBRANCH  11  13
ENDBRANCH   1  11
BRANCH   7  16
ATOM     16  N   LIG    1       22.782 -21.515   5.549  0.00  0.00    -0.266 N 
ATOM     17  H   LIG    1       23.220 -22.434   5.649  0.00  0.00    +0.168 HD
BRANCH  16  18
ATOM     18  N   LIG    1       21.510 -21.564   4.913  0.00  0.00    -0.255 NA
ATOM     19  H   LIG    1       20.831 -21.959   5.572  0.00  0.00    +0.140 HD
ATOM     20  H   LIG    1       21.168 -20.606   4.764  0.00  0.00    +0.140 HD
ENDBRANCH  16  18
ENDBRANCH   7  16
TORSDOF 4
ENDMDL
MODEL 2
REMARK VINA RESULT:      -5.6      0.078      3.796
REMARK  Name = *****
REMARK                            x       y       z     vdW  Elec       q    Type
REMARK                         _______ _______ _______ _____ _____    ______ ____
ROOT
ATOM      1  C   LIG    1       23.780 -20.660   4.908  0.00  0.00    +0.162 A 
ATOM      2  C   LIG    1       25.085 -20.617   5.444  0.00  0.00    +0.028 A 
ATOM      3  C   LIG    1       26.013 -19.711   4.875  0.00  0.00    +0.028 A 
ATOM      4  C   LIG    1       27.339 -19.696   5.378  0.00  0.00    +0.012 A 
ATOM      5  C   LIG    1       27.735 -20.520   6.433  0.00  0.00    +0.001 A 
ATOM      6  C   LIG    1       26.817 -21.380   7.014  0.00  0.00    +0.001 A 
ATOM      7  C   LIG    1       25.569 -18.871   3.830  0.00  0.00    +0.162 A 
ATOM      8  N   LIG    1       24.305 -18.954   3.358  0.00  0.00    -0.131 NA
ATOM      9  C   LIG    1       25.510 -21.429   6.527  0.00  0.00    +0.012 A 
ATOM     10  N   LIG    1       23.411 -19.834   3.902  0.00  0.00    -0.131 NA
ENDROOT
BRANCH   1  11
ATOM     11  N   LIG    1       22.817 -21.572   5.444  0.00  0.00    -0.266 N 
ATOM     12  H   LIG    1       23.239 -22.503   5.477  0.00  0.00    +0.168 HD
BRANCH  11  13
ATOM     13  N   LIG    1       21.522 -21.563   4.857  0.00  0.00    -0.255 NA
ATOM     14  H   LIG    1       21.619 -21.725   3.848  0.00  0.00    +0.140 HD
ATOM     15  H   LIG    1       20.996 -22.384   5.179  0.00  0.00    +0.140 HD
ENDBRANCH  11  13
ENDBRANCH   1  11
BRANCH   7  16
ATOM     16  N   LIG    1       26.469 -17.926   3.243  0.00  0.00    -0.266 N 
ATOM     17  H   LIG    1       27.395 -18.069   3.653  0.00  0.00    +0.168 HD
BRANCH  16  18
ATOM     18  N   LIG    1       26.060 -16.563   3.239  0.00  0.00    -0.255 NA
ATOM     19  H   LIG    1       25.701 -16.333   2.306  0.00  0.00    +0.140 HD
ATOM     20  H   LIG    1       25.237 -16.454   3.844  0.00  0.00    +0.140 HD
ENDBRANCH  16  18
ENDBRANCH   7  16
TORSDOF 4
ENDMDL
MODEL 3
REMARK VINA RESULT:      -4.6      2.391      4.370
REMARK  Name = *****
REMARK                            x       y       z     vdW  Elec       q    Type
REMARK                         _______ _______ _______ _____ _____    ______ ____
ROOT
ATOM      1  C   LIG    1       27.104 -20.540   6.054  0.00  0.00    +0.162 A 
ATOM      2  C   LIG    1       25.727 -20.614   5.751  0.00  0.00    +0.028 A 
ATOM      3  C   LIG    1       25.204 -19.713   4.792  0.00  0.00    +0.028 A 
ATOM      4  C   LIG    1       23.812 -19.749   4.518  0.00  0.00    +0.012 A 
ATOM      5  C   LIG    1       22.964 -20.666   5.141  0.00  0.00    +0.001 A 
ATOM      6  C   LIG    1       23.482 -21.572   6.053  0.00  0.00    +0.001 A 
ATOM      7  C   LIG    1       26.097 -18.820   4.160  0.00  0.00    +0.162 A 
ATOM      8  N   LIG    1       27.408 -18.797   4.487  0.00  0.00    -0.131 NA
ATOM      9  C   LIG    1       24.845 -21.546   6.355  0.00  0.00    +0.012 A 
ATOM     10  N   LIG    1       27.912 -19.660   5.420  0.00  0.00    -0.131 NA
ENDROOT
BRANCH   1  11
ATOM     11  N   LIG    1       27.668 -21.421   7.029  0.00  0.00    -0.266 N 
ATOM     12  H   LIG    1       27.262 -21.197   7.941  0.00  0.00    +0.168 HD
BRANCH  11  13
ATOM     13  N   LIG    1       29.086 -21.530   7.059  0.00  0.00    -0.255 NA
ATOM     14  H   LIG    1       29.350 -22.161   7.824  0.00  0.00    +0.140 HD
ATOM     15  H   LIG    1       29.408 -22.027   6.220  0.00  0.00    +0.140 HD
ENDBRANCH  11  13
ENDBRANCH   1  11
BRANCH   7  16
ATOM     16  N   LIG    1       25.613 -17.910   3.168  0.00  0.00    -0.266 N 
ATOM     17  H   LIG    1       25.739 -18.342   2.248  0.00  0.00    +0.168 HD
BRANCH  16  18
ATOM     18  N   LIG    1       26.093 -16.572   3.231  0.00  0.00    -0.255 NA
ATOM     19  H   LIG    1       25.295 -15.935   3.135  0.00  0.00    +0.140 HD
ATOM     20  H   LIG    1       26.438 -16.380   4.179  0.00  0.00    +0.140 HD
ENDBRANCH  16  18
ENDBRANCH   7  16
TORSDOF 4
ENDMDL
MODEL 4
REMARK VINA RESULT:      -4.5      1.896      3.727
REMARK  Name = *****
REMARK                            x       y       z     vdW  Elec       q    Type
REMARK                         _______ _______ _______ _____ _____    ______ ____
ROOT
ATOM      1  C   LIG    1       23.904 -18.701   3.974  0.00  0.00    +0.162 A 
ATOM      2  C   LIG    1       24.034 -19.642   5.019  0.00  0.00    +0.028 A 
ATOM      3  C   LIG    1       25.333 -20.094   5.353  0.00  0.00    +0.028 A 
ATOM      4  C   LIG    1       25.467 -21.075   6.369  0.00  0.00    +0.012 A 
ATOM      5  C   LIG    1       24.362 -21.572   7.062  0.00  0.00    +0.001 A 
ATOM      6  C   LIG    1       23.094 -21.102   6.760  0.00  0.00    +0.001 A 
ATOM      7  C   LIG    1       26.431 -19.547   4.653  0.00  0.00    +0.162 A 
ATOM      8  N   LIG    1       26.246 -18.645   3.663  0.00  0.00    -0.131 NA
ATOM      9  C   LIG    1       22.931 -20.151   5.751  0.00  0.00    +0.012 A 
ATOM     10  N   LIG    1       24.991 -18.214   3.334  0.00  0.00    -0.131 NA
ENDROOT
BRANCH   1  11
ATOM     11  N   LIG    1       22.608 -18.230   3.595  0.00  0.00    -0.266 N 
ATOM     12  H   LIG    1       22.648 -17.926   2.619  0.00  0.00    +0.168 HD
BRANCH  11  13
ATOM     13  N   LIG    1       21.988 -17.280   4.453  0.00  0.00    -0.255 NA
ATOM     14  H   LIG    1       20.990 -17.510   4.527  0.00  0.00    +0.140 HD
ATOM     15  H   LIG    1       22.332 -17.411   5.411  0.00  0.00    +0.140 HD
ENDBRANCH  11  13
ENDBRANCH   1  11
BRANCH   7  16
ATOM     16  N   LIG    1       27.762 -19.960   4.976  0.00  0.00    -0.266 N 
ATOM     17  H   LIG    1       27.712 -20.617   5.759  0.00  0.00    +0.168 HD
BRANCH  16  18
ATOM     18  N   LIG    1       28.728 -18.933   5.165  0.00  0.00    -0.255 NA
ATOM     19  H   LIG    1       29.258 -18.819   4.295  0.00  0.00    +0.140 HD
ATOM     20  H   LIG    1       28.248 -18.031   5.272  0.00  0.00    +0.140 HD
ENDBRANCH  16  18
ENDBRANCH   7  16
TORSDOF 4
ENDMDL
MODEL 5
REMARK VINA RESULT:      -4.3      2.393      4.735
REMARK  Name = *****
REMARK                            x       y       z     vdW  Elec       q    Type
REMARK                         _______ _______ _______ _____ _____    ______ ____
ROOT
ATOM      1  C   LIG    1       24.158 -20.889   6.235  0.00  0.00    +0.162 A 
ATOM      2  C   LIG    1       24.671 -20.044   5.227  0.00  0.00    +0.028 A 
ATOM      3  C   LIG    1       26.075 -19.897   5.128  0.00  0.00    +0.028 A 
ATOM      4  C   LIG    1       26.596 -19.013   4.149  0.00  0.00    +0.012 A 
ATOM      5  C   LIG    1       25.765 -18.319   3.269  0.00  0.00    +0.001 A 
ATOM      6  C   LIG    1       24.392 -18.490   3.342  0.00  0.00    +0.001 A 
ATOM      7  C   LIG    1       26.887 -20.639   6.015  0.00  0.00    +0.162 A 
ATOM      8  N   LIG    1       26.340 -21.437   6.959  0.00  0.00    -0.131 NA
ATOM      9  C   LIG    1       23.851 -19.340   4.308  0.00  0.00    +0.012 A 
ATOM     10  N   LIG    1       24.983 -21.571   7.061  0.00  0.00    -0.131 NA
ENDROOT
BRANCH   1  11
ATOM     11  N   LIG    1       22.744 -21.051   6.379  0.00  0.00    -0.266 N 
ATOM     12  H   LIG    1       22.566 -21.575   7.240  0.00  0.00    +0.168 HD
BRANCH  11  13
ATOM     13  N   LIG    1       22.033 -21.559   5.256  0.00  0.00    -0.255 NA
ATOM     14  H   LIG    1       21.789 -22.539   5.440  0.00  0.00    +0.140 HD
ATOM     15  H   LIG    1       21.120 -21.095   5.193  0.00  0.00    +0.140 HD
ENDBRANCH  11  13
ENDBRANCH   1  11
BRANCH   7  16
ATOM     16  N   LIG    1       28.312 -20.538   5.932  0.00  0.00    -0.266 N 
ATOM     17  H   LIG    1       28.581 -20.600   4.947  0.00  0.00    +0.168 HD
BRANCH  16  18
ATOM     18  N   LIG    1       29.070 -21.396   6.777  0.00  0.00    -0.255 NA
ATOM     19  H   LIG    1       29.257 -22.268   6.272  0.00  0.00    +0.140 HD
ATOM     20  H   LIG    1       30.006 -20.995   6.915  0.00  0.00    +0.140 HD
ENDBRANCH  16  18
ENDBRANCH   7  16
TORSDOF 4
ENDMDL
MODEL 6
REMARK VINA RESULT:      -4.2      1.328      4.129
REMARK  Name = *****
REMARK                            x       y       z     vdW  Elec       q    Type
REMARK                         _______ _______ _______ _____ _____    ______ ____
ROOT
ATOM      1  C   LIG    1       25.632 -20.367   4.728  0.00  0.00    +0.162 A 
ATOM      2  C   LIG    1       26.874 -20.057   5.322  0.00  0.00    +0.028 A 
ATOM      3  C   LIG    1       27.525 -18.863   4.927  0.00  0.00    +0.028 A 
ATOM      4  C   LIG    1       28.796 -18.568   5.485  0.00  0.00    +0.012 A 
ATOM      5  C   LIG    1       29.395 -19.403   6.430  0.00  0.00    +0.001 A 
ATOM      6  C   LIG    1       28.742 -20.552   6.844  0.00  0.00    +0.001 A 
ATOM      7  C   LIG    1       26.876 -18.028   3.992  0.00  0.00    +0.162 A 
ATOM      8  N   LIG    1       25.683 -18.374   3.458  0.00  0.00    -0.131 NA
ATOM      9  C   LIG    1       27.498 -20.876   6.298  0.00  0.00    +0.012 A 
ATOM     10  N   LIG    1       25.058 -19.531   3.833  0.00  0.00    -0.131 NA
ENDROOT
BRANCH   1  11
ATOM     11  N   LIG    1       24.950 -21.572   5.088  0.00  0.00    -0.266 N 
ATOM     12  H   LIG    1       25.395 -22.352   4.600  0.00  0.00    +0.168 HD
BRANCH  11  13
ATOM     13  N   LIG    1       23.532 -21.571   4.971  0.00  0.00    -0.255 NA
ATOM     14  H   LIG    1       23.204 -22.543   4.970  0.00  0.00    +0.140 HD
ATOM     15  H   LIG    1       23.120 -21.183   5.827  0.00  0.00    +0.140 HD
ENDBRANCH  11  13
ENDBRANCH   1  11
BRANCH   7  16
ATOM     16  N   LIG    1       27.488 -16.801   3.583  0.00  0.00    -0.266 N 
ATOM     17  H   LIG    1       28.181 -16.538   4.290  0.00  0.00    +0.168 HD
BRANCH  16  18
ATOM     18  N   LIG    1       26.619 -15.734   3.224  0.00  0.00    -0.255 NA
ATOM     19  H   LIG    1       26.974 -15.300   2.364  0.00  0.00    +0.140 HD
ATOM     20  H   LIG    1       25.710 -16.118   2.939  0.00  0.00    +0.140 HD
ENDBRANCH  16  18
ENDBRANCH   7  16
TORSDOF 4
ENDMDL
MODEL 7
REMARK VINA RESULT:      -3.9      4.842      6.925
REMARK  Name = *****
REMARK                            x       y       z     vdW  Elec       q    Type
REMARK                         _______ _______ _______ _____ _____    ______ ____
ROOT
ATOM      1  C   LIG    1       27.488 -13.408   4.853  0.00  0.00    +0.162 A 
ATOM      2  C   LIG    1       26.101 -13.340   4.600  0.00  0.00    +0.028 A 
ATOM      3  C   LIG    1       25.486 -14.438   3.951  0.00  0.00    +0.028 A 
ATOM      4  C   LIG    1       24.101 -14.358   3.651  0.00  0.00    +0.012 A 
ATOM      5  C   LIG    1       23.335 -13.247   4.008  0.00  0.00    +0.001 A 
ATOM      6  C   LIG    1       23.930 -12.188   4.675  0.00  0.00    +0.001 A 
ATOM      7  C   LIG    1       26.285 -15.558   3.633  0.00  0.00    +0.162 A 
ATOM      8  N   LIG    1       27.610 -15.568   3.903  0.00  0.00    -0.131 NA
ATOM      9  C   LIG    1       25.294 -12.233   4.967  0.00  0.00    +0.012 A 
ATOM     10  N   LIG    1       28.206 -14.505   4.521  0.00  0.00    -0.131 NA
ENDROOT
BRANCH   1  11
ATOM     11  N   LIG    1       28.151 -12.313   5.492  0.00  0.00    -0.266 N 
ATOM     12  H   LIG    1       27.464 -11.573   5.659  0.00  0.00    +0.168 HD
BRANCH  11  13
ATOM     13  N   LIG    1       29.349 -11.841   4.887  0.00  0.00    -0.255 NA
ATOM     14  H   LIG    1       29.239 -11.887   3.867  0.00  0.00    +0.140 HD
ATOM     15  H   LIG    1       29.449 -10.835   5.069  0.00  0.00    +0.140 HD
ENDBRANCH  11  13
ENDBRANCH   1  11
BRANCH   7  16
ATOM     16  N   LIG    1       25.697 -16.698   2.998  0.00  0.00    -0.266 N 
ATOM     17  H   LIG    1       24.690 -16.680   3.177  0.00  0.00    +0.168 HD
BRANCH  16  18
ATOM     18  N   LIG    1       26.293 -17.962   3.263  0.00  0.00    -0.255 NA
ATOM     19  H   LIG    1       25.917 -18.321   4.148  0.00  0.00    +0.140 HD
ATOM     20  H   LIG    1       25.963 -18.645   2.570  0.00  0.00    +0.140 HD
ENDBRANCH  16  18
ENDBRANCH   7  16
TORSDOF 4
ENDMDL
MODEL 8
REMARK VINA RESULT:      -3.9      2.261      3.550
REMARK  Name = *****
REMARK                            x       y       z     vdW  Elec       q    Type
REMARK                         _______ _______ _______ _____ _____    ______ ____
ROOT
ATOM      1  C   LIG    1       25.612 -18.119   3.728  0.00  0.00    +0.162 A 
ATOM      2  C   LIG    1       24.440 -18.778   4.155  0.00  0.00    +0.028 A 
ATOM      3  C   LIG    1       24.579 -19.962   4.919  0.00  0.00    +0.028 A 
ATOM      4  C   LIG    1       23.406 -20.656   5.312  0.00  0.00    +0.012 A 
ATOM      5  C   LIG    1       22.132 -20.184   4.994  0.00  0.00    +0.001 A 
ATOM      6  C   LIG    1       21.994 -19.006   4.277  0.00  0.00    +0.001 A 
ATOM      7  C   LIG    1       25.883 -20.393   5.248  0.00  0.00    +0.162 A 
ATOM      8  N   LIG    1       26.971 -19.719   4.814  0.00  0.00    -0.131 NA
ATOM      9  C   LIG    1       23.133 -18.313   3.863  0.00  0.00    +0.012 A 
ATOM     10  N   LIG    1       26.837 -18.581   4.069  0.00  0.00    -0.131 NA
ENDROOT
BRANCH   1  11
ATOM     11  N   LIG    1       25.516 -16.929   2.940  0.00  0.00    -0.266 N 
ATOM     12  H   LIG    1       25.508 -17.196   1.953  0.00  0.00    +0.168 HD
BRANCH  11  13
ATOM     13  N   LIG    1       26.435 -15.883   3.232  0.00  0.00    -0.255 NA
ATOM     14  H   LIG    1       26.703 -15.429   2.352  0.00  0.00    +0.140 HD
ATOM     15  H   LIG    1       25.951 -15.137   3.746  0.00  0.00    +0.140 HD
ENDBRANCH  11  13
ENDBRANCH   1  11
BRANCH   7  16
ATOM     16  N   LIG    1       26.067 -21.572   6.039  0.00  0.00    -0.266 N 
ATOM     17  H   LIG    1       25.152 -21.872   6.384  0.00  0.00    +0.168 HD
BRANCH  16  18
ATOM     18  N   LIG    1       27.061 -21.518   7.055  0.00  0.00    -0.255 NA
ATOM     19  H   LIG    1       27.690 -22.320   6.939  0.00  0.00    +0.140 HD
ATOM     20  H   LIG    1       27.673 -20.710   6.889  0.00  0.00    +0.140 HD
ENDBRANCH  16  18
ENDBRANCH   7  16
TORSDOF 4
ENDMDL
MODEL 9
REMARK VINA RESULT:      -3.9      4.842      7.635
REMARK  Name = *****
REMARK                            x       y       z     vdW  Elec       q    Type
REMARK                         _______ _______ _______ _____ _____    ______ ____
ROOT
ATOM      1  C   LIG    1       26.323 -15.568   3.615  0.00  0.00    +0.162 A 
ATOM      2  C   LIG    1       25.517 -14.453   3.932  0.00  0.00    +0.028 A 
ATOM      3  C   LIG    1       26.122 -13.356   4.591  0.00  0.00    +0.028 A 
ATOM      4  C   LIG    1       25.308 -12.253   4.955  0.00  0.00    +0.012 A 
ATOM      5  C   LIG    1       23.946 -12.212   4.651  0.00  0.00    +0.001 A 
ATOM      6  C   LIG    1       23.362 -13.270   3.974  0.00  0.00    +0.001 A 
ATOM      7  C   LIG    1       27.508 -13.419   4.855  0.00  0.00    +0.162 A 
ATOM      8  N   LIG    1       28.232 -14.512   4.525  0.00  0.00    -0.131 NA
ATOM      9  C   LIG    1       24.135 -14.376   3.620  0.00  0.00    +0.012 A 
ATOM     10  N   LIG    1       27.646 -15.575   3.897  0.00  0.00    -0.131 NA
ENDROOT
BRANCH   1  11
ATOM     11  N   LIG    1       25.747 -16.704   2.964  0.00  0.00    -0.266 N 
ATOM     12  H   LIG    1       24.732 -16.669   3.093  0.00  0.00    +0.168 HD
BRANCH  11  13
ATOM     13  N   LIG    1       26.307 -17.976   3.267  0.00  0.00    -0.255 NA
ATOM     14  H   LIG    1       26.816 -18.313   2.441  0.00  0.00    +0.140 HD
ATOM     15  H   LIG    1       27.046 -17.864   3.971  0.00  0.00    +0.140 HD
ENDBRANCH  11  13
ENDBRANCH   1  11
BRANCH   7  16
ATOM     16  N   LIG    1       28.163 -12.321   5.498  0.00  0.00    -0.266 N 
ATOM     17  H   LIG    1       27.465 -11.595   5.682  0.00  0.00    +0.168 HD
BRANCH  16  18
ATOM     18  N   LIG    1       29.343 -11.822   4.879  0.00  0.00    -0.255 NA
ATOM     19  H   LIG    1       29.071 -11.169   4.137  0.00  0.00    +0.140 HD
ATOM     20  H   LIG    1       29.850 -11.227   5.546  0.00  0.00    +0.140 HD
ENDBRANCH  16  18
ENDBRANCH   7  16
TORSDOF 4
ENDMDL
