MODEL 1
REMARK VINA RESULT:      -5.3      0.000      0.000
REMARK  Name = *****
REMARK                            x       y       z     vdW  Elec       q    Type
REMARK                         _______ _______ _______ _____ _____    ______ ____
ROOT
ATOM      1  C   LIG    1       23.848 -18.121   3.982  0.00  0.00    +0.122 A 
ATOM      2  C   LIG    1       25.132 -18.383   3.529  0.00  0.00    +0.046 A 
ATOM      3  C   LIG    1       26.013 -17.327   3.247  0.00  0.00    +0.007 A 
ATOM      4  C   LIG    1       25.632 -15.982   3.370  0.00  0.00    -0.041 A 
ATOM      5  C   LIG    1       24.342 -15.737   3.858  0.00  0.00    +0.007 A 
ATOM      6  C   LIG    1       23.462 -16.789   4.147  0.00  0.00    +0.046 A 
ENDROOT
BRANCH   4   7
ATOM      7  C   LIG    1       26.602 -14.874   3.024  0.00  0.00    +0.058 C 
ATOM      8  C   LIG    1       27.063 -13.805   3.996  0.00  0.00    +0.126 C 
ATOM      9 CL   LIG    1       28.714 -13.208   3.813  0.00  0.00    -0.100 Cl
ATOM     10 CL   LIG    1       26.486 -13.731   5.653  0.00  0.00    -0.100 Cl
ATOM     11  C   LIG    1       26.079 -13.456   2.918  0.00  0.00    +0.050 C 
ENDBRANCH   4   7
BRANCH   1  12
ATOM     12  O   LIG    1       22.875 -19.026   4.279  0.00  0.00    -0.475 OA
BRANCH  12  14
ATOM     13  C   LIG    1       23.375 -20.135   6.454  0.00  0.00    +0.067 C 
ATOM     14  C   LIG    1       23.100 -20.274   4.948  0.00  0.00    +0.200 C 
ATOM     15  C   LIG    1       21.748 -21.008   4.825  0.00  0.00    +0.067 C 
BRANCH  14  16
ATOM     16  C   LIG    1       24.140 -21.182   4.265  0.00  0.00    +0.348 C 
ATOM     17  O   LIG    1       25.177 -21.571   4.796  0.00  0.00    -0.246 OA
BRANCH  16  18
ATOM     18  O   LIG    1       23.790 -21.572   3.016  0.00  0.00    -0.478 OA
ATOM     19  H   LIG    1       24.034 -20.897   2.347  0.00  0.00    +0.295 HD
ENDBRANCH  16  18
ENDBRANCH  14  16
ENDBRANCH  12  14
ENDBRANCH   1  12
TORSDOF 5
ENDMDL
MODEL 2
REMARK VINA RESULT:      -5.0      3.802      6.873
REMARK  Name = *****
REMARK                            x       y       z     vdW  Elec       q    Type
REMARK                         _______ _______ _______ _____ _____    ______ ____
ROOT
ATOM      1  C   LIG    1       25.707 -16.136   3.338  0.00  0.00    +0.122 A 
ATOM      2  C   LIG    1       24.374 -16.087   3.718  0.00  0.00    +0.046 A 
ATOM      3  C   LIG    1       23.672 -17.270   3.993  0.00  0.00    +0.007 A 
ATOM      4  C   LIG    1       24.261 -18.538   3.863  0.00  0.00    -0.041 A 
ATOM      5  C   LIG    1       25.616 -18.567   3.509  0.00  0.00    +0.007 A 
ATOM      6  C   LIG    1       26.323 -17.386   3.239  0.00  0.00    +0.046 A 
ENDROOT
BRANCH   4   7
ATOM      7  C   LIG    1       23.458 -19.790   4.138  0.00  0.00    +0.058 C 
ATOM      8  C   LIG    1       23.747 -20.761   5.266  0.00  0.00    +0.126 C 
ATOM      9 CL   LIG    1       22.363 -21.569   6.006  0.00  0.00    -0.100 Cl
ATOM     10 CL   LIG    1       25.087 -20.536   6.378  0.00  0.00    -0.100 Cl
ATOM     11  C   LIG    1       24.091 -21.136   3.855  0.00  0.00    +0.050 C 
ENDBRANCH   4   7
BRANCH   1  12
ATOM     12  O   LIG    1       26.516 -15.089   3.020  0.00  0.00    -0.475 OA
BRANCH  12  14
ATOM     13  C   LIG    1       26.552 -13.794   5.149  0.00  0.00    +0.067 C 
ATOM     14  C   LIG    1       26.437 -13.787   3.617  0.00  0.00    +0.200 C 
ATOM     15  C   LIG    1       27.696 -13.064   3.094  0.00  0.00    +0.067 C 
BRANCH  14  16
ATOM     16  C   LIG    1       25.236 -12.944   3.145  0.00  0.00    +0.348 C 
ATOM     17  O   LIG    1       25.026 -12.627   1.977  0.00  0.00    -0.246 OA
BRANCH  16  18
ATOM     18  O   LIG    1       24.377 -12.613   4.138  0.00  0.00    -0.478 OA
ATOM     19  H   LIG    1       24.572 -13.107   4.963  0.00  0.00    +0.295 HD
ENDBRANCH  16  18
ENDBRANCH  14  16
ENDBRANCH  12  14
ENDBRANCH   1  12
TORSDOF 5
ENDMDL
MODEL 3
REMARK VINA RESULT:      -4.8      4.249      7.003
REMARK  Name = *****
REMARK                            x       y       z     vdW  Elec       q    Type
REMARK                         _______ _______ _______ _____ _____    ______ ____
ROOT
ATOM      1  C   LIG    1       26.285 -15.891   3.416  0.00  0.00    +0.122 A 
ATOM      2  C   LIG    1       24.933 -15.739   3.679  0.00  0.00    +0.046 A 
ATOM      3  C   LIG    1       24.113 -16.865   3.849  0.00  0.00    +0.007 A 
ATOM      4  C   LIG    1       24.605 -18.174   3.726  0.00  0.00    -0.041 A 
ATOM      5  C   LIG    1       25.979 -18.309   3.491  0.00  0.00    +0.007 A 
ATOM      6  C   LIG    1       26.802 -17.186   3.326  0.00  0.00    +0.046 A 
ENDROOT
BRANCH   4   7
ATOM      7  C   LIG    1       23.679 -19.360   3.885  0.00  0.00    +0.058 C 
ATOM      8  C   LIG    1       23.831 -20.427   4.951  0.00  0.00    +0.126 C 
ATOM      9 CL   LIG    1       22.350 -21.148   5.585  0.00  0.00    -0.100 Cl
ATOM     10 CL   LIG    1       25.140 -20.405   6.121  0.00  0.00    -0.100 Cl
ATOM     11  C   LIG    1       24.196 -20.738   3.529  0.00  0.00    +0.050 C 
ENDBRANCH   4   7
BRANCH   1  12
ATOM     12  O   LIG    1       27.204 -14.908   3.207  0.00  0.00    -0.475 OA
BRANCH  12  14
ATOM     13  C   LIG    1       26.219 -12.637   2.923  0.00  0.00    +0.067 C 
ATOM     14  C   LIG    1       27.113 -13.581   3.742  0.00  0.00    +0.200 C 
ATOM     15  C   LIG    1       26.402 -13.777   5.098  0.00  0.00    +0.067 C 
BRANCH  14  16
ATOM     16  C   LIG    1       28.473 -12.932   4.066  0.00  0.00    +0.348 C 
ATOM     17  O   LIG    1       28.671 -12.164   5.003  0.00  0.00    -0.246 OA
BRANCH  16  18
ATOM     18  O   LIG    1       29.475 -13.323   3.243  0.00  0.00    -0.478 OA
ATOM     19  H   LIG    1       30.336 -13.350   3.711  0.00  0.00    +0.295 HD
ENDBRANCH  16  18
ENDBRANCH  14  16
ENDBRANCH  12  14
ENDBRANCH   1  12
TORSDOF 5
ENDMDL
MODEL 4
REMARK VINA RESULT:      -4.7      1.168      1.778
REMARK  Name = *****
REMARK                            x       y       z     vdW  Elec       q    Type
REMARK                         _______ _______ _______ _____ _____    ______ ____
ROOT
ATOM      1  C   LIG    1       24.289 -17.950   3.829  0.00  0.00    +0.122 A 
ATOM      2  C   LIG    1       25.594 -18.119   3.393  0.00  0.00    +0.046 A 
ATOM      3  C   LIG    1       26.414 -17.004   3.163  0.00  0.00    +0.007 A 
ATOM      4  C   LIG    1       25.950 -15.688   3.322  0.00  0.00    -0.041 A 
ATOM      5  C   LIG    1       24.640 -15.538   3.792  0.00  0.00    +0.007 A 
ATOM      6  C   LIG    1       23.820 -16.649   4.030  0.00  0.00    +0.046 A 
ENDROOT
BRANCH   4   7
ATOM      7  C   LIG    1       26.858 -14.514   3.032  0.00  0.00    +0.058 C 
ATOM      8  C   LIG    1       27.326 -13.516   4.073  0.00  0.00    +0.126 C 
ATOM      9 CL   LIG    1       28.941 -12.834   3.866  0.00  0.00    -0.100 Cl
ATOM     10 CL   LIG    1       26.832 -13.613   5.755  0.00  0.00    -0.100 Cl
ATOM     11  C   LIG    1       26.276 -13.116   3.078  0.00  0.00    +0.050 C 
ENDBRANCH   4   7
BRANCH   1  12
ATOM     12  O   LIG    1       23.367 -18.921   4.077  0.00  0.00    -0.475 OA
BRANCH  12  14
ATOM     13  C   LIG    1       24.100 -21.178   3.316  0.00  0.00    +0.067 C 
ATOM     14  C   LIG    1       23.682 -20.261   4.477  0.00  0.00    +0.200 C 
ATOM     15  C   LIG    1       24.933 -20.096   5.365  0.00  0.00    +0.067 C 
BRANCH  14  16
ATOM     16  C   LIG    1       22.614 -20.927   5.366  0.00  0.00    +0.348 C 
ATOM     17  O   LIG    1       21.569 -21.416   4.948  0.00  0.00    -0.246 OA
BRANCH  16  18
ATOM     18  O   LIG    1       22.949 -20.978   6.678  0.00  0.00    -0.478 OA
ATOM     19  H   LIG    1       22.508 -20.268   7.191  0.00  0.00    +0.295 HD
ENDBRANCH  16  18
ENDBRANCH  14  16
ENDBRANCH  12  14
ENDBRANCH   1  12
TORSDOF 5
ENDMDL
MODEL 5
REMARK VINA RESULT:      -4.4      3.749      6.681
REMARK  Name = *****
REMARK                            x       y       z     vdW  Elec       q    Type
REMARK                         _______ _______ _______ _____ _____    ______ ____
ROOT
ATOM      1  C   LIG    1       25.340 -16.124   3.306  0.00  0.00    +0.122 A 
ATOM      2  C   LIG    1       25.965 -17.355   3.176  0.00  0.00    +0.046 A 
ATOM      3  C   LIG    1       25.308 -18.529   3.574  0.00  0.00    +0.007 A 
ATOM      4  C   LIG    1       24.026 -18.512   4.147  0.00  0.00    -0.041 A 
ATOM      5  C   LIG    1       23.398 -17.264   4.241  0.00  0.00    +0.007 A 
ATOM      6  C   LIG    1       24.048 -16.089   3.838  0.00  0.00    +0.046 A 
ENDROOT
BRANCH   4   7
ATOM      7  C   LIG    1       23.367 -19.798   4.592  0.00  0.00    +0.058 C 
ATOM      8  C   LIG    1       23.913 -20.709   5.674  0.00  0.00    +0.126 C 
ATOM      9 CL   LIG    1       22.737 -21.571   6.670  0.00  0.00    -0.100 Cl
ATOM     10 CL   LIG    1       25.412 -20.365   6.523  0.00  0.00    -0.100 Cl
ATOM     11  C   LIG    1       24.026 -21.114   4.234  0.00  0.00    +0.050 C 
ENDBRANCH   4   7
BRANCH   1  12
ATOM     12  O   LIG    1       25.845 -14.901   2.987  0.00  0.00    -0.475 OA
BRANCH  12  14
ATOM     13  C   LIG    1       27.969 -14.997   4.288  0.00  0.00    +0.067 C 
ATOM     14  C   LIG    1       26.772 -14.166   3.798  0.00  0.00    +0.200 C 
ATOM     15  C   LIG    1       27.349 -13.109   2.834  0.00  0.00    +0.067 C 
BRANCH  14  16
ATOM     16  C   LIG    1       26.121 -13.379   4.952  0.00  0.00    +0.348 C 
ATOM     17  O   LIG    1       25.042 -12.798   4.875  0.00  0.00    -0.246 OA
BRANCH  16  18
ATOM     18  O   LIG    1       26.826 -13.421   6.108  0.00  0.00    -0.478 OA
ATOM     19  H   LIG    1       27.757 -13.691   5.953  0.00  0.00    +0.295 HD
ENDBRANCH  16  18
ENDBRANCH  14  16
ENDBRANCH  12  14
ENDBRANCH   1  12
TORSDOF 5
ENDMDL
MODEL 6
REMARK VINA RESULT:      -4.4      1.147      1.718
REMARK  Name = *****
REMARK                            x       y       z     vdW  Elec       q    Type
REMARK                         _______ _______ _______ _____ _____    ______ ____
ROOT
ATOM      1  C   LIG    1       22.868 -18.052   4.335  0.00  0.00    +0.122 A 
ATOM      2  C   LIG    1       22.318 -16.862   4.788  0.00  0.00    +0.046 A 
ATOM      3  C   LIG    1       22.995 -15.649   4.592  0.00  0.00    +0.007 A 
ATOM      4  C   LIG    1       24.254 -15.586   3.974  0.00  0.00    -0.041 A 
ATOM      5  C   LIG    1       24.779 -16.792   3.495  0.00  0.00    +0.007 A 
ATOM      6  C   LIG    1       24.103 -18.005   3.683  0.00  0.00    +0.046 A 
ENDROOT
BRANCH   4   7
ATOM      7  C   LIG    1       24.964 -14.260   3.812  0.00  0.00    +0.058 C 
ATOM      8  C   LIG    1       26.470 -14.089   3.822  0.00  0.00    +0.126 C 
ATOM      9 CL   LIG    1       27.143 -12.820   2.796  0.00  0.00    -0.100 Cl
ATOM     10 CL   LIG    1       27.567 -15.442   4.048  0.00  0.00    -0.100 Cl
ATOM     11  C   LIG    1       25.666 -13.660   5.013  0.00  0.00    +0.050 C 
ENDBRANCH   4   7
BRANCH   1  12
ATOM     12  O   LIG    1       22.351 -19.305   4.462  0.00  0.00    -0.475 OA
BRANCH  12  14
ATOM     13  C   LIG    1       23.284 -20.052   6.649  0.00  0.00    +0.067 C 
ATOM     14  C   LIG    1       22.980 -20.376   5.178  0.00  0.00    +0.200 C 
ATOM     15  C   LIG    1       21.910 -21.488   5.195  0.00  0.00    +0.067 C 
BRANCH  14  16
ATOM     16  C   LIG    1       24.208 -20.979   4.468  0.00  0.00    +0.348 C 
ATOM     17  O   LIG    1       25.346 -20.979   4.928  0.00  0.00    -0.246 OA
BRANCH  16  18
ATOM     18  O   LIG    1       23.919 -21.571   3.284  0.00  0.00    -0.478 OA
ATOM     19  H   LIG    1       23.017 -21.957   3.285  0.00  0.00    +0.295 HD
ENDBRANCH  16  18
ENDBRANCH  14  16
ENDBRANCH  12  14
ENDBRANCH   1  12
TORSDOF 5
ENDMDL
MODEL 7
REMARK VINA RESULT:      -4.1      1.416      1.845
REMARK  Name = *****
REMARK                            x       y       z     vdW  Elec       q    Type
REMARK                         _______ _______ _______ _____ _____    ______ ____
ROOT
ATOM      1  C   LIG    1       25.714 -18.594   3.680  0.00  0.00    +0.122 A 
ATOM      2  C   LIG    1       27.039 -18.473   4.068  0.00  0.00    +0.046 A 
ATOM      3  C   LIG    1       27.657 -17.214   4.096  0.00  0.00    +0.007 A 
ATOM      4  C   LIG    1       26.989 -16.043   3.704  0.00  0.00    -0.041 A 
ATOM      5  C   LIG    1       25.643 -16.180   3.345  0.00  0.00    +0.007 A 
ATOM      6  C   LIG    1       25.020 -17.435   3.322  0.00  0.00    +0.046 A 
ENDROOT
BRANCH   4   7
ATOM      7  C   LIG    1       27.704 -14.710   3.718  0.00  0.00    +0.058 C 
ATOM      8  C   LIG    1       27.215 -13.486   4.467  0.00  0.00    +0.126 C 
ATOM      9 CL   LIG    1       28.443 -12.406   5.132  0.00  0.00    -0.100 Cl
ATOM     10 CL   LIG    1       25.726 -13.486   5.397  0.00  0.00    -0.100 Cl
ATOM     11  C   LIG    1       27.084 -13.545   2.974  0.00  0.00    +0.050 C 
ENDBRANCH   4   7
BRANCH   1  12
ATOM     12  O   LIG    1       24.980 -19.736   3.581  0.00  0.00    -0.475 OA
BRANCH  12  14
ATOM     13  C   LIG    1       22.942 -19.390   4.972  0.00  0.00    +0.067 C 
ATOM     14  C   LIG    1       24.155 -20.268   4.626  0.00  0.00    +0.200 C 
ATOM     15  C   LIG    1       23.586 -21.569   4.022  0.00  0.00    +0.067 C 
BRANCH  14  16
ATOM     16  C   LIG    1       24.927 -20.689   5.892  0.00  0.00    +0.348 C 
ATOM     17  O   LIG    1       24.528 -20.512   7.040  0.00  0.00    -0.246 OA
BRANCH  16  18
ATOM     18  O   LIG    1       26.090 -21.333   5.634  0.00  0.00    -0.478 OA
ATOM     19  H   LIG    1       26.058 -21.805   4.774  0.00  0.00    +0.295 HD
ENDBRANCH  16  18
ENDBRANCH  14  16
ENDBRANCH  12  14
ENDBRANCH   1  12
TORSDOF 5
ENDMDL
MODEL 8
REMARK VINA RESULT:      -2.9      3.925      6.741
REMARK  Name = *****
REMARK                            x       y       z     vdW  Elec       q    Type
REMARK                         _______ _______ _______ _____ _____    ______ ____
ROOT
ATOM      1  C   LIG    1       25.971 -16.269   3.297  0.00  0.00    +0.122 A 
ATOM      2  C   LIG    1       26.487 -17.556   3.267  0.00  0.00    +0.046 A 
ATOM      3  C   LIG    1       25.689 -18.648   3.642  0.00  0.00    +0.007 A 
ATOM      4  C   LIG    1       24.369 -18.491   4.093  0.00  0.00    -0.041 A 
ATOM      5  C   LIG    1       23.855 -17.188   4.086  0.00  0.00    +0.007 A 
ATOM      6  C   LIG    1       24.647 -16.095   3.707  0.00  0.00    +0.046 A 
ENDROOT
BRANCH   4   7
ATOM      7  C   LIG    1       23.555 -19.692   4.518  0.00  0.00    +0.058 C 
ATOM      8  C   LIG    1       22.040 -19.737   4.535  0.00  0.00    +0.126 C 
ATOM      9 CL   LIG    1       21.275 -21.285   4.169  0.00  0.00    -0.100 Cl
ATOM     10 CL   LIG    1       21.055 -18.358   4.072  0.00  0.00    -0.100 Cl
ATOM     11  C   LIG    1       22.795 -19.629   5.827  0.00  0.00    +0.050 C 
ENDBRANCH   4   7
BRANCH   1  12
ATOM     12  O   LIG    1       26.616 -15.111   2.986  0.00  0.00    -0.475 OA
BRANCH  12  14
ATOM     13  C   LIG    1       26.310 -13.862   5.121  0.00  0.00    +0.067 C 
ATOM     14  C   LIG    1       26.337 -13.838   3.584  0.00  0.00    +0.200 C 
ATOM     15  C   LIG    1       27.552 -12.971   3.190  0.00  0.00    +0.067 C 
BRANCH  14  16
ATOM     16  C   LIG    1       25.100 -13.123   3.009  0.00  0.00    +0.348 C 
ATOM     17  O   LIG    1       24.900 -12.934   1.812  0.00  0.00    -0.246 OA
BRANCH  16  18
ATOM     18  O   LIG    1       24.197 -12.752   3.948  0.00  0.00    -0.478 OA
ATOM     19  H   LIG    1       24.296 -13.277   4.771  0.00  0.00    +0.295 HD
ENDBRANCH  16  18
ENDBRANCH  14  16
ENDBRANCH  12  14
ENDBRANCH   1  12
TORSDOF 5
ENDMDL
