MODEL 1
REMARK VINA RESULT:      -6.9      0.000      0.000
REMARK  Name = *****
REMARK                            x       y       z     vdW  Elec       q    Type
REMARK                         _______ _______ _______ _____ _____    ______ ____
ROOT
ATOM      1  C   LIG    1       24.713 -20.754   5.574  0.00  0.00    +0.036 A 
ATOM      2  C   LIG    1       24.907 -20.198   4.307  0.00  0.00    +0.027 A 
ATOM      3  C   LIG    1       23.928 -19.372   3.755  0.00  0.00    +0.047 A 
ATOM      4  C   LIG    1       22.756 -19.131   4.460  0.00  0.00    +0.117 A 
ATOM      5  C   LIG    1       22.528 -19.723   5.700  0.00  0.00    +0.047 A 
ATOM      6  C   LIG    1       23.509 -20.544   6.256  0.00  0.00    +0.027 A 
ENDROOT
BRANCH   1   8
ATOM      7  C   LIG    1       26.761 -20.720   6.886  0.00  0.00    +0.138 C 
ATOM      8  N   LIG    1       25.736 -21.499   6.200  0.00  0.00    -0.272 N 
ATOM      9  C   LIG    1       25.628 -22.872   6.478  0.00  0.00    +0.252 C 
ATOM     10  O   LIG    1       26.383 -23.413   7.289  0.00  0.00    -0.272 OA
BRANCH   9  11
ATOM     11  C   LIG    1       24.582 -23.676   5.677  0.00  0.00    +0.257 C 
ATOM     12 CL   LIG    1       23.224 -24.096   6.745  0.00  0.00    -0.095 Cl
ATOM     13 CL   LIG    1       25.336 -25.157   5.033  0.00  0.00    -0.095 Cl
ENDBRANCH   9  11
ENDBRANCH   1   8
BRANCH   4  14
ATOM     14  O   LIG    1       21.841 -18.295   3.895  0.00  0.00    -0.507 OA
ATOM     15  H   LIG    1       21.901 -18.370   2.928  0.00  0.00    +0.292 HD
ENDBRANCH   4  14
TORSDOF 3
ENDMDL
MODEL 2
REMARK VINA RESULT:      -6.6      2.935      4.695
REMARK  Name = *****
REMARK                            x       y       z     vdW  Elec       q    Type
REMARK                         _______ _______ _______ _____ _____    ______ ____
ROOT
ATOM      1  C   LIG    1       24.914 -21.128   6.654  0.00  0.00    +0.036 A 
ATOM      2  C   LIG    1       26.045 -20.851   5.880  0.00  0.00    +0.027 A 
ATOM      3  C   LIG    1       27.226 -20.445   6.500  0.00  0.00    +0.047 A 
ATOM      4  C   LIG    1       27.260 -20.294   7.880  0.00  0.00    +0.117 A 
ATOM      5  C   LIG    1       26.125 -20.516   8.656  0.00  0.00    +0.047 A 
ATOM      6  C   LIG    1       24.944 -20.928   8.038  0.00  0.00    +0.027 A 
ENDROOT
BRANCH   1   8
ATOM      7  C   LIG    1       23.263 -22.914   6.605  0.00  0.00    +0.138 C 
ATOM      8  N   LIG    1       23.744 -21.648   6.061  0.00  0.00    -0.272 N 
ATOM      9  C   LIG    1       22.877 -20.880   5.264  0.00  0.00    +0.252 C 
ATOM     10  O   LIG    1       21.729 -21.264   5.029  0.00  0.00    -0.272 OA
BRANCH   9  11
ATOM     11  C   LIG    1       23.446 -19.587   4.646  0.00  0.00    +0.257 C 
ATOM     12 CL   LIG    1       22.125 -18.418   4.415  0.00  0.00    -0.095 Cl
ATOM     13 CL   LIG    1       24.211 -19.962   3.080  0.00  0.00    -0.095 Cl
ENDBRANCH   9  11
ENDBRANCH   1   8
BRANCH   4  14
ATOM     14  O   LIG    1       28.444 -19.924   8.445  0.00  0.00    -0.507 OA
ATOM     15  H   LIG    1       29.171 -20.210   7.868  0.00  0.00    +0.292 HD
ENDBRANCH   4  14
TORSDOF 3
ENDMDL
MODEL 3
REMARK VINA RESULT:      -6.4      2.934      4.832
REMARK  Name = *****
REMARK                            x       y       z     vdW  Elec       q    Type
REMARK                         _______ _______ _______ _____ _____    ______ ____
ROOT
ATOM      1  C   LIG    1       24.814 -21.382   6.729  0.00  0.00    +0.036 A 
ATOM      2  C   LIG    1       24.840 -21.079   8.094  0.00  0.00    +0.027 A 
ATOM      3  C   LIG    1       25.997 -20.554   8.666  0.00  0.00    +0.047 A 
ATOM      4  C   LIG    1       27.126 -20.361   7.878  0.00  0.00    +0.117 A 
ATOM      5  C   LIG    1       27.129 -20.708   6.530  0.00  0.00    +0.047 A 
ATOM      6  C   LIG    1       25.969 -21.227   5.954  0.00  0.00    +0.027 A 
ENDROOT
BRANCH   1   8
ATOM      7  C   LIG    1       23.030 -23.032   6.630  0.00  0.00    +0.138 C 
ATOM      8  N   LIG    1       23.621 -21.806   6.106  0.00  0.00    -0.272 N 
ATOM      9  C   LIG    1       22.836 -20.967   5.296  0.00  0.00    +0.252 C 
ATOM     10  O   LIG    1       21.667 -21.259   5.032  0.00  0.00    -0.272 OA
BRANCH   9  11
ATOM     11  C   LIG    1       23.519 -19.719   4.700  0.00  0.00    +0.257 C 
ATOM     12 CL   LIG    1       22.305 -18.438   4.478  0.00  0.00    -0.095 Cl
ATOM     13 CL   LIG    1       24.261 -20.137   3.134  0.00  0.00    -0.095 Cl
ENDBRANCH   9  11
ENDBRANCH   1   8
BRANCH   4  14
ATOM     14  O   LIG    1       28.224 -19.818   8.474  0.00  0.00    -0.507 OA
ATOM     15  H   LIG    1       27.936 -19.210   9.174  0.00  0.00    +0.292 HD
ENDBRANCH   4  14
TORSDOF 3
ENDMDL
MODEL 4
REMARK VINA RESULT:      -6.4      2.744      3.562
REMARK  Name = *****
REMARK                            x       y       z     vdW  Elec       q    Type
REMARK                         _______ _______ _______ _____ _____    ______ ____
ROOT
ATOM      1  C   LIG    1       25.414 -21.750   6.460  0.00  0.00    +0.036 A 
ATOM      2  C   LIG    1       26.631 -21.691   7.145  0.00  0.00    +0.027 A 
ATOM      3  C   LIG    1       27.620 -20.802   6.726  0.00  0.00    +0.047 A 
ATOM      4  C   LIG    1       27.396 -20.001   5.613  0.00  0.00    +0.117 A 
ATOM      5  C   LIG    1       26.209 -20.089   4.891  0.00  0.00    +0.047 A 
ATOM      6  C   LIG    1       25.216 -20.973   5.313  0.00  0.00    +0.027 A 
ENDROOT
BRANCH   1   8
ATOM      7  C   LIG    1       23.226 -21.847   7.520  0.00  0.00    +0.138 C 
ATOM      8  N   LIG    1       24.358 -22.557   6.933  0.00  0.00    -0.272 N 
ATOM      9  C   LIG    1       24.196 -23.905   6.567  0.00  0.00    +0.252 C 
ATOM     10  O   LIG    1       23.118 -24.479   6.737  0.00  0.00    -0.272 OA
BRANCH   9  11
ATOM     11  C   LIG    1       25.435 -24.643   6.021  0.00  0.00    +0.257 C 
ATOM     12 CL   LIG    1       25.069 -25.282   4.402  0.00  0.00    -0.095 Cl
ATOM     13 CL   LIG    1       25.869 -25.976   7.122  0.00  0.00    -0.095 Cl
ENDBRANCH   9  11
ENDBRANCH   1   8
BRANCH   4  14
ATOM     14  O   LIG    1       28.379 -19.127   5.257  0.00  0.00    -0.507 OA
ATOM     15  H   LIG    1       29.240 -19.505   5.503  0.00  0.00    +0.292 HD
ENDBRANCH   4  14
TORSDOF 3
ENDMDL
MODEL 5
REMARK VINA RESULT:      -6.3      2.233      2.851
REMARK  Name = *****
REMARK                            x       y       z     vdW  Elec       q    Type
REMARK                         _______ _______ _______ _____ _____    ______ ____
ROOT
ATOM      1  C   LIG    1       24.379 -21.210   5.472  0.00  0.00    +0.036 A 
ATOM      2  C   LIG    1       24.801 -20.603   4.286  0.00  0.00    +0.027 A 
ATOM      3  C   LIG    1       24.077 -19.535   3.759  0.00  0.00    +0.047 A 
ATOM      4  C   LIG    1       22.926 -19.100   4.404  0.00  0.00    +0.117 A 
ATOM      5  C   LIG    1       22.467 -19.731   5.557  0.00  0.00    +0.047 A 
ATOM      6  C   LIG    1       23.193 -20.796   6.090  0.00  0.00    +0.027 A 
ENDROOT
BRANCH   1   8
ATOM      7  C   LIG    1       24.942 -23.574   5.596  0.00  0.00    +0.138 C 
ATOM      8  N   LIG    1       25.157 -22.216   6.085  0.00  0.00    -0.272 N 
ATOM      9  C   LIG    1       26.309 -21.943   6.843  0.00  0.00    +0.252 C 
ATOM     10  O   LIG    1       27.125 -22.833   7.092  0.00  0.00    -0.272 OA
BRANCH   9  11
ATOM     11  C   LIG    1       26.462 -20.515   7.405  0.00  0.00    +0.257 C 
ATOM     12 CL   LIG    1       28.184 -20.069   7.405  0.00  0.00    -0.095 Cl
ATOM     13 CL   LIG    1       25.815 -20.455   9.065  0.00  0.00    -0.095 Cl
ENDBRANCH   9  11
ENDBRANCH   1   8
BRANCH   4  14
ATOM     14  O   LIG    1       22.268 -18.034   3.868  0.00  0.00    -0.507 OA
ATOM     15  H   LIG    1       22.620 -17.217   4.258  0.00  0.00    +0.292 HD
ENDBRANCH   4  14
TORSDOF 3
ENDMDL
MODEL 6
REMARK VINA RESULT:      -6.3      2.735      3.474
REMARK  Name = *****
REMARK                            x       y       z     vdW  Elec       q    Type
REMARK                         _______ _______ _______ _____ _____    ______ ____
ROOT
ATOM      1  C   LIG    1       25.231 -21.628   6.582  0.00  0.00    +0.036 A 
ATOM      2  C   LIG    1       25.098 -20.884   5.407  0.00  0.00    +0.027 A 
ATOM      3  C   LIG    1       26.165 -20.111   4.951  0.00  0.00    +0.047 A 
ATOM      4  C   LIG    1       27.344 -20.068   5.686  0.00  0.00    +0.117 A 
ATOM      5  C   LIG    1       27.469 -20.762   6.886  0.00  0.00    +0.047 A 
ATOM      6  C   LIG    1       26.404 -21.541   7.339  0.00  0.00    +0.027 A 
ENDROOT
BRANCH   1   8
ATOM      7  C   LIG    1       23.032 -21.875   7.594  0.00  0.00    +0.138 C 
ATOM      8  N   LIG    1       24.207 -22.505   7.001  0.00  0.00    -0.272 N 
ATOM      9  C   LIG    1       24.118 -23.842   6.577  0.00  0.00    +0.252 C 
ATOM     10  O   LIG    1       23.066 -24.474   6.701  0.00  0.00    -0.272 OA
BRANCH   9  11
ATOM     11  C   LIG    1       25.401 -24.495   6.025  0.00  0.00    +0.257 C 
ATOM     12 CL   LIG    1       25.074 -25.148   4.403  0.00  0.00    -0.095 Cl
ATOM     13 CL   LIG    1       25.921 -25.804   7.118  0.00  0.00    -0.095 Cl
ENDBRANCH   9  11
ENDBRANCH   1   8
BRANCH   4  14
ATOM     14  O   LIG    1       28.370 -19.323   5.187  0.00  0.00    -0.507 OA
ATOM     15  H   LIG    1       28.253 -18.399   5.466  0.00  0.00    +0.292 HD
ENDBRANCH   4  14
TORSDOF 3
ENDMDL
MODEL 7
REMARK VINA RESULT:      -6.1      2.876      5.044
REMARK  Name = *****
REMARK                            x       y       z     vdW  Elec       q    Type
REMARK                         _______ _______ _______ _____ _____    ______ ____
ROOT
ATOM      1  C   LIG    1       25.167 -23.334   6.789  0.00  0.00    +0.036 A 
ATOM      2  C   LIG    1       23.802 -23.634   6.788  0.00  0.00    +0.027 A 
ATOM      3  C   LIG    1       23.376 -24.921   6.461  0.00  0.00    +0.047 A 
ATOM      4  C   LIG    1       24.312 -25.887   6.113  0.00  0.00    +0.117 A 
ATOM      5  C   LIG    1       25.670 -25.585   6.058  0.00  0.00    +0.047 A 
ATOM      6  C   LIG    1       26.099 -24.300   6.392  0.00  0.00    +0.027 A 
ENDROOT
BRANCH   1   8
ATOM      7  C   LIG    1       26.407 -22.073   8.460  0.00  0.00    +0.138 C 
ATOM      8  N   LIG    1       25.629 -22.074   7.226  0.00  0.00    -0.272 N 
ATOM      9  C   LIG    1       25.675 -20.941   6.395  0.00  0.00    +0.252 C 
ATOM     10  O   LIG    1       26.361 -19.963   6.700  0.00  0.00    -0.272 OA
BRANCH   9  11
ATOM     11  C   LIG    1       24.781 -20.949   5.138  0.00  0.00    +0.257 C 
ATOM     12 CL   LIG    1       25.490 -19.877   3.909  0.00  0.00    -0.095 Cl
ATOM     13 CL   LIG    1       23.144 -20.390   5.568  0.00  0.00    -0.095 Cl
ENDBRANCH   9  11
ENDBRANCH   1   8
BRANCH   4  14
ATOM     14  O   LIG    1       23.851 -27.137   5.830  0.00  0.00    -0.507 OA
ATOM     15  H   LIG    1       23.235 -27.084   5.080  0.00  0.00    +0.292 HD
ENDBRANCH   4  14
TORSDOF 3
ENDMDL
MODEL 8
REMARK VINA RESULT:      -6.1      2.232      4.551
REMARK  Name = *****
REMARK                            x       y       z     vdW  Elec       q    Type
REMARK                         _______ _______ _______ _____ _____    ______ ____
ROOT
ATOM      1  C   LIG    1       26.392 -20.385   5.931  0.00  0.00    +0.036 A 
ATOM      2  C   LIG    1       26.165 -20.546   7.300  0.00  0.00    +0.027 A 
ATOM      3  C   LIG    1       27.203 -20.331   8.205  0.00  0.00    +0.047 A 
ATOM      4  C   LIG    1       28.463 -19.984   7.734  0.00  0.00    +0.117 A 
ATOM      5  C   LIG    1       28.715 -19.872   6.369  0.00  0.00    +0.047 A 
ATOM      6  C   LIG    1       27.675 -20.081   5.463  0.00  0.00    +0.027 A 
ENDROOT
BRANCH   1   8
ATOM      7  C   LIG    1       25.237 -19.411   4.024  0.00  0.00    +0.138 C 
ATOM      8  N   LIG    1       25.330 -20.486   5.006  0.00  0.00    -0.272 N 
ATOM      9  C   LIG    1       24.620 -21.677   4.777  0.00  0.00    +0.252 C 
ATOM     10  O   LIG    1       23.930 -21.815   3.765  0.00  0.00    -0.272 OA
BRANCH   9  11
ATOM     11  C   LIG    1       24.684 -22.760   5.874  0.00  0.00    +0.257 C 
ATOM     12 CL   LIG    1       25.035 -24.333   5.122  0.00  0.00    -0.095 Cl
ATOM     13 CL   LIG    1       23.125 -22.828   6.735  0.00  0.00    -0.095 Cl
ENDBRANCH   9  11
ENDBRANCH   1   8
BRANCH   4  14
ATOM     14  O   LIG    1       29.440 -19.755   8.656  0.00  0.00    -0.507 OA
ATOM     15  H   LIG    1       30.134 -20.427   8.553  0.00  0.00    +0.292 HD
ENDBRANCH   4  14
TORSDOF 3
ENDMDL
MODEL 9
REMARK VINA RESULT:      -6.1      5.540      6.870
REMARK  Name = *****
REMARK                            x       y       z     vdW  Elec       q    Type
REMARK                         _______ _______ _______ _____ _____    ______ ____
ROOT
ATOM      1  C   LIG    1       29.326 -20.192   7.551  0.00  0.00    +0.036 A 
ATOM      2  C   LIG    1       28.045 -20.705   7.777  0.00  0.00    +0.027 A 
ATOM      3  C   LIG    1       27.062 -20.567   6.799  0.00  0.00    +0.047 A 
ATOM      4  C   LIG    1       27.356 -19.896   5.618  0.00  0.00    +0.117 A 
ATOM      5  C   LIG    1       28.612 -19.335   5.404  0.00  0.00    +0.047 A 
ATOM      6  C   LIG    1       29.600 -19.478   6.379  0.00  0.00    +0.027 A 
ENDROOT
BRANCH   1   8
ATOM      7  C   LIG    1       30.756 -21.812   8.669  0.00  0.00    +0.138 C 
ATOM      8  N   LIG    1       30.368 -20.419   8.476  0.00  0.00    -0.272 N 
ATOM      9  C   LIG    1       31.233 -19.406   8.925  0.00  0.00    +0.252 C 
ATOM     10  O   LIG    1       32.302 -19.686   9.471  0.00  0.00    -0.272 OA
BRANCH   9  11
ATOM     11  C   LIG    1       30.753 -17.948   8.771  0.00  0.00    +0.257 C 
ATOM     12 CL   LIG    1       32.163 -16.863   8.792  0.00  0.00    -0.095 Cl
ATOM     13 CL   LIG    1       29.648 -17.541  10.109  0.00  0.00    -0.095 Cl
ENDBRANCH   9  11
ENDBRANCH   1   8
BRANCH   4  14
ATOM     14  O   LIG    1       26.372 -19.811   4.680  0.00  0.00    -0.507 OA
ATOM     15  H   LIG    1       26.211 -20.695   4.310  0.00  0.00    +0.292 HD
ENDBRANCH   4  14
TORSDOF 3
ENDMDL
