MODEL 1
REMARK VINA RESULT:      -5.9      0.000      0.000
REMARK  Name = *****
REMARK                            x       y       z     vdW  Elec       q    Type
REMARK                         _______ _______ _______ _____ _____    ______ ____
ROOT
ATOM      1  C   LIG    1       21.043 -26.697  13.122  0.00  0.00    +0.011 C 
ATOM      2  C   LIG    1       21.669 -27.903  13.814  0.00  0.00    +0.026 C 
ATOM      3  C   LIG    1       21.353 -29.289  13.181  0.00  0.00    +0.135 C 
ATOM      4  C   LIG    1       22.583 -30.142  13.656  0.00  0.00    +0.010 C 
ATOM      5  C   LIG    1       23.781 -29.175  13.444  0.00  0.00    +0.005 C 
ATOM      6  C   LIG    1       24.443 -29.147  12.030  0.00  0.00    +0.036 C 
ATOM      7  C   LIG    1       24.632 -30.555  11.397  0.00  0.00    +0.153 C 
ATOM      8  C   LIG    1       23.317 -31.358  11.475  0.00  0.00    +0.154 C 
ATOM      9  F   LIG    1       25.523 -31.211  12.230  0.00  0.00    -0.238 F 
ATOM     10  C   LIG    1       25.311 -30.502   9.947  0.00  0.00    +0.047 C 
ATOM     11  C   LIG    1       26.158 -29.227   9.843  0.00  0.00    -0.020 C 
ATOM     12  C   LIG    1       26.179 -28.416   8.770  0.00  0.00    +0.054 C 
ATOM     13  C   LIG    1       25.308 -28.660   7.604  0.00  0.00    +0.179 C 
ATOM     14  C   LIG    1       24.335 -29.765   7.714  0.00  0.00    +0.047 C 
ATOM     15  O   LIG    1       25.352 -27.948   6.611  0.00  0.00    -0.288 OA
ATOM     16  C   LIG    1       26.859 -28.857  11.113  0.00  0.00    +0.194 C 
ATOM     17  F   LIG    1       27.745 -27.838  10.929  0.00  0.00    -0.241 F 
ATOM     18  C   LIG    1       26.266 -31.712   9.747  0.00  0.00    +0.023 C 
ATOM     19  C   LIG    1       24.330 -30.578   8.780  0.00  0.00    -0.009 C 
ATOM     20  C   LIG    1       25.812 -28.404  12.130  0.00  0.00    +0.048 C 
ATOM     21  C   LIG    1       22.494 -30.453  15.184  0.00  0.00    +0.015 C 
ATOM     22  C   LIG    1       22.811 -31.471  12.915  0.00  0.00    +0.044 C 
ATOM     23  C   LIG    1       23.213 -27.797  13.852  0.00  0.00    +0.011 C 
ENDROOT
BRANCH   3  24
ATOM     24  O   LIG    1       21.375 -29.156  11.762  0.00  0.00    -0.380 OA
ATOM     25  H   LIG    1       21.118 -30.014  11.369  0.00  0.00    +0.211 HD
ENDBRANCH   3  24
BRANCH   3  26
ATOM     26  C   LIG    1       19.973 -29.856  13.643  0.00  0.00    +0.202 C 
ATOM     27  O   LIG    1       19.303 -29.305  14.522  0.00  0.00    -0.291 OA
BRANCH  26  28
ATOM     28  C   LIG    1       19.490 -31.166  13.002  0.00  0.00    +0.309 C 
BRANCH  28  29
ATOM     29  O   LIG    1       19.560 -31.183  11.580  0.00  0.00    -0.457 OA
BRANCH  29  30
ATOM     30  C   LIG    1       19.520 -32.420  10.998  0.00  0.00    +0.313 C 
ATOM     31  O   LIG    1       20.440 -33.222  11.053  0.00  0.00    -0.250 OA
BRANCH  30  32
ATOM     32  C   LIG    1       18.202 -32.634  10.232  0.00  0.00    +0.059 C 
ATOM     33  C   LIG    1       17.167 -33.179  11.224  0.00  0.00    +0.022 C 
ATOM     34  C   LIG    1       18.350 -33.633   9.072  0.00  0.00    +0.022 C 
ATOM     35  C   LIG    1       17.751 -31.297   9.619  0.00  0.00    +0.022 C 
ENDBRANCH  30  32
ENDBRANCH  29  30
ENDBRANCH  28  29
ENDBRANCH  26  28
ENDBRANCH   3  26
BRANCH   8  36
ATOM     36  O   LIG    1       23.489 -32.691  10.978  0.00  0.00    -0.389 OA
ATOM     37  H   LIG    1       23.368 -32.654  10.011  0.00  0.00    +0.210 HD
ENDBRANCH   8  36
TORSDOF 7
ENDMDL
MODEL 2
REMARK VINA RESULT:      -5.9      2.542      7.455
REMARK  Name = *****
REMARK                            x       y       z     vdW  Elec       q    Type
REMARK                         _______ _______ _______ _____ _____    ______ ____
ROOT
ATOM      1  C   LIG    1       22.863 -33.092   6.741  0.00  0.00    +0.011 C 
ATOM      2  C   LIG    1       24.286 -32.867   7.240  0.00  0.00    +0.026 C 
ATOM      3  C   LIG    1       24.698 -31.383   7.468  0.00  0.00    +0.135 C 
ATOM      4  C   LIG    1       25.844 -31.533   8.531  0.00  0.00    +0.010 C 
ATOM      5  C   LIG    1       25.273 -32.594   9.513  0.00  0.00    +0.005 C 
ATOM      6  C   LIG    1       24.365 -32.084  10.676  0.00  0.00    +0.036 C 
ATOM      7  C   LIG    1       24.888 -30.789  11.360  0.00  0.00    +0.153 C 
ATOM      8  C   LIG    1       25.230 -29.723  10.299  0.00  0.00    +0.154 C 
ATOM      9  F   LIG    1       26.094 -31.146  11.939  0.00  0.00    -0.238 F 
ATOM     10  C   LIG    1       23.939 -30.284  12.548  0.00  0.00    +0.047 C 
ATOM     11  C   LIG    1       23.173 -31.486  13.116  0.00  0.00    -0.020 C 
ATOM     12  C   LIG    1       21.864 -31.474  13.423  0.00  0.00    +0.054 C 
ATOM     13  C   LIG    1       21.023 -30.290  13.164  0.00  0.00    +0.179 C 
ATOM     14  C   LIG    1       21.656 -29.163  12.450  0.00  0.00    +0.047 C 
ATOM     15  O   LIG    1       19.841 -30.261  13.477  0.00  0.00    -0.288 OA
ATOM     16  C   LIG    1       23.972 -32.752  13.159  0.00  0.00    +0.194 C 
ATOM     17  F   LIG    1       23.326 -33.740  13.839  0.00  0.00    -0.241 F 
ATOM     18  C   LIG    1       24.787 -29.685  13.706  0.00  0.00    +0.023 C 
ATOM     19  C   LIG    1       22.964 -29.175  12.160  0.00  0.00    -0.009 C 
ATOM     20  C   LIG    1       24.201 -33.229  11.725  0.00  0.00    +0.048 C 
ATOM     21  C   LIG    1       27.134 -32.134   7.886  0.00  0.00    +0.015 C 
ATOM     22  C   LIG    1       26.245 -30.249   9.280  0.00  0.00    +0.044 C 
ATOM     23  C   LIG    1       24.537 -33.587   8.587  0.00  0.00    +0.011 C 
ENDROOT
BRANCH   3  24
ATOM     24  O   LIG    1       23.594 -30.688   8.042  0.00  0.00    -0.380 OA
ATOM     25  H   LIG    1       23.893 -29.791   8.293  0.00  0.00    +0.211 HD
ENDBRANCH   3  24
BRANCH   3  26
ATOM     26  C   LIG    1       25.147 -30.677   6.148  0.00  0.00    +0.202 C 
ATOM     27  O   LIG    1       25.958 -31.197   5.376  0.00  0.00    -0.291 OA
BRANCH  26  28
ATOM     28  C   LIG    1       24.584 -29.277   5.862  0.00  0.00    +0.309 C 
BRANCH  28  29
ATOM     29  O   LIG    1       25.578 -28.283   5.632  0.00  0.00    -0.457 OA
BRANCH  29  30
ATOM     30  C   LIG    1       25.664 -27.299   6.579  0.00  0.00    +0.313 C 
ATOM     31  O   LIG    1       25.967 -27.508   7.743  0.00  0.00    -0.250 OA
BRANCH  30  32
ATOM     32  C   LIG    1       25.279 -25.928   5.995  0.00  0.00    +0.059 C 
ATOM     33  C   LIG    1       25.559 -25.966   4.487  0.00  0.00    +0.022 C 
ATOM     34  C   LIG    1       26.082 -24.775   6.620  0.00  0.00    +0.022 C 
ATOM     35  C   LIG    1       23.794 -25.652   6.289  0.00  0.00    +0.022 C 
ENDBRANCH  30  32
ENDBRANCH  29  30
ENDBRANCH  28  29
ENDBRANCH  26  28
ENDBRANCH   3  26
BRANCH   8  36
ATOM     36  O   LIG    1       25.797 -28.552  10.898  0.00  0.00    -0.389 OA
ATOM     37  H   LIG    1       25.163 -27.824  10.761  0.00  0.00    +0.210 HD
ENDBRANCH   8  36
TORSDOF 7
ENDMDL
MODEL 3
REMARK VINA RESULT:      -5.8      2.707      6.957
REMARK  Name = *****
REMARK                            x       y       z     vdW  Elec       q    Type
REMARK                         _______ _______ _______ _____ _____    ______ ____
ROOT
ATOM      1  C   LIG    1       22.520 -33.326   8.703  0.00  0.00    +0.011 C 
ATOM      2  C   LIG    1       24.028 -33.186   8.885  0.00  0.00    +0.026 C 
ATOM      3  C   LIG    1       24.620 -31.779   8.582  0.00  0.00    +0.135 C 
ATOM      4  C   LIG    1       25.928 -31.793   9.451  0.00  0.00    +0.010 C 
ATOM      5  C   LIG    1       25.454 -32.432  10.786  0.00  0.00    +0.005 C 
ATOM      6  C   LIG    1       24.840 -31.481  11.862  0.00  0.00    +0.036 C 
ATOM      7  C   LIG    1       25.609 -30.140  12.027  0.00  0.00    +0.153 C 
ATOM      8  C   LIG    1       25.846 -29.485  10.651  0.00  0.00    +0.154 C 
ATOM      9  F   LIG    1       26.863 -30.497  12.495  0.00  0.00    -0.238 F 
ATOM     10  C   LIG    1       24.960 -29.180  13.134  0.00  0.00    +0.047 C 
ATOM     11  C   LIG    1       24.202 -30.041  14.153  0.00  0.00    -0.020 C 
ATOM     12  C   LIG    1       22.984 -29.744  14.639  0.00  0.00    +0.054 C 
ATOM     13  C   LIG    1       22.230 -28.569  14.160  0.00  0.00    +0.179 C 
ATOM     14  C   LIG    1       22.822 -27.801  13.048  0.00  0.00    +0.047 C 
ATOM     15  O   LIG    1       21.139 -28.273  14.627  0.00  0.00    -0.288 OA
ATOM     16  C   LIG    1       24.865 -31.348  14.459  0.00  0.00    +0.194 C 
ATOM     17  F   LIG    1       24.268 -31.993  15.500  0.00  0.00    -0.241 F 
ATOM     18  C   LIG    1       26.069 -28.413  13.908  0.00  0.00    +0.023 C 
ATOM     19  C   LIG    1       24.043 -28.094  12.579  0.00  0.00    -0.009 C 
ATOM     20  C   LIG    1       24.767 -32.242  13.223  0.00  0.00    +0.048 C 
ATOM     21  C   LIG    1       27.004 -32.741   8.832  0.00  0.00    +0.015 C 
ATOM     22  C   LIG    1       26.589 -30.425   9.699  0.00  0.00    +0.044 C 
ATOM     23  C   LIG    1       24.459 -33.524  10.333  0.00  0.00    +0.011 C 
ENDROOT
BRANCH   3  24
ATOM     24  O   LIG    1       23.721 -30.791   9.077  0.00  0.00    -0.380 OA
ATOM     25  H   LIG    1       22.835 -31.198   9.167  0.00  0.00    +0.211 HD
ENDBRANCH   3  24
BRANCH   3  26
ATOM     26  C   LIG    1       24.875 -31.554   7.057  0.00  0.00    +0.202 C 
ATOM     27  O   LIG    1       24.585 -32.410   6.215  0.00  0.00    -0.291 OA
BRANCH  26  28
ATOM     28  C   LIG    1       25.556 -30.244   6.635  0.00  0.00    +0.309 C 
BRANCH  28  29
ATOM     29  O   LIG    1       24.851 -29.067   7.017  0.00  0.00    -0.457 OA
BRANCH  29  30
ATOM     30  C   LIG    1       24.416 -28.275   5.990  0.00  0.00    +0.313 C 
ATOM     31  O   LIG    1       23.616 -28.644   5.146  0.00  0.00    -0.250 OA
BRANCH  30  32
ATOM     32  C   LIG    1       25.108 -26.900   6.016  0.00  0.00    +0.059 C 
ATOM     33  C   LIG    1       26.058 -26.877   7.221  0.00  0.00    +0.022 C 
ATOM     34  C   LIG    1       24.107 -25.740   6.152  0.00  0.00    +0.022 C 
ATOM     35  C   LIG    1       25.864 -26.689   4.694  0.00  0.00    +0.022 C 
ENDBRANCH  30  32
ENDBRANCH  29  30
ENDBRANCH  28  29
ENDBRANCH  26  28
ENDBRANCH   3  26
BRANCH   8  36
ATOM     36  O   LIG    1       26.630 -28.291  10.768  0.00  0.00    -0.389 OA
ATOM     37  H   LIG    1       27.352 -28.357  10.116  0.00  0.00    +0.210 HD
ENDBRANCH   8  36
TORSDOF 7
ENDMDL
MODEL 4
REMARK VINA RESULT:      -5.1      1.915      3.066
REMARK  Name = *****
REMARK                            x       y       z     vdW  Elec       q    Type
REMARK                         _______ _______ _______ _____ _____    ______ ____
ROOT
ATOM      1  C   LIG    1       20.700 -28.790  12.462  0.00  0.00    +0.011 C 
ATOM      2  C   LIG    1       21.513 -30.066  12.653  0.00  0.00    +0.026 C 
ATOM      3  C   LIG    1       21.308 -31.168  11.573  0.00  0.00    +0.135 C 
ATOM      4  C   LIG    1       22.661 -31.960  11.669  0.00  0.00    +0.010 C 
ATOM      5  C   LIG    1       23.721 -30.828  11.781  0.00  0.00    +0.005 C 
ATOM      6  C   LIG    1       24.262 -30.214  10.450  0.00  0.00    +0.036 C 
ATOM      7  C   LIG    1       24.560 -31.269   9.347  0.00  0.00    +0.153 C 
ATOM      8  C   LIG    1       23.355 -32.217   9.173  0.00  0.00    +0.154 C 
ATOM      9  F   LIG    1       25.583 -32.049   9.859  0.00  0.00    -0.238 F 
ATOM     10  C   LIG    1       25.111 -30.616   7.993  0.00  0.00    +0.047 C 
ATOM     11  C   LIG    1       25.797 -29.285   8.327  0.00  0.00    -0.020 C 
ATOM     12  C   LIG    1       25.640 -28.152   7.619  0.00  0.00    +0.054 C 
ATOM     13  C   LIG    1       24.714 -28.083   6.472  0.00  0.00    +0.179 C 
ATOM     14  C   LIG    1       23.885 -29.276   6.208  0.00  0.00    +0.047 C 
ATOM     15  O   LIG    1       24.598 -27.067   5.801  0.00  0.00    -0.288 OA
ATOM     16  C   LIG    1       26.549 -29.296   9.622  0.00  0.00    +0.194 C 
ATOM     17  F   LIG    1       27.295 -28.168   9.789  0.00  0.00    -0.241 F 
ATOM     18  C   LIG    1       26.180 -31.536   7.339  0.00  0.00    +0.023 C 
ATOM     19  C   LIG    1       24.057 -30.406   6.909  0.00  0.00    -0.009 C 
ATOM     20  C   LIG    1       25.540 -29.377  10.768  0.00  0.00    +0.048 C 
ATOM     21  C   LIG    1       22.729 -32.800  12.984  0.00  0.00    +0.015 C 
ATOM     22  C   LIG    1       22.980 -32.899  10.492  0.00  0.00    +0.044 C 
ATOM     23  C   LIG    1       23.033 -29.774  12.675  0.00  0.00    +0.011 C 
ENDROOT
BRANCH   3  24
ATOM     24  O   LIG    1       21.204 -30.541  10.298  0.00  0.00    -0.380 OA
ATOM     25  H   LIG    1       21.729 -31.060   9.656  0.00  0.00    +0.211 HD
ENDBRANCH   3  24
BRANCH   3  26
ATOM     26  C   LIG    1       20.042 -32.043  11.844  0.00  0.00    +0.202 C 
ATOM     27  O   LIG    1       19.427 -32.601  10.930  0.00  0.00    -0.291 OA
BRANCH  26  28
ATOM     28  C   LIG    1       19.546 -32.148  13.294  0.00  0.00    +0.309 C 
BRANCH  28  29
ATOM     29  O   LIG    1       18.195 -31.738  13.483  0.00  0.00    -0.457 OA
BRANCH  29  30
ATOM     30  C   LIG    1       18.010 -30.668  14.314  0.00  0.00    +0.313 C 
ATOM     31  O   LIG    1       18.876 -30.232  15.056  0.00  0.00    -0.250 OA
BRANCH  30  32
ATOM     32  C   LIG    1       16.567 -30.138  14.226  0.00  0.00    +0.059 C 
ATOM     33  C   LIG    1       15.956 -30.659  12.919  0.00  0.00    +0.022 C 
ATOM     34  C   LIG    1       16.504 -28.601  14.225  0.00  0.00    +0.022 C 
ATOM     35  C   LIG    1       15.775 -30.620  15.454  0.00  0.00    +0.022 C 
ENDBRANCH  30  32
ENDBRANCH  29  30
ENDBRANCH  28  29
ENDBRANCH  26  28
ENDBRANCH   3  26
BRANCH   8  36
ATOM     36  O   LIG    1       23.638 -33.252   8.224  0.00  0.00    -0.389 OA
ATOM     37  H   LIG    1       24.596 -33.430   8.271  0.00  0.00    +0.210 HD
ENDBRANCH   8  36
TORSDOF 7
ENDMDL
MODEL 5
REMARK VINA RESULT:      -4.7      2.872      7.485
REMARK  Name = *****
REMARK                            x       y       z     vdW  Elec       q    Type
REMARK                         _______ _______ _______ _____ _____    ______ ____
ROOT
ATOM      1  C   LIG    1       24.387 -29.867   7.834  0.00  0.00    +0.011 C 
ATOM      2  C   LIG    1       24.587 -31.028   8.802  0.00  0.00    +0.026 C 
ATOM      3  C   LIG    1       25.393 -30.704  10.094  0.00  0.00    +0.135 C 
ATOM      4  C   LIG    1       24.864 -31.804  11.082  0.00  0.00    +0.010 C 
ATOM      5  C   LIG    1       23.333 -31.809  10.811  0.00  0.00    +0.005 C 
ATOM      6  C   LIG    1       22.459 -30.785  11.603  0.00  0.00    +0.036 C 
ATOM      7  C   LIG    1       22.847 -30.654  13.102  0.00  0.00    +0.153 C 
ATOM      8  C   LIG    1       24.369 -30.444  13.245  0.00  0.00    +0.154 C 
ATOM      9  F   LIG    1       22.585 -31.897  13.655  0.00  0.00    -0.238 F 
ATOM     10  C   LIG    1       21.939 -29.598  13.893  0.00  0.00    +0.047 C 
ATOM     11  C   LIG    1       20.579 -29.490  13.190  0.00  0.00    -0.020 C 
ATOM     12  C   LIG    1       19.941 -28.331  12.947  0.00  0.00    +0.054 C 
ATOM     13  C   LIG    1       20.551 -27.031  13.287  0.00  0.00    +0.179 C 
ATOM     14  C   LIG    1       21.936 -27.054  13.798  0.00  0.00    +0.047 C 
ATOM     15  O   LIG    1       19.958 -25.977  13.105  0.00  0.00    -0.288 OA
ATOM     16  C   LIG    1       20.074 -30.787  12.639  0.00  0.00    +0.194 C 
ATOM     17  F   LIG    1       18.789 -30.687  12.195  0.00  0.00    -0.241 F 
ATOM     18  C   LIG    1       21.672 -30.086  15.345  0.00  0.00    +0.023 C 
ATOM     19  C   LIG    1       22.560 -28.213  14.051  0.00  0.00    -0.009 C 
ATOM     20  C   LIG    1       20.958 -31.190  11.459  0.00  0.00    +0.048 C 
ATOM     21  C   LIG    1       25.414 -33.215  10.699  0.00  0.00    +0.015 C 
ATOM     22  C   LIG    1       25.159 -31.571  12.574  0.00  0.00    +0.044 C 
ATOM     23  C   LIG    1       23.234 -31.607   9.283  0.00  0.00    +0.011 C 
ENDROOT
BRANCH   3  24
ATOM     24  O   LIG    1       25.009 -29.413  10.557  0.00  0.00    -0.380 OA
ATOM     25  H   LIG    1       24.140 -29.191  10.166  0.00  0.00    +0.211 HD
ENDBRANCH   3  24
BRANCH   3  26
ATOM     26  C   LIG    1       26.938 -30.752   9.862  0.00  0.00    +0.202 C 
ATOM     27  O   LIG    1       27.465 -31.627   9.167  0.00  0.00    -0.291 OA
BRANCH  26  28
ATOM     28  C   LIG    1       27.798 -29.698  10.575  0.00  0.00    +0.309 C 
BRANCH  28  29
ATOM     29  O   LIG    1       28.183 -30.055  11.899  0.00  0.00    -0.457 OA
BRANCH  29  30
ATOM     30  C   LIG    1       27.881 -29.142  12.871  0.00  0.00    +0.313 C 
ATOM     31  O   LIG    1       27.082 -28.232  12.718  0.00  0.00    -0.250 OA
BRANCH  30  32
ATOM     32  C   LIG    1       28.716 -29.385  14.142  0.00  0.00    +0.059 C 
ATOM     33  C   LIG    1       28.588 -28.140  15.030  0.00  0.00    +0.022 C 
ATOM     34  C   LIG    1       30.204 -29.622  13.833  0.00  0.00    +0.022 C 
ATOM     35  C   LIG    1       28.198 -30.645  14.855  0.00  0.00    +0.022 C 
ENDBRANCH  30  32
ENDBRANCH  29  30
ENDBRANCH  28  29
ENDBRANCH  26  28
ENDBRANCH   3  26
BRANCH   8  36
ATOM     36  O   LIG    1       24.764 -30.409  14.622  0.00  0.00    -0.389 OA
ATOM     37  H   LIG    1       24.293 -29.662  15.037  0.00  0.00    +0.210 HD
ENDBRANCH   8  36
TORSDOF 7
ENDMDL
MODEL 6
REMARK VINA RESULT:      -4.6      2.768      6.936
REMARK  Name = *****
REMARK                            x       y       z     vdW  Elec       q    Type
REMARK                         _______ _______ _______ _____ _____    ______ ____
ROOT
ATOM      1  C   LIG    1       22.502 -32.105   8.734  0.00  0.00    +0.011 C 
ATOM      2  C   LIG    1       23.646 -32.343   9.714  0.00  0.00    +0.026 C 
ATOM      3  C   LIG    1       24.621 -31.148   9.923  0.00  0.00    +0.135 C 
ATOM      4  C   LIG    1       25.193 -31.453  11.353  0.00  0.00    +0.010 C 
ATOM      5  C   LIG    1       23.931 -31.889  12.149  0.00  0.00    +0.005 C 
ATOM      6  C   LIG    1       23.075 -30.765  12.814  0.00  0.00    +0.036 C 
ATOM      7  C   LIG    1       23.919 -29.657  13.504  0.00  0.00    +0.153 C 
ATOM      8  C   LIG    1       25.017 -29.147  12.547  0.00  0.00    +0.154 C 
ATOM      9  F   LIG    1       24.586 -30.298  14.534  0.00  0.00    -0.238 F 
ATOM     10  C   LIG    1       23.021 -28.514  14.177  0.00  0.00    +0.047 C 
ATOM     11  C   LIG    1       21.651 -29.107  14.532  0.00  0.00    -0.020 C 
ATOM     12  C   LIG    1       20.477 -28.489  14.311  0.00  0.00    +0.054 C 
ATOM     13  C   LIG    1       20.411 -27.184  13.625  0.00  0.00    +0.179 C 
ATOM     14  C   LIG    1       21.677 -26.643  13.092  0.00  0.00    +0.047 C 
ATOM     15  O   LIG    1       19.349 -26.600  13.457  0.00  0.00    -0.288 OA
ATOM     16  C   LIG    1       21.706 -30.524  15.012  0.00  0.00    +0.194 C 
ATOM     17  F   LIG    1       20.505 -30.948  15.494  0.00  0.00    -0.241 F 
ATOM     18  C   LIG    1       23.669 -28.018  15.500  0.00  0.00    +0.023 C 
ATOM     19  C   LIG    1       22.845 -27.257  13.329  0.00  0.00    -0.009 C 
ATOM     20  C   LIG    1       22.092 -31.420  13.834  0.00  0.00    +0.048 C 
ATOM     21  C   LIG    1       26.172 -32.670  11.320  0.00  0.00    +0.015 C 
ATOM     22  C   LIG    1       25.912 -30.288  12.057  0.00  0.00    +0.044 C 
ATOM     23  C   LIG    1       23.121 -32.712  11.122  0.00  0.00    +0.011 C 
ENDROOT
BRANCH   3  24
ATOM     24  O   LIG    1       23.862 -29.942   9.952  0.00  0.00    -0.380 OA
ATOM     25  H   LIG    1       24.382 -29.241   9.510  0.00  0.00    +0.211 HD
ENDBRANCH   3  24
BRANCH   3  26
ATOM     26  C   LIG    1       25.713 -31.065   8.809  0.00  0.00    +0.202 C 
ATOM     27  O   LIG    1       26.877 -31.427   9.010  0.00  0.00    -0.291 OA
BRANCH  26  28
ATOM     28  C   LIG    1       25.306 -30.463   7.455  0.00  0.00    +0.309 C 
BRANCH  28  29
ATOM     29  O   LIG    1       25.081 -29.057   7.484  0.00  0.00    -0.457 OA
BRANCH  29  30
ATOM     30  C   LIG    1       24.551 -28.518   6.344  0.00  0.00    +0.313 C 
ATOM     31  O   LIG    1       23.673 -29.056   5.689  0.00  0.00    -0.250 OA
BRANCH  30  32
ATOM     32  C   LIG    1       25.242 -27.191   5.981  0.00  0.00    +0.059 C 
ATOM     33  C   LIG    1       26.291 -27.490   4.902  0.00  0.00    +0.022 C 
ATOM     34  C   LIG    1       25.944 -26.544   7.187  0.00  0.00    +0.022 C 
ATOM     35  C   LIG    1       24.186 -26.189   5.484  0.00  0.00    +0.022 C 
ENDBRANCH  30  32
ENDBRANCH  29  30
ENDBRANCH  28  29
ENDBRANCH  26  28
ENDBRANCH   3  26
BRANCH   8  36
ATOM     36  O   LIG    1       25.865 -28.187  13.190  0.00  0.00    -0.389 OA
ATOM     37  H   LIG    1       26.262 -27.639  12.487  0.00  0.00    +0.210 HD
ENDBRANCH   8  36
TORSDOF 7
ENDMDL
MODEL 7
REMARK VINA RESULT:      -4.5      3.679      6.825
REMARK  Name = *****
REMARK                            x       y       z     vdW  Elec       q    Type
REMARK                         _______ _______ _______ _____ _____    ______ ____
ROOT
ATOM      1  C   LIG    1       22.882 -30.717   8.557  0.00  0.00    +0.011 C 
ATOM      2  C   LIG    1       24.022 -31.563   9.113  0.00  0.00    +0.026 C 
ATOM      3  C   LIG    1       25.455 -30.992   8.902  0.00  0.00    +0.135 C 
ATOM      4  C   LIG    1       26.243 -31.674  10.077  0.00  0.00    +0.010 C 
ATOM      5  C   LIG    1       25.262 -31.546  11.276  0.00  0.00    +0.005 C 
ATOM      6  C   LIG    1       25.312 -30.226  12.109  0.00  0.00    +0.036 C 
ATOM      7  C   LIG    1       26.754 -29.720  12.400  0.00  0.00    +0.153 C 
ATOM      8  C   LIG    1       27.583 -29.690  11.099  0.00  0.00    +0.154 C 
ATOM      9  F   LIG    1       27.329 -30.701  13.191  0.00  0.00    -0.238 F 
ATOM     10  C   LIG    1       26.780 -28.365  13.253  0.00  0.00    +0.047 C 
ATOM     11  C   LIG    1       25.494 -28.279  14.085  0.00  0.00    -0.020 C 
ATOM     12  C   LIG    1       24.755 -27.163  14.226  0.00  0.00    +0.054 C 
ATOM     13  C   LIG    1       25.099 -25.918  13.513  0.00  0.00    +0.179 C 
ATOM     14  C   LIG    1       26.218 -25.983  12.553  0.00  0.00    +0.047 C 
ATOM     15  O   LIG    1       24.453 -24.891  13.669  0.00  0.00    -0.288 OA
ATOM     16  C   LIG    1       25.022 -29.597  14.616  0.00  0.00    +0.194 C 
ATOM     17  F   LIG    1       23.995 -29.454  15.500  0.00  0.00    -0.241 F 
ATOM     18  C   LIG    1       27.976 -28.369  14.247  0.00  0.00    +0.023 C 
ATOM     19  C   LIG    1       26.958 -27.093  12.428  0.00  0.00    -0.009 C 
ATOM     20  C   LIG    1       24.529 -30.443  13.442  0.00  0.00    +0.048 C 
ATOM     21  C   LIG    1       26.454 -33.198   9.803  0.00  0.00    +0.015 C 
ATOM     22  C   LIG    1       27.613 -31.061  10.419  0.00  0.00    +0.044 C 
ATOM     23  C   LIG    1       23.876 -31.784  10.638  0.00  0.00    +0.011 C 
ENDROOT
BRANCH   3  24
ATOM     24  O   LIG    1       25.417 -29.582   9.100  0.00  0.00    -0.380 OA
ATOM     25  H   LIG    1       24.578 -29.242   8.728  0.00  0.00    +0.211 HD
ENDBRANCH   3  24
BRANCH   3  26
ATOM     26  C   LIG    1       26.026 -31.319   7.485  0.00  0.00    +0.202 C 
ATOM     27  O   LIG    1       27.051 -31.991   7.334  0.00  0.00    -0.291 OA
BRANCH  26  28
ATOM     28  C   LIG    1       25.296 -30.727   6.269  0.00  0.00    +0.309 C 
BRANCH  28  29
ATOM     29  O   LIG    1       25.673 -29.391   5.953  0.00  0.00    -0.457 OA
BRANCH  29  30
ATOM     30  C   LIG    1       24.645 -28.498   5.827  0.00  0.00    +0.313 C 
ATOM     31  O   LIG    1       23.480 -28.827   5.672  0.00  0.00    -0.250 OA
BRANCH  30  32
ATOM     32  C   LIG    1       25.161 -27.047   5.849  0.00  0.00    +0.059 C 
ATOM     33  C   LIG    1       26.061 -26.890   7.082  0.00  0.00    +0.022 C 
ATOM     34  C   LIG    1       24.021 -26.018   5.933  0.00  0.00    +0.022 C 
ATOM     35  C   LIG    1       25.929 -26.763   4.547  0.00  0.00    +0.022 C 
ENDBRANCH  30  32
ENDBRANCH  29  30
ENDBRANCH  28  29
ENDBRANCH  26  28
ENDBRANCH   3  26
BRANCH   8  36
ATOM     36  O   LIG    1       28.941 -29.312  11.354  0.00  0.00    -0.389 OA
ATOM     37  H   LIG    1       29.508 -29.905  10.826  0.00  0.00    +0.210 HD
ENDBRANCH   8  36
TORSDOF 7
ENDMDL
MODEL 8
REMARK VINA RESULT:      -3.9      2.506      7.641
REMARK  Name = *****
REMARK                            x       y       z     vdW  Elec       q    Type
REMARK                         _______ _______ _______ _____ _____    ______ ____
ROOT
ATOM      1  C   LIG    1       22.899 -31.142   6.028  0.00  0.00    +0.011 C 
ATOM      2  C   LIG    1       24.245 -31.345   6.717  0.00  0.00    +0.026 C 
ATOM      3  C   LIG    1       24.840 -30.093   7.425  0.00  0.00    +0.135 C 
ATOM      4  C   LIG    1       25.770 -30.753   8.505  0.00  0.00    +0.010 C 
ATOM      5  C   LIG    1       24.896 -31.915   9.055  0.00  0.00    +0.005 C 
ATOM      6  C   LIG    1       23.907 -31.584  10.218  0.00  0.00    +0.036 C 
ATOM      7  C   LIG    1       24.511 -30.659  11.312  0.00  0.00    +0.153 C 
ATOM      8  C   LIG    1       25.176 -29.427  10.664  0.00  0.00    +0.154 C 
ATOM      9  F   LIG    1       25.543 -31.391  11.876  0.00  0.00    -0.238 F 
ATOM     10  C   LIG    1       23.479 -30.332  12.492  0.00  0.00    +0.047 C 
ATOM     11  C   LIG    1       22.457 -31.473  12.587  0.00  0.00    -0.020 C 
ATOM     12  C   LIG    1       21.134 -31.294  12.746  0.00  0.00    +0.054 C 
ATOM     13  C   LIG    1       20.538 -29.945  12.773  0.00  0.00    +0.179 C 
ATOM     14  C   LIG    1       21.440 -28.808  12.503  0.00  0.00    +0.047 C 
ATOM     15  O   LIG    1       19.340 -29.776  12.957  0.00  0.00    -0.288 OA
ATOM     16  C   LIG    1       23.034 -32.830  12.327  0.00  0.00    +0.194 C 
ATOM     17  F   LIG    1       22.145 -33.825  12.605  0.00  0.00    -0.241 F 
ATOM     18  C   LIG    1       24.218 -30.257  13.858  0.00  0.00    +0.023 C 
ATOM     19  C   LIG    1       22.760 -28.993  12.359  0.00  0.00    -0.009 C 
ATOM     20  C   LIG    1       23.407 -32.922  10.847  0.00  0.00    +0.048 C 
ATOM     21  C   LIG    1       27.036 -31.388   7.845  0.00  0.00    +0.015 C 
ATOM     22  C   LIG    1       26.243 -29.833   9.644  0.00  0.00    +0.044 C 
ATOM     23  C   LIG    1       24.168 -32.447   7.800  0.00  0.00    +0.011 C 
ENDROOT
BRANCH   3  24
ATOM     24  O   LIG    1       23.782 -29.386   8.065  0.00  0.00    -0.380 OA
ATOM     25  H   LIG    1       24.126 -29.005   8.898  0.00  0.00    +0.211 HD
ENDBRANCH   3  24
BRANCH   3  26
ATOM     26  C   LIG    1       25.593 -29.148   6.434  0.00  0.00    +0.202 C 
ATOM     27  O   LIG    1       25.953 -29.529   5.316  0.00  0.00    -0.291 OA
BRANCH  26  28
ATOM     28  C   LIG    1       25.925 -27.728   6.918  0.00  0.00    +0.309 C 
BRANCH  28  29
ATOM     29  O   LIG    1       24.911 -26.765   6.648  0.00  0.00    -0.457 OA
BRANCH  29  30
ATOM     30  C   LIG    1       25.218 -25.830   5.698  0.00  0.00    +0.313 C 
ATOM     31  O   LIG    1       25.779 -26.095   4.647  0.00  0.00    -0.250 OA
BRANCH  30  32
ATOM     32  C   LIG    1       24.814 -24.417   6.156  0.00  0.00    +0.059 C 
ATOM     33  C   LIG    1       23.372 -24.488   6.677  0.00  0.00    +0.022 C 
ATOM     34  C   LIG    1       24.878 -23.387   5.016  0.00  0.00    +0.022 C 
ATOM     35  C   LIG    1       25.788 -23.941   7.248  0.00  0.00    +0.022 C 
ENDBRANCH  30  32
ENDBRANCH  29  30
ENDBRANCH  28  29
ENDBRANCH  26  28
ENDBRANCH   3  26
BRANCH   8  36
ATOM     36  O   LIG    1       25.817 -28.603  11.645  0.00  0.00    -0.389 OA
ATOM     37  H   LIG    1       25.123 -28.294  12.258  0.00  0.00    +0.210 HD
ENDBRANCH   8  36
TORSDOF 7
ENDMDL
MODEL 9
REMARK VINA RESULT:      -3.8      3.628      6.672
REMARK  Name = *****
REMARK                            x       y       z     vdW  Elec       q    Type
REMARK                         _______ _______ _______ _____ _____    ______ ____
ROOT
ATOM      1  C   LIG    1       23.207 -29.736   8.724  0.00  0.00    +0.011 C 
ATOM      2  C   LIG    1       23.789 -30.735   9.717  0.00  0.00    +0.026 C 
ATOM      3  C   LIG    1       25.328 -30.655   9.937  0.00  0.00    +0.135 C 
ATOM      4  C   LIG    1       25.475 -31.271  11.375  0.00  0.00    +0.010 C 
ATOM      5  C   LIG    1       24.298 -30.619  12.155  0.00  0.00    +0.005 C 
ATOM      6  C   LIG    1       24.554 -29.223  12.809  0.00  0.00    +0.036 C 
ATOM      7  C   LIG    1       25.937 -29.101  13.508  0.00  0.00    +0.153 C 
ATOM      8  C   LIG    1       27.059 -29.583  12.565  0.00  0.00    +0.154 C 
ATOM      9  F   LIG    1       25.901 -30.016  14.547  0.00  0.00    -0.238 F 
ATOM     10  C   LIG    1       26.178 -27.662  14.169  0.00  0.00    +0.047 C 
ATOM     11  C   LIG    1       24.817 -27.039  14.508  0.00  0.00    -0.020 C 
ATOM     12  C   LIG    1       24.491 -25.756  14.272  0.00  0.00    +0.054 C 
ATOM     13  C   LIG    1       25.420 -24.839  13.584  0.00  0.00    +0.179 C 
ATOM     14  C   LIG    1       26.674 -25.421  13.067  0.00  0.00    +0.047 C 
ATOM     15  O   LIG    1       25.143 -23.662  13.403  0.00  0.00    -0.288 OA
ATOM     16  C   LIG    1       23.799 -28.026  14.990  0.00  0.00    +0.194 C 
ATOM     17  F   LIG    1       22.676 -27.413  15.458  0.00  0.00    -0.241 F 
ATOM     18  C   LIG    1       26.970 -27.798  15.500  0.00  0.00    +0.023 C 
ATOM     19  C   LIG    1       26.999 -26.697  13.318  0.00  0.00    -0.009 C 
ATOM     20  C   LIG    1       23.402 -28.923  13.818  0.00  0.00    +0.048 C 
ATOM     21  C   LIG    1       25.227 -32.813  11.354  0.00  0.00    +0.015 C 
ATOM     22  C   LIG    1       26.815 -31.016  12.086  0.00  0.00    +0.044 C 
ATOM     23  C   LIG    1       23.153 -30.580  11.120  0.00  0.00    +0.011 C 
ENDROOT
BRANCH   3  24
ATOM     24  O   LIG    1       25.714 -29.284   9.957  0.00  0.00    -0.380 OA
ATOM     25  H   LIG    1       25.537 -28.927  10.851  0.00  0.00    +0.211 HD
ENDBRANCH   3  24
BRANCH   3  26
ATOM     26  C   LIG    1       26.130 -31.421   8.836  0.00  0.00    +0.202 C 
ATOM     27  O   LIG    1       26.984 -32.266   9.122  0.00  0.00    -0.291 OA
BRANCH  26  28
ATOM     28  C   LIG    1       25.860 -31.050   7.370  0.00  0.00    +0.309 C 
BRANCH  28  29
ATOM     29  O   LIG    1       26.082 -29.677   7.064  0.00  0.00    -0.457 OA
BRANCH  29  30
ATOM     30  C   LIG    1       25.278 -29.149   6.090  0.00  0.00    +0.313 C 
ATOM     31  O   LIG    1       24.521 -29.817   5.405  0.00  0.00    -0.250 OA
BRANCH  30  32
ATOM     32  C   LIG    1       25.502 -27.633   5.946  0.00  0.00    +0.059 C 
ATOM     33  C   LIG    1       24.152 -26.993   5.595  0.00  0.00    +0.022 C 
ATOM     34  C   LIG    1       26.515 -27.289   4.841  0.00  0.00    +0.022 C 
ATOM     35  C   LIG    1       26.067 -27.076   7.263  0.00  0.00    +0.022 C 
ENDBRANCH  30  32
ENDBRANCH  29  30
ENDBRANCH  28  29
ENDBRANCH  26  28
ENDBRANCH   3  26
BRANCH   8  36
ATOM     36  O   LIG    1       28.334 -29.563  13.217  0.00  0.00    -0.389 OA
ATOM     37  H   LIG    1       28.210 -29.120  14.077  0.00  0.00    +0.210 HD
ENDBRANCH   8  36
TORSDOF 7
ENDMDL
