MODEL 1
REMARK VINA RESULT:      -9.6      0.000      0.000
REMARK  Name = *****
REMARK                            x       y       z     vdW  Elec       q    Type
REMARK                         _______ _______ _______ _____ _____    ______ ____
ROOT
ATOM      1  C   LIG    1       25.005 -21.814   5.465  0.00  0.00    -0.003 C 
ENDROOT
BRANCH   1   2
ATOM      2  C   LIG    1       25.545 -20.591   6.348  0.00  0.00    -0.008 C 
ATOM      3  C   LIG    1       25.522 -20.721   7.887  0.00  0.00    +0.004 C 
ATOM      4  C   LIG    1       26.552 -21.705   8.430  0.00  0.00    +0.000 C 
ATOM      5  C   LIG    1       27.949 -21.190   8.120  0.00  0.00    +0.000 C 
ATOM      6  C   LIG    1       28.119 -20.957   6.621  0.00  0.00    +0.000 C 
ATOM      7  C   LIG    1       26.992 -20.106   6.021  0.00  0.00    +0.004 C 
ENDBRANCH   1   2
BRANCH   1   8
ATOM      8  C   LIG    1       23.899 -21.290   4.419  0.00  0.00    -0.008 C 
ATOM      9  C   LIG    1       22.541 -20.838   5.001  0.00  0.00    +0.004 C 
ATOM     10  C   LIG    1       22.342 -19.344   5.240  0.00  0.00    +0.000 C 
ATOM     11  C   LIG    1       22.832 -18.468   4.096  0.00  0.00    +0.000 C 
ATOM     12  C   LIG    1       24.243 -18.826   3.661  0.00  0.00    +0.000 C 
ATOM     13  C   LIG    1       24.397 -20.310   3.334  0.00  0.00    +0.004 C 
ENDBRANCH   1   8
BRANCH   1  14
ATOM     14  C   LIG    1       24.422 -23.028   6.280  0.00  0.00    +0.022 C 
BRANCH  14  15
ATOM     15  C   LIG    1       24.835 -24.485   5.945  0.00  0.00    +0.054 C 
ATOM     16  N   LIG    1       23.693 -25.410   5.976  0.00  0.00    -0.313 NA
ATOM     17  H   LIG    1       23.351 -25.490   6.926  0.00  0.00    +0.122 HD
ATOM     18  C   LIG    1       24.089 -26.740   5.488  0.00  0.00    +0.081 C 
ATOM     19  C   LIG    1       25.230 -27.340   6.305  0.00  0.00    +0.015 C 
ATOM     20  C   LIG    1       26.416 -26.391   6.394  0.00  0.00    +0.003 C 
ATOM     21  C   LIG    1       25.958 -25.004   6.865  0.00  0.00    +0.019 C 
ENDBRANCH  14  15
ENDBRANCH   1  14
TORSDOF 4
ENDMDL
MODEL 2
REMARK VINA RESULT:      -9.2      2.222      4.778
REMARK  Name = *****
REMARK                            x       y       z     vdW  Elec       q    Type
REMARK                         _______ _______ _______ _____ _____    ______ ____
ROOT
ATOM      1  C   LIG    1       25.042 -20.749   6.446  0.00  0.00    -0.003 C 
ENDROOT
BRANCH   1   2
ATOM      2  C   LIG    1       24.723 -21.837   7.579  0.00  0.00    -0.008 C 
ATOM      3  C   LIG    1       23.306 -22.446   7.644  0.00  0.00    +0.004 C 
ATOM      4  C   LIG    1       23.001 -23.401   6.495  0.00  0.00    +0.000 C 
ATOM      5  C   LIG    1       23.928 -24.603   6.581  0.00  0.00    +0.000 C 
ATOM      6  C   LIG    1       25.388 -24.160   6.582  0.00  0.00    +0.000 C 
ATOM      7  C   LIG    1       25.679 -23.071   7.623  0.00  0.00    +0.004 C 
ENDBRANCH   1   2
BRANCH   1   8
ATOM      8  C   LIG    1       23.896 -20.782   5.316  0.00  0.00    -0.008 C 
ATOM      9  C   LIG    1       22.603 -19.986   5.605  0.00  0.00    +0.004 C 
ATOM     10  C   LIG    1       22.492 -18.585   5.010  0.00  0.00    +0.000 C 
ATOM     11  C   LIG    1       22.948 -18.494   3.561  0.00  0.00    +0.000 C 
ATOM     12  C   LIG    1       24.308 -19.136   3.344  0.00  0.00    +0.000 C 
ATOM     13  C   LIG    1       24.368 -20.572   3.860  0.00  0.00    +0.004 C 
ENDBRANCH   1   8
BRANCH   1  14
ATOM     14  C   LIG    1       26.455 -20.880   5.765  0.00  0.00    +0.022 C 
BRANCH  14  15
ATOM     15  C   LIG    1       27.680 -20.107   6.318  0.00  0.00    +0.054 C 
ATOM     16  N   LIG    1       28.376 -19.343   5.273  0.00  0.00    -0.313 NA
ATOM     17  H   LIG    1       28.798 -19.983   4.613  0.00  0.00    +0.122 HD
ATOM     18  C   LIG    1       29.422 -18.492   5.862  0.00  0.00    +0.081 C 
ATOM     19  C   LIG    1       30.450 -19.299   6.647  0.00  0.00    +0.015 C 
ATOM     20  C   LIG    1       29.789 -20.189   7.690  0.00  0.00    +0.003 C 
ATOM     21  C   LIG    1       28.677 -21.030   7.048  0.00  0.00    +0.019 C 
ENDBRANCH  14  15
ENDBRANCH   1  14
TORSDOF 4
ENDMDL
MODEL 3
REMARK VINA RESULT:      -9.1      1.756      5.686
REMARK  Name = *****
REMARK                            x       y       z     vdW  Elec       q    Type
REMARK                         _______ _______ _______ _____ _____    ______ ____
ROOT
ATOM      1  C   LIG    1       24.933 -21.983   5.943  0.00  0.00    -0.003 C 
ENDROOT
BRANCH   1   2
ATOM      2  C   LIG    1       23.731 -21.803   4.899  0.00  0.00    -0.008 C 
ATOM      3  C   LIG    1       22.454 -21.066   5.358  0.00  0.00    +0.004 C 
ATOM      4  C   LIG    1       22.653 -19.566   5.545  0.00  0.00    +0.000 C 
ATOM      5  C   LIG    1       22.989 -18.933   4.204  0.00  0.00    +0.000 C 
ATOM      6  C   LIG    1       24.215 -19.597   3.585  0.00  0.00    +0.000 C 
ATOM      7  C   LIG    1       24.105 -21.127   3.543  0.00  0.00    +0.004 C 
ENDBRANCH   1   2
BRANCH   1   8
ATOM      8  C   LIG    1       24.636 -23.232   6.914  0.00  0.00    -0.008 C 
ATOM      9  C   LIG    1       23.448 -24.147   6.537  0.00  0.00    +0.004 C 
ATOM     10  C   LIG    1       23.764 -25.425   5.765  0.00  0.00    +0.000 C 
ATOM     11  C   LIG    1       24.968 -26.185   6.302  0.00  0.00    +0.000 C 
ATOM     12  C   LIG    1       26.177 -25.286   6.499  0.00  0.00    +0.000 C 
ATOM     13  C   LIG    1       25.862 -24.061   7.355  0.00  0.00    +0.004 C 
ENDBRANCH   1   8
BRANCH   1  14
ATOM     14  C   LIG    1       25.267 -20.712   6.810  0.00  0.00    +0.022 C 
BRANCH  14  15
ATOM     15  C   LIG    1       26.691 -20.098   6.808  0.00  0.00    +0.054 C 
ATOM     16  N   LIG    1       27.321 -20.154   5.481  0.00  0.00    -0.313 NA
ATOM     17  H   LIG    1       27.496 -21.119   5.232  0.00  0.00    +0.122 HD
ATOM     18  C   LIG    1       28.591 -19.412   5.478  0.00  0.00    +0.081 C 
ATOM     19  C   LIG    1       29.576 -19.948   6.512  0.00  0.00    +0.015 C 
ATOM     20  C   LIG    1       28.957 -20.007   7.901  0.00  0.00    +0.003 C 
ATOM     21  C   LIG    1       27.614 -20.750   7.857  0.00  0.00    +0.019 C 
ENDBRANCH  14  15
ENDBRANCH   1  14
TORSDOF 4
ENDMDL
MODEL 4
REMARK VINA RESULT:      -8.8      1.466      5.680
REMARK  Name = *****
REMARK                            x       y       z     vdW  Elec       q    Type
REMARK                         _______ _______ _______ _____ _____    ______ ____
ROOT
ATOM      1  C   LIG    1       24.968 -23.498   6.426  0.00  0.00    -0.003 C 
ENDROOT
BRANCH   1   2
ATOM      2  C   LIG    1       24.639 -25.050   6.652  0.00  0.00    -0.008 C 
ATOM      3  C   LIG    1       24.032 -25.856   5.483  0.00  0.00    +0.004 C 
ATOM      4  C   LIG    1       25.019 -26.123   4.352  0.00  0.00    +0.000 C 
ATOM      5  C   LIG    1       26.148 -27.003   4.867  0.00  0.00    +0.000 C 
ATOM      6  C   LIG    1       26.824 -26.361   6.075  0.00  0.00    +0.000 C 
ATOM      7  C   LIG    1       25.826 -25.929   7.157  0.00  0.00    +0.004 C 
ENDBRANCH   1   2
BRANCH   1   8
ATOM      8  C   LIG    1       26.045 -23.001   7.515  0.00  0.00    -0.008 C 
ATOM      9  C   LIG    1       27.399 -22.485   6.977  0.00  0.00    +0.004 C 
ATOM     10  C   LIG    1       27.563 -20.976   6.818  0.00  0.00    +0.000 C 
ATOM     11  C   LIG    1       27.034 -20.173   7.997  0.00  0.00    +0.000 C 
ATOM     12  C   LIG    1       25.627 -20.588   8.393  0.00  0.00    +0.000 C 
ATOM     13  C   LIG    1       25.507 -22.091   8.641  0.00  0.00    +0.004 C 
ENDBRANCH   1   8
BRANCH   1  14
ATOM     14  C   LIG    1       23.722 -22.536   6.443  0.00  0.00    +0.022 C 
BRANCH  14  15
ATOM     15  C   LIG    1       23.507 -21.491   5.317  0.00  0.00    +0.054 C 
ATOM     16  N   LIG    1       24.734 -21.237   4.549  0.00  0.00    -0.313 NA
ATOM     17  H   LIG    1       25.415 -20.783   5.144  0.00  0.00    +0.122 HD
ATOM     18  C   LIG    1       24.451 -20.378   3.389  0.00  0.00    +0.081 C 
ATOM     19  C   LIG    1       23.840 -19.041   3.795  0.00  0.00    +0.015 C 
ATOM     20  C   LIG    1       22.613 -19.228   4.675  0.00  0.00    +0.003 C 
ATOM     21  C   LIG    1       22.934 -20.162   5.850  0.00  0.00    +0.019 C 
ENDBRANCH  14  15
ENDBRANCH   1  14
TORSDOF 4
ENDMDL
MODEL 5
REMARK VINA RESULT:      -8.0      1.606      5.498
REMARK  Name = *****
REMARK                            x       y       z     vdW  Elec       q    Type
REMARK                         _______ _______ _______ _____ _____    ______ ____
ROOT
ATOM      1  C   LIG    1       24.902 -23.322   6.688  0.00  0.00    -0.003 C 
ENDROOT
BRANCH   1   2
ATOM      2  C   LIG    1       26.106 -23.007   7.698  0.00  0.00    -0.008 C 
ATOM      3  C   LIG    1       27.412 -22.410   7.130  0.00  0.00    +0.004 C 
ATOM      4  C   LIG    1       27.272 -20.961   6.679  0.00  0.00    +0.000 C 
ATOM      5  C   LIG    1       26.956 -20.088   7.883  0.00  0.00    +0.000 C 
ATOM      6  C   LIG    1       25.702 -20.586   8.597  0.00  0.00    +0.000 C 
ATOM      7  C   LIG    1       25.752 -22.088   8.909  0.00  0.00    +0.004 C 
ENDBRANCH   1   2
BRANCH   1   8
ATOM      8  C   LIG    1       24.628 -24.908   6.638  0.00  0.00    -0.008 C 
ATOM      9  C   LIG    1       24.056 -25.479   5.320  0.00  0.00    +0.004 C 
ATOM     10  C   LIG    1       25.045 -26.093   4.333  0.00  0.00    +0.000 C 
ATOM     11  C   LIG    1       26.083 -26.995   4.984  0.00  0.00    +0.000 C 
ATOM     12  C   LIG    1       26.754 -26.335   6.177  0.00  0.00    +0.000 C 
ATOM     13  C   LIG    1       25.747 -25.812   7.200  0.00  0.00    +0.004 C 
ENDBRANCH   1   8
BRANCH   1  14
ATOM     14  C   LIG    1       25.089 -22.775   5.224  0.00  0.00    +0.022 C 
BRANCH  14  15
ATOM     15  C   LIG    1       24.225 -21.601   4.695  0.00  0.00    +0.054 C 
ATOM     16  N   LIG    1       25.031 -20.573   4.022  0.00  0.00    -0.313 NA
ATOM     17  H   LIG    1       25.630 -20.119   4.700  0.00  0.00    +0.122 HD
ATOM     18  C   LIG    1       24.166 -19.568   3.386  0.00  0.00    +0.081 C 
ATOM     19  C   LIG    1       23.238 -18.887   4.388  0.00  0.00    +0.015 C 
ATOM     20  C   LIG    1       22.436 -19.901   5.191  0.00  0.00    +0.003 C 
ATOM     21  C   LIG    1       23.367 -20.957   5.803  0.00  0.00    +0.019 C 
ENDBRANCH  14  15
ENDBRANCH   1  14
TORSDOF 4
ENDMDL
MODEL 6
REMARK VINA RESULT:      -7.8      0.957      2.047
REMARK  Name = *****
REMARK                            x       y       z     vdW  Elec       q    Type
REMARK                         _______ _______ _______ _____ _____    ______ ____
ROOT
ATOM      1  C   LIG    1       25.534 -22.322   5.995  0.00  0.00    -0.003 C 
ENDROOT
BRANCH   1   2
ATOM      2  C   LIG    1       26.550 -22.489   7.222  0.00  0.00    -0.008 C 
ATOM      3  C   LIG    1       27.975 -21.909   7.089  0.00  0.00    +0.004 C 
ATOM      4  C   LIG    1       28.016 -20.385   7.127  0.00  0.00    +0.000 C 
ATOM      5  C   LIG    1       27.542 -19.903   8.489  0.00  0.00    +0.000 C 
ATOM      6  C   LIG    1       26.149 -20.444   8.798  0.00  0.00    +0.000 C 
ATOM      7  C   LIG    1       26.042 -21.961   8.600  0.00  0.00    +0.004 C 
ENDBRANCH   1   2
BRANCH   1   8
ATOM      8  C   LIG    1       24.796 -20.894   6.082  0.00  0.00    -0.008 C 
ATOM      9  C   LIG    1       25.088 -19.883   4.950  0.00  0.00    +0.004 C 
ATOM     10  C   LIG    1       24.084 -19.804   3.803  0.00  0.00    +0.000 C 
ATOM     11  C   LIG    1       22.632 -19.803   4.257  0.00  0.00    +0.000 C 
ATOM     12  C   LIG    1       22.334 -20.921   5.241  0.00  0.00    +0.000 C 
ATOM     13  C   LIG    1       23.292 -20.924   6.431  0.00  0.00    +0.004 C 
ENDBRANCH   1   8
BRANCH   1  14
ATOM     14  C   LIG    1       24.457 -23.462   5.851  0.00  0.00    +0.022 C 
BRANCH  14  15
ATOM     15  C   LIG    1       24.879 -24.951   5.763  0.00  0.00    +0.054 C 
ATOM     16  N   LIG    1       23.730 -25.846   5.570  0.00  0.00    -0.313 NA
ATOM     17  H   LIG    1       23.149 -25.831   6.398  0.00  0.00    +0.122 HD
ATOM     18  C   LIG    1       24.182 -27.224   5.318  0.00  0.00    +0.081 C 
ATOM     19  C   LIG    1       25.042 -27.767   6.455  0.00  0.00    +0.015 C 
ATOM     20  C   LIG    1       26.205 -26.837   6.773  0.00  0.00    +0.003 C 
ATOM     21  C   LIG    1       25.700 -25.403   6.987  0.00  0.00    +0.019 C 
ENDBRANCH  14  15
ENDBRANCH   1  14
TORSDOF 4
ENDMDL
MODEL 7
REMARK VINA RESULT:      -7.8      1.434      4.543
REMARK  Name = *****
REMARK                            x       y       z     vdW  Elec       q    Type
REMARK                         _______ _______ _______ _____ _____    ______ ____
ROOT
ATOM      1  C   LIG    1       25.821 -20.340   6.187  0.00  0.00    -0.003 C 
ENDROOT
BRANCH   1   2
ATOM      2  C   LIG    1       25.104 -20.597   4.778  0.00  0.00    -0.008 C 
ATOM      3  C   LIG    1       23.585 -20.877   4.759  0.00  0.00    +0.004 C 
ATOM      4  C   LIG    1       22.738 -19.652   5.084  0.00  0.00    +0.000 C 
ATOM      5  C   LIG    1       22.938 -18.601   4.004  0.00  0.00    +0.000 C 
ATOM      6  C   LIG    1       24.416 -18.250   3.858  0.00  0.00    +0.000 C 
ATOM      7  C   LIG    1       25.309 -19.487   3.700  0.00  0.00    +0.004 C 
ENDBRANCH   1   2
BRANCH   1   8
ATOM      8  C   LIG    1       27.402 -20.617   6.058  0.00  0.00    -0.008 C 
ATOM      9  C   LIG    1       28.206 -19.674   5.135  0.00  0.00    +0.004 C 
ATOM     10  C   LIG    1       28.941 -18.508   5.790  0.00  0.00    +0.000 C 
ATOM     11  C   LIG    1       29.682 -18.886   7.063  0.00  0.00    +0.000 C 
ATOM     12  C   LIG    1       28.808 -19.666   8.030  0.00  0.00    +0.000 C 
ATOM     13  C   LIG    1       28.158 -20.885   7.378  0.00  0.00    +0.004 C 
ENDBRANCH   1   8
BRANCH   1  14
ATOM     14  C   LIG    1       25.242 -21.162   7.398  0.00  0.00    +0.022 C 
BRANCH  14  15
ATOM     15  C   LIG    1       24.953 -22.680   7.266  0.00  0.00    +0.054 C 
ATOM     16  N   LIG    1       25.956 -23.369   6.441  0.00  0.00    -0.313 NA
ATOM     17  H   LIG    1       25.884 -23.046   5.484  0.00  0.00    +0.122 HD
ATOM     18  C   LIG    1       25.748 -24.825   6.480  0.00  0.00    +0.081 C 
ATOM     19  C   LIG    1       24.357 -25.224   5.997  0.00  0.00    +0.015 C 
ATOM     20  C   LIG    1       23.266 -24.475   6.747  0.00  0.00    +0.003 C 
ATOM     21  C   LIG    1       23.538 -22.964   6.722  0.00  0.00    +0.019 C 
ENDBRANCH  14  15
ENDBRANCH   1  14
TORSDOF 4
ENDMDL
MODEL 8
REMARK VINA RESULT:      -7.7      1.566      5.517
REMARK  Name = *****
REMARK                            x       y       z     vdW  Elec       q    Type
REMARK                         _______ _______ _______ _____ _____    ______ ____
ROOT
ATOM      1  C   LIG    1       25.277 -22.415   5.633  0.00  0.00    -0.003 C 
ENDROOT
BRANCH   1   2
ATOM      2  C   LIG    1       24.769 -23.360   6.823  0.00  0.00    -0.008 C 
ATOM      3  C   LIG    1       23.543 -24.266   6.578  0.00  0.00    +0.004 C 
ATOM      4  C   LIG    1       23.826 -25.430   5.636  0.00  0.00    +0.000 C 
ATOM      5  C   LIG    1       24.852 -26.354   6.273  0.00  0.00    +0.000 C 
ATOM      6  C   LIG    1       26.122 -25.587   6.629  0.00  0.00    +0.000 C 
ATOM      7  C   LIG    1       25.841 -24.313   7.437  0.00  0.00    +0.004 C 
ENDBRANCH   1   2
BRANCH   1   8
ATOM      8  C   LIG    1       25.612 -20.946   6.201  0.00  0.00    -0.008 C 
ATOM      9  C   LIG    1       25.121 -20.618   7.629  0.00  0.00    +0.004 C 
ATOM     10  C   LIG    1       26.122 -20.775   8.770  0.00  0.00    +0.000 C 
ATOM     11  C   LIG    1       27.501 -20.212   8.460  0.00  0.00    +0.000 C 
ATOM     12  C   LIG    1       28.033 -20.695   7.121  0.00  0.00    +0.000 C 
ATOM     13  C   LIG    1       27.054 -20.440   5.976  0.00  0.00    +0.004 C 
ENDBRANCH   1   8
BRANCH   1  14
ATOM     14  C   LIG    1       24.298 -22.291   4.406  0.00  0.00    +0.022 C 
BRANCH  14  15
ATOM     15  C   LIG    1       23.591 -20.950   4.083  0.00  0.00    +0.054 C 
ATOM     16  N   LIG    1       24.541 -19.836   3.948  0.00  0.00    -0.313 NA
ATOM     17  H   LIG    1       24.970 -19.649   4.846  0.00  0.00    +0.122 HD
ATOM     18  C   LIG    1       23.856 -18.624   3.474  0.00  0.00    +0.081 C 
ATOM     19  C   LIG    1       22.727 -18.196   4.406  0.00  0.00    +0.015 C 
ATOM     20  C   LIG    1       21.751 -19.334   4.666  0.00  0.00    +0.003 C 
ATOM     21  C   LIG    1       22.505 -20.593   5.117  0.00  0.00    +0.019 C 
ENDBRANCH  14  15
ENDBRANCH   1  14
TORSDOF 4
ENDMDL
MODEL 9
REMARK VINA RESULT:      -7.7      0.736      3.773
REMARK  Name = *****
REMARK                            x       y       z     vdW  Elec       q    Type
REMARK                         _______ _______ _______ _____ _____    ______ ____
ROOT
ATOM      1  C   LIG    1       24.244 -22.113   5.736  0.00  0.00    -0.003 C 
ENDROOT
BRANCH   1   2
ATOM      2  C   LIG    1       23.216 -21.664   4.591  0.00  0.00    -0.008 C 
ATOM      3  C   LIG    1       22.035 -20.746   4.975  0.00  0.00    +0.004 C 
ATOM      4  C   LIG    1       22.456 -19.318   5.302  0.00  0.00    +0.000 C 
ATOM      5  C   LIG    1       23.044 -18.670   4.057  0.00  0.00    +0.000 C 
ATOM      6  C   LIG    1       24.206 -19.497   3.516  0.00  0.00    +0.000 C 
ATOM      7  C   LIG    1       23.850 -20.980   3.340  0.00  0.00    +0.004 C 
ENDBRANCH   1   2
BRANCH   1   8
ATOM      8  C   LIG    1       24.843 -20.815   6.476  0.00  0.00    -0.008 C 
ATOM      9  C   LIG    1       24.763 -20.788   8.019  0.00  0.00    +0.004 C 
ATOM     10  C   LIG    1       26.004 -21.223   8.795  0.00  0.00    +0.000 C 
ATOM     11  C   LIG    1       27.303 -20.652   8.246  0.00  0.00    +0.000 C 
ATOM     12  C   LIG    1       27.430 -20.849   6.745  0.00  0.00    +0.000 C 
ATOM     13  C   LIG    1       26.219 -20.320   5.979  0.00  0.00    +0.004 C 
ENDBRANCH   1   8
BRANCH   1  14
ATOM     14  C   LIG    1       25.426 -23.035   5.256  0.00  0.00    +0.022 C 
BRANCH  14  15
ATOM     15  C   LIG    1       25.382 -24.569   5.482  0.00  0.00    +0.054 C 
ATOM     16  N   LIG    1       24.043 -25.129   5.250  0.00  0.00    -0.313 NA
ATOM     17  H   LIG    1       23.407 -24.783   5.957  0.00  0.00    +0.122 HD
ATOM     18  C   LIG    1       24.079 -26.598   5.304  0.00  0.00    +0.081 C 
ATOM     19  C   LIG    1       24.603 -27.115   6.641  0.00  0.00    +0.015 C 
ATOM     20  C   LIG    1       25.951 -26.501   6.991  0.00  0.00    +0.003 C 
ATOM     21  C   LIG    1       25.886 -24.971   6.882  0.00  0.00    +0.019 C 
ENDBRANCH  14  15
ENDBRANCH   1  14
TORSDOF 4
ENDMDL
