MODEL 1
REMARK VINA RESULT:      -9.7      0.000      0.000
REMARK  Name = *****
REMARK                            x       y       z     vdW  Elec       q    Type
REMARK                         _______ _______ _______ _____ _____    ______ ____
ROOT
ATOM      1  C   LIG    1       24.588 -22.931   4.577  0.00  0.00    +0.105 C 
ATOM      2  N   LIG    1       24.831 -22.073   5.794  0.00  0.00    -0.302 NA
ATOM      3  C   LIG    1       24.949 -20.701   5.155  0.00  0.00    +0.065 C 
ATOM      4  C   LIG    1       26.212 -19.773   5.055  0.00  0.00    +0.054 C 
ATOM      5  C   LIG    1       27.421 -20.027   5.927  0.00  0.00    -0.042 A 
ATOM      6  C   LIG    1       27.286 -20.838   7.038  0.00  0.00    -0.034 A 
ATOM      7  C   LIG    1       25.949 -21.418   7.297  0.00  0.00    +0.002 C 
ATOM      8  C   LIG    1       26.174 -23.293   7.111  0.00  0.00    +0.012 C 
ATOM      9  C   LIG    1       24.736 -24.317   6.989  0.00  0.00    +0.001 C 
ATOM     10  C   LIG    1       23.095 -23.633   6.643  0.00  0.00    +0.000 C 
ATOM     11  C   LIG    1       22.775 -21.832   6.259  0.00  0.00    +0.006 C 
ATOM     12  C   LIG    1       25.374 -21.297   8.588  0.00  0.00    +0.027 C 
ATOM     13  C   LIG    1       28.405 -21.240   7.781  0.00  0.00    +0.049 A 
ATOM     14  C   LIG    1       29.657 -20.740   7.477  0.00  0.00    +0.117 A 
ATOM     15  C   LIG    1       29.804 -19.829   6.441  0.00  0.00    +0.045 A 
ATOM     16  C   LIG    1       28.687 -19.477   5.664  0.00  0.00    +0.007 A 
ATOM     17  C   LIG    1       24.340 -20.644   6.420  0.00  0.00    +0.017 C 
ATOM     18  C   LIG    1       24.400 -22.088   7.726  0.00  0.00    +0.085 C 
ENDROOT
BRANCH  14  19
ATOM     19  O   LIG    1       30.708 -21.177   8.227  0.00  0.00    -0.507 OA
ATOM     20  H   LIG    1       31.412 -20.511   8.198  0.00  0.00    +0.292 HD
ENDBRANCH  14  19
TORSDOF 1
ENDMDL
MODEL 2
REMARK VINA RESULT:      -7.0      2.979      5.116
REMARK  Name = *****
REMARK                            x       y       z     vdW  Elec       q    Type
REMARK                         _______ _______ _______ _____ _____    ______ ____
ROOT
ATOM      1  C   LIG    1       25.786 -20.750   5.654  0.00  0.00    +0.105 C 
ATOM      2  N   LIG    1       24.785 -21.702   6.260  0.00  0.00    -0.302 NA
ATOM      3  C   LIG    1       25.526 -22.134   7.512  0.00  0.00    +0.065 C 
ATOM      4  C   LIG    1       26.108 -23.549   7.867  0.00  0.00    +0.054 C 
ATOM      5  C   LIG    1       25.670 -24.774   7.096  0.00  0.00    -0.042 A 
ATOM      6  C   LIG    1       24.520 -24.707   6.331  0.00  0.00    -0.034 A 
ATOM      7  C   LIG    1       23.790 -23.419   6.312  0.00  0.00    +0.002 C 
ATOM      8  C   LIG    1       23.903 -22.807   4.520  0.00  0.00    +0.012 C 
ATOM      9  C   LIG    1       23.465 -21.130   4.162  0.00  0.00    +0.001 C 
ATOM     10  C   LIG    1       23.297 -19.882   5.463  0.00  0.00    +0.000 C 
ATOM     11  C   LIG    1       23.683 -20.193   7.265  0.00  0.00    +0.006 C 
ATOM     12  C   LIG    1       22.394 -23.405   6.563  0.00  0.00    +0.027 C 
ATOM     13  C   LIG    1       24.164 -25.752   5.467  0.00  0.00    +0.049 A 
ATOM     14  C   LIG    1       24.902 -26.921   5.449  0.00  0.00    +0.117 A 
ATOM     15  C   LIG    1       25.991 -27.062   6.296  0.00  0.00    +0.045 A 
ATOM     16  C   LIG    1       26.378 -25.987   7.115  0.00  0.00    +0.007 A 
ATOM     17  C   LIG    1       24.138 -22.056   7.720  0.00  0.00    +0.017 C 
ATOM     18  C   LIG    1       22.824 -21.971   6.284  0.00  0.00    +0.085 C 
ENDROOT
BRANCH  14  19
ATOM     19  O   LIG    1       24.513 -27.897   4.580  0.00  0.00    -0.507 OA
ATOM     20  H   LIG    1       23.579 -27.764   4.358  0.00  0.00    +0.292 HD
ENDBRANCH  14  19
TORSDOF 1
ENDMDL
