MODEL 1
REMARK VINA RESULT:      -0.4      0.000      0.000
REMARK  Name = *****
REMARK                            x       y       z     vdW  Elec       q    Type
REMARK                         _______ _______ _______ _____ _____    ______ ____
ROOT
ATOM      1  C   LIG    1       26.626 -17.070   4.127  0.00  0.00    +0.098 C 
ENDROOT
BRANCH   1   2
ATOM      2  C   LIG    1       26.281 -15.715   3.532  0.00  0.00    -0.014 A 
ATOM      3  C   LIG    1       25.007 -15.131   3.683  0.00  0.00    +0.047 A 
ATOM      4 CL   LIG    1       23.693 -15.966   4.432  0.00  0.00    -0.083 Cl
ATOM      5  C   LIG    1       24.766 -13.827   3.247  0.00  0.00    +0.040 A 
ATOM      6  C   LIG    1       25.795 -13.087   2.673  0.00  0.00    +0.042 A 
ATOM      7 CL   LIG    1       25.507 -11.467   2.176  0.00  0.00    -0.084 Cl
ATOM      8  C   LIG    1       27.060 -13.639   2.513  0.00  0.00    +0.020 A 
ATOM      9  C   LIG    1       27.300 -14.946   2.931  0.00  0.00    +0.007 A 
ENDBRANCH   1   2
BRANCH   1  10
ATOM     10  S   LIG    1       26.031 -18.485   3.079  0.00  0.00    -0.146 S 
BRANCH  10  11
ATOM     11  C   LIG    1       25.354 -19.637   4.323  0.00  0.00    +0.104 C 
BRANCH  11  16
ATOM     12 CL   LIG    1       19.350 -20.253   4.064  0.00  0.00    -0.084 Cl
ATOM     13  C   LIG    1       21.056 -20.065   4.188  0.00  0.00    +0.041 A 
ATOM     14  C   LIG    1       21.625 -18.800   4.069  0.00  0.00    +0.020 A 
ATOM     15  C   LIG    1       23.015 -18.653   4.132  0.00  0.00    +0.006 A 
ATOM     16  C   LIG    1       23.847 -19.770   4.326  0.00  0.00    -0.037 A 
ATOM     17  C   LIG    1       23.250 -21.034   4.454  0.00  0.00    +0.006 A 
ATOM     18  C   LIG    1       21.862 -21.182   4.388  0.00  0.00    +0.020 A 
ENDBRANCH  11  16
ENDBRANCH  10  11
ENDBRANCH   1  10
BRANCH   1  19
ATOM     19  C   LIG    1       28.165 -17.210   4.296  0.00  0.00    +0.141 C 
BRANCH  19  20
ATOM     20  N   LIG    1       28.580 -18.209   5.271  0.00  0.00    -0.336 N 
ATOM     21  C   LIG    1       28.192 -19.521   5.276  0.00  0.00    +0.199 A 
ATOM     22  N   LIG    1       28.740 -20.178   6.280  0.00  0.00    -0.244 NA
ATOM     23  C   LIG    1       29.474 -19.248   6.959  0.00  0.00    +0.130 A 
ATOM     24  C   LIG    1       29.382 -18.014   6.358  0.00  0.00    +0.107 A 
ENDBRANCH  19  20
ENDBRANCH   1  19
TORSDOF 6
ENDMDL
MODEL 2
REMARK VINA RESULT:       2.5      1.783      2.448
REMARK  Name = *****
REMARK                            x       y       z     vdW  Elec       q    Type
REMARK                         _______ _______ _______ _____ _____    ______ ____
ROOT
ATOM      1  C   LIG    1       26.232 -16.832   4.017  0.00  0.00    +0.098 C 
ENDROOT
BRANCH   1   2
ATOM      2  C   LIG    1       25.608 -15.447   4.003  0.00  0.00    -0.014 A 
ATOM      3  C   LIG    1       26.326 -14.303   3.599  0.00  0.00    +0.047 A 
ATOM      4 CL   LIG    1       28.012 -14.358   3.222  0.00  0.00    -0.083 Cl
ATOM      5  C   LIG    1       25.686 -13.071   3.462  0.00  0.00    +0.040 A 
ATOM      6  C   LIG    1       24.320 -12.969   3.710  0.00  0.00    +0.042 A 
ATOM      7 CL   LIG    1       23.523 -11.460   3.500  0.00  0.00    -0.084 Cl
ATOM      8  C   LIG    1       23.588 -14.081   4.110  0.00  0.00    +0.020 A 
ATOM      9  C   LIG    1       24.228 -15.308   4.264  0.00  0.00    +0.007 A 
ENDBRANCH   1   2
BRANCH   1  10
ATOM     10  S   LIG    1       25.853 -17.805   2.481  0.00  0.00    -0.146 S 
BRANCH  10  11
ATOM     11  C   LIG    1       26.194 -19.519   3.009  0.00  0.00    +0.104 C 
BRANCH  11  16
ATOM     12 CL   LIG    1       22.193 -21.544   7.056  0.00  0.00    -0.084 Cl
ATOM     13  C   LIG    1       23.347 -21.016   5.895  0.00  0.00    +0.041 A 
ATOM     14  C   LIG    1       24.677 -20.840   6.267  0.00  0.00    +0.020 A 
ATOM     15  C   LIG    1       25.607 -20.375   5.332  0.00  0.00    +0.006 A 
ATOM     16  C   LIG    1       25.216 -20.092   4.012  0.00  0.00    -0.037 A 
ATOM     17  C   LIG    1       23.873 -20.286   3.655  0.00  0.00    +0.006 A 
ATOM     18  C   LIG    1       22.942 -20.748   4.591  0.00  0.00    +0.020 A 
ENDBRANCH  11  16
ENDBRANCH  10  11
ENDBRANCH   1  10
BRANCH   1  19
ATOM     19  C   LIG    1       27.778 -16.725   4.151  0.00  0.00    +0.141 C 
BRANCH  19  20
ATOM     20  N   LIG    1       28.383 -17.730   5.015  0.00  0.00    -0.336 N 
ATOM     21  C   LIG    1       29.019 -17.478   6.199  0.00  0.00    +0.199 A 
ATOM     22  N   LIG    1       29.454 -18.592   6.754  0.00  0.00    -0.244 NA
ATOM     23  C   LIG    1       29.117 -19.585   5.880  0.00  0.00    +0.130 A 
ATOM     24  C   LIG    1       28.460 -19.073   4.786  0.00  0.00    +0.107 A 
ENDBRANCH  19  20
ENDBRANCH   1  19
TORSDOF 6
ENDMDL
