MODEL 1
REMARK VINA RESULT:      -4.9      0.000      0.000
REMARK  Name = *****
REMARK                            x       y       z     vdW  Elec       q    Type
REMARK                         _______ _______ _______ _____ _____    ______ ____
ROOT
ATOM      1  C   LIG    1       23.320 -20.847   4.945  0.00  0.00    +0.025 A 
ATOM      2  C   LIG    1       24.577 -20.900   5.554  0.00  0.00    +0.041 A 
ATOM      3  C   LIG    1       25.635 -20.086   5.115  0.00  0.00    +0.102 A 
ATOM      4  C   LIG    1       25.399 -19.175   4.078  0.00  0.00    +0.131 A 
ATOM      5  C   LIG    1       24.134 -19.070   3.502  0.00  0.00    +0.048 A 
ATOM      6  C   LIG    1       23.097 -19.891   3.952  0.00  0.00    +0.026 A 
ENDROOT
BRANCH   1   7
ATOM      7  N   LIG    1       22.248 -21.570   5.477  0.00  0.00    -0.358 N 
ATOM      8  H   LIG    1       22.516 -22.450   5.910  0.00  0.00    +0.142 HD
ATOM      9  H   LIG    1       21.461 -21.680   4.845  0.00  0.00    +0.142 HD
ENDBRANCH   1   7
BRANCH   3  10
ATOM     10  C   LIG    1       26.949 -20.251   5.805  0.00  0.00    +0.340 C 
ATOM     11  O   LIG    1       27.039 -20.451   7.007  0.00  0.00    -0.245 OA
BRANCH  10  12
ATOM     12  O   LIG    1       28.033 -20.168   5.008  0.00  0.00    -0.477 OA
ATOM     13  H   LIG    1       28.178 -20.990   4.489  0.00  0.00    +0.295 HD
ENDBRANCH  10  12
ENDBRANCH   3  10
BRANCH   4  14
ATOM     14  O   LIG    1       26.409 -18.363   3.630  0.00  0.00    -0.506 OA
ATOM     15  H   LIG    1       26.410 -17.545   4.165  0.00  0.00    +0.292 HD
ENDBRANCH   4  14
TORSDOF 4
ENDMDL
MODEL 2
REMARK VINA RESULT:      -4.7      1.155      2.701
REMARK  Name = *****
REMARK                            x       y       z     vdW  Elec       q    Type
REMARK                         _______ _______ _______ _____ _____    ______ ____
ROOT
ATOM      1  C   LIG    1       22.486 -21.031   5.183  0.00  0.00    +0.025 A 
ATOM      2  C   LIG    1       23.542 -20.424   4.498  0.00  0.00    +0.041 A 
ATOM      3  C   LIG    1       24.802 -20.258   5.098  0.00  0.00    +0.102 A 
ATOM      4  C   LIG    1       25.003 -20.757   6.390  0.00  0.00    +0.131 A 
ATOM      5  C   LIG    1       23.976 -21.419   7.062  0.00  0.00    +0.048 A 
ATOM      6  C   LIG    1       22.731 -21.570   6.447  0.00  0.00    +0.026 A 
ENDROOT
BRANCH   1   7
ATOM      7  N   LIG    1       21.282 -21.301   4.525  0.00  0.00    -0.358 N 
ATOM      8  H   LIG    1       21.387 -21.860   3.683  0.00  0.00    +0.142 HD
ATOM      9  H   LIG    1       20.695 -20.487   4.372  0.00  0.00    +0.142 HD
ENDBRANCH   1   7
BRANCH   3  10
ATOM     10  C   LIG    1       25.849 -19.558   4.296  0.00  0.00    +0.340 C 
ATOM     11  O   LIG    1       25.590 -18.627   3.548  0.00  0.00    -0.245 OA
BRANCH  10  12
ATOM     12  O   LIG    1       27.105 -20.022   4.457  0.00  0.00    -0.477 OA
ATOM     13  H   LIG    1       27.147 -20.770   5.093  0.00  0.00    +0.295 HD
ENDBRANCH  10  12
ENDBRANCH   3  10
BRANCH   4  14
ATOM     14  O   LIG    1       26.222 -20.617   7.003  0.00  0.00    -0.506 OA
ATOM     15  H   LIG    1       26.875 -20.335   6.333  0.00  0.00    +0.292 HD
ENDBRANCH   4  14
TORSDOF 4
ENDMDL
MODEL 3
REMARK VINA RESULT:      -4.6      6.574      8.005
REMARK  Name = *****
REMARK                            x       y       z     vdW  Elec       q    Type
REMARK                         _______ _______ _______ _____ _____    ______ ____
ROOT
ATOM      1  C   LIG    1       27.450 -13.651   3.235  0.00  0.00    +0.025 A 
ATOM      2  C   LIG    1       26.428 -12.699   3.188  0.00  0.00    +0.041 A 
ATOM      3  C   LIG    1       25.085 -13.059   3.390  0.00  0.00    +0.102 A 
ATOM      4  C   LIG    1       24.783 -14.394   3.691  0.00  0.00    +0.131 A 
ATOM      5  C   LIG    1       25.800 -15.342   3.801  0.00  0.00    +0.048 A 
ATOM      6  C   LIG    1       27.128 -14.962   3.593  0.00  0.00    +0.026 A 
ENDROOT
BRANCH   1   7
ATOM      7  N   LIG    1       28.788 -13.253   3.159  0.00  0.00    -0.358 N 
ATOM      8  H   LIG    1       29.025 -12.759   2.303  0.00  0.00    +0.142 HD
ATOM      9  H   LIG    1       29.457 -13.985   3.374  0.00  0.00    +0.142 HD
ENDBRANCH   1   7
BRANCH   3  10
ATOM     10  C   LIG    1       24.066 -11.974   3.276  0.00  0.00    +0.340 C 
ATOM     11  O   LIG    1       23.514 -11.486   4.250  0.00  0.00    -0.245 OA
BRANCH  10  12
ATOM     12  O   LIG    1       23.799 -11.564   2.019  0.00  0.00    -0.477 OA
ATOM     13  H   LIG    1       24.565 -11.111   1.604  0.00  0.00    +0.295 HD
ENDBRANCH  10  12
ENDBRANCH   3  10
BRANCH   4  14
ATOM     14  O   LIG    1       23.483 -14.778   3.899  0.00  0.00    -0.506 OA
ATOM     15  H   LIG    1       23.468 -15.448   4.609  0.00  0.00    +0.292 HD
ENDBRANCH   4  14
TORSDOF 4
ENDMDL
MODEL 4
REMARK VINA RESULT:      -4.5      2.783      4.196
REMARK  Name = *****
REMARK                            x       y       z     vdW  Elec       q    Type
REMARK                         _______ _______ _______ _____ _____    ______ ____
ROOT
ATOM      1  C   LIG    1       27.687 -20.398   6.217  0.00  0.00    +0.025 A 
ATOM      2  C   LIG    1       26.995 -19.769   5.179  0.00  0.00    +0.041 A 
ATOM      3  C   LIG    1       25.649 -20.068   4.912  0.00  0.00    +0.102 A 
ATOM      4  C   LIG    1       24.985 -20.982   5.740  0.00  0.00    +0.131 A 
ATOM      5  C   LIG    1       25.646 -21.571   6.817  0.00  0.00    +0.048 A 
ATOM      6  C   LIG    1       26.986 -21.261   7.062  0.00  0.00    +0.026 A 
ENDROOT
BRANCH   1   7
ATOM      7  N   LIG    1       28.984 -19.994   6.546  0.00  0.00    -0.358 N 
ATOM      8  H   LIG    1       29.030 -19.102   7.034  0.00  0.00    +0.142 HD
ATOM      9  H   LIG    1       29.647 -20.042   5.779  0.00  0.00    +0.142 HD
ENDBRANCH   1   7
BRANCH   3  10
ATOM     10  C   LIG    1       25.015 -19.373   3.753  0.00  0.00    +0.340 C 
ATOM     11  O   LIG    1       23.924 -19.697   3.308  0.00  0.00    -0.245 OA
BRANCH  10  12
ATOM     12  O   LIG    1       25.729 -18.355   3.230  0.00  0.00    -0.477 OA
ATOM     13  H   LIG    1       25.698 -18.344   2.248  0.00  0.00    +0.295 HD
ENDBRANCH  10  12
ENDBRANCH   3  10
BRANCH   4  14
ATOM     14  O   LIG    1       23.669 -21.293   5.511  0.00  0.00    -0.506 OA
ATOM     15  H   LIG    1       23.407 -20.914   4.649  0.00  0.00    +0.292 HD
ENDBRANCH   4  14
TORSDOF 4
ENDMDL
MODEL 5
REMARK VINA RESULT:      -4.5      6.867      7.294
REMARK  Name = *****
REMARK                            x       y       z     vdW  Elec       q    Type
REMARK                         _______ _______ _______ _____ _____    ______ ____
ROOT
ATOM      1  C   LIG    1       24.113 -12.204   4.373  0.00  0.00    +0.025 A 
ATOM      2  C   LIG    1       25.342 -12.661   4.857  0.00  0.00    +0.041 A 
ATOM      3  C   LIG    1       26.261 -13.313   4.017  0.00  0.00    +0.102 A 
ATOM      4  C   LIG    1       25.946 -13.460   2.660  0.00  0.00    +0.131 A 
ATOM      5  C   LIG    1       24.749 -12.956   2.152  0.00  0.00    +0.048 A 
ATOM      6  C   LIG    1       23.850 -12.313   3.006  0.00  0.00    +0.026 A 
ENDROOT
BRANCH   1   7
ATOM      7  N   LIG    1       23.271 -11.447   5.192  0.00  0.00    -0.358 N 
ATOM      8  H   LIG    1       23.186 -10.473   4.912  0.00  0.00    +0.142 HD
ATOM      9  H   LIG    1       23.453 -11.543   6.186  0.00  0.00    +0.142 HD
ENDBRANCH   1   7
BRANCH   3  10
ATOM     10  C   LIG    1       27.526 -13.800   4.642  0.00  0.00    +0.340 C 
ATOM     11  O   LIG    1       28.001 -14.898   4.394  0.00  0.00    -0.245 OA
BRANCH  10  12
ATOM     12  O   LIG    1       28.112 -12.941   5.501  0.00  0.00    -0.477 OA
ATOM     13  H   LIG    1       28.158 -12.028   5.141  0.00  0.00    +0.295 HD
ENDBRANCH  10  12
ENDBRANCH   3  10
BRANCH   4  14
ATOM     14  O   LIG    1       26.822 -14.088   1.812  0.00  0.00    -0.506 OA
ATOM     15  H   LIG    1       27.417 -14.652   2.343  0.00  0.00    +0.292 HD
ENDBRANCH   4  14
TORSDOF 4
ENDMDL
MODEL 6
REMARK VINA RESULT:      -4.5      6.092      7.066
REMARK  Name = *****
REMARK                            x       y       z     vdW  Elec       q    Type
REMARK                         _______ _______ _______ _____ _____    ______ ____
ROOT
ATOM      1  C   LIG    1       24.812 -13.059   3.371  0.00  0.00    +0.025 A 
ATOM      2  C   LIG    1       26.123 -12.616   3.570  0.00  0.00    +0.041 A 
ATOM      3  C   LIG    1       27.170 -13.522   3.811  0.00  0.00    +0.102 A 
ATOM      4  C   LIG    1       26.890 -14.894   3.801  0.00  0.00    +0.131 A 
ATOM      5  C   LIG    1       25.598 -15.351   3.544  0.00  0.00    +0.048 A 
ATOM      6  C   LIG    1       24.572 -14.433   3.310  0.00  0.00    +0.026 A 
ENDROOT
BRANCH   1   7
ATOM      7  N   LIG    1       23.811 -12.154   3.007  0.00  0.00    -0.358 N 
ATOM      8  H   LIG    1       23.306 -11.756   3.795  0.00  0.00    +0.142 HD
ATOM      9  H   LIG    1       23.183 -12.490   2.283  0.00  0.00    +0.142 HD
ENDBRANCH   1   7
BRANCH   3  10
ATOM     10  C   LIG    1       28.525 -12.943   4.053  0.00  0.00    +0.340 C 
ATOM     11  O   LIG    1       28.761 -12.194   4.989  0.00  0.00    -0.245 OA
BRANCH  10  12
ATOM     12  O   LIG    1       29.475 -13.308   3.168  0.00  0.00    -0.477 OA
ATOM     13  H   LIG    1       29.144 -13.302   2.243  0.00  0.00    +0.295 HD
ENDBRANCH  10  12
ENDBRANCH   3  10
BRANCH   4  14
ATOM     14  O   LIG    1       27.890 -15.804   4.028  0.00  0.00    -0.506 OA
ATOM     15  H   LIG    1       28.422 -15.498   4.789  0.00  0.00    +0.292 HD
ENDBRANCH   4  14
TORSDOF 4
ENDMDL
MODEL 7
REMARK VINA RESULT:      -4.2      3.206      4.453
REMARK  Name = *****
REMARK                            x       y       z     vdW  Elec       q    Type
REMARK                         _______ _______ _______ _____ _____    ______ ____
ROOT
ATOM      1  C   LIG    1       25.491 -19.127   3.905  0.00  0.00    +0.025 A 
ATOM      2  C   LIG    1       24.106 -19.311   3.880  0.00  0.00    +0.041 A 
ATOM      3  C   LIG    1       23.463 -20.142   4.812  0.00  0.00    +0.102 A 
ATOM      4  C   LIG    1       24.231 -20.756   5.810  0.00  0.00    +0.131 A 
ATOM      5  C   LIG    1       25.605 -20.533   5.883  0.00  0.00    +0.048 A 
ATOM      6  C   LIG    1       26.224 -19.704   4.944  0.00  0.00    +0.026 A 
ENDROOT
BRANCH   1   7
ATOM      7  N   LIG    1       26.094 -18.198   3.052  0.00  0.00    -0.358 N 
ATOM      8  H   LIG    1       26.451 -18.599   2.188  0.00  0.00    +0.142 HD
ATOM      9  H   LIG    1       26.776 -17.595   3.502  0.00  0.00    +0.142 HD
ENDBRANCH   1   7
BRANCH   3  10
ATOM     10  C   LIG    1       21.986 -20.305   4.671  0.00  0.00    +0.340 C 
ATOM     11  O   LIG    1       21.243 -19.368   4.420  0.00  0.00    -0.245 OA
BRANCH  10  12
ATOM     12  O   LIG    1       21.525 -21.562   4.836  0.00  0.00    -0.477 OA
ATOM     13  H   LIG    1       22.146 -22.236   4.480  0.00  0.00    +0.295 HD
ENDBRANCH  10  12
ENDBRANCH   3  10
BRANCH   4  14
ATOM     14  O   LIG    1       23.634 -21.570   6.738  0.00  0.00    -0.506 OA
ATOM     15  H   LIG    1       23.221 -22.322   6.271  0.00  0.00    +0.292 HD
ENDBRANCH   4  14
TORSDOF 4
ENDMDL
MODEL 8
REMARK VINA RESULT:      -4.2      1.748      2.800
REMARK  Name = *****
REMARK                            x       y       z     vdW  Elec       q    Type
REMARK                         _______ _______ _______ _____ _____    ______ ____
ROOT
ATOM      1  C   LIG    1       22.228 -19.202   4.355  0.00  0.00    +0.025 A 
ATOM      2  C   LIG    1       23.491 -18.730   3.987  0.00  0.00    +0.041 A 
ATOM      3  C   LIG    1       24.655 -19.466   4.269  0.00  0.00    +0.102 A 
ATOM      4  C   LIG    1       24.529 -20.715   4.889  0.00  0.00    +0.131 A 
ATOM      5  C   LIG    1       23.270 -21.224   5.207  0.00  0.00    +0.048 A 
ATOM      6  C   LIG    1       22.127 -20.475   4.920  0.00  0.00    +0.026 A 
ENDROOT
BRANCH   1   7
ATOM      7  N   LIG    1       21.077 -18.518   3.953  0.00  0.00    -0.358 N 
ATOM      8  H   LIG    1       20.572 -18.073   4.715  0.00  0.00    +0.142 HD
ATOM      9  H   LIG    1       20.460 -19.053   3.348  0.00  0.00    +0.142 HD
ENDBRANCH   1   7
BRANCH   3  10
ATOM     10  C   LIG    1       25.958 -18.853   3.873  0.00  0.00    +0.340 C 
ATOM     11  O   LIG    1       26.047 -18.012   2.991  0.00  0.00    -0.245 OA
BRANCH  10  12
ATOM     12  O   LIG    1       27.033 -19.290   4.559  0.00  0.00    -0.477 OA
ATOM     13  H   LIG    1       27.878 -18.986   4.160  0.00  0.00    +0.295 HD
ENDBRANCH  10  12
ENDBRANCH   3  10
BRANCH   4  14
ATOM     14  O   LIG    1       25.645 -21.461   5.174  0.00  0.00    -0.506 OA
ATOM     15  H   LIG    1       26.436 -20.919   4.987  0.00  0.00    +0.292 HD
ENDBRANCH   4  14
TORSDOF 4
ENDMDL
MODEL 9
REMARK VINA RESULT:      -4.2      5.532      6.432
REMARK  Name = *****
REMARK                            x       y       z     vdW  Elec       q    Type
REMARK                         _______ _______ _______ _____ _____    ______ ____
ROOT
ATOM      1  C   LIG    1       23.959 -14.521   3.960  0.00  0.00    +0.025 A 
ATOM      2  C   LIG    1       25.321 -14.759   4.165  0.00  0.00    +0.041 A 
ATOM      3  C   LIG    1       26.302 -13.959   3.555  0.00  0.00    +0.102 A 
ATOM      4  C   LIG    1       25.893 -12.877   2.766  0.00  0.00    +0.131 A 
ATOM      5  C   LIG    1       24.538 -12.591   2.602  0.00  0.00    +0.048 A 
ATOM      6  C   LIG    1       23.580 -13.402   3.216  0.00  0.00    +0.026 A 
ENDROOT
BRANCH   1   7
ATOM      7  N   LIG    1       23.001 -15.245   4.675  0.00  0.00    -0.358 N 
ATOM      8  H   LIG    1       23.329 -16.149   5.008  0.00  0.00    +0.142 HD
ATOM      9  H   LIG    1       22.097 -15.313   4.218  0.00  0.00    +0.142 HD
ENDBRANCH   1   7
BRANCH   3  10
ATOM     10  C   LIG    1       27.728 -14.324   3.805  0.00  0.00    +0.340 C 
ATOM     11  O   LIG    1       28.633 -13.505   3.762  0.00  0.00    -0.245 OA
BRANCH  10  12
ATOM     12  O   LIG    1       27.949 -15.625   4.087  0.00  0.00    -0.477 OA
ATOM     13  H   LIG    1       27.116 -16.145   4.123  0.00  0.00    +0.295 HD
ENDBRANCH  10  12
ENDBRANCH   3  10
BRANCH   4  14
ATOM     14  O   LIG    1       26.825 -12.073   2.160  0.00  0.00    -0.506 OA
ATOM     15  H   LIG    1       26.469 -11.165   2.115  0.00  0.00    +0.292 HD
ENDBRANCH   4  14
TORSDOF 4
ENDMDL
