MODEL 1
REMARK VINA RESULT:      -4.4      0.000      0.000
REMARK  Name = *****
REMARK                            x       y       z     vdW  Elec       q    Type
REMARK                         _______ _______ _______ _____ _____    ______ ____
ROOT
ATOM      1  C   LIG    1       21.650 -21.561   5.188  0.00  0.00    +0.044 C 
ATOM      2  C   LIG    1       22.932 -20.828   4.928  0.00  0.00    -0.050 C 
ATOM      3  C   LIG    1       24.079 -21.172   5.661  0.00  0.00    +0.013 C 
ATOM      4  C   LIG    1       25.294 -20.497   5.433  0.00  0.00    +0.004 C 
ATOM      5  C   LIG    1       26.598 -20.605   5.993  0.00  0.00    -0.017 C 
ATOM      6  C   LIG    1       27.150 -21.482   7.062  0.00  0.00    +0.037 C 
ATOM      7  C   LIG    1       28.696 -21.470   7.033  0.00  0.00    +0.007 C 
ATOM      8  C   LIG    1       29.276 -20.043   6.869  0.00  0.00    +0.025 C 
ATOM      9  C   LIG    1       28.811 -19.374   5.549  0.00  0.00    +0.101 C 
ATOM     10  N   LIG    1       29.044 -17.924   5.560  0.00  0.00    -0.306 NA
ATOM     11  H   LIG    1       28.808 -17.579   6.491  0.00  0.00    +0.123 HD
ATOM     12  C   LIG    1       28.236 -17.163   4.577  0.00  0.00    +0.103 C 
ATOM     13  C   LIG    1       27.217 -17.920   3.698  0.00  0.00    +0.137 C 
ATOM     14  N   LIG    1       26.613 -18.993   4.460  0.00  0.00    -0.341 NA
ATOM     15  C   LIG    1       27.373 -19.666   5.363  0.00  0.00    +0.040 C 
ATOM     16  C   LIG    1       25.331 -19.477   4.466  0.00  0.00    +0.050 C 
ATOM     17  C   LIG    1       24.196 -19.120   3.723  0.00  0.00    +0.026 C 
ATOM     18  C   LIG    1       23.003 -19.812   3.971  0.00  0.00    +0.005 C 
ENDROOT
TORSDOF 0
ENDMDL
MODEL 2
REMARK VINA RESULT:      -3.6      3.085      5.770
REMARK  Name = *****
REMARK                            x       y       z     vdW  Elec       q    Type
REMARK                         _______ _______ _______ _____ _____    ______ ____
ROOT
ATOM      1  C   LIG    1       24.017 -12.139   3.856  0.00  0.00    +0.044 C 
ATOM      2  C   LIG    1       24.458 -13.571   3.774  0.00  0.00    -0.050 C 
ATOM      3  C   LIG    1       23.528 -14.590   4.030  0.00  0.00    +0.013 C 
ATOM      4  C   LIG    1       23.920 -15.940   3.957  0.00  0.00    +0.004 C 
ATOM      5  C   LIG    1       23.237 -17.174   4.155  0.00  0.00    -0.017 C 
ATOM      6  C   LIG    1       21.832 -17.480   4.538  0.00  0.00    +0.037 C 
ATOM      7  C   LIG    1       21.498 -18.963   4.251  0.00  0.00    +0.007 C 
ATOM      8  C   LIG    1       22.621 -19.924   4.714  0.00  0.00    +0.025 C 
ATOM      9  C   LIG    1       23.967 -19.635   3.998  0.00  0.00    +0.101 C 
ATOM     10  N   LIG    1       25.097 -20.275   4.682  0.00  0.00    -0.306 NA
ATOM     11  H   LIG    1       24.950 -20.175   5.687  0.00  0.00    +0.123 HD
ATOM     12  C   LIG    1       26.423 -19.693   4.359  0.00  0.00    +0.103 C 
ATOM     13  C   LIG    1       26.496 -18.474   3.414  0.00  0.00    +0.137 C 
ATOM     14  N   LIG    1       25.357 -17.609   3.639  0.00  0.00    -0.341 NA
ATOM     15  C   LIG    1       24.157 -18.168   3.945  0.00  0.00    +0.040 C 
ATOM     16  C   LIG    1       25.254 -16.242   3.629  0.00  0.00    +0.050 C 
ATOM     17  C   LIG    1       26.197 -15.238   3.368  0.00  0.00    +0.026 C 
ATOM     18  C   LIG    1       25.776 -13.904   3.446  0.00  0.00    +0.005 C 
ENDROOT
TORSDOF 0
ENDMDL
MODEL 3
REMARK VINA RESULT:      -3.1      1.773      4.887
REMARK  Name = *****
REMARK                            x       y       z     vdW  Elec       q    Type
REMARK                         _______ _______ _______ _____ _____    ______ ____
ROOT
ATOM      1  C   LIG    1       26.062 -14.048   2.544  0.00  0.00    +0.044 C 
ATOM      2  C   LIG    1       26.440 -15.353   3.180  0.00  0.00    -0.050 C 
ATOM      3  C   LIG    1       25.535 -16.425   3.133  0.00  0.00    +0.013 C 
ATOM      4  C   LIG    1       25.870 -17.660   3.723  0.00  0.00    +0.004 C 
ATOM      5  C   LIG    1       25.193 -18.907   3.844  0.00  0.00    -0.017 C 
ATOM      6  C   LIG    1       23.846 -19.352   3.395  0.00  0.00    +0.037 C 
ATOM      7  C   LIG    1       23.739 -20.895   3.436  0.00  0.00    +0.007 C 
ATOM      8  C   LIG    1       24.325 -21.495   4.739  0.00  0.00    +0.025 C 
ATOM      9  C   LIG    1       25.830 -21.158   4.911  0.00  0.00    +0.101 C 
ATOM     10  N   LIG    1       26.289 -21.397   6.284  0.00  0.00    -0.306 NA
ATOM     11  H   LIG    1       25.555 -21.078   6.918  0.00  0.00    +0.123 HD
ATOM     12  C   LIG    1       27.539 -20.688   6.648  0.00  0.00    +0.103 C 
ATOM     13  C   LIG    1       28.196 -19.749   5.613  0.00  0.00    +0.137 C 
ATOM     14  N   LIG    1       27.173 -19.072   4.844  0.00  0.00    -0.341 NA
ATOM     15  C   LIG    1       26.032 -19.741   4.535  0.00  0.00    +0.040 C 
ATOM     16  C   LIG    1       27.118 -17.792   4.358  0.00  0.00    +0.050 C 
ATOM     17  C   LIG    1       28.035 -16.733   4.413  0.00  0.00    +0.026 C 
ATOM     18  C   LIG    1       27.674 -15.518   3.815  0.00  0.00    +0.005 C 
ENDROOT
TORSDOF 0
ENDMDL
MODEL 4
REMARK VINA RESULT:      -1.8      3.241      6.039
REMARK  Name = *****
REMARK                            x       y       z     vdW  Elec       q    Type
REMARK                         _______ _______ _______ _____ _____    ______ ____
ROOT
ATOM      1  C   LIG    1       27.255 -13.012   2.981  0.00  0.00    +0.044 C 
ATOM      2  C   LIG    1       26.132 -13.937   3.350  0.00  0.00    -0.050 C 
ATOM      3  C   LIG    1       26.337 -15.324   3.283  0.00  0.00    +0.013 C 
ATOM      4  C   LIG    1       25.298 -16.210   3.625  0.00  0.00    +0.004 C 
ATOM      5  C   LIG    1       25.188 -17.629   3.661  0.00  0.00    -0.017 C 
ATOM      6  C   LIG    1       26.155 -18.708   3.321  0.00  0.00    +0.037 C 
ATOM      7  C   LIG    1       25.678 -20.066   3.887  0.00  0.00    +0.007 C 
ATOM      8  C   LIG    1       24.169 -20.315   3.640  0.00  0.00    +0.025 C 
ATOM      9  C   LIG    1       23.283 -19.231   4.307  0.00  0.00    +0.101 C 
ATOM     10  N   LIG    1       21.912 -19.246   3.781  0.00  0.00    -0.306 NA
ATOM     11  H   LIG    1       21.968 -19.400   2.773  0.00  0.00    +0.123 HD
ATOM     12  C   LIG    1       21.152 -17.993   4.006  0.00  0.00    +0.103 C 
ATOM     13  C   LIG    1       21.855 -16.804   4.695  0.00  0.00    +0.137 C 
ATOM     14  N   LIG    1       23.243 -16.749   4.286  0.00  0.00    -0.341 NA
ATOM     15  C   LIG    1       23.912 -17.912   4.075  0.00  0.00    +0.040 C 
ATOM     16  C   LIG    1       24.059 -15.679   4.027  0.00  0.00    +0.050 C 
ATOM     17  C   LIG    1       23.837 -14.296   4.103  0.00  0.00    +0.026 C 
ATOM     18  C   LIG    1       24.891 -13.440   3.758  0.00  0.00    +0.005 C 
ENDROOT
TORSDOF 0
ENDMDL
MODEL 5
REMARK VINA RESULT:      -1.5      3.946      5.670
REMARK  Name = *****
REMARK                            x       y       z     vdW  Elec       q    Type
REMARK                         _______ _______ _______ _____ _____    ______ ____
ROOT
ATOM      1  C   LIG    1       21.925 -19.599   4.335  0.00  0.00    +0.044 C 
ATOM      2  C   LIG    1       23.034 -18.615   4.112  0.00  0.00    -0.050 C 
ATOM      3  C   LIG    1       22.789 -17.248   4.323  0.00  0.00    +0.013 C 
ATOM      4  C   LIG    1       23.817 -16.307   4.121  0.00  0.00    +0.004 C 
ATOM      5  C   LIG    1       23.890 -14.890   4.244  0.00  0.00    -0.017 C 
ATOM      6  C   LIG    1       22.870 -13.873   4.622  0.00  0.00    +0.037 C 
ATOM      7  C   LIG    1       23.546 -12.526   4.970  0.00  0.00    +0.007 C 
ATOM      8  C   LIG    1       24.646 -12.134   3.952  0.00  0.00    +0.025 C 
ATOM      9  C   LIG    1       25.783 -13.187   3.889  0.00  0.00    +0.101 C 
ATOM     10  N   LIG    1       26.618 -13.017   2.693  0.00  0.00    -0.306 NA
ATOM     11  H   LIG    1       26.000 -12.794   1.912  0.00  0.00    +0.123 HD
ATOM     12  C   LIG    1       27.406 -14.216   2.317  0.00  0.00    +0.103 C 
ATOM     13  C   LIG    1       27.247 -15.508   3.146  0.00  0.00    +0.137 C 
ATOM     14  N   LIG    1       25.872 -15.648   3.578  0.00  0.00    -0.341 NA
ATOM     15  C   LIG    1       25.169 -14.533   3.905  0.00  0.00    +0.040 C 
ATOM     16  C   LIG    1       25.081 -16.761   3.704  0.00  0.00    +0.050 C 
ATOM     17  C   LIG    1       25.344 -18.122   3.491  0.00  0.00    +0.026 C 
ATOM     18  C   LIG    1       24.303 -19.034   3.702  0.00  0.00    +0.005 C 
ENDROOT
TORSDOF 0
ENDMDL
