MODEL 1
REMARK VINA RESULT:      10.0      0.000      0.000
REMARK  Name = *****
REMARK                            x       y       z     vdW  Elec       q    Type
REMARK                         _______ _______ _______ _____ _____    ______ ____
ROOT
ATOM      1  C   LIG    1       23.760 -13.220   4.537  0.00  0.00    +0.159 C 
ENDROOT
BRANCH   1   2
ATOM      2  C   LIG    1       23.475 -14.653   4.809  0.00  0.00    -0.028 A 
ATOM      3  C   LIG    1       24.126 -15.589   4.088  0.00  0.00    +0.006 A 
ATOM      4  C   LIG    1       23.855 -16.910   3.892  0.00  0.00    +0.009 A 
ATOM      5  C   LIG    1       22.888 -17.463   4.661  0.00  0.00    -0.017 A 
ATOM      6  C   LIG    1       22.200 -16.515   5.490  0.00  0.00    +0.009 A 
ATOM      7  C   LIG    1       22.499 -15.149   5.599  0.00  0.00    +0.006 A 
BRANCH   5   8
ATOM      8  C   LIG    1       22.549 -18.907   4.605  0.00  0.00    -0.007 A 
ATOM      9  C   LIG    1       23.381 -20.041   4.884  0.00  0.00    +0.028 A 
ATOM     10  C   LIG    1       22.803 -21.325   4.692  0.00  0.00    +0.012 A 
ATOM     11  C   LIG    1       21.482 -21.517   4.280  0.00  0.00    +0.001 A 
ATOM     12  C   LIG    1       20.681 -20.432   4.036  0.00  0.00    +0.001 A 
ATOM     13  C   LIG    1       21.213 -19.170   4.200  0.00  0.00    +0.009 A 
BRANCH   9  14
ATOM     14  C   LIG    1       24.803 -20.105   5.331  0.00  0.00    +0.180 A 
ATOM     15  N   LIG    1       25.333 -20.657   6.474  0.00  0.00    -0.239 N 
ATOM     16  H   LIG    1       24.875 -21.027   7.295  0.00  0.00    +0.192 HD
ATOM     17  N   LIG    1       26.664 -20.498   6.520  0.00  0.00    -0.046 NA
ATOM     18  N   LIG    1       26.980 -19.956   5.359  0.00  0.00    -0.023 NA
ATOM     19  N   LIG    1       25.852 -19.713   4.614  0.00  0.00    -0.108 NA
ENDBRANCH   9  14
ENDBRANCH   5   8
ENDBRANCH   1   2
BRANCH   1  21
ATOM     20  C   LIG    1       25.526 -12.377   2.855  0.00  0.00    +0.111 A 
ATOM     21  N   LIG    1       25.111 -12.900   4.080  0.00  0.00    -0.318 N 
ATOM     22  C   LIG    1       26.245 -13.089   4.872  0.00  0.00    +0.153 A 
ATOM     23  C   LIG    1       27.263 -13.206   3.919  0.00  0.00    +0.104 A 
ATOM     24  N   LIG    1       26.805 -12.690   2.704  0.00  0.00    -0.234 NA
BRANCH  23  25
ATOM     25  C   LIG    1       28.698 -13.752   3.979  0.00  0.00    +0.104 C 
ATOM     26  C   LIG    1       29.474 -13.571   2.673  0.00  0.00    +0.048 C 
ATOM     27  C   LIG    1       28.775 -15.210   4.438  0.00  0.00    +0.048 C 
BRANCH  25  28
ATOM     28  O   LIG    1       29.461 -13.001   4.954  0.00  0.00    -0.383 OA
ATOM     29  H   LIG    1       29.817 -13.672   5.566  0.00  0.00    +0.211 HD
ENDBRANCH  25  28
ENDBRANCH  23  25
BRANCH  22  30
ATOM     30  C   LIG    1       26.323 -13.240   6.333  0.00  0.00    +0.355 C 
ATOM     31  O   LIG    1       27.193 -13.716   6.965  0.00  0.00    -0.243 OA
BRANCH  30  32
ATOM     32  O   LIG    1       25.263 -12.668   6.992  0.00  0.00    -0.476 OA
ATOM     33  H   LIG    1       24.503 -12.457   6.441  0.00  0.00    +0.295 HD
ENDBRANCH  30  32
ENDBRANCH  22  30
BRANCH  20  34
ATOM     34  C   LIG    1       24.762 -11.516   1.817  0.00  0.00    +0.074 C 
BRANCH  34  36
ATOM     35  C   LIG    1       22.388 -11.507   3.081  0.00  0.00    +0.004 C 
ATOM     36  C   LIG    1       23.251 -11.449   1.873  0.00  0.00    +0.004 C 
ENDBRANCH  34  36
ENDBRANCH  20  34
ENDBRANCH   1  21
TORSDOF 10
ENDMDL
