MODEL 1
REMARK VINA RESULT:      -5.5      0.000      0.000
REMARK  Name = *****
REMARK                            x       y       z     vdW  Elec       q    Type
REMARK                         _______ _______ _______ _____ _____    ______ ____
ROOT
ATOM      1  C   LIG    1       23.608 -19.417   4.073  0.00  0.00    -0.047 A 
ATOM      2  C   LIG    1       24.604 -18.510   3.687  0.00  0.00    +0.007 A 
ATOM      3  C   LIG    1       24.373 -17.123   3.756  0.00  0.00    +0.046 A 
ATOM      4  C   LIG    1       23.144 -16.623   4.206  0.00  0.00    +0.121 A 
ATOM      5  C   LIG    1       22.165 -17.534   4.600  0.00  0.00    +0.046 A 
ATOM      6  C   LIG    1       22.397 -18.911   4.549  0.00  0.00    +0.007 A 
ENDROOT
BRANCH   1   7
ATOM      7  C   LIG    1       23.768 -20.908   3.883  0.00  0.00    +0.046 C 
BRANCH   7   8
ATOM      8  C   LIG    1       24.719 -21.473   4.942  0.00  0.00    +0.125 C 
BRANCH   8   9
ATOM      9  C   LIG    1       24.251 -21.200   6.360  0.00  0.00    +0.307 C 
ATOM     10  O   LIG    1       23.218 -21.572   6.879  0.00  0.00    -0.251 OA
BRANCH   9  12
ATOM     11  C   LIG    1       26.539 -20.565   6.298  0.00  0.00    +0.280 C 
ATOM     12  O   LIG    1       25.278 -20.496   6.973  0.00  0.00    -0.468 OA
ENDBRANCH   9  12
ENDBRANCH   8   9
ENDBRANCH   7   8
ENDBRANCH   1   7
BRANCH   4  13
ATOM     13  O   LIG    1       23.016 -15.253   4.244  0.00  0.00    -0.489 OA
BRANCH  13  14
ATOM     14  C   LIG    1       24.239 -14.494   4.173  0.00  0.00    +0.261 C 
BRANCH  14  15
ATOM     15  C   LIG    1       24.119 -13.317   3.190  0.00  0.00    +0.166 C 
BRANCH  15  16
ATOM     16  O   LIG    1       23.671 -12.154   3.907  0.00  0.00    -0.387 OA
ATOM     17  H   LIG    1       23.922 -11.384   3.363  0.00  0.00    +0.210 HD
ENDBRANCH  15  16
BRANCH  15  18
ATOM     18  C   LIG    1       25.441 -13.017   2.469  0.00  0.00    +0.115 C 
BRANCH  18  19
ATOM     19  N   LIG    1       26.197 -14.245   2.180  0.00  0.00    -0.311 NA
ATOM     20  H   LIG    1       26.321 -14.323   1.167  0.00  0.00    +0.122 HD
BRANCH  19  21
ATOM     21  C   LIG    1       27.482 -14.306   2.887  0.00  0.00    +0.048 C 
ATOM     22  C   LIG    1       27.524 -15.372   3.985  0.00  0.00    +0.024 C 
ATOM     23  C   LIG    1       27.794 -12.937   3.496  0.00  0.00    +0.024 C 
ENDBRANCH  19  21
ENDBRANCH  18  19
ENDBRANCH  15  18
ENDBRANCH  14  15
ENDBRANCH  13  14
ENDBRANCH   4  13
TORSDOF 11
ENDMDL
MODEL 2
REMARK VINA RESULT:      -5.1      2.205      3.544
REMARK  Name = *****
REMARK                            x       y       z     vdW  Elec       q    Type
REMARK                         _______ _______ _______ _____ _____    ______ ____
ROOT
ATOM      1  C   LIG    1       25.552 -20.317   4.507  0.00  0.00    -0.047 A 
ATOM      2  C   LIG    1       25.134 -19.374   3.559  0.00  0.00    +0.007 A 
ATOM      3  C   LIG    1       25.876 -18.198   3.345  0.00  0.00    +0.046 A 
ATOM      4  C   LIG    1       27.042 -17.943   4.077  0.00  0.00    +0.121 A 
ATOM      5  C   LIG    1       27.457 -18.894   5.009  0.00  0.00    +0.046 A 
ATOM      6  C   LIG    1       26.732 -20.072   5.211  0.00  0.00    +0.007 A 
ENDROOT
BRANCH   1   7
ATOM      7  C   LIG    1       24.710 -21.522   4.862  0.00  0.00    +0.046 C 
BRANCH   7   8
ATOM      8  C   LIG    1       23.672 -21.144   5.922  0.00  0.00    +0.125 C 
BRANCH   8   9
ATOM      9  C   LIG    1       22.388 -20.601   5.322  0.00  0.00    +0.307 C 
ATOM     10  O   LIG    1       21.504 -21.232   4.781  0.00  0.00    -0.251 OA
BRANCH   9  12
ATOM     11  C   LIG    1       21.980 -18.417   4.480  0.00  0.00    +0.280 C 
ATOM     12  O   LIG    1       22.393 -19.237   5.579  0.00  0.00    -0.468 OA
ENDBRANCH   9  12
ENDBRANCH   8   9
ENDBRANCH   7   8
ENDBRANCH   1   7
BRANCH   4  13
ATOM     13  O   LIG    1       27.703 -16.769   3.793  0.00  0.00    -0.489 OA
BRANCH  13  14
ATOM     14  C   LIG    1       26.877 -15.637   3.455  0.00  0.00    +0.261 C 
BRANCH  14  15
ATOM     15  C   LIG    1       27.394 -14.344   4.110  0.00  0.00    +0.166 C 
BRANCH  15  16
ATOM     16  O   LIG    1       28.103 -13.573   3.126  0.00  0.00    -0.387 OA
ATOM     17  H   LIG    1       27.614 -13.681   2.289  0.00  0.00    +0.210 HD
ENDBRANCH  15  16
BRANCH  15  18
ATOM     18  C   LIG    1       26.263 -13.506   4.724  0.00  0.00    +0.115 C 
BRANCH  18  19
ATOM     19  N   LIG    1       24.937 -14.056   4.403  0.00  0.00    -0.311 NA
ATOM     20  H   LIG    1       24.485 -14.351   5.273  0.00  0.00    +0.122 HD
BRANCH  19  21
ATOM     21  C   LIG    1       24.096 -13.120   3.648  0.00  0.00    +0.048 C 
ATOM     22  C   LIG    1       24.677 -12.743   2.282  0.00  0.00    +0.024 C 
ATOM     23  C   LIG    1       23.878 -11.851   4.475  0.00  0.00    +0.024 C 
ENDBRANCH  19  21
ENDBRANCH  18  19
ENDBRANCH  15  18
ENDBRANCH  14  15
ENDBRANCH  13  14
ENDBRANCH   4  13
TORSDOF 11
ENDMDL
MODEL 3
REMARK VINA RESULT:      -5.0      2.260      6.712
REMARK  Name = *****
REMARK                            x       y       z     vdW  Elec       q    Type
REMARK                         _______ _______ _______ _____ _____    ______ ____
ROOT
ATOM      1  C   LIG    1       23.449 -16.596   4.120  0.00  0.00    -0.047 A 
ATOM      2  C   LIG    1       22.328 -17.271   4.621  0.00  0.00    +0.007 A 
ATOM      3  C   LIG    1       22.276 -18.676   4.610  0.00  0.00    +0.046 A 
ATOM      4  C   LIG    1       23.338 -19.429   4.094  0.00  0.00    +0.121 A 
ATOM      5  C   LIG    1       24.455 -18.749   3.610  0.00  0.00    +0.046 A 
ATOM      6  C   LIG    1       24.517 -17.353   3.636  0.00  0.00    +0.007 A 
ENDROOT
BRANCH   1   7
ATOM      7  C   LIG    1       23.484 -15.090   3.988  0.00  0.00    +0.046 C 
BRANCH   7   8
ATOM      8  C   LIG    1       24.933 -14.596   4.000  0.00  0.00    +0.125 C 
BRANCH   8   9
ATOM      9  C   LIG    1       25.195 -13.516   2.966  0.00  0.00    +0.307 C 
ATOM     10  O   LIG    1       24.592 -12.473   2.822  0.00  0.00    -0.251 OA
BRANCH   9  12
ATOM     11  C   LIG    1       27.559 -13.754   2.950  0.00  0.00    +0.280 C 
ATOM     12  O   LIG    1       26.316 -13.928   2.259  0.00  0.00    -0.468 OA
ENDBRANCH   9  12
ENDBRANCH   8   9
ENDBRANCH   7   8
ENDBRANCH   1   7
BRANCH   4  13
ATOM     13  O   LIG    1       23.198 -20.798   4.133  0.00  0.00    -0.489 OA
BRANCH  13  14
ATOM     14  C   LIG    1       24.243 -21.529   4.805  0.00  0.00    +0.261 C 
BRANCH  14  15
ATOM     15  C   LIG    1       24.635 -20.861   6.134  0.00  0.00    +0.166 C 
BRANCH  15  16
ATOM     16  O   LIG    1       23.545 -20.989   7.061  0.00  0.00    -0.387 OA
ATOM     17  H   LIG    1       22.987 -20.198   6.939  0.00  0.00    +0.210 HD
ENDBRANCH  15  16
BRANCH  15  18
ATOM     18  C   LIG    1       25.914 -21.460   6.736  0.00  0.00    +0.115 C 
BRANCH  18  19
ATOM     19  N   LIG    1       26.905 -20.421   7.062  0.00  0.00    -0.311 NA
ATOM     20  H   LIG    1       27.125 -20.480   8.059  0.00  0.00    +0.122 HD
BRANCH  19  21
ATOM     21  C   LIG    1       28.115 -20.505   6.235  0.00  0.00    +0.048 C 
ATOM     22  C   LIG    1       29.413 -20.426   7.044  0.00  0.00    +0.024 C 
ATOM     23  C   LIG    1       28.098 -19.385   5.193  0.00  0.00    +0.024 C 
ENDBRANCH  19  21
ENDBRANCH  18  19
ENDBRANCH  15  18
ENDBRANCH  14  15
ENDBRANCH  13  14
ENDBRANCH   4  13
TORSDOF 11
ENDMDL
MODEL 4
REMARK VINA RESULT:      -4.6      2.455      6.984
REMARK  Name = *****
REMARK                            x       y       z     vdW  Elec       q    Type
REMARK                         _______ _______ _______ _____ _____    ______ ____
ROOT
ATOM      1  C   LIG    1       23.868 -15.566   4.256  0.00  0.00    -0.047 A 
ATOM      2  C   LIG    1       22.653 -15.990   4.809  0.00  0.00    +0.007 A 
ATOM      3  C   LIG    1       22.292 -17.349   4.784  0.00  0.00    +0.046 A 
ATOM      4  C   LIG    1       23.136 -18.304   4.204  0.00  0.00    +0.121 A 
ATOM      5  C   LIG    1       24.350 -17.875   3.669  0.00  0.00    +0.046 A 
ATOM      6  C   LIG    1       24.719 -16.527   3.708  0.00  0.00    +0.007 A 
ENDROOT
BRANCH   1   7
ATOM      7  C   LIG    1       24.228 -14.102   4.141  0.00  0.00    +0.046 C 
BRANCH   7   8
ATOM      8  C   LIG    1       24.103 -13.644   2.685  0.00  0.00    +0.125 C 
BRANCH   8   9
ATOM      9  C   LIG    1       25.356 -12.956   2.175  0.00  0.00    +0.307 C 
ATOM     10  O   LIG    1       25.527 -11.766   2.009  0.00  0.00    -0.251 OA
BRANCH   9  12
ATOM     11  C   LIG    1       27.425 -13.882   2.885  0.00  0.00    +0.280 C 
ATOM     12  O   LIG    1       26.300 -13.959   2.003  0.00  0.00    -0.468 OA
ENDBRANCH   9  12
ENDBRANCH   8   9
ENDBRANCH   7   8
ENDBRANCH   1   7
BRANCH   4  13
ATOM     13  O   LIG    1       22.700 -19.610   4.234  0.00  0.00    -0.489 OA
BRANCH  13  14
ATOM     14  C   LIG    1       22.767 -20.276   5.511  0.00  0.00    +0.261 C 
BRANCH  14  15
ATOM     15  C   LIG    1       23.687 -21.507   5.459  0.00  0.00    +0.166 C 
BRANCH  15  16
ATOM     16  O   LIG    1       24.325 -21.561   4.172  0.00  0.00    -0.387 OA
ATOM     17  H   LIG    1       24.553 -20.641   3.941  0.00  0.00    +0.210 HD
ENDBRANCH  15  16
BRANCH  15  18
ATOM     18  C   LIG    1       24.745 -21.496   6.573  0.00  0.00    +0.115 C 
BRANCH  18  19
ATOM     19  N   LIG    1       26.111 -21.572   6.031  0.00  0.00    -0.311 NA
ATOM     20  H   LIG    1       26.055 -21.676   5.015  0.00  0.00    +0.122 HD
BRANCH  19  21
ATOM     21  C   LIG    1       26.942 -20.423   6.412  0.00  0.00    +0.048 C 
ATOM     22  C   LIG    1       27.286 -19.504   5.237  0.00  0.00    +0.024 C 
ATOM     23  C   LIG    1       28.234 -20.923   7.061  0.00  0.00    +0.024 C 
ENDBRANCH  19  21
ENDBRANCH  18  19
ENDBRANCH  15  18
ENDBRANCH  14  15
ENDBRANCH  13  14
ENDBRANCH   4  13
TORSDOF 11
ENDMDL
MODEL 5
REMARK VINA RESULT:      -4.5      1.841      2.842
REMARK  Name = *****
REMARK                            x       y       z     vdW  Elec       q    Type
REMARK                         _______ _______ _______ _____ _____    ______ ____
ROOT
ATOM      1  C   LIG    1       23.457 -18.521   3.979  0.00  0.00    -0.047 A 
ATOM      2  C   LIG    1       23.391 -17.127   4.092  0.00  0.00    +0.007 A 
ATOM      3  C   LIG    1       24.514 -16.332   3.796  0.00  0.00    +0.046 A 
ATOM      4  C   LIG    1       25.719 -16.917   3.388  0.00  0.00    +0.121 A 
ATOM      5  C   LIG    1       25.770 -18.306   3.265  0.00  0.00    +0.046 A 
ATOM      6  C   LIG    1       24.652 -19.097   3.542  0.00  0.00    +0.007 A 
ENDROOT
BRANCH   1   7
ATOM      7  C   LIG    1       22.319 -19.414   4.420  0.00  0.00    +0.046 C 
BRANCH   7   8
ATOM      8  C   LIG    1       22.825 -20.845   4.629  0.00  0.00    +0.125 C 
BRANCH   8   9
ATOM      9  C   LIG    1       23.568 -21.020   5.941  0.00  0.00    +0.307 C 
ATOM     10  O   LIG    1       23.129 -20.868   7.062  0.00  0.00    -0.251 OA
BRANCH   9  12
ATOM     11  C   LIG    1       25.878 -21.043   6.497  0.00  0.00    +0.280 C 
ATOM     12  O   LIG    1       24.840 -21.462   5.603  0.00  0.00    -0.468 OA
ENDBRANCH   9  12
ENDBRANCH   8   9
ENDBRANCH   7   8
ENDBRANCH   1   7
BRANCH   4  13
ATOM     13  O   LIG    1       26.759 -16.057   3.114  0.00  0.00    -0.489 OA
BRANCH  13  14
ATOM     14  C   LIG    1       27.145 -15.163   4.177  0.00  0.00    +0.261 C 
BRANCH  14  15
ATOM     15  C   LIG    1       27.501 -13.766   3.641  0.00  0.00    +0.166 C 
BRANCH  15  16
ATOM     16  O   LIG    1       28.923 -13.691   3.440  0.00  0.00    -0.387 OA
ATOM     17  H   LIG    1       29.248 -14.610   3.441  0.00  0.00    +0.210 HD
ENDBRANCH  15  16
BRANCH  15  18
ATOM     18  C   LIG    1       26.765 -13.434   2.335  0.00  0.00    +0.115 C 
BRANCH  18  19
ATOM     19  N   LIG    1       25.305 -13.424   2.517  0.00  0.00    -0.311 NA
ATOM     20  H   LIG    1       25.036 -14.249   3.059  0.00  0.00    +0.122 HD
BRANCH  19  21
ATOM     21  C   LIG    1       24.814 -12.187   3.137  0.00  0.00    +0.048 C 
ATOM     22  C   LIG    1       24.055 -12.421   4.446  0.00  0.00    +0.024 C 
ATOM     23  C   LIG    1       23.909 -11.447   2.150  0.00  0.00    +0.024 C 
ENDBRANCH  19  21
ENDBRANCH  18  19
ENDBRANCH  15  18
ENDBRANCH  14  15
ENDBRANCH  13  14
ENDBRANCH   4  13
TORSDOF 11
ENDMDL
MODEL 6
REMARK VINA RESULT:      -4.3      2.273      6.877
REMARK  Name = *****
REMARK                            x       y       z     vdW  Elec       q    Type
REMARK                         _______ _______ _______ _____ _____    ______ ____
ROOT
ATOM      1  C   LIG    1       26.901 -16.964   3.728  0.00  0.00    -0.047 A 
ATOM      2  C   LIG    1       27.746 -17.743   4.528  0.00  0.00    +0.007 A 
ATOM      3  C   LIG    1       27.389 -19.058   4.877  0.00  0.00    +0.046 A 
ATOM      4  C   LIG    1       26.181 -19.613   4.436  0.00  0.00    +0.121 A 
ATOM      5  C   LIG    1       25.352 -18.834   3.628  0.00  0.00    +0.046 A 
ATOM      6  C   LIG    1       25.713 -17.534   3.266  0.00  0.00    +0.007 A 
ENDROOT
BRANCH   1   7
ATOM      7  C   LIG    1       27.184 -15.505   3.447  0.00  0.00    +0.046 C 
BRANCH   7   8
ATOM      8  C   LIG    1       25.870 -14.728   3.333  0.00  0.00    +0.125 C 
BRANCH   8   9
ATOM      9  C   LIG    1       25.627 -13.807   4.515  0.00  0.00    +0.307 C 
ATOM     10  O   LIG    1       26.431 -13.454   5.352  0.00  0.00    -0.251 OA
BRANCH   9  12
ATOM     11  C   LIG    1       24.060 -12.455   3.347  0.00  0.00    +0.280 C 
ATOM     12  O   LIG    1       24.307 -13.387   4.406  0.00  0.00    -0.468 OA
ENDBRANCH   9  12
ENDBRANCH   8   9
ENDBRANCH   7   8
ENDBRANCH   1   7
BRANCH   4  13
ATOM     13  O   LIG    1       25.922 -20.909   4.823  0.00  0.00    -0.489 OA
BRANCH  13  14
ATOM     14  C   LIG    1       24.673 -21.472   4.373  0.00  0.00    +0.261 C 
BRANCH  14  15
ATOM     15  C   LIG    1       23.637 -21.530   5.508  0.00  0.00    +0.166 C 
BRANCH  15  16
ATOM     16  O   LIG    1       24.217 -20.972   6.700  0.00  0.00    -0.387 OA
ATOM     17  H   LIG    1       24.000 -21.588   7.424  0.00  0.00    +0.210 HD
ENDBRANCH  15  16
BRANCH  15  18
ATOM     18  C   LIG    1       22.339 -20.789   5.156  0.00  0.00    +0.115 C 
BRANCH  18  19
ATOM     19  N   LIG    1       22.408 -19.363   5.513  0.00  0.00    -0.311 NA
ATOM     20  H   LIG    1       23.298 -19.186   5.985  0.00  0.00    +0.122 HD
BRANCH  19  21
ATOM     21  C   LIG    1       22.220 -18.474   4.361  0.00  0.00    +0.048 C 
ATOM     22  C   LIG    1       22.265 -16.987   4.724  0.00  0.00    +0.024 C 
ATOM     23  C   LIG    1       20.885 -18.792   3.684  0.00  0.00    +0.024 C 
ENDBRANCH  19  21
ENDBRANCH  18  19
ENDBRANCH  15  18
ENDBRANCH  14  15
ENDBRANCH  13  14
ENDBRANCH   4  13
TORSDOF 11
ENDMDL
MODEL 7
REMARK VINA RESULT:      -3.7      2.176      7.331
REMARK  Name = *****
REMARK                            x       y       z     vdW  Elec       q    Type
REMARK                         _______ _______ _______ _____ _____    ______ ____
ROOT
ATOM      1  C   LIG    1       27.214 -15.641   3.767  0.00  0.00    -0.047 A 
ATOM      2  C   LIG    1       28.145 -16.439   4.444  0.00  0.00    +0.007 A 
ATOM      3  C   LIG    1       27.923 -17.819   4.602  0.00  0.00    +0.046 A 
ATOM      4  C   LIG    1       26.767 -18.422   4.091  0.00  0.00    +0.121 A 
ATOM      5  C   LIG    1       25.852 -17.622   3.407  0.00  0.00    +0.046 A 
ATOM      6  C   LIG    1       26.078 -16.254   3.233  0.00  0.00    +0.007 A 
ENDROOT
BRANCH   1   7
ATOM      7  C   LIG    1       27.349 -14.137   3.698  0.00  0.00    +0.046 C 
BRANCH   7   8
ATOM      8  C   LIG    1       26.047 -13.471   4.151  0.00  0.00    +0.125 C 
BRANCH   8   9
ATOM      9  C   LIG    1       25.150 -13.080   2.991  0.00  0.00    +0.307 C 
ATOM     10  O   LIG    1       25.437 -13.062   1.812  0.00  0.00    -0.251 OA
BRANCH   9  12
ATOM     11  C   LIG    1       23.934 -12.048   4.752  0.00  0.00    +0.280 C 
ATOM     12  O   LIG    1       23.904 -12.815   3.543  0.00  0.00    -0.468 OA
ENDBRANCH   9  12
ENDBRANCH   8   9
ENDBRANCH   7   8
ENDBRANCH   1   7
BRANCH   4  13
ATOM     13  O   LIG    1       26.642 -19.779   4.289  0.00  0.00    -0.489 OA
BRANCH  13  14
ATOM     14  C   LIG    1       26.493 -20.214   5.656  0.00  0.00    +0.261 C 
BRANCH  14  15
ATOM     15  C   LIG    1       25.518 -21.398   5.770  0.00  0.00    +0.166 C 
BRANCH  15  16
ATOM     16  O   LIG    1       24.889 -21.362   7.062  0.00  0.00    -0.387 OA
ATOM     17  H   LIG    1       25.325 -20.646   7.559  0.00  0.00    +0.210 HD
ENDBRANCH  15  16
BRANCH  15  18
ATOM     18  C   LIG    1       24.453 -21.389   4.663  0.00  0.00    +0.115 C 
BRANCH  18  19
ATOM     19  N   LIG    1       23.922 -20.037   4.426  0.00  0.00    -0.311 NA
ATOM     20  H   LIG    1       23.915 -19.860   3.418  0.00  0.00    +0.122 HD
BRANCH  19  21
ATOM     21  C   LIG    1       22.596 -19.830   5.020  0.00  0.00    +0.048 C 
ATOM     22  C   LIG    1       21.642 -21.010   4.808  0.00  0.00    +0.024 C 
ATOM     23  C   LIG    1       21.970 -18.561   4.438  0.00  0.00    +0.024 C 
ENDBRANCH  19  21
ENDBRANCH  18  19
ENDBRANCH  15  18
ENDBRANCH  14  15
ENDBRANCH  13  14
ENDBRANCH   4  13
TORSDOF 11
ENDMDL
MODEL 8
REMARK VINA RESULT:      -3.2      2.749      7.700
REMARK  Name = *****
REMARK                            x       y       z     vdW  Elec       q    Type
REMARK                         _______ _______ _______ _____ _____    ______ ____
ROOT
ATOM      1  C   LIG    1       26.700 -14.954   3.291  0.00  0.00    -0.047 A 
ATOM      2  C   LIG    1       25.828 -15.999   2.961  0.00  0.00    +0.007 A 
ATOM      3  C   LIG    1       26.092 -17.313   3.389  0.00  0.00    +0.046 A 
ATOM      4  C   LIG    1       27.232 -17.604   4.149  0.00  0.00    +0.121 A 
ATOM      5  C   LIG    1       28.087 -16.554   4.484  0.00  0.00    +0.046 A 
ATOM      6  C   LIG    1       27.818 -15.245   4.075  0.00  0.00    +0.007 A 
ENDROOT
BRANCH   1   7
ATOM      7  C   LIG    1       26.524 -13.559   2.736  0.00  0.00    +0.046 C 
BRANCH   7   8
ATOM      8  C   LIG    1       25.117 -13.399   2.154  0.00  0.00    +0.125 C 
BRANCH   8   9
ATOM      9  C   LIG    1       24.278 -12.388   2.913  0.00  0.00    +0.307 C 
ATOM     10  O   LIG    1       23.663 -11.448   2.453  0.00  0.00    -0.251 OA
BRANCH   9  12
ATOM     11  C   LIG    1       23.913 -11.788   5.183  0.00  0.00    +0.280 C 
ATOM     12  O   LIG    1       24.294 -12.796   4.240  0.00  0.00    -0.468 OA
ENDBRANCH   9  12
ENDBRANCH   8   9
ENDBRANCH   7   8
ENDBRANCH   1   7
BRANCH   4  13
ATOM     13  O   LIG    1       27.401 -18.917   4.527  0.00  0.00    -0.489 OA
BRANCH  13  14
ATOM     14  C   LIG    1       28.243 -19.148   5.674  0.00  0.00    +0.261 C 
BRANCH  14  15
ATOM     15  C   LIG    1       28.250 -20.631   6.082  0.00  0.00    +0.166 C 
BRANCH  15  16
ATOM     16  O   LIG    1       29.475 -20.919   6.777  0.00  0.00    -0.387 OA
ATOM     17  H   LIG    1       29.342 -21.776   7.222  0.00  0.00    +0.210 HD
ENDBRANCH  15  16
BRANCH  15  18
ATOM     18  C   LIG    1       27.045 -21.004   6.958  0.00  0.00    +0.115 C 
BRANCH  18  19
ATOM     19  N   LIG    1       25.850 -20.220   6.608  0.00  0.00    -0.311 NA
ATOM     20  H   LIG    1       26.140 -19.409   6.057  0.00  0.00    +0.122 HD
BRANCH  19  21
ATOM     21  C   LIG    1       24.831 -21.012   5.908  0.00  0.00    +0.048 C 
ATOM     22  C   LIG    1       24.358 -20.377   4.598  0.00  0.00    +0.024 C 
ATOM     23  C   LIG    1       23.630 -21.227   6.831  0.00  0.00    +0.024 C 
ENDBRANCH  19  21
ENDBRANCH  18  19
ENDBRANCH  15  18
ENDBRANCH  14  15
ENDBRANCH  13  14
ENDBRANCH   4  13
TORSDOF 11
ENDMDL
MODEL 9
REMARK VINA RESULT:      -2.9      2.776      7.379
REMARK  Name = *****
REMARK                            x       y       z     vdW  Elec       q    Type
REMARK                         _______ _______ _______ _____ _____    ______ ____
ROOT
ATOM      1  C   LIG    1       26.713 -13.314   2.770  0.00  0.00    -0.047 A 
ATOM      2  C   LIG    1       27.712 -13.177   3.744  0.00  0.00    +0.007 A 
ATOM      3  C   LIG    1       28.215 -14.306   4.415  0.00  0.00    +0.046 A 
ATOM      4  C   LIG    1       27.727 -15.587   4.129  0.00  0.00    +0.121 A 
ATOM      5  C   LIG    1       26.743 -15.715   3.149  0.00  0.00    +0.046 A 
ATOM      6  C   LIG    1       26.253 -14.597   2.468  0.00  0.00    +0.007 A 
ENDROOT
BRANCH   1   7
ATOM      7  C   LIG    1       26.052 -12.116   2.128  0.00  0.00    +0.046 C 
BRANCH   7   8
ATOM      8  C   LIG    1       24.541 -12.342   2.028  0.00  0.00    +0.125 C 
BRANCH   8   9
ATOM      9  C   LIG    1       23.888 -12.570   3.379  0.00  0.00    +0.307 C 
ATOM     10  O   LIG    1       23.829 -11.792   4.309  0.00  0.00    -0.251 OA
BRANCH   9  12
ATOM     11  C   LIG    1       23.528 -14.653   4.463  0.00  0.00    +0.280 C 
ATOM     12  O   LIG    1       23.305 -13.828   3.314  0.00  0.00    -0.468 OA
ENDBRANCH   9  12
ENDBRANCH   8   9
ENDBRANCH   7   8
ENDBRANCH   1   7
BRANCH   4  13
ATOM     13  O   LIG    1       28.286 -16.630   4.833  0.00  0.00    -0.489 OA
BRANCH  13  14
ATOM     14  C   LIG    1       28.034 -17.954   4.321  0.00  0.00    +0.261 C 
BRANCH  14  15
ATOM     15  C   LIG    1       28.559 -19.040   5.275  0.00  0.00    +0.166 C 
BRANCH  15  16
ATOM     16  O   LIG    1       29.151 -18.407   6.422  0.00  0.00    -0.387 OA
ATOM     17  H   LIG    1       28.434 -18.295   7.073  0.00  0.00    +0.210 HD
ENDBRANCH  15  16
BRANCH  15  18
ATOM     18  C   LIG    1       27.458 -20.014   5.718  0.00  0.00    +0.115 C 
BRANCH  18  19
ATOM     19  N   LIG    1       26.177 -19.732   5.051  0.00  0.00    -0.311 NA
ATOM     20  H   LIG    1       26.280 -19.922   4.050  0.00  0.00    +0.122 HD
BRANCH  19  21
ATOM     21  C   LIG    1       25.054 -20.479   5.630  0.00  0.00    +0.048 C 
ATOM     22  C   LIG    1       25.384 -21.130   6.976  0.00  0.00    +0.024 C 
ATOM     23  C   LIG    1       24.596 -21.556   4.644  0.00  0.00    +0.024 C 
ENDBRANCH  19  21
ENDBRANCH  18  19
ENDBRANCH  15  18
ENDBRANCH  14  15
ENDBRANCH  13  14
ENDBRANCH   4  13
TORSDOF 11
ENDMDL
