MODEL 1
REMARK VINA RESULT:       1.5      0.000      0.000
REMARK  Name = *****
REMARK                            x       y       z     vdW  Elec       q    Type
REMARK                         _______ _______ _______ _____ _____    ______ ____
ROOT
ATOM      1  C   LIG    1       26.730 -14.975   4.281  0.00  0.00    +0.076 C 
ENDROOT
BRANCH   1   2
ATOM      2  N   LIG    1       27.085 -13.677   3.485  0.00  0.00    -0.278 NA
BRANCH   2   3
ATOM      3  C   LIG    1       28.452 -13.059   3.686  0.00  0.00    +0.206 C 
BRANCH   3   4
ATOM      4  C   LIG    1       28.704 -12.365   5.061  0.00  0.00    +0.319 C 
ATOM      5  O   LIG    1       29.390 -11.447   5.352  0.00  0.00    -0.250 OA
BRANCH   4   6
ATOM      6  O   LIG    1       28.153 -13.037   6.097  0.00  0.00    -0.480 OA
ATOM      7  H   LIG    1       28.598 -12.494   6.808  0.00  0.00    +0.295 HD
ENDBRANCH   4   6
ENDBRANCH   3   4
ENDBRANCH   2   3
BRANCH   2   8
ATOM      8  C   LIG    1       26.615 -13.523   2.085  0.00  0.00    +0.206 C 
BRANCH   8   9
ATOM      9  C   LIG    1       25.269 -12.823   1.868  0.00  0.00    +0.319 C 
ATOM     10  O   LIG    1       25.048 -11.666   1.857  0.00  0.00    -0.250 OA
BRANCH   9  11
ATOM     11  O   LIG    1       24.239 -13.697   1.813  0.00  0.00    -0.480 OA
ATOM     12  H   LIG    1       23.621 -13.258   2.437  0.00  0.00    +0.295 HD
ENDBRANCH   9  11
ENDBRANCH   8   9
ENDBRANCH   2   8
ENDBRANCH   1   2
BRANCH   1  13
ATOM     13  C   LIG    1       25.109 -15.194   4.497  0.00  0.00    +0.104 C 
BRANCH  13  14
ATOM     14  N   LIG    1       23.972 -14.179   4.543  0.00  0.00    -0.290 NA
BRANCH  14  15
ATOM     15  C   LIG    1       22.671 -14.871   4.427  0.00  0.00    +0.100 C 
BRANCH  15  16
ATOM     16  C   LIG    1       22.712 -16.301   5.075  0.00  0.00    +0.101 C 
BRANCH  16  17
ATOM     17  N   LIG    1       22.328 -17.413   4.245  0.00  0.00    -0.281 NA
BRANCH  17  18
ATOM     18  C   LIG    1       22.541 -18.701   4.970  0.00  0.00    +0.206 C 
BRANCH  18  19
ATOM     19  C   LIG    1       23.434 -19.763   4.284  0.00  0.00    +0.319 C 
ATOM     20  O   LIG    1       24.274 -19.504   3.422  0.00  0.00    -0.250 OA
BRANCH  19  21
ATOM     21  O   LIG    1       23.264 -21.054   4.604  0.00  0.00    -0.480 OA
ATOM     22  H   LIG    1       22.673 -21.407   3.903  0.00  0.00    +0.295 HD
ENDBRANCH  19  21
ENDBRANCH  18  19
ENDBRANCH  17  18
BRANCH  17  23
ATOM     23  C   LIG    1       20.926 -17.167   3.861  0.00  0.00    +0.206 C 
BRANCH  23  24
ATOM     24  C   LIG    1       20.196 -18.373   3.265  0.00  0.00    +0.319 C 
ATOM     25  O   LIG    1       19.998 -19.459   3.744  0.00  0.00    -0.250 OA
BRANCH  24  26
ATOM     26  O   LIG    1       19.626 -18.061   2.081  0.00  0.00    -0.480 OA
ATOM     27  H   LIG    1       18.793 -17.636   2.369  0.00  0.00    +0.295 HD
ENDBRANCH  24  26
ENDBRANCH  23  24
ENDBRANCH  17  23
ENDBRANCH  16  17
ENDBRANCH  15  16
ENDBRANCH  14  15
BRANCH  14  28
ATOM     28  C   LIG    1       23.717 -13.261   5.675  0.00  0.00    +0.205 C 
BRANCH  28  29
ATOM     29  C   LIG    1       22.796 -12.011   5.330  0.00  0.00    +0.319 C 
ATOM     30  O   LIG    1       22.035 -11.491   6.140  0.00  0.00    -0.250 OA
BRANCH  29  31
ATOM     31  O   LIG    1       22.845 -11.488   4.080  0.00  0.00    -0.480 OA
ATOM     32  H   LIG    1       23.619 -10.955   3.808  0.00  0.00    +0.295 HD
ENDBRANCH  29  31
ENDBRANCH  28  29
ENDBRANCH  14  28
ENDBRANCH  13  14
ENDBRANCH   1  13
BRANCH   1  33
ATOM     33  C   LIG    1       27.553 -16.169   3.679  0.00  0.00    +0.055 C 
BRANCH  33  37
ATOM     34  C   LIG    1       28.406 -19.869   5.865  0.00  0.00    +0.120 A 
ATOM     35  C   LIG    1       29.350 -18.840   5.813  0.00  0.00    +0.046 A 
ATOM     36  C   LIG    1       29.144 -17.638   5.094  0.00  0.00    +0.007 A 
ATOM     37  C   LIG    1       28.006 -17.448   4.345  0.00  0.00    -0.046 A 
ATOM     38  C   LIG    1       27.303 -18.590   4.149  0.00  0.00    +0.007 A 
ATOM     39  C   LIG    1       27.323 -19.712   5.025  0.00  0.00    +0.046 A 
BRANCH  34  40
ATOM     40  O   LIG    1       28.502 -21.000   6.659  0.00  0.00    -0.492 OA
BRANCH  40  42
ATOM     41  C   LIG    1       26.023 -20.629   6.948  0.00  0.00    +0.048 C 
ATOM     42  C   LIG    1       27.228 -21.564   7.042  0.00  0.00    +0.226 C 
ENDBRANCH  40  42
ENDBRANCH  34  40
ENDBRANCH  33  37
ENDBRANCH   1  33
TORSDOF 25
ENDMDL
MODEL 2
REMARK VINA RESULT:       2.2      1.910      8.268
REMARK  Name = *****
REMARK                            x       y       z     vdW  Elec       q    Type
REMARK                         _______ _______ _______ _____ _____    ______ ____
ROOT
ATOM      1  C   LIG    1       24.692 -19.116   4.875  0.00  0.00    +0.076 C 
ENDROOT
BRANCH   1   2
ATOM      2  N   LIG    1       24.662 -20.556   4.267  0.00  0.00    -0.278 NA
BRANCH   2   3
ATOM      3  C   LIG    1       25.691 -21.561   4.739  0.00  0.00    +0.206 C 
BRANCH   3   4
ATOM      4  C   LIG    1       26.059 -21.515   6.255  0.00  0.00    +0.319 C 
ATOM      5  O   LIG    1       27.107 -21.571   6.800  0.00  0.00    -0.250 OA
BRANCH   4   6
ATOM      6  O   LIG    1       24.975 -21.571   7.062  0.00  0.00    -0.480 OA
ATOM      7  H   LIG    1       25.345 -22.273   7.668  0.00  0.00    +0.295 HD
ENDBRANCH   4   6
ENDBRANCH   3   4
ENDBRANCH   2   3
BRANCH   2   8
ATOM      8  C   LIG    1       23.358 -21.204   3.977  0.00  0.00    +0.206 C 
BRANCH   8   9
ATOM      9  C   LIG    1       22.243 -21.034   5.014  0.00  0.00    +0.319 C 
ATOM     10  O   LIG    1       22.347 -20.729   6.148  0.00  0.00    -0.250 OA
BRANCH   9  11
ATOM     11  O   LIG    1       21.036 -21.414   4.538  0.00  0.00    -0.480 OA
ATOM     12  H   LIG    1       21.328 -21.979   3.790  0.00  0.00    +0.295 HD
ENDBRANCH   9  11
ENDBRANCH   8   9
ENDBRANCH   2   8
ENDBRANCH   1   2
BRANCH   1  13
ATOM     13  C   LIG    1       26.211 -18.488   5.012  0.00  0.00    +0.104 C 
BRANCH  13  14
ATOM     14  N   LIG    1       27.260 -18.195   3.944  0.00  0.00    -0.290 NA
BRANCH  14  15
ATOM     15  C   LIG    1       26.998 -16.878   3.327  0.00  0.00    +0.100 C 
BRANCH  15  16
ATOM     16  C   LIG    1       27.314 -15.698   4.315  0.00  0.00    +0.101 C 
BRANCH  16  17
ATOM     17  N   LIG    1       27.988 -14.547   3.774  0.00  0.00    -0.281 NA
BRANCH  17  18
ATOM     18  C   LIG    1       27.481 -14.244   2.402  0.00  0.00    +0.206 C 
BRANCH  18  19
ATOM     19  C   LIG    1       26.460 -13.090   2.261  0.00  0.00    +0.319 C 
ATOM     20  O   LIG    1       26.695 -11.921   2.566  0.00  0.00    -0.250 OA
BRANCH  19  21
ATOM     21  O   LIG    1       25.223 -13.371   1.824  0.00  0.00    -0.480 OA
ATOM     22  H   LIG    1       25.252 -13.182   0.861  0.00  0.00    +0.295 HD
ENDBRANCH  19  21
ENDBRANCH  18  19
ENDBRANCH  17  18
BRANCH  17  23
ATOM     23  C   LIG    1       27.777 -13.459   4.745  0.00  0.00    +0.206 C 
BRANCH  23  24
ATOM     24  C   LIG    1       28.815 -12.334   4.695  0.00  0.00    +0.319 C 
ATOM     25  O   LIG    1       29.268 -11.755   3.742  0.00  0.00    -0.250 OA
BRANCH  24  26
ATOM     26  O   LIG    1       29.134 -11.911   5.936  0.00  0.00    -0.480 OA
ATOM     27  H   LIG    1       29.953 -11.402   5.766  0.00  0.00    +0.295 HD
ENDBRANCH  24  26
ENDBRANCH  23  24
ENDBRANCH  17  23
ENDBRANCH  16  17
ENDBRANCH  15  16
ENDBRANCH  14  15
BRANCH  14  28
ATOM     28  C   LIG    1       28.715 -18.116   4.200  0.00  0.00    +0.205 C 
BRANCH  28  29
ATOM     29  C   LIG    1       29.157 -18.507   5.677  0.00  0.00    +0.319 C 
ATOM     30  O   LIG    1       29.244 -19.667   6.068  0.00  0.00    -0.250 OA
BRANCH  29  31
ATOM     31  O   LIG    1       29.453 -17.518   6.555  0.00  0.00    -0.480 OA
ATOM     32  H   LIG    1       29.317 -16.584   6.297  0.00  0.00    +0.295 HD
ENDBRANCH  29  31
ENDBRANCH  28  29
ENDBRANCH  14  28
ENDBRANCH  13  14
ENDBRANCH   1  13
BRANCH   1  33
ATOM     33  C   LIG    1       23.607 -18.246   4.145  0.00  0.00    +0.055 C 
BRANCH  33  37
ATOM     34  C   LIG    1       22.914 -14.016   5.051  0.00  0.00    +0.120 A 
ATOM     35  C   LIG    1       22.055 -14.999   5.546  0.00  0.00    +0.046 A 
ATOM     36  C   LIG    1       22.208 -16.376   5.259  0.00  0.00    +0.007 A 
ATOM     37  C   LIG    1       23.196 -16.815   4.407  0.00  0.00    -0.046 A 
ATOM     38  C   LIG    1       23.764 -15.814   3.694  0.00  0.00    +0.007 A 
ATOM     39  C   LIG    1       23.828 -14.456   4.116  0.00  0.00    +0.046 A 
BRANCH  34  40
ATOM     40  O   LIG    1       22.888 -12.678   5.410  0.00  0.00    -0.492 OA
BRANCH  40  42
ATOM     41  C   LIG    1       25.340 -12.144   5.674  0.00  0.00    +0.048 C 
ATOM     42  C   LIG    1       24.021 -11.916   4.937  0.00  0.00    +0.226 C 
ENDBRANCH  40  42
ENDBRANCH  34  40
ENDBRANCH  33  37
ENDBRANCH   1  33
TORSDOF 25
ENDMDL
MODEL 3
REMARK VINA RESULT:       2.6      0.860      2.008
REMARK  Name = *****
REMARK                            x       y       z     vdW  Elec       q    Type
REMARK                         _______ _______ _______ _____ _____    ______ ____
ROOT
ATOM      1  C   LIG    1       26.639 -14.936   4.201  0.00  0.00    +0.076 C 
ENDROOT
BRANCH   1   2
ATOM      2  N   LIG    1       26.937 -13.632   3.391  0.00  0.00    -0.278 NA
BRANCH   2   3
ATOM      3  C   LIG    1       28.291 -12.974   3.554  0.00  0.00    +0.206 C 
BRANCH   3   4
ATOM      4  C   LIG    1       28.625 -12.416   4.972  0.00  0.00    +0.319 C 
ATOM      5  O   LIG    1       29.278 -11.489   5.306  0.00  0.00    -0.250 OA
BRANCH   4   6
ATOM      6  O   LIG    1       28.212 -13.232   5.969  0.00  0.00    -0.480 OA
ATOM      7  H   LIG    1       27.245 -13.000   5.885  0.00  0.00    +0.295 HD
ENDBRANCH   4   6
ENDBRANCH   3   4
ENDBRANCH   2   3
BRANCH   2   8
ATOM      8  C   LIG    1       26.426 -13.496   2.004  0.00  0.00    +0.206 C 
BRANCH   8   9
ATOM      9  C   LIG    1       25.015 -12.923   1.827  0.00  0.00    +0.319 C 
ATOM     10  O   LIG    1       24.689 -11.791   1.815  0.00  0.00    -0.250 OA
BRANCH   9  11
ATOM     11  O   LIG    1       24.067 -13.887   1.812  0.00  0.00    -0.480 OA
ATOM     12  H   LIG    1       23.922 -13.956   0.843  0.00  0.00    +0.295 HD
ENDBRANCH   9  11
ENDBRANCH   8   9
ENDBRANCH   2   8
ENDBRANCH   1   2
BRANCH   1  13
ATOM     13  C   LIG    1       25.031 -15.275   4.338  0.00  0.00    +0.104 C 
BRANCH  13  14
ATOM     14  N   LIG    1       23.810 -14.404   4.059  0.00  0.00    -0.290 NA
BRANCH  14  15
ATOM     15  C   LIG    1       22.579 -15.219   4.136  0.00  0.00    +0.100 C 
BRANCH  15  16
ATOM     16  C   LIG    1       22.813 -16.554   4.931  0.00  0.00    +0.101 C 
BRANCH  16  17
ATOM     17  N   LIG    1       22.525 -17.788   4.249  0.00  0.00    -0.281 NA
BRANCH  17  18
ATOM     18  C   LIG    1       21.429 -17.588   3.253  0.00  0.00    +0.206 C 
BRANCH  18  19
ATOM     19  C   LIG    1       20.291 -18.635   3.228  0.00  0.00    +0.319 C 
ATOM     20  O   LIG    1       19.352 -18.614   2.431  0.00  0.00    -0.250 OA
BRANCH  19  21
ATOM     21  O   LIG    1       20.287 -19.608   4.151  0.00  0.00    -0.480 OA
ATOM     22  H   LIG    1       19.924 -19.181   4.958  0.00  0.00    +0.295 HD
ENDBRANCH  19  21
ENDBRANCH  18  19
ENDBRANCH  17  18
BRANCH  17  23
ATOM     23  C   LIG    1       23.799 -18.231   3.655  0.00  0.00    +0.206 C 
BRANCH  23  24
ATOM     24  C   LIG    1       23.945 -19.746   3.490  0.00  0.00    +0.319 C 
ATOM     25  O   LIG    1       23.757 -20.624   4.291  0.00  0.00    -0.250 OA
BRANCH  24  26
ATOM     26  O   LIG    1       24.215 -20.072   2.208  0.00  0.00    -0.480 OA
ATOM     27  H   LIG    1       24.080 -21.041   2.218  0.00  0.00    +0.295 HD
ENDBRANCH  24  26
ENDBRANCH  23  24
ENDBRANCH  17  23
ENDBRANCH  16  17
ENDBRANCH  15  16
ENDBRANCH  14  15
BRANCH  14  28
ATOM     28  C   LIG    1       23.428 -13.219   4.859  0.00  0.00    +0.205 C 
BRANCH  28  29
ATOM     29  C   LIG    1       24.610 -12.572   5.704  0.00  0.00    +0.319 C 
ATOM     30  O   LIG    1       24.542 -11.457   6.213  0.00  0.00    -0.250 OA
BRANCH  29  31
ATOM     31  O   LIG    1       25.755 -13.277   5.873  0.00  0.00    -0.480 OA
ATOM     32  H   LIG    1       26.548 -13.048   5.348  0.00  0.00    +0.295 HD
ENDBRANCH  29  31
ENDBRANCH  28  29
ENDBRANCH  14  28
ENDBRANCH  13  14
ENDBRANCH   1  13
BRANCH   1  33
ATOM     33  C   LIG    1       27.582 -16.075   3.672  0.00  0.00    +0.055 C 
BRANCH  33  37
ATOM     34  C   LIG    1       28.499 -19.707   5.945  0.00  0.00    +0.120 A 
ATOM     35  C   LIG    1       29.379 -18.622   5.953  0.00  0.00    +0.046 A 
ATOM     36  C   LIG    1       29.152 -17.437   5.212  0.00  0.00    +0.007 A 
ATOM     37  C   LIG    1       28.063 -17.321   4.380  0.00  0.00    -0.046 A 
ATOM     38  C   LIG    1       27.449 -18.505   4.142  0.00  0.00    +0.007 A 
ATOM     39  C   LIG    1       27.473 -19.621   5.026  0.00  0.00    +0.046 A 
BRANCH  34  40
ATOM     40  O   LIG    1       28.606 -20.827   6.753  0.00  0.00    -0.492 OA
BRANCH  40  42
ATOM     41  C   LIG    1       26.150 -21.004   6.203  0.00  0.00    +0.048 C 
ATOM     42  C   LIG    1       27.349 -21.489   7.016  0.00  0.00    +0.226 C 
ENDBRANCH  40  42
ENDBRANCH  34  40
ENDBRANCH  33  37
ENDBRANCH   1  33
TORSDOF 25
ENDMDL
MODEL 4
REMARK VINA RESULT:       3.9      2.018      5.704
REMARK  Name = *****
REMARK                            x       y       z     vdW  Elec       q    Type
REMARK                         _______ _______ _______ _____ _____    ______ ____
ROOT
ATOM      1  C   LIG    1       25.266 -15.093   3.699  0.00  0.00    +0.076 C 
ENDROOT
BRANCH   1   2
ATOM      2  N   LIG    1       25.922 -13.749   4.157  0.00  0.00    -0.278 NA
BRANCH   2   3
ATOM      3  C   LIG    1       27.287 -13.799   4.810  0.00  0.00    +0.206 C 
BRANCH   3   4
ATOM      4  C   LIG    1       28.220 -12.573   4.559  0.00  0.00    +0.319 C 
ATOM      5  O   LIG    1       28.292 -11.528   5.107  0.00  0.00    -0.250 OA
BRANCH   4   6
ATOM      6  O   LIG    1       28.956 -12.694   3.430  0.00  0.00    -0.480 OA
ATOM      7  H   LIG    1       28.176 -12.653   2.806  0.00  0.00    +0.295 HD
ENDBRANCH   4   6
ENDBRANCH   3   4
ENDBRANCH   2   3
BRANCH   2   8
ATOM      8  C   LIG    1       25.757 -12.531   3.326  0.00  0.00    +0.206 C 
BRANCH   8   9
ATOM      9  C   LIG    1       24.330 -12.008   3.120  0.00  0.00    +0.319 C 
ATOM     10  O   LIG    1       23.531 -11.739   3.944  0.00  0.00    -0.250 OA
BRANCH   9  11
ATOM     11  O   LIG    1       23.971 -11.995   1.817  0.00  0.00    -0.480 OA
ATOM     12  H   LIG    1       24.457 -11.194   1.523  0.00  0.00    +0.295 HD
ENDBRANCH   9  11
ENDBRANCH   8   9
ENDBRANCH   2   8
ENDBRANCH   1   2
BRANCH   1  13
ATOM     13  C   LIG    1       26.154 -16.428   4.086  0.00  0.00    +0.104 C 
BRANCH  13  14
ATOM     14  N   LIG    1       26.120 -17.839   3.509  0.00  0.00    -0.290 NA
BRANCH  14  15
ATOM     15  C   LIG    1       25.583 -18.783   4.512  0.00  0.00    +0.100 C 
BRANCH  15  16
ATOM     16  C   LIG    1       26.612 -19.051   5.668  0.00  0.00    +0.101 C 
BRANCH  16  17
ATOM     17  N   LIG    1       27.340 -20.293   5.628  0.00  0.00    -0.281 NA
BRANCH  17  18
ATOM     18  C   LIG    1       28.788 -20.056   5.910  0.00  0.00    +0.206 C 
BRANCH  18  19
ATOM     19  C   LIG    1       29.280 -18.590   5.920  0.00  0.00    +0.319 C 
ATOM     20  O   LIG    1       29.474 -17.936   6.946  0.00  0.00    -0.250 OA
BRANCH  19  21
ATOM     21  O   LIG    1       29.468 -17.963   4.750  0.00  0.00    -0.480 OA
ATOM     22  H   LIG    1       30.049 -18.565   4.237  0.00  0.00    +0.295 HD
ENDBRANCH  19  21
ENDBRANCH  18  19
ENDBRANCH  17  18
BRANCH  17  23
ATOM     23  C   LIG    1       26.678 -21.183   6.599  0.00  0.00    +0.206 C 
BRANCH  23  24
ATOM     24  C   LIG    1       25.206 -21.484   6.304  0.00  0.00    +0.319 C 
ATOM     25  O   LIG    1       24.272 -21.545   7.060  0.00  0.00    -0.250 OA
BRANCH  24  26
ATOM     26  O   LIG    1       24.984 -21.570   4.975  0.00  0.00    -0.480 OA
ATOM     27  H   LIG    1       24.019 -21.414   4.926  0.00  0.00    +0.295 HD
ENDBRANCH  24  26
ENDBRANCH  23  24
ENDBRANCH  17  23
ENDBRANCH  16  17
ENDBRANCH  15  16
ENDBRANCH  14  15
BRANCH  14  28
ATOM     28  C   LIG    1       25.361 -18.230   2.301  0.00  0.00    +0.205 C 
BRANCH  28  29
ATOM     29  C   LIG    1       24.773 -19.708   2.328  0.00  0.00    +0.319 C 
ATOM     30  O   LIG    1       23.622 -19.981   2.003  0.00  0.00    -0.250 OA
BRANCH  29  31
ATOM     31  O   LIG    1       25.576 -20.723   2.732  0.00  0.00    -0.480 OA
ATOM     32  H   LIG    1       25.376 -21.197   3.564  0.00  0.00    +0.295 HD
ENDBRANCH  29  31
ENDBRANCH  28  29
ENDBRANCH  14  28
ENDBRANCH  13  14
ENDBRANCH   1  13
BRANCH   1  33
ATOM     33  C   LIG    1       23.753 -15.076   4.121  0.00  0.00    +0.055 C 
BRANCH  33  37
ATOM     34  C   LIG    1       21.269 -18.685   4.065  0.00  0.00    +0.120 A 
ATOM     35  C   LIG    1       20.823 -17.505   3.465  0.00  0.00    +0.046 A 
ATOM     36  C   LIG    1       21.566 -16.300   3.481  0.00  0.00    +0.007 A 
ATOM     37  C   LIG    1       22.760 -16.215   4.158  0.00  0.00    -0.046 A 
ATOM     38  C   LIG    1       22.969 -17.257   4.998  0.00  0.00    +0.007 A 
ATOM     39  C   LIG    1       22.410 -18.556   4.830  0.00  0.00    +0.046 A 
BRANCH  34  40
ATOM     40  O   LIG    1       20.646 -19.918   3.962  0.00  0.00    -0.492 OA
BRANCH  40  42
ATOM     41  C   LIG    1       22.220 -20.669   5.787  0.00  0.00    +0.048 C 
ATOM     42  C   LIG    1       21.392 -21.008   4.548  0.00  0.00    +0.226 C 
ENDBRANCH  40  42
ENDBRANCH  34  40
ENDBRANCH  33  37
ENDBRANCH   1  33
TORSDOF 25
ENDMDL
MODEL 5
REMARK VINA RESULT:       4.1      2.130      6.413
REMARK  Name = *****
REMARK                            x       y       z     vdW  Elec       q    Type
REMARK                         _______ _______ _______ _____ _____    ______ ____
ROOT
ATOM      1  C   LIG    1       25.172 -17.587   3.798  0.00  0.00    +0.076 C 
ENDROOT
BRANCH   1   2
ATOM      2  N   LIG    1       24.302 -16.311   4.045  0.00  0.00    -0.278 NA
BRANCH   2   3
ATOM      3  C   LIG    1       24.818 -14.979   3.546  0.00  0.00    +0.206 C 
BRANCH   3   4
ATOM      4  C   LIG    1       24.565 -13.746   4.470  0.00  0.00    +0.319 C 
ATOM      5  O   LIG    1       25.297 -13.143   5.175  0.00  0.00    -0.250 OA
BRANCH   4   6
ATOM      6  O   LIG    1       23.254 -13.431   4.578  0.00  0.00    -0.480 OA
ATOM      7  H   LIG    1       23.010 -14.230   5.127  0.00  0.00    +0.295 HD
ENDBRANCH   4   6
ENDBRANCH   3   4
ENDBRANCH   2   3
BRANCH   2   8
ATOM      8  C   LIG    1       22.825 -16.399   3.942  0.00  0.00    +0.206 C 
BRANCH   8   9
ATOM      9  C   LIG    1       22.039 -16.603   5.243  0.00  0.00    +0.319 C 
ATOM     10  O   LIG    1       21.799 -15.806   6.077  0.00  0.00    -0.250 OA
BRANCH   9  11
ATOM     11  O   LIG    1       21.721 -17.900   5.453  0.00  0.00    -0.480 OA
ATOM     12  H   LIG    1       20.950 -17.977   4.849  0.00  0.00    +0.295 HD
ENDBRANCH   9  11
ENDBRANCH   8   9
ENDBRANCH   2   8
ENDBRANCH   1   2
BRANCH   1  13
ATOM     13  C   LIG    1       24.327 -18.846   3.149  0.00  0.00    +0.104 C 
BRANCH  13  14
ATOM     14  N   LIG    1       24.557 -20.350   3.255  0.00  0.00    -0.290 NA
BRANCH  14  15
ATOM     15  C   LIG    1       25.736 -20.622   4.103  0.00  0.00    +0.100 C 
BRANCH  15  16
ATOM     16  C   LIG    1       25.829 -19.623   5.311  0.00  0.00    +0.101 C 
BRANCH  16  17
ATOM     17  N   LIG    1       25.960 -20.190   6.628  0.00  0.00    -0.281 NA
BRANCH  17  18
ATOM     18  C   LIG    1       24.931 -21.252   6.843  0.00  0.00    +0.206 C 
BRANCH  18  19
ATOM     19  C   LIG    1       23.461 -20.795   7.001  0.00  0.00    +0.319 C 
ATOM     20  O   LIG    1       22.503 -21.566   7.058  0.00  0.00    -0.250 OA
BRANCH  19  21
ATOM     21  O   LIG    1       23.192 -19.482   7.035  0.00  0.00    -0.480 OA
ATOM     22  H   LIG    1       22.856 -19.321   7.943  0.00  0.00    +0.295 HD
ENDBRANCH  19  21
ENDBRANCH  18  19
ENDBRANCH  17  18
BRANCH  17  23
ATOM     23  C   LIG    1       27.349 -20.675   6.724  0.00  0.00    +0.206 C 
BRANCH  23  24
ATOM     24  C   LIG    1       28.415 -19.686   6.244  0.00  0.00    +0.319 C 
ATOM     25  O   LIG    1       29.222 -19.063   6.884  0.00  0.00    -0.250 OA
BRANCH  24  26
ATOM     26  O   LIG    1       28.470 -19.646   4.896  0.00  0.00    -0.480 OA
ATOM     27  H   LIG    1       29.004 -18.839   4.744  0.00  0.00    +0.295 HD
ENDBRANCH  24  26
ENDBRANCH  23  24
ENDBRANCH  17  23
ENDBRANCH  16  17
ENDBRANCH  15  16
ENDBRANCH  14  15
BRANCH  14  28
ATOM     28  C   LIG    1       23.573 -21.310   3.804  0.00  0.00    +0.205 C 
BRANCH  28  29
ATOM     29  C   LIG    1       22.096 -20.739   3.960  0.00  0.00    +0.319 C 
ATOM     30  O   LIG    1       21.730 -19.675   3.471  0.00  0.00    -0.250 OA
BRANCH  29  31
ATOM     31  O   LIG    1       21.190 -21.456   4.669  0.00  0.00    -0.480 OA
ATOM     32  H   LIG    1       20.241 -21.223   4.618  0.00  0.00    +0.295 HD
ENDBRANCH  29  31
ENDBRANCH  28  29
ENDBRANCH  14  28
ENDBRANCH  13  14
ENDBRANCH   1  13
BRANCH   1  33
ATOM     33  C   LIG    1       26.500 -17.153   3.081  0.00  0.00    +0.055 C 
BRANCH  33  37
ATOM     34  C   LIG    1       28.340 -13.217   3.645  0.00  0.00    +0.120 A 
ATOM     35  C   LIG    1       27.662 -13.522   2.462  0.00  0.00    +0.046 A 
ATOM     36  C   LIG    1       27.078 -14.787   2.210  0.00  0.00    +0.007 A 
ATOM     37  C   LIG    1       27.208 -15.818   3.111  0.00  0.00    -0.046 A 
ATOM     38  C   LIG    1       28.151 -15.582   4.055  0.00  0.00    +0.007 A 
ATOM     39  C   LIG    1       28.556 -14.287   4.487  0.00  0.00    +0.046 A 
BRANCH  34  40
ATOM     40  O   LIG    1       28.809 -11.961   3.994  0.00  0.00    -0.492 OA
BRANCH  40  42
ATOM     41  C   LIG    1       27.950 -12.332   6.338  0.00  0.00    +0.048 C 
ATOM     42  C   LIG    1       29.036 -11.787   5.410  0.00  0.00    +0.226 C 
ENDBRANCH  40  42
ENDBRANCH  34  40
ENDBRANCH  33  37
ENDBRANCH   1  33
TORSDOF 25
ENDMDL
MODEL 6
REMARK VINA RESULT:       4.1      1.799      6.278
REMARK  Name = *****
REMARK                            x       y       z     vdW  Elec       q    Type
REMARK                         _______ _______ _______ _____ _____    ______ ____
ROOT
ATOM      1  C   LIG    1       25.764 -15.391   3.256  0.00  0.00    +0.076 C 
ENDROOT
BRANCH   1   2
ATOM      2  N   LIG    1       26.545 -14.039   3.322  0.00  0.00    -0.278 NA
BRANCH   2   3
ATOM      3  C   LIG    1       26.035 -12.870   2.508  0.00  0.00    +0.206 C 
BRANCH   3   4
ATOM      4  C   LIG    1       24.548 -12.456   2.744  0.00  0.00    +0.319 C 
ATOM      5  O   LIG    1       23.676 -12.229   1.979  0.00  0.00    -0.250 OA
BRANCH   4   6
ATOM      6  O   LIG    1       24.280 -12.174   4.039  0.00  0.00    -0.480 OA
ATOM      7  H   LIG    1       25.075 -12.655   4.406  0.00  0.00    +0.295 HD
ENDBRANCH   4   6
ENDBRANCH   3   4
ENDBRANCH   2   3
BRANCH   2   8
ATOM      8  C   LIG    1       27.133 -13.593   4.610  0.00  0.00    +0.206 C 
BRANCH   8   9
ATOM      9  C   LIG    1       28.310 -12.613   4.544  0.00  0.00    +0.319 C 
ATOM     10  O   LIG    1       28.966 -12.330   3.608  0.00  0.00    -0.250 OA
BRANCH   9  11
ATOM     11  O   LIG    1       28.659 -12.148   5.765  0.00  0.00    -0.480 OA
ATOM     12  H   LIG    1       28.440 -11.198   5.645  0.00  0.00    +0.295 HD
ENDBRANCH   9  11
ENDBRANCH   8   9
ENDBRANCH   2   8
ENDBRANCH   1   2
BRANCH   1  13
ATOM     13  C   LIG    1       26.694 -16.709   3.603  0.00  0.00    +0.104 C 
BRANCH  13  14
ATOM     14  N   LIG    1       26.401 -18.197   3.436  0.00  0.00    -0.290 NA
BRANCH  14  15
ATOM     15  C   LIG    1       25.706 -18.712   4.634  0.00  0.00    +0.100 C 
BRANCH  15  16
ATOM     16  C   LIG    1       26.411 -19.992   5.211  0.00  0.00    +0.101 C 
BRANCH  16  17
ATOM     17  N   LIG    1       26.413 -20.156   6.641  0.00  0.00    -0.281 NA
BRANCH  17  18
ATOM     18  C   LIG    1       25.598 -21.347   7.030  0.00  0.00    +0.206 C 
BRANCH  18  19
ATOM     19  C   LIG    1       24.189 -21.479   6.405  0.00  0.00    +0.319 C 
ATOM     20  O   LIG    1       23.149 -21.548   7.060  0.00  0.00    -0.250 OA
BRANCH  19  21
ATOM     21  O   LIG    1       24.080 -21.571   5.071  0.00  0.00    -0.480 OA
ATOM     22  H   LIG    1       23.367 -22.230   4.926  0.00  0.00    +0.295 HD
ENDBRANCH  19  21
ENDBRANCH  18  19
ENDBRANCH  17  18
BRANCH  17  23
ATOM     23  C   LIG    1       27.830 -20.245   7.037  0.00  0.00    +0.206 C 
BRANCH  23  24
ATOM     24  C   LIG    1       28.833 -19.855   5.948  0.00  0.00    +0.319 C 
ATOM     25  O   LIG    1       29.373 -18.798   5.751  0.00  0.00    -0.250 OA
BRANCH  24  26
ATOM     26  O   LIG    1       29.197 -20.928   5.215  0.00  0.00    -0.480 OA
ATOM     27  H   LIG    1       30.116 -20.696   4.968  0.00  0.00    +0.295 HD
ENDBRANCH  24  26
ENDBRANCH  23  24
ENDBRANCH  17  23
ENDBRANCH  16  17
ENDBRANCH  15  16
ENDBRANCH  14  15
BRANCH  14  28
ATOM     28  C   LIG    1       25.578 -18.770   2.349  0.00  0.00    +0.205 C 
BRANCH  28  29
ATOM     29  C   LIG    1       24.330 -19.628   2.835  0.00  0.00    +0.319 C 
ATOM     30  O   LIG    1       23.798 -19.481   3.931  0.00  0.00    -0.250 OA
BRANCH  29  31
ATOM     31  O   LIG    1       23.823 -20.574   2.006  0.00  0.00    -0.480 OA
ATOM     32  H   LIG    1       23.689 -20.366   1.059  0.00  0.00    +0.295 HD
ENDBRANCH  29  31
ENDBRANCH  28  29
ENDBRANCH  14  28
ENDBRANCH  13  14
ENDBRANCH   1  13
BRANCH   1  33
ATOM     33  C   LIG    1       24.414 -15.224   4.042  0.00  0.00    +0.055 C 
BRANCH  33  37
ATOM     34  C   LIG    1       21.209 -18.205   4.233  0.00  0.00    +0.120 A 
ATOM     35  C   LIG    1       21.375 -17.412   3.095  0.00  0.00    +0.046 A 
ATOM     36  C   LIG    1       22.370 -16.410   2.990  0.00  0.00    +0.007 A 
ATOM     37  C   LIG    1       23.198 -16.121   4.050  0.00  0.00    -0.046 A 
ATOM     38  C   LIG    1       22.772 -16.661   5.218  0.00  0.00    +0.007 A 
ATOM     39  C   LIG    1       21.969 -17.832   5.322  0.00  0.00    +0.046 A 
BRANCH  34  40
ATOM     40  O   LIG    1       20.344 -19.283   4.334  0.00  0.00    -0.492 OA
BRANCH  40  42
ATOM     41  C   LIG    1       19.364 -18.457   2.161  0.00  0.00    +0.048 C 
ATOM     42  C   LIG    1       19.674 -19.622   3.100  0.00  0.00    +0.226 C 
ENDBRANCH  40  42
ENDBRANCH  34  40
ENDBRANCH  33  37
ENDBRANCH   1  33
TORSDOF 25
ENDMDL
MODEL 7
REMARK VINA RESULT:       4.1      1.505      6.904
REMARK  Name = *****
REMARK                            x       y       z     vdW  Elec       q    Type
REMARK                         _______ _______ _______ _____ _____    ______ ____
ROOT
ATOM      1  C   LIG    1       23.071 -17.417   3.676  0.00  0.00    +0.076 C 
ENDROOT
BRANCH   1   2
ATOM      2  N   LIG    1       22.149 -18.524   4.285  0.00  0.00    -0.278 NA
BRANCH   2   3
ATOM      3  C   LIG    1       21.130 -19.189   3.386  0.00  0.00    +0.206 C 
BRANCH   3   4
ATOM      4  C   LIG    1       19.893 -18.327   2.982  0.00  0.00    +0.319 C 
ATOM      5  O   LIG    1       19.411 -18.110   1.925  0.00  0.00    -0.250 OA
BRANCH   4   6
ATOM      6  O   LIG    1       19.401 -17.598   4.010  0.00  0.00    -0.480 OA
ATOM      7  H   LIG    1       19.400 -16.730   3.518  0.00  0.00    +0.295 HD
ENDBRANCH   4   6
ENDBRANCH   3   4
ENDBRANCH   2   3
BRANCH   2   8
ATOM      8  C   LIG    1       22.704 -19.475   5.280  0.00  0.00    +0.206 C 
BRANCH   8   9
ATOM      9  C   LIG    1       22.286 -20.945   5.159  0.00  0.00    +0.319 C 
ATOM     10  O   LIG    1       21.616 -21.571   5.897  0.00  0.00    -0.250 OA
BRANCH   9  11
ATOM     11  O   LIG    1       22.895 -21.568   4.125  0.00  0.00    -0.480 OA
ATOM     12  H   LIG    1       22.717 -22.502   4.370  0.00  0.00    +0.295 HD
ENDBRANCH   9  11
ENDBRANCH   8   9
ENDBRANCH   2   8
ENDBRANCH   1   2
BRANCH   1  13
ATOM     13  C   LIG    1       23.071 -16.011   4.538  0.00  0.00    +0.104 C 
BRANCH  13  14
ATOM     14  N   LIG    1       23.633 -14.637   4.187  0.00  0.00    -0.290 NA
BRANCH  14  15
ATOM     15  C   LIG    1       25.103 -14.714   4.043  0.00  0.00    +0.100 C 
BRANCH  15  16
ATOM     16  C   LIG    1       25.839 -14.338   5.379  0.00  0.00    +0.101 C 
BRANCH  16  17
ATOM     17  N   LIG    1       27.243 -14.033   5.294  0.00  0.00    -0.281 NA
BRANCH  17  18
ATOM     18  C   LIG    1       27.865 -14.757   4.145  0.00  0.00    +0.206 C 
BRANCH  18  19
ATOM     19  C   LIG    1       27.858 -14.048   2.770  0.00  0.00    +0.319 C 
ATOM     20  O   LIG    1       26.927 -14.112   1.967  0.00  0.00    -0.250 OA
BRANCH  19  21
ATOM     21  O   LIG    1       28.942 -13.354   2.395  0.00  0.00    -0.480 OA
ATOM     22  H   LIG    1       28.590 -12.622   1.843  0.00  0.00    +0.295 HD
ENDBRANCH  19  21
ENDBRANCH  18  19
ENDBRANCH  17  18
BRANCH  17  23
ATOM     23  C   LIG    1       27.335 -12.566   5.197  0.00  0.00    +0.206 C 
BRANCH  23  24
ATOM     24  C   LIG    1       28.757 -12.011   5.082  0.00  0.00    +0.319 C 
ATOM     25  O   LIG    1       29.369 -11.676   4.101  0.00  0.00    -0.250 OA
BRANCH  24  26
ATOM     26  O   LIG    1       29.294 -11.789   6.301  0.00  0.00    -0.480 OA
ATOM     27  H   LIG    1       28.493 -11.680   6.852  0.00  0.00    +0.295 HD
ENDBRANCH  24  26
ENDBRANCH  23  24
ENDBRANCH  17  23
ENDBRANCH  16  17
ENDBRANCH  15  16
ENDBRANCH  14  15
BRANCH  14  28
ATOM     28  C   LIG    1       23.260 -13.863   2.982  0.00  0.00    +0.205 C 
BRANCH  28  29
ATOM     29  C   LIG    1       23.852 -12.388   2.924  0.00  0.00    +0.319 C 
ATOM     30  O   LIG    1       23.693 -11.563   3.819  0.00  0.00    -0.250 OA
BRANCH  29  31
ATOM     31  O   LIG    1       24.565 -12.012   1.834  0.00  0.00    -0.480 OA
ATOM     32  H   LIG    1       24.799 -11.070   1.709  0.00  0.00    +0.295 HD
ENDBRANCH  29  31
ENDBRANCH  28  29
ENDBRANCH  14  28
ENDBRANCH  13  14
ENDBRANCH   1  13
BRANCH   1  33
ATOM     33  C   LIG    1       24.462 -18.062   3.333  0.00  0.00    +0.055 C 
BRANCH  33  37
ATOM     34  C   LIG    1       27.599 -20.150   5.567  0.00  0.00    +0.120 A 
ATOM     35  C   LIG    1       26.298 -20.658   5.525  0.00  0.00    +0.046 A 
ATOM     36  C   LIG    1       25.237 -20.009   4.849  0.00  0.00    +0.007 A 
ATOM     37  C   LIG    1       25.426 -18.789   4.241  0.00  0.00    -0.046 A 
ATOM     38  C   LIG    1       26.585 -18.189   4.605  0.00  0.00    +0.007 A 
ATOM     39  C   LIG    1       27.748 -18.880   5.050  0.00  0.00    +0.046 A 
BRANCH  34  40
ATOM     40  O   LIG    1       28.696 -20.810   6.097  0.00  0.00    -0.492 OA
BRANCH  40  42
ATOM     41  C   LIG    1       29.156 -18.524   7.062  0.00  0.00    +0.048 C 
ATOM     42  C   LIG    1       29.469 -20.020   7.028  0.00  0.00    +0.226 C 
ENDBRANCH  40  42
ENDBRANCH  34  40
ENDBRANCH  33  37
ENDBRANCH   1  33
TORSDOF 25
ENDMDL
MODEL 8
REMARK VINA RESULT:       4.5      1.420      3.124
REMARK  Name = *****
REMARK                            x       y       z     vdW  Elec       q    Type
REMARK                         _______ _______ _______ _____ _____    ______ ____
ROOT
ATOM      1  C   LIG    1       27.753 -15.070   4.355  0.00  0.00    +0.076 C 
ENDROOT
BRANCH   1   2
ATOM      2  N   LIG    1       28.331 -14.074   3.297  0.00  0.00    -0.278 NA
BRANCH   2   3
ATOM      3  C   LIG    1       27.563 -13.860   2.011  0.00  0.00    +0.206 C 
BRANCH   3   4
ATOM      4  C   LIG    1       26.206 -13.099   2.132  0.00  0.00    +0.319 C 
ATOM      5  O   LIG    1       25.964 -11.995   2.479  0.00  0.00    -0.250 OA
BRANCH   4   6
ATOM      6  O   LIG    1       25.133 -13.902   1.947  0.00  0.00    -0.480 OA
ATOM      7  H   LIG    1       24.770 -13.395   1.166  0.00  0.00    +0.295 HD
ENDBRANCH   4   6
ENDBRANCH   3   4
ENDBRANCH   2   3
BRANCH   2   8
ATOM      8  C   LIG    1       28.997 -12.827   3.750  0.00  0.00    +0.206 C 
BRANCH   8   9
ATOM      9  C   LIG    1       28.569 -12.254   5.106  0.00  0.00    +0.319 C 
ATOM     10  O   LIG    1       29.008 -12.506   6.170  0.00  0.00    -0.250 OA
BRANCH   9  11
ATOM     11  O   LIG    1       27.473 -11.468   5.009  0.00  0.00    -0.480 OA
ATOM     12  H   LIG    1       27.388 -11.429   4.031  0.00  0.00    +0.295 HD
ENDBRANCH   9  11
ENDBRANCH   8   9
ENDBRANCH   2   8
ENDBRANCH   1   2
BRANCH   1  13
ATOM     13  C   LIG    1       26.402 -14.512   5.117  0.00  0.00    +0.104 C 
BRANCH  13  14
ATOM     14  N   LIG    1       25.368 -13.483   4.670  0.00  0.00    -0.290 NA
BRANCH  14  15
ATOM     15  C   LIG    1       24.082 -14.151   4.379  0.00  0.00    +0.100 C 
BRANCH  15  16
ATOM     16  C   LIG    1       24.267 -15.695   4.152  0.00  0.00    +0.101 C 
BRANCH  16  17
ATOM     17  N   LIG    1       23.198 -16.557   4.584  0.00  0.00    -0.281 NA
BRANCH  17  18
ATOM     18  C   LIG    1       21.962 -15.760   4.851  0.00  0.00    +0.206 C 
BRANCH  18  19
ATOM     19  C   LIG    1       21.729 -15.275   6.301  0.00  0.00    +0.319 C 
ATOM     20  O   LIG    1       20.854 -15.721   7.045  0.00  0.00    -0.250 OA
BRANCH  19  21
ATOM     21  O   LIG    1       22.486 -14.277   6.779  0.00  0.00    -0.480 OA
ATOM     22  H   LIG    1       23.147 -14.107   6.073  0.00  0.00    +0.295 HD
ENDBRANCH  19  21
ENDBRANCH  18  19
ENDBRANCH  17  18
BRANCH  17  23
ATOM     23  C   LIG    1       23.040 -17.569   3.525  0.00  0.00    +0.206 C 
BRANCH  23  24
ATOM     24  C   LIG    1       23.119 -19.023   4.001  0.00  0.00    +0.319 C 
ATOM     25  O   LIG    1       23.718 -19.951   3.524  0.00  0.00    -0.250 OA
BRANCH  24  26
ATOM     26  O   LIG    1       22.497 -19.181   5.189  0.00  0.00    -0.480 OA
ATOM     27  H   LIG    1       22.936 -18.497   5.734  0.00  0.00    +0.295 HD
ENDBRANCH  24  26
ENDBRANCH  23  24
ENDBRANCH  17  23
ENDBRANCH  16  17
ENDBRANCH  15  16
ENDBRANCH  14  15
BRANCH  14  28
ATOM     28  C   LIG    1       24.923 -12.334   5.490  0.00  0.00    +0.205 C 
BRANCH  28  29
ATOM     29  C   LIG    1       23.510 -11.728   5.083  0.00  0.00    +0.319 C 
ATOM     30  O   LIG    1       22.638 -11.447   5.899  0.00  0.00    -0.250 OA
BRANCH  29  31
ATOM     31  O   LIG    1       23.245 -11.511   3.771  0.00  0.00    -0.480 OA
ATOM     32  H   LIG    1       22.778 -12.195   3.251  0.00  0.00    +0.295 HD
ENDBRANCH  29  31
ENDBRANCH  28  29
ENDBRANCH  14  28
ENDBRANCH  13  14
ENDBRANCH   1  13
BRANCH   1  33
ATOM     33  C   LIG    1       27.688 -16.500   3.708  0.00  0.00    +0.055 C 
BRANCH  33  37
ATOM     34  C   LIG    1       27.425 -20.293   5.884  0.00  0.00    +0.120 A 
ATOM     35  C   LIG    1       28.613 -19.557   5.879  0.00  0.00    +0.046 A 
ATOM     36  C   LIG    1       28.767 -18.344   5.166  0.00  0.00    +0.007 A 
ATOM     37  C   LIG    1       27.752 -17.853   4.376  0.00  0.00    -0.046 A 
ATOM     38  C   LIG    1       26.777 -18.763   4.141  0.00  0.00    +0.007 A 
ATOM     39  C   LIG    1       26.459 -19.850   5.005  0.00  0.00    +0.046 A 
BRANCH  34  40
ATOM     40  O   LIG    1       27.182 -21.408   6.668  0.00  0.00    -0.492 OA
BRANCH  40  42
ATOM     41  C   LIG    1       24.887 -20.368   6.804  0.00  0.00    +0.048 C 
ATOM     42  C   LIG    1       25.800 -21.567   7.059  0.00  0.00    +0.226 C 
ENDBRANCH  40  42
ENDBRANCH  34  40
ENDBRANCH  33  37
ENDBRANCH   1  33
TORSDOF 25
ENDMDL
