MODEL 1
REMARK VINA RESULT:       2.0      0.000      0.000
REMARK  Name = *****
REMARK                            x       y       z     vdW  Elec       q    Type
REMARK                         _______ _______ _______ _____ _____    ______ ____
ROOT
ATOM      1  C   LIG    1       23.452 -16.956   4.938  0.00  0.00    -0.017 C 
ATOM      2  C   LIG    1       23.182 -18.208   4.515  0.00  0.00    -0.013 C 
ATOM      3  C   LIG    1       24.155 -19.271   4.903  0.00  0.00    -0.003 A 
ATOM      4  C   LIG    1       23.670 -20.503   5.374  0.00  0.00    +0.021 A 
ATOM      5  C   LIG    1       24.574 -21.499   5.768  0.00  0.00    +0.016 A 
ATOM      6  C   LIG    1       25.952 -21.269   5.720  0.00  0.00    +0.013 A 
ATOM      7  C   LIG    1       26.452 -20.042   5.267  0.00  0.00    +0.056 A 
ATOM      8  S   LIG    1       21.919 -20.829   5.575  0.00  0.00    -0.088 S 
ATOM      9  C   LIG    1       21.202 -19.717   4.366  0.00  0.00    +0.021 A 
ATOM     10  C   LIG    1       19.925 -20.026   3.875  0.00  0.00    +0.015 A 
ATOM     11  C   LIG    1       19.350 -19.252   2.868  0.00  0.00    +0.001 A 
ATOM     12  C   LIG    1       20.059 -18.185   2.326  0.00  0.00    +0.001 A 
ATOM     13  C   LIG    1       21.321 -17.854   2.830  0.00  0.00    +0.009 A 
ATOM     14  C   LIG    1       25.545 -19.065   4.826  0.00  0.00    +0.022 A 
ATOM     15  C   LIG    1       21.880 -18.579   3.894  0.00  0.00    -0.004 A 
ENDROOT
BRANCH   7  16
ATOM     16  C   LIG    1       27.929 -19.735   5.284  0.00  0.00    +0.417 C 
ATOM     17  F   LIG    1       28.384 -19.457   6.538  0.00  0.00    -0.166 F 
ATOM     18  F   LIG    1       28.249 -18.652   4.523  0.00  0.00    -0.166 F 
ATOM     19  F   LIG    1       28.705 -20.758   4.827  0.00  0.00    -0.166 F 
ENDBRANCH   7  16
BRANCH   1  20
ATOM     20  C   LIG    1       22.593 -15.717   4.867  0.00  0.00    +0.043 C 
BRANCH  20  21
ATOM     21  C   LIG    1       23.087 -14.666   3.835  0.00  0.00    +0.088 C 
BRANCH  21  25
ATOM     22  N   LIG    1       26.500 -13.582   2.595  0.00  0.00    -0.298 NA
ATOM     23  C   LIG    1       26.232 -14.603   3.624  0.00  0.00    +0.100 C 
ATOM     24  C   LIG    1       25.318 -14.142   4.779  0.00  0.00    +0.100 C 
ATOM     25  N   LIG    1       24.007 -13.625   4.345  0.00  0.00    -0.300 NA
ATOM     26  C   LIG    1       24.243 -12.574   3.327  0.00  0.00    +0.100 C 
ATOM     27  C   LIG    1       25.220 -12.958   2.179  0.00  0.00    +0.100 C 
BRANCH  22  28
ATOM     28  C   LIG    1       27.478 -12.556   3.005  0.00  0.00    +0.112 C 
BRANCH  28  29
ATOM     29  C   LIG    1       28.705 -13.095   3.763  0.00  0.00    +0.171 C 
BRANCH  29  30
ATOM     30  O   LIG    1       29.076 -12.188   4.799  0.00  0.00    -0.394 OA
ATOM     31  H   LIG    1       29.434 -11.397   4.360  0.00  0.00    +0.209 HD
ENDBRANCH  29  30
ENDBRANCH  28  29
ENDBRANCH  22  28
ENDBRANCH  21  25
ENDBRANCH  20  21
ENDBRANCH   1  20
TORSDOF 7
ENDMDL
MODEL 2
REMARK VINA RESULT:       2.9      3.118      5.562
REMARK  Name = *****
REMARK                            x       y       z     vdW  Elec       q    Type
REMARK                         _______ _______ _______ _____ _____    ______ ____
ROOT
ATOM      1  C   LIG    1       26.244 -17.613   3.480  0.00  0.00    -0.017 C 
ATOM      2  C   LIG    1       26.052 -18.512   4.467  0.00  0.00    -0.013 C 
ATOM      3  C   LIG    1       24.733 -19.207   4.494  0.00  0.00    -0.003 A 
ATOM      4  C   LIG    1       24.696 -20.595   4.717  0.00  0.00    +0.021 A 
ATOM      5  C   LIG    1       23.464 -21.264   4.716  0.00  0.00    +0.016 A 
ATOM      6  C   LIG    1       22.276 -20.570   4.471  0.00  0.00    +0.013 A 
ATOM      7  C   LIG    1       22.296 -19.191   4.232  0.00  0.00    +0.056 A 
ATOM      8  S   LIG    1       26.185 -21.572   4.921  0.00  0.00    -0.088 S 
ATOM      9  C   LIG    1       27.333 -20.352   5.558  0.00  0.00    +0.021 A 
ATOM     10  C   LIG    1       28.430 -20.817   6.298  0.00  0.00    +0.015 A 
ATOM     11  C   LIG    1       29.311 -19.916   6.896  0.00  0.00    +0.001 A 
ATOM     12  C   LIG    1       29.083 -18.548   6.783  0.00  0.00    +0.001 A 
ATOM     13  C   LIG    1       28.007 -18.078   6.022  0.00  0.00    +0.009 A 
ATOM     14  C   LIG    1       23.526 -18.515   4.284  0.00  0.00    +0.022 A 
ATOM     15  C   LIG    1       27.157 -18.972   5.354  0.00  0.00    -0.004 A 
ENDROOT
BRANCH   7  16
ATOM     16  C   LIG    1       21.042 -18.430   3.882  0.00  0.00    +0.417 C 
ATOM     17  F   LIG    1       21.014 -18.056   2.572  0.00  0.00    -0.166 F 
ATOM     18  F   LIG    1       20.906 -17.281   4.600  0.00  0.00    -0.166 F 
ATOM     19  F   LIG    1       19.897 -19.139   4.089  0.00  0.00    -0.166 F 
ENDBRANCH   7  16
BRANCH   1  20
ATOM     20  C   LIG    1       27.504 -16.886   3.080  0.00  0.00    +0.043 C 
BRANCH  20  21
ATOM     21  C   LIG    1       27.803 -15.624   3.934  0.00  0.00    +0.088 C 
BRANCH  21  25
ATOM     22  N   LIG    1       24.867 -13.344   4.671  0.00  0.00    -0.298 NA
ATOM     23  C   LIG    1       24.911 -14.402   3.645  0.00  0.00    +0.100 C 
ATOM     24  C   LIG    1       26.109 -14.323   2.676  0.00  0.00    +0.100 C 
ATOM     25  N   LIG    1       27.426 -14.322   3.339  0.00  0.00    -0.300 NA
ATOM     26  C   LIG    1       27.424 -13.247   4.360  0.00  0.00    +0.100 C 
ATOM     27  C   LIG    1       26.197 -13.232   5.317  0.00  0.00    +0.100 C 
BRANCH  22  28
ATOM     28  C   LIG    1       24.415 -12.034   4.164  0.00  0.00    +0.112 C 
BRANCH  28  29
ATOM     29  C   LIG    1       23.844 -12.052   2.734  0.00  0.00    +0.171 C 
BRANCH  29  30
ATOM     30  O   LIG    1       24.766 -11.447   1.832  0.00  0.00    -0.394 OA
ATOM     31  H   LIG    1       24.659 -11.902   0.978  0.00  0.00    +0.209 HD
ENDBRANCH  29  30
ENDBRANCH  28  29
ENDBRANCH  22  28
ENDBRANCH  21  25
ENDBRANCH  20  21
ENDBRANCH   1  20
TORSDOF 7
ENDMDL
MODEL 3
REMARK VINA RESULT:       4.8      3.634      6.548
REMARK  Name = *****
REMARK                            x       y       z     vdW  Elec       q    Type
REMARK                         _______ _______ _______ _____ _____    ______ ____
ROOT
ATOM      1  C   LIG    1       26.700 -17.130   4.100  0.00  0.00    -0.017 C 
ATOM      2  C   LIG    1       25.557 -16.540   3.697  0.00  0.00    -0.013 C 
ATOM      3  C   LIG    1       24.303 -17.335   3.847  0.00  0.00    -0.003 A 
ATOM      4  C   LIG    1       23.155 -16.710   4.363  0.00  0.00    +0.021 A 
ATOM      5  C   LIG    1       21.979 -17.454   4.535  0.00  0.00    +0.016 A 
ATOM      6  C   LIG    1       21.945 -18.816   4.221  0.00  0.00    +0.013 A 
ATOM      7  C   LIG    1       23.084 -19.457   3.719  0.00  0.00    +0.056 A 
ATOM      8  S   LIG    1       23.154 -14.999   4.898  0.00  0.00    -0.088 S 
ATOM      9  C   LIG    1       24.467 -14.306   3.895  0.00  0.00    +0.021 A 
ATOM     10  C   LIG    1       24.443 -12.923   3.659  0.00  0.00    +0.015 A 
ATOM     11  C   LIG    1       25.383 -12.336   2.814  0.00  0.00    +0.001 A 
ATOM     12  C   LIG    1       26.332 -13.128   2.177  0.00  0.00    +0.001 A 
ATOM     13  C   LIG    1       26.379 -14.504   2.430  0.00  0.00    +0.009 A 
ATOM     14  C   LIG    1       24.246 -18.698   3.501  0.00  0.00    +0.022 A 
ATOM     15  C   LIG    1       25.486 -15.096   3.336  0.00  0.00    -0.004 A 
ENDROOT
BRANCH   7  16
ATOM     16  C   LIG    1       23.103 -20.942   3.451  0.00  0.00    +0.417 C 
ATOM     17  F   LIG    1       21.989 -21.566   3.927  0.00  0.00    -0.166 F 
ATOM     18  F   LIG    1       24.160 -21.568   4.037  0.00  0.00    -0.166 F 
ATOM     19  F   LIG    1       23.167 -21.257   2.127  0.00  0.00    -0.166 F 
ENDBRANCH   7  16
BRANCH   1  20
ATOM     20  C   LIG    1       28.082 -16.540   4.243  0.00  0.00    +0.043 C 
BRANCH  20  21
ATOM     21  C   LIG    1       29.145 -17.544   4.768  0.00  0.00    +0.088 C 
BRANCH  21  25
ATOM     22  N   LIG    1       27.233 -19.878   7.060  0.00  0.00    -0.298 NA
ATOM     23  C   LIG    1       28.691 -19.659   7.061  0.00  0.00    +0.100 C 
ATOM     24  C   LIG    1       29.379 -19.832   5.691  0.00  0.00    +0.100 C 
ATOM     25  N   LIG    1       28.823 -18.980   4.623  0.00  0.00    -0.300 NA
ATOM     26  C   LIG    1       27.358 -19.200   4.576  0.00  0.00    +0.100 C 
ATOM     27  C   LIG    1       26.623 -19.114   5.945  0.00  0.00    +0.100 C 
BRANCH  22  28
ATOM     28  C   LIG    1       26.839 -21.299   7.003  0.00  0.00    +0.112 C 
BRANCH  28  29
ATOM     29  C   LIG    1       25.483 -21.572   6.327  0.00  0.00    +0.171 C 
BRANCH  29  30
ATOM     30  O   LIG    1       24.436 -20.935   7.055  0.00  0.00    -0.394 OA
ATOM     31  H   LIG    1       24.481 -21.279   7.964  0.00  0.00    +0.209 HD
ENDBRANCH  29  30
ENDBRANCH  28  29
ENDBRANCH  22  28
ENDBRANCH  21  25
ENDBRANCH  20  21
ENDBRANCH   1  20
TORSDOF 7
ENDMDL
