MODEL 1
REMARK VINA RESULT:      -2.7      0.000      0.000
REMARK  Name = *****
REMARK                            x       y       z     vdW  Elec       q    Type
REMARK                         _______ _______ _______ _____ _____    ______ ____
ROOT
ATOM      1  C   LIG    1       26.206 -14.900   3.673  0.00  0.00    +0.140 C 
ATOM      2  C   LIG    1       24.754 -14.656   4.088  0.00  0.00    +0.239 C 
ATOM      3  O   LIG    1       24.035 -15.527   4.576  0.00  0.00    -0.274 OA
ATOM      4  N   LIG    1       24.302 -13.353   3.946  0.00  0.00    -0.228 N 
ATOM      5  C   LIG    1       23.078 -12.979   4.628  0.00  0.00    +0.143 C 
ATOM      6  C   LIG    1       24.745 -12.531   2.934  0.00  0.00    +0.315 C 
ATOM      7  O   LIG    1       24.230 -11.452   2.649  0.00  0.00    -0.252 OA
ATOM      8  N   LIG    1       25.793 -12.990   2.191  0.00  0.00    -0.239 N 
ATOM      9  H   LIG    1       26.100 -12.385   1.442  0.00  0.00    +0.159 HD
ATOM     10  C   LIG    1       26.590 -14.061   2.471  0.00  0.00    +0.237 C 
ATOM     11  O   LIG    1       27.611 -14.254   1.812  0.00  0.00    -0.274 OA
ENDROOT
BRANCH   1  12
ATOM     12  C   LIG    1       26.476 -16.400   3.296  0.00  0.00    +0.085 C 
ATOM     13  C   LIG    1       25.211 -17.276   3.359  0.00  0.00    +0.023 C 
BRANCH  12  14
ATOM     14  C   LIG    1       27.536 -17.025   4.120  0.00  0.00    -0.098 C 
ATOM     15  C   LIG    1       28.388 -17.591   4.754  0.00  0.00    -0.102 C 
BRANCH  15  16
ATOM     16  C   LIG    1       29.387 -18.370   5.492  0.00  0.00    +0.085 C 
ATOM     17  C   LIG    1       28.756 -19.553   6.205  0.00  0.00    +0.017 C 
ENDBRANCH  15  16
ENDBRANCH  12  14
ENDBRANCH   1  12
BRANCH   1  18
ATOM     18  C   LIG    1       27.148 -14.448   4.840  0.00  0.00    +0.053 C 
BRANCH  18  20
ATOM     19  C   LIG    1       28.840 -12.596   4.491  0.00  0.00    +0.004 C 
ATOM     20  C   LIG    1       27.608 -13.005   4.822  0.00  0.00    -0.033 C 
ENDBRANCH  18  20
ENDBRANCH   1  18
TORSDOF 5
ENDMDL
MODEL 2
REMARK VINA RESULT:      -1.9      2.005      4.314
REMARK  Name = *****
REMARK                            x       y       z     vdW  Elec       q    Type
REMARK                         _______ _______ _______ _____ _____    ______ ____
ROOT
ATOM      1  C   LIG    1       25.490 -13.793   3.805  0.00  0.00    +0.140 C 
ATOM      2  C   LIG    1       26.321 -13.729   5.089  0.00  0.00    +0.239 C 
ATOM      3  O   LIG    1       25.868 -13.998   6.201  0.00  0.00    -0.274 OA
ATOM      4  N   LIG    1       27.660 -13.413   4.919  0.00  0.00    -0.228 N 
ATOM      5  C   LIG    1       28.565 -13.669   6.023  0.00  0.00    +0.143 C 
ATOM      6  C   LIG    1       28.090 -12.562   3.925  0.00  0.00    +0.315 C 
ATOM      7  O   LIG    1       29.227 -12.097   3.863  0.00  0.00    -0.252 OA
ATOM      8  N   LIG    1       27.164 -12.196   2.993  0.00  0.00    -0.239 N 
ATOM      9  H   LIG    1       27.488 -11.560   2.277  0.00  0.00    +0.159 HD
ATOM     10  C   LIG    1       25.929 -12.743   2.805  0.00  0.00    +0.237 C 
ATOM     11  O   LIG    1       25.270 -12.440   1.812  0.00  0.00    -0.274 OA
ENDROOT
BRANCH   1  12
ATOM     12  C   LIG    1       23.960 -13.567   4.072  0.00  0.00    +0.085 C 
ATOM     13  C   LIG    1       23.685 -12.515   5.164  0.00  0.00    +0.023 C 
BRANCH  12  14
ATOM     14  C   LIG    1       23.238 -14.814   4.413  0.00  0.00    -0.098 C 
ATOM     15  C   LIG    1       22.691 -15.861   4.645  0.00  0.00    -0.102 C 
BRANCH  15  16
ATOM     16  C   LIG    1       22.065 -17.173   4.839  0.00  0.00    +0.085 C 
ATOM     17  C   LIG    1       22.912 -18.287   4.250  0.00  0.00    +0.017 C 
ENDBRANCH  15  16
ENDBRANCH  12  14
ENDBRANCH   1  12
BRANCH   1  18
ATOM     18  C   LIG    1       25.729 -15.179   3.117  0.00  0.00    +0.053 C 
BRANCH  18  20
ATOM     19  C   LIG    1       26.861 -17.372   3.687  0.00  0.00    +0.004 C 
ATOM     20  C   LIG    1       26.847 -16.032   3.678  0.00  0.00    -0.033 C 
ENDBRANCH  18  20
ENDBRANCH   1  18
TORSDOF 5
ENDMDL
MODEL 3
REMARK VINA RESULT:      -1.3      1.555      2.687
REMARK  Name = *****
REMARK                            x       y       z     vdW  Elec       q    Type
REMARK                         _______ _______ _______ _____ _____    ______ ____
ROOT
ATOM      1  C   LIG    1       25.956 -14.301   4.013  0.00  0.00    +0.140 C 
ATOM      2  C   LIG    1       24.627 -13.703   4.481  0.00  0.00    +0.239 C 
ATOM      3  O   LIG    1       23.975 -14.156   5.420  0.00  0.00    -0.274 OA
ATOM      4  N   LIG    1       24.223 -12.554   3.818  0.00  0.00    -0.228 N 
ATOM      5  C   LIG    1       23.176 -11.752   4.423  0.00  0.00    +0.143 C 
ATOM      6  C   LIG    1       24.500 -12.342   2.486  0.00  0.00    +0.315 C 
ATOM      7  O   LIG    1       23.993 -11.447   1.812  0.00  0.00    -0.252 OA
ATOM      8  N   LIG    1       25.357 -13.223   1.894  0.00  0.00    -0.239 N 
ATOM      9  H   LIG    1       25.541 -13.066   0.913  0.00  0.00    +0.159 HD
ATOM     10  C   LIG    1       26.138 -14.151   2.516  0.00  0.00    +0.237 C 
ATOM     11  O   LIG    1       26.999 -14.755   1.878  0.00  0.00    -0.274 OA
ENDROOT
BRANCH   1  12
ATOM     12  C   LIG    1       26.071 -15.831   4.343  0.00  0.00    +0.085 C 
ATOM     13  C   LIG    1       27.264 -16.512   3.646  0.00  0.00    +0.023 C 
BRANCH  12  14
ATOM     14  C   LIG    1       24.836 -16.588   4.033  0.00  0.00    -0.098 C 
ATOM     15  C   LIG    1       23.831 -17.223   3.847  0.00  0.00    -0.102 C 
BRANCH  15  16
ATOM     16  C   LIG    1       22.625 -18.045   3.709  0.00  0.00    +0.085 C 
ATOM     17  C   LIG    1       22.542 -19.099   4.799  0.00  0.00    +0.017 C 
ENDBRANCH  15  16
ENDBRANCH  12  14
ENDBRANCH   1  12
BRANCH   1  18
ATOM     18  C   LIG    1       27.129 -13.506   4.679  0.00  0.00    +0.053 C 
BRANCH  18  20
ATOM     19  C   LIG    1       29.256 -12.275   4.064  0.00  0.00    +0.004 C 
ATOM     20  C   LIG    1       28.330 -13.208   3.804  0.00  0.00    -0.033 C 
ENDBRANCH  18  20
ENDBRANCH   1  18
TORSDOF 5
ENDMDL
MODEL 4
REMARK VINA RESULT:      -1.3      2.101      3.863
REMARK  Name = *****
REMARK                            x       y       z     vdW  Elec       q    Type
REMARK                         _______ _______ _______ _____ _____    ______ ____
ROOT
ATOM      1  C   LIG    1       25.404 -13.770   3.654  0.00  0.00    +0.140 C 
ATOM      2  C   LIG    1       26.793 -13.807   3.012  0.00  0.00    +0.239 C 
ATOM      3  O   LIG    1       27.035 -14.394   1.958  0.00  0.00    -0.274 OA
ATOM      4  N   LIG    1       27.771 -13.069   3.661  0.00  0.00    -0.228 N 
ATOM      5  C   LIG    1       28.996 -12.779   2.939  0.00  0.00    +0.143 C 
ATOM      6  C   LIG    1       27.785 -12.916   5.029  0.00  0.00    +0.315 C 
ATOM      7  O   LIG    1       28.732 -12.449   5.659  0.00  0.00    -0.252 OA
ATOM      8  N   LIG    1       26.686 -13.361   5.704  0.00  0.00    -0.239 N 
ATOM      9  H   LIG    1       26.714 -13.257   6.708  0.00  0.00    +0.159 HD
ATOM     10  C   LIG    1       25.490 -13.736   5.166  0.00  0.00    +0.237 C 
ATOM     11  O   LIG    1       24.526 -13.942   5.901  0.00  0.00    -0.274 OA
ENDROOT
BRANCH   1  12
ATOM     12  C   LIG    1       24.534 -15.018   3.267  0.00  0.00    +0.085 C 
ATOM     13  C   LIG    1       23.220 -15.111   4.066  0.00  0.00    +0.023 C 
BRANCH  12  14
ATOM     14  C   LIG    1       25.266 -16.299   3.393  0.00  0.00    -0.098 C 
ATOM     15  C   LIG    1       25.800 -17.372   3.507  0.00  0.00    -0.102 C 
BRANCH  15  16
ATOM     16  C   LIG    1       26.365 -18.713   3.689  0.00  0.00    +0.085 C 
ATOM     17  C   LIG    1       25.315 -19.697   4.175  0.00  0.00    +0.017 C 
ENDBRANCH  15  16
ENDBRANCH  12  14
ENDBRANCH   1  12
BRANCH   1  18
ATOM     18  C   LIG    1       24.685 -12.446   3.226  0.00  0.00    +0.053 C 
BRANCH  18  20
ATOM     19  C   LIG    1       23.292 -11.455   5.095  0.00  0.00    +0.004 C 
ATOM     20  C   LIG    1       24.389 -11.448   4.326  0.00  0.00    -0.033 C 
ENDBRANCH  18  20
ENDBRANCH   1  18
TORSDOF 5
ENDMDL
MODEL 5
REMARK VINA RESULT:      -0.4      1.660      2.932
REMARK  Name = *****
REMARK                            x       y       z     vdW  Elec       q    Type
REMARK                         _______ _______ _______ _____ _____    ______ ____
ROOT
ATOM      1  C   LIG    1       26.202 -14.086   3.733  0.00  0.00    +0.140 C 
ATOM      2  C   LIG    1       25.360 -13.338   4.769  0.00  0.00    +0.239 C 
ATOM      3  O   LIG    1       25.823 -12.494   5.535  0.00  0.00    -0.274 OA
ATOM      4  N   LIG    1       24.002 -13.620   4.752  0.00  0.00    -0.228 N 
ATOM      5  C   LIG    1       23.110 -12.715   5.452  0.00  0.00    +0.143 C 
ATOM      6  C   LIG    1       23.517 -14.866   4.423  0.00  0.00    +0.315 C 
ATOM      7  O   LIG    1       22.350 -15.216   4.589  0.00  0.00    -0.252 OA
ATOM      8  N   LIG    1       24.421 -15.760   3.927  0.00  0.00    -0.239 N 
ATOM      9  H   LIG    1       24.056 -16.675   3.703  0.00  0.00    +0.159 HD
ATOM     10  C   LIG    1       25.694 -15.497   3.515  0.00  0.00    +0.237 C 
ATOM     11  O   LIG    1       26.336 -16.360   2.920  0.00  0.00    -0.274 OA
ENDROOT
BRANCH   1  12
ATOM     12  C   LIG    1       27.709 -14.196   4.156  0.00  0.00    +0.085 C 
ATOM     13  C   LIG    1       28.676 -13.607   3.111  0.00  0.00    +0.023 C 
BRANCH  12  14
ATOM     14  C   LIG    1       28.126 -15.582   4.469  0.00  0.00    -0.098 C 
ATOM     15  C   LIG    1       28.427 -16.730   4.669  0.00  0.00    -0.102 C 
BRANCH  15  16
ATOM     16  C   LIG    1       28.716 -18.156   4.852  0.00  0.00    +0.085 C 
ATOM     17  C   LIG    1       29.473 -18.409   6.144  0.00  0.00    +0.017 C 
ENDBRANCH  15  16
ENDBRANCH  12  14
ENDBRANCH   1  12
BRANCH   1  18
ATOM     18  C   LIG    1       26.070 -13.355   2.354  0.00  0.00    +0.053 C 
BRANCH  18  20
ATOM     19  C   LIG    1       24.487 -11.451   1.821  0.00  0.00    +0.004 C 
ATOM     20  C   LIG    1       24.718 -12.755   2.029  0.00  0.00    -0.033 C 
ENDBRANCH  18  20
ENDBRANCH   1  18
TORSDOF 5
ENDMDL
MODEL 6
REMARK VINA RESULT:      -0.1      4.959      7.743
REMARK  Name = *****
REMARK                            x       y       z     vdW  Elec       q    Type
REMARK                         _______ _______ _______ _____ _____    ______ ____
ROOT
ATOM      1  C   LIG    1       23.834 -20.241   5.086  0.00  0.00    +0.140 C 
ATOM      2  C   LIG    1       25.144 -19.959   4.346  0.00  0.00    +0.239 C 
ATOM      3  O   LIG    1       25.232 -19.917   3.119  0.00  0.00    -0.274 OA
ATOM      4  N   LIG    1       26.237 -19.678   5.151  0.00  0.00    -0.228 N 
ATOM      5  C   LIG    1       27.401 -19.073   4.532  0.00  0.00    +0.143 C 
ATOM      6  C   LIG    1       26.402 -20.257   6.390  0.00  0.00    +0.315 C 
ATOM      7  O   LIG    1       27.441 -20.198   7.044  0.00  0.00    -0.252 OA
ATOM      8  N   LIG    1       25.346 -20.972   6.873  0.00  0.00    -0.239 N 
ATOM      9  H   LIG    1       25.483 -21.404   7.776  0.00  0.00    +0.159 HD
ATOM     10  C   LIG    1       24.076 -20.997   6.377  0.00  0.00    +0.237 C 
ATOM     11  O   LIG    1       23.178 -21.541   7.017  0.00  0.00    -0.274 OA
ENDROOT
BRANCH   1  12
ATOM     12  C   LIG    1       22.835 -21.095   4.228  0.00  0.00    +0.085 C 
ATOM     13  C   LIG    1       23.433 -21.557   2.886  0.00  0.00    +0.023 C 
BRANCH  12  14
ATOM     14  C   LIG    1       21.551 -20.405   3.971  0.00  0.00    -0.098 C 
ATOM     15  C   LIG    1       20.534 -19.818   3.705  0.00  0.00    -0.102 C 
BRANCH  15  16
ATOM     16  C   LIG    1       19.350 -19.047   3.313  0.00  0.00    +0.085 C 
ATOM     17  C   LIG    1       19.729 -17.817   2.507  0.00  0.00    +0.017 C 
ENDBRANCH  15  16
ENDBRANCH  12  14
ENDBRANCH   1  12
BRANCH   1  18
ATOM     18  C   LIG    1       23.181 -18.877   5.494  0.00  0.00    +0.053 C 
BRANCH  18  20
ATOM     19  C   LIG    1       22.357 -16.712   4.471  0.00  0.00    +0.004 C 
ATOM     20  C   LIG    1       23.138 -17.800   4.430  0.00  0.00    -0.033 C 
ENDBRANCH  18  20
ENDBRANCH   1  18
TORSDOF 5
ENDMDL
MODEL 7
REMARK VINA RESULT:       0.2      1.580      3.079
REMARK  Name = *****
REMARK                            x       y       z     vdW  Elec       q    Type
REMARK                         _______ _______ _______ _____ _____    ______ ____
ROOT
ATOM      1  C   LIG    1       26.257 -14.225   4.169  0.00  0.00    +0.140 C 
ATOM      2  C   LIG    1       25.754 -13.533   2.900  0.00  0.00    +0.239 C 
ATOM      3  O   LIG    1       26.327 -13.613   1.814  0.00  0.00    -0.274 OA
ATOM      4  N   LIG    1       24.552 -12.854   3.026  0.00  0.00    -0.228 N 
ATOM      5  C   LIG    1       23.853 -12.476   1.812  0.00  0.00    +0.143 C 
ATOM      6  C   LIG    1       24.187 -12.224   4.195  0.00  0.00    +0.315 C 
ATOM      7  O   LIG    1       23.239 -11.447   4.290  0.00  0.00    -0.252 OA
ATOM      8  N   LIG    1       24.971 -12.461   5.285  0.00  0.00    -0.239 N 
ATOM      9  H   LIG    1       24.702 -11.982   6.134  0.00  0.00    +0.159 HD
ATOM     10  C   LIG    1       25.939 -13.414   5.409  0.00  0.00    +0.237 C 
ATOM     11  O   LIG    1       26.443 -13.637   6.508  0.00  0.00    -0.274 OA
ENDROOT
BRANCH   1  12
ATOM     12  C   LIG    1       27.811 -14.451   4.150  0.00  0.00    +0.085 C 
ATOM     13  C   LIG    1       28.476 -13.970   2.846  0.00  0.00    +0.023 C 
BRANCH  12  14
ATOM     14  C   LIG    1       28.197 -15.859   4.396  0.00  0.00    -0.098 C 
ATOM     15  C   LIG    1       28.446 -17.022   4.581  0.00  0.00    -0.102 C 
BRANCH  15  16
ATOM     16  C   LIG    1       28.648 -18.456   4.813  0.00  0.00    +0.085 C 
ATOM     17  C   LIG    1       29.005 -18.741   6.261  0.00  0.00    +0.017 C 
ENDBRANCH  15  16
ENDBRANCH  12  14
ENDBRANCH   1  12
BRANCH   1  18
ATOM     18  C   LIG    1       25.505 -15.589   4.333  0.00  0.00    +0.053 C 
BRANCH  18  20
ATOM     19  C   LIG    1       23.010 -15.604   4.764  0.00  0.00    +0.004 C 
ATOM     20  C   LIG    1       24.049 -15.616   3.918  0.00  0.00    -0.033 C 
ENDBRANCH  18  20
ENDBRANCH   1  18
TORSDOF 5
ENDMDL
