MODEL 1
REMARK VINA RESULT:      -4.9      0.000      0.000
REMARK  Name = *****
REMARK                            x       y       z     vdW  Elec       q    Type
REMARK                         _______ _______ _______ _____ _____    ______ ____
ROOT
ATOM      1  N   LIG    1       27.495 -20.084   5.406  0.00  0.00    -0.250 N 
ATOM      2  H   LIG    1       27.404 -19.516   4.567  0.00  0.00    +0.169 HD
ATOM      3  C   LIG    1       26.393 -20.708   5.979  0.00  0.00    +0.258 C 
ATOM      4  O   LIG    1       26.486 -21.572   6.847  0.00  0.00    -0.269 OA
ENDROOT
BRANCH   3   5
ATOM      5  C   LIG    1       25.060 -20.305   5.459  0.00  0.00    +0.041 A 
ATOM      6  C   LIG    1       23.883 -20.551   6.166  0.00  0.00    +0.033 A 
ATOM      7  C   LIG    1       22.690 -20.150   5.594  0.00  0.00    +0.111 A 
ATOM      8  N   LIG    1       22.603 -19.537   4.393  0.00  0.00    -0.263 NA
ATOM      9  C   LIG    1       23.756 -19.329   3.723  0.00  0.00    +0.111 A 
ATOM     10  C   LIG    1       24.998 -19.695   4.205  0.00  0.00    +0.033 A 
ENDBRANCH   3   5
BRANCH   1  11
ATOM     11  N   LIG    1       28.790 -20.462   5.817  0.00  0.00    -0.254 NA
ATOM     12  H   LIG    1       29.203 -21.005   5.050  0.00  0.00    +0.141 HD
ATOM     13  H   LIG    1       29.364 -19.608   5.822  0.00  0.00    +0.141 HD
ENDBRANCH   1  11
TORSDOF 2
ENDMDL
MODEL 2
REMARK VINA RESULT:      -4.9      1.540      2.153
REMARK  Name = *****
REMARK                            x       y       z     vdW  Elec       q    Type
REMARK                         _______ _______ _______ _____ _____    ______ ____
ROOT
ATOM      1  N   LIG    1       27.813 -21.370   6.836  0.00  0.00    -0.250 N 
ATOM      2  H   LIG    1       27.269 -21.955   7.465  0.00  0.00    +0.169 HD
ATOM      3  C   LIG    1       27.202 -20.437   6.006  0.00  0.00    +0.258 C 
ATOM      4  O   LIG    1       27.823 -19.566   5.403  0.00  0.00    -0.269 OA
ENDROOT
BRANCH   3   5
ATOM      5  C   LIG    1       25.722 -20.514   5.903  0.00  0.00    +0.041 A 
ATOM      6  C   LIG    1       25.050 -20.286   4.702  0.00  0.00    +0.033 A 
ATOM      7  C   LIG    1       23.669 -20.368   4.709  0.00  0.00    +0.111 A 
ATOM      8  N   LIG    1       22.940 -20.653   5.810  0.00  0.00    -0.263 NA
ATOM      9  C   LIG    1       23.616 -20.849   6.962  0.00  0.00    +0.111 A 
ATOM     10  C   LIG    1       24.993 -20.787   7.061  0.00  0.00    +0.033 A 
ENDBRANCH   3   5
BRANCH   1  11
ATOM     11  N   LIG    1       29.211 -21.315   7.020  0.00  0.00    -0.254 NA
ATOM     12  H   LIG    1       29.519 -20.387   6.710  0.00  0.00    +0.141 HD
ATOM     13  H   LIG    1       29.378 -21.280   8.034  0.00  0.00    +0.141 HD
ENDBRANCH   1  11
TORSDOF 2
ENDMDL
MODEL 3
REMARK VINA RESULT:      -4.8      6.135      6.849
REMARK  Name = *****
REMARK                            x       y       z     vdW  Elec       q    Type
REMARK                         _______ _______ _______ _____ _____    ______ ____
ROOT
ATOM      1  N   LIG    1       25.712 -16.485   3.190  0.00  0.00    -0.250 N 
ATOM      2  H   LIG    1       24.699 -16.555   3.135  0.00  0.00    +0.169 HD
ATOM      3  C   LIG    1       26.342 -15.266   3.413  0.00  0.00    +0.258 C 
ATOM      4  O   LIG    1       27.531 -15.168   3.707  0.00  0.00    -0.269 OA
ENDROOT
BRANCH   3   5
ATOM      5  C   LIG    1       25.488 -14.054   3.317  0.00  0.00    +0.041 A 
ATOM      6  C   LIG    1       25.381 -13.315   2.139  0.00  0.00    +0.033 A 
ATOM      7  C   LIG    1       24.570 -12.194   2.152  0.00  0.00    +0.111 A 
ATOM      8  N   LIG    1       23.883 -11.778   3.238  0.00  0.00    -0.263 NA
ATOM      9  C   LIG    1       24.022 -12.501   4.369  0.00  0.00    +0.111 A 
ATOM     10  C   LIG    1       24.808 -13.634   4.461  0.00  0.00    +0.033 A 
ENDBRANCH   3   5
BRANCH   1  11
ATOM     11  N   LIG    1       26.456 -17.678   3.320  0.00  0.00    -0.254 NA
ATOM     12  H   LIG    1       27.447 -17.422   3.259  0.00  0.00    +0.141 HD
ATOM     13  H   LIG    1       26.363 -17.982   4.299  0.00  0.00    +0.141 HD
ENDBRANCH   1  11
TORSDOF 2
ENDMDL
MODEL 4
REMARK VINA RESULT:      -4.8      6.148      6.707
REMARK  Name = *****
REMARK                            x       y       z     vdW  Elec       q    Type
REMARK                         _______ _______ _______ _____ _____    ______ ____
ROOT
ATOM      1  N   LIG    1       25.705 -16.466   3.210  0.00  0.00    -0.250 N 
ATOM      2  H   LIG    1       24.691 -16.534   3.199  0.00  0.00    +0.169 HD
ATOM      3  C   LIG    1       26.347 -15.251   3.417  0.00  0.00    +0.258 C 
ATOM      4  O   LIG    1       27.547 -15.158   3.659  0.00  0.00    -0.269 OA
ENDROOT
BRANCH   3   5
ATOM      5  C   LIG    1       25.492 -14.036   3.371  0.00  0.00    +0.041 A 
ATOM      6  C   LIG    1       24.764 -13.600   4.478  0.00  0.00    +0.033 A 
ATOM      7  C   LIG    1       23.988 -12.465   4.334  0.00  0.00    +0.111 A 
ATOM      8  N   LIG    1       23.895 -11.760   3.185  0.00  0.00    -0.263 NA
ATOM      9  C   LIG    1       24.595 -12.217   2.125  0.00  0.00    +0.111 A 
ATOM     10  C   LIG    1       25.397 -13.342   2.165  0.00  0.00    +0.033 A 
ENDBRANCH   3   5
BRANCH   1  11
ATOM     11  N   LIG    1       26.451 -17.661   3.295  0.00  0.00    -0.254 NA
ATOM     12  H   LIG    1       27.440 -17.406   3.200  0.00  0.00    +0.141 HD
ATOM     13  H   LIG    1       26.395 -17.979   4.272  0.00  0.00    +0.141 HD
ENDBRANCH   1  11
TORSDOF 2
ENDMDL
MODEL 5
REMARK VINA RESULT:      -4.8      1.543      1.604
REMARK  Name = *****
REMARK                            x       y       z     vdW  Elec       q    Type
REMARK                         _______ _______ _______ _____ _____    ______ ____
ROOT
ATOM      1  N   LIG    1       27.743 -21.290   6.899  0.00  0.00    -0.250 N 
ATOM      2  H   LIG    1       27.219 -21.821   7.590  0.00  0.00    +0.169 HD
ATOM      3  C   LIG    1       27.104 -20.446   6.000  0.00  0.00    +0.258 C 
ATOM      4  O   LIG    1       27.700 -19.626   5.307  0.00  0.00    -0.269 OA
ENDROOT
BRANCH   3   5
ATOM      5  C   LIG    1       25.623 -20.551   5.933  0.00  0.00    +0.041 A 
ATOM      6  C   LIG    1       24.847 -20.814   7.062  0.00  0.00    +0.033 A 
ATOM      7  C   LIG    1       23.477 -20.906   6.897  0.00  0.00    +0.111 A 
ATOM      8  N   LIG    1       22.853 -20.756   5.708  0.00  0.00    -0.263 NA
ATOM      9  C   LIG    1       23.630 -20.522   4.630  0.00  0.00    +0.111 A 
ATOM     10  C   LIG    1       25.007 -20.415   4.688  0.00  0.00    +0.033 A 
ENDBRANCH   3   5
BRANCH   1  11
ATOM     11  N   LIG    1       29.144 -21.200   7.050  0.00  0.00    -0.254 NA
ATOM     12  H   LIG    1       29.515 -22.154   6.980  0.00  0.00    +0.141 HD
ATOM     13  H   LIG    1       29.508 -20.754   6.198  0.00  0.00    +0.141 HD
ENDBRANCH   1  11
TORSDOF 2
ENDMDL
MODEL 6
REMARK VINA RESULT:      -4.7      1.806      2.530
REMARK  Name = *****
REMARK                            x       y       z     vdW  Elec       q    Type
REMARK                         _______ _______ _______ _____ _____    ______ ____
ROOT
ATOM      1  N   LIG    1       28.159 -18.766   5.187  0.00  0.00    -0.250 N 
ATOM      2  H   LIG    1       27.467 -18.386   4.546  0.00  0.00    +0.169 HD
ATOM      3  C   LIG    1       27.915 -19.929   5.908  0.00  0.00    +0.258 C 
ATOM      4  O   LIG    1       28.791 -20.541   6.513  0.00  0.00    -0.269 OA
ENDROOT
BRANCH   3   5
ATOM      5  C   LIG    1       26.519 -20.440   5.885  0.00  0.00    +0.041 A 
ATOM      6  C   LIG    1       25.722 -20.367   4.742  0.00  0.00    +0.033 A 
ATOM      7  C   LIG    1       24.432 -20.859   4.823  0.00  0.00    +0.111 A 
ATOM      8  N   LIG    1       23.904 -21.400   5.942  0.00  0.00    -0.263 NA
ATOM      9  C   LIG    1       24.692 -21.439   7.038  0.00  0.00    +0.111 A 
ATOM     10  C   LIG    1       25.993 -20.973   7.062  0.00  0.00    +0.033 A 
ENDBRANCH   3   5
BRANCH   1  11
ATOM     11  N   LIG    1       29.475 -18.260   5.123  0.00  0.00    -0.254 NA
ATOM     12  H   LIG    1       30.098 -19.061   4.969  0.00  0.00    +0.141 HD
ATOM     13  H   LIG    1       29.553 -17.742   4.239  0.00  0.00    +0.141 HD
ENDBRANCH   1  11
TORSDOF 2
ENDMDL
MODEL 7
REMARK VINA RESULT:      -4.5      5.360      6.037
REMARK  Name = *****
REMARK                            x       y       z     vdW  Elec       q    Type
REMARK                         _______ _______ _______ _____ _____    ______ ____
ROOT
ATOM      1  N   LIG    1       27.732 -16.392   4.232  0.00  0.00    -0.250 N 
ATOM      2  H   LIG    1       28.241 -15.532   4.420  0.00  0.00    +0.169 HD
ATOM      3  C   LIG    1       26.534 -16.382   3.528  0.00  0.00    +0.258 C 
ATOM      4  O   LIG    1       26.005 -17.400   3.087  0.00  0.00    -0.269 OA
ENDROOT
BRANCH   3   5
ATOM      5  C   LIG    1       25.917 -15.051   3.290  0.00  0.00    +0.041 A 
ATOM      6  C   LIG    1       26.511 -14.097   2.463  0.00  0.00    +0.033 A 
ATOM      7  C   LIG    1       25.867 -12.882   2.313  0.00  0.00    +0.111 A 
ATOM      8  N   LIG    1       24.702 -12.570   2.922  0.00  0.00    -0.263 NA
ATOM      9  C   LIG    1       24.161 -13.506   3.731  0.00  0.00    +0.111 A 
ATOM     10  C   LIG    1       24.726 -14.748   3.950  0.00  0.00    +0.033 A 
ENDBRANCH   3   5
BRANCH   1  11
ATOM     11  N   LIG    1       28.396 -17.619   4.443  0.00  0.00    -0.254 NA
ATOM     12  H   LIG    1       29.268 -17.586   3.902  0.00  0.00    +0.141 HD
ATOM     13  H   LIG    1       28.734 -17.613   5.414  0.00  0.00    +0.141 HD
ENDBRANCH   1  11
TORSDOF 2
ENDMDL
MODEL 8
REMARK VINA RESULT:      -4.4      1.652      4.042
REMARK  Name = *****
REMARK                            x       y       z     vdW  Elec       q    Type
REMARK                         _______ _______ _______ _____ _____    ______ ____
ROOT
ATOM      1  N   LIG    1       22.942 -21.188   4.781  0.00  0.00    -0.250 N 
ATOM      2  H   LIG    1       23.341 -20.746   3.957  0.00  0.00    +0.169 HD
ATOM      3  C   LIG    1       23.620 -21.201   5.994  0.00  0.00    +0.258 C 
ATOM      4  O   LIG    1       23.091 -21.520   7.056  0.00  0.00    -0.269 OA
ENDROOT
BRANCH   3   5
ATOM      5  C   LIG    1       25.041 -20.767   5.962  0.00  0.00    +0.041 A 
ATOM      6  C   LIG    1       25.888 -20.924   7.059  0.00  0.00    +0.033 A 
ATOM      7  C   LIG    1       27.191 -20.478   6.937  0.00  0.00    +0.111 A 
ATOM      8  N   LIG    1       27.685 -19.900   5.821  0.00  0.00    -0.263 NA
ATOM      9  C   LIG    1       26.837 -19.743   4.782  0.00  0.00    +0.111 A 
ATOM     10  C   LIG    1       25.517 -20.152   4.804  0.00  0.00    +0.033 A 
ENDBRANCH   3   5
BRANCH   1  11
ATOM     11  N   LIG    1       21.575 -21.536   4.753  0.00  0.00    -0.254 NA
ATOM     12  H   LIG    1       21.062 -20.780   5.222  0.00  0.00    +0.141 HD
ATOM     13  H   LIG    1       21.263 -21.446   3.777  0.00  0.00    +0.141 HD
ENDBRANCH   1  11
TORSDOF 2
ENDMDL
MODEL 9
REMARK VINA RESULT:      -4.2      1.925      4.208
REMARK  Name = *****
REMARK                            x       y       z     vdW  Elec       q    Type
REMARK                         _______ _______ _______ _____ _____    ______ ____
ROOT
ATOM      1  N   LIG    1       22.542 -18.843   4.329  0.00  0.00    -0.250 N 
ATOM      2  H   LIG    1       23.196 -18.072   4.439  0.00  0.00    +0.169 HD
ATOM      3  C   LIG    1       22.803 -20.096   4.872  0.00  0.00    +0.258 C 
ATOM      4  O   LIG    1       21.956 -20.980   4.957  0.00  0.00    -0.269 OA
ENDROOT
BRANCH   3   5
ATOM      5  C   LIG    1       24.176 -20.316   5.396  0.00  0.00    +0.041 A 
ATOM      6  C   LIG    1       24.409 -20.862   6.658  0.00  0.00    +0.033 A 
ATOM      7  C   LIG    1       25.723 -21.017   7.062  0.00  0.00    +0.111 A 
ATOM      8  N   LIG    1       26.786 -20.670   6.305  0.00  0.00    -0.263 NA
ATOM      9  C   LIG    1       26.531 -20.126   5.096  0.00  0.00    +0.111 A 
ATOM     10  C   LIG    1       25.255 -19.926   4.602  0.00  0.00    +0.033 A 
ENDBRANCH   3   5
BRANCH   1  11
ATOM     11  N   LIG    1       21.242 -18.552   3.865  0.00  0.00    -0.254 NA
ATOM     12  H   LIG    1       21.331 -17.802   3.171  0.00  0.00    +0.141 HD
ATOM     13  H   LIG    1       20.942 -19.352   3.293  0.00  0.00    +0.141 HD
ENDBRANCH   1  11
TORSDOF 2
ENDMDL
