MODEL 1
REMARK VINA RESULT:      -9.1      0.000      0.000
REMARK  Name = *****
REMARK                            x       y       z     vdW  Elec       q    Type
REMARK                         _______ _______ _______ _____ _____    ______ ____
ROOT
ATOM      1  C   LIG    1       25.919 -25.191   6.161  0.00  0.00    +0.178 C 
ATOM      2  C   LIG    1       26.643 -26.529   5.989  0.00  0.00    +0.151 C 
ATOM      3  C   LIG    1       26.106 -27.494   7.031  0.00  0.00    +0.095 C 
ATOM      4  C   LIG    1       24.574 -27.495   7.034  0.00  0.00    +0.253 C 
ATOM      5  O   LIG    1       24.081 -26.865   5.840  0.00  0.00    -0.346 OA
ATOM      6  C   LIG    1       24.452 -25.463   5.718  0.00  0.00    +0.150 C 
ATOM      7  C   LIG    1       24.305 -25.117   4.232  0.00  0.00    +0.040 C 
ENDROOT
BRANCH   2   8
ATOM      8  O   LIG    1       28.057 -26.394   6.091  0.00  0.00    -0.389 OA
ATOM      9  H   LIG    1       28.445 -26.972   5.410  0.00  0.00    +0.210 HD
ENDBRANCH   2   8
BRANCH   1  10
ATOM     10  O   LIG    1       25.915 -24.740   7.537  0.00  0.00    -0.343 OA
BRANCH  10  14
ATOM     11  C   LIG    1       26.115 -20.537   7.455  0.00  0.00    +0.178 C 
ATOM     12  C   LIG    1       26.748 -21.357   6.315  0.00  0.00    +0.151 C 
ATOM     13  C   LIG    1       27.157 -22.735   6.819  0.00  0.00    +0.095 C 
ATOM     14  C   LIG    1       26.086 -23.327   7.740  0.00  0.00    +0.254 C 
ATOM     15  O   LIG    1       24.828 -22.681   7.491  0.00  0.00    -0.346 OA
ATOM     16  C   LIG    1       24.820 -21.287   7.868  0.00  0.00    +0.150 C 
ATOM     17  C   LIG    1       23.610 -20.649   7.191  0.00  0.00    +0.040 C 
BRANCH  12  18
ATOM     18  O   LIG    1       27.861 -20.697   5.717  0.00  0.00    -0.389 OA
ATOM     19  H   LIG    1       27.837 -20.899   4.765  0.00  0.00    +0.210 HD
ENDBRANCH  12  18
BRANCH  11  20
ATOM     20  O   LIG    1       27.074 -20.414   8.540  0.00  0.00    -0.343 OA
BRANCH  20  26
ATOM     21  C   LIG    1       30.154 -18.661   8.985  0.00  0.00    +0.212 C 
ATOM     22  C   LIG    1       31.249 -19.671   8.586  0.00  0.00    +0.184 C 
ATOM     23  C   LIG    1       30.642 -21.065   8.334  0.00  0.00    +0.150 C 
ATOM     24  C   LIG    1       31.455 -22.182   8.973  0.00  0.00    +0.040 C 
ATOM     25  O   LIG    1       29.306 -21.139   8.847  0.00  0.00    -0.346 OA
ATOM     26  C   LIG    1       28.435 -20.299   8.096  0.00  0.00    +0.255 C 
ATOM     27  C   LIG    1       28.892 -18.842   8.141  0.00  0.00    +0.108 C 
BRANCH  22  28
ATOM     28  O   LIG    1       31.914 -19.259   7.382  0.00  0.00    -0.386 OA
ATOM     29  H   LIG    1       31.732 -18.308   7.277  0.00  0.00    +0.210 HD
ENDBRANCH  22  28
BRANCH  21  30
ATOM     30  O   LIG    1       30.627 -17.310   8.780  0.00  0.00    -0.459 OA
BRANCH  30  32
ATOM     31  C   LIG    1       32.401 -16.143   9.800  0.00  0.00    +0.136 C 
ATOM     32  C   LIG    1       31.002 -16.665   9.922  0.00  0.00    +0.304 C 
ATOM     33  O   LIG    1       30.282 -16.471  10.891  0.00  0.00    -0.251 OA
ENDBRANCH  30  32
ENDBRANCH  21  30
ENDBRANCH  20  26
ENDBRANCH  11  20
ENDBRANCH  10  14
ENDBRANCH   1  10
BRANCH   4  34
ATOM     34  O   LIG    1       24.098 -28.852   7.104  0.00  0.00    -0.348 OA
BRANCH  34  35
ATOM     35  C   LIG    1       25.103 -29.867   7.299  0.00  0.00    +0.122 C 
ATOM     36  C   LIG    1       24.442 -31.262   7.248  0.00  0.00    +0.035 C 
ATOM     37  C   LIG    1       23.452 -31.457   8.402  0.00  0.00    -0.002 C 
ATOM     38  C   LIG    1       22.790 -32.863   8.436  0.00  0.00    +0.004 C 
ATOM     39  C   LIG    1       21.882 -33.076   9.685  0.00  0.00    +0.007 C 
ATOM     40  C   LIG    1       21.483 -31.717  10.262  0.00  0.00    +0.025 C 
ATOM     41  C   LIG    1       20.322 -31.556  11.261  0.00  0.00    +0.075 C 
ATOM     42  C   LIG    1       20.688 -31.712  12.758  0.00  0.00    +0.004 C 
ATOM     43  C   LIG    1       21.091 -33.171  13.134  0.00  0.00    +0.014 C 
ATOM     44  C   LIG    1       19.306 -31.405  13.459  0.00  0.00    +0.027 C 
ATOM     45  C   LIG    1       18.301 -32.109  12.480  0.00  0.00    +0.011 C 
ATOM     46  C   LIG    1       21.884 -30.827  13.128  0.00  0.00    +0.010 C 
ATOM     47  C   LIG    1       23.092 -31.064  12.234  0.00  0.00    +0.005 C 
ATOM     48  C   LIG    1       19.041 -32.376  11.138  0.00  0.00    +0.036 C 
ATOM     49  C   LIG    1       22.750 -30.905  10.738  0.00  0.00    +0.001 C 
ATOM     50  C   LIG    1       24.008 -31.096   9.810  0.00  0.00    -0.026 C 
ATOM     51  C   LIG    1       24.982 -32.191  10.324  0.00  0.00    +0.012 C 
ATOM     52  C   LIG    1       24.817 -29.768   9.781  0.00  0.00    +0.009 C 
ATOM     53  C   LIG    1       25.826 -29.718   8.636  0.00  0.00    +0.032 C 
BRANCH  44  54
ATOM     54  C   LIG    1       18.904 -29.969  13.799  0.00  0.00    -0.022 C 
ATOM     55  C   LIG    1       17.481 -29.543  13.934  0.00  0.00    +0.264 C 
ATOM     56  O   LIG    1       17.515 -28.174  14.338  0.00  0.00    -0.457 OA
ATOM     57  C   LIG    1       18.821 -27.763  14.379  0.00  0.00    +0.332 C 
ATOM     58  O   LIG    1       19.224 -26.654  14.675  0.00  0.00    -0.246 OA
ATOM     59  C   LIG    1       19.647 -28.875  14.033  0.00  0.00    +0.094 C 
ENDBRANCH  44  54
BRANCH  41  60
ATOM     60  O   LIG    1       19.889 -30.188  11.035  0.00  0.00    -0.388 OA
ATOM     61  H   LIG    1       19.016 -30.216  10.603  0.00  0.00    +0.210 HD
ENDBRANCH  41  60
ENDBRANCH  34  35
ENDBRANCH   4  34
TORSDOF 13
ENDMDL
MODEL 2
REMARK VINA RESULT:      -8.5      1.576      2.432
REMARK  Name = *****
REMARK                            x       y       z     vdW  Elec       q    Type
REMARK                         _______ _______ _______ _____ _____    ______ ____
ROOT
ATOM      1  C   LIG    1       26.011 -26.596   6.204  0.00  0.00    +0.178 C 
ATOM      2  C   LIG    1       26.065 -27.662   7.301  0.00  0.00    +0.151 C 
ATOM      3  C   LIG    1       24.685 -28.285   7.423  0.00  0.00    +0.095 C 
ATOM      4  C   LIG    1       24.147 -28.688   6.047  0.00  0.00    +0.253 C 
ATOM      5  O   LIG    1       25.214 -28.692   5.084  0.00  0.00    -0.346 OA
ATOM      6  C   LIG    1       25.824 -27.387   4.877  0.00  0.00    +0.150 C 
ATOM      7  C   LIG    1       27.199 -27.659   4.258  0.00  0.00    +0.040 C 
ENDROOT
BRANCH   2   8
ATOM      8  O   LIG    1       26.503 -27.133   8.548  0.00  0.00    -0.389 OA
ATOM      9  H   LIG    1       27.147 -26.431   8.345  0.00  0.00    +0.210 HD
ENDBRANCH   2   8
BRANCH   1  10
ATOM     10  O   LIG    1       24.892 -25.692   6.370  0.00  0.00    -0.343 OA
BRANCH  10  14
ATOM     11  C   LIG    1       25.026 -21.497   6.058  0.00  0.00    +0.178 C 
ATOM     12  C   LIG    1       24.210 -22.316   5.039  0.00  0.00    +0.151 C 
ATOM     13  C   LIG    1       24.795 -23.716   4.898  0.00  0.00    +0.095 C 
ATOM     14  C   LIG    1       25.190 -24.290   6.263  0.00  0.00    +0.254 C 
ATOM     15  O   LIG    1       24.476 -23.598   7.299  0.00  0.00    -0.346 OA
ATOM     16  C   LIG    1       24.861 -22.211   7.427  0.00  0.00    +0.150 C 
ATOM     17  C   LIG    1       23.775 -21.521   8.247  0.00  0.00    +0.040 C 
BRANCH  12  18
ATOM     18  O   LIG    1       24.131 -21.682   3.764  0.00  0.00    -0.389 OA
ATOM     19  H   LIG    1       23.186 -21.614   3.536  0.00  0.00    +0.210 HD
ENDBRANCH  12  18
BRANCH  11  20
ATOM     20  O   LIG    1       26.407 -21.426   5.614  0.00  0.00    -0.343 OA
BRANCH  20  26
ATOM     21  C   LIG    1       29.331 -20.854   7.585  0.00  0.00    +0.212 C 
ATOM     22  C   LIG    1       29.739 -19.399   7.279  0.00  0.00    +0.184 C 
ATOM     23  C   LIG    1       28.878 -18.816   6.141  0.00  0.00    +0.150 C 
ATOM     24  C   LIG    1       29.703 -18.051   5.116  0.00  0.00    +0.040 C 
ATOM     25  O   LIG    1       28.171 -19.857   5.454  0.00  0.00    -0.346 OA
ATOM     26  C   LIG    1       27.183 -20.434   6.303  0.00  0.00    +0.255 C 
ATOM     27  C   LIG    1       27.811 -21.025   7.564  0.00  0.00    +0.108 C 
BRANCH  22  28
ATOM     28  O   LIG    1       29.562 -18.562   8.433  0.00  0.00    -0.386 OA
ATOM     29  H   LIG    1       29.705 -19.131   9.211  0.00  0.00    +0.210 HD
ENDBRANCH  22  28
BRANCH  21  30
ATOM     30  O   LIG    1       29.795 -21.234   8.900  0.00  0.00    -0.459 OA
BRANCH  30  32
ATOM     31  C   LIG    1       31.650 -22.683   8.800  0.00  0.00    +0.136 C 
ATOM     32  C   LIG    1       31.152 -21.287   9.024  0.00  0.00    +0.304 C 
ATOM     33  O   LIG    1       31.881 -20.325   9.220  0.00  0.00    -0.251 OA
ENDBRANCH  30  32
ENDBRANCH  21  30
ENDBRANCH  20  26
ENDBRANCH  11  20
ENDBRANCH  10  14
ENDBRANCH   1  10
BRANCH   4  34
ATOM     34  O   LIG    1       23.558 -30.000   6.131  0.00  0.00    -0.348 OA
BRANCH  34  35
ATOM     35  C   LIG    1       24.481 -31.104   6.218  0.00  0.00    +0.122 C 
ATOM     36  C   LIG    1       23.693 -32.422   6.381  0.00  0.00    +0.035 C 
ATOM     37  C   LIG    1       22.913 -32.450   7.701  0.00  0.00    -0.002 C 
ATOM     38  C   LIG    1       22.138 -33.775   7.949  0.00  0.00    +0.004 C 
ATOM     39  C   LIG    1       21.454 -33.825   9.348  0.00  0.00    +0.007 C 
ATOM     40  C   LIG    1       21.297 -32.404   9.889  0.00  0.00    +0.025 C 
ATOM     41  C   LIG    1       20.356 -32.068  11.061  0.00  0.00    +0.075 C 
ATOM     42  C   LIG    1       20.969 -32.183  12.479  0.00  0.00    +0.004 C 
ATOM     43  C   LIG    1       21.293 -33.655  12.881  0.00  0.00    +0.014 C 
ATOM     44  C   LIG    1       19.772 -31.695  13.387  0.00  0.00    +0.027 C 
ATOM     45  C   LIG    1       18.544 -32.339  12.650  0.00  0.00    +0.011 C 
ATOM     46  C   LIG    1       22.291 -31.411  12.571  0.00  0.00    +0.010 C 
ATOM     47  C   LIG    1       23.290 -31.821  11.500  0.00  0.00    +0.005 C 
ATOM     48  C   LIG    1       19.001 -32.754  11.222  0.00  0.00    +0.036 C 
ATOM     49  C   LIG    1       22.700 -31.706  10.079  0.00  0.00    +0.001 C 
ATOM     50  C   LIG    1       23.746 -32.077   8.961  0.00  0.00    -0.026 C 
ATOM     51  C   LIG    1       24.689 -33.240   9.374  0.00  0.00    +0.012 C 
ATOM     52  C   LIG    1       24.658 -30.846   8.699  0.00  0.00    +0.009 C 
ATOM     53  C   LIG    1       25.444 -30.962   7.394  0.00  0.00    +0.032 C 
BRANCH  44  54
ATOM     54  C   LIG    1       19.576 -30.209  13.690  0.00  0.00    -0.022 C 
ATOM     55  C   LIG    1       18.248 -29.629  14.041  0.00  0.00    +0.264 C 
ATOM     56  O   LIG    1       18.483 -28.252  14.335  0.00  0.00    -0.457 OA
ATOM     57  C   LIG    1       19.808 -27.980  14.118  0.00  0.00    +0.332 C 
ATOM     58  O   LIG    1       20.361 -26.905  14.260  0.00  0.00    -0.246 OA
ATOM     59  C   LIG    1       20.448 -29.189  13.712  0.00  0.00    +0.094 C 
ENDBRANCH  44  54
BRANCH  41  60
ATOM     60  O   LIG    1       20.020 -30.676  10.819  0.00  0.00    -0.388 OA
ATOM     61  H   LIG    1       20.852 -30.181  10.706  0.00  0.00    +0.210 HD
ENDBRANCH  41  60
ENDBRANCH  34  35
ENDBRANCH   4  34
TORSDOF 13
ENDMDL
MODEL 3
REMARK VINA RESULT:      -8.4      1.891      2.777
REMARK  Name = *****
REMARK                            x       y       z     vdW  Elec       q    Type
REMARK                         _______ _______ _______ _____ _____    ______ ____
ROOT
ATOM      1  C   LIG    1       25.116 -26.521   5.726  0.00  0.00    +0.178 C 
ATOM      2  C   LIG    1       26.375 -27.269   6.172  0.00  0.00    +0.151 C 
ATOM      3  C   LIG    1       26.142 -27.787   7.581  0.00  0.00    +0.095 C 
ATOM      4  C   LIG    1       24.795 -28.511   7.679  0.00  0.00    +0.253 C 
ATOM      5  O   LIG    1       24.298 -28.803   6.361  0.00  0.00    -0.346 OA
ATOM      6  C   LIG    1       24.027 -27.620   5.559  0.00  0.00    +0.150 C 
ATOM      7  C   LIG    1       24.011 -28.094   4.102  0.00  0.00    +0.040 C 
ENDROOT
BRANCH   2   8
ATOM      8  O   LIG    1       27.540 -26.453   6.109  0.00  0.00    -0.389 OA
ATOM      9  H   LIG    1       28.277 -27.034   5.852  0.00  0.00    +0.210 HD
ENDBRANCH   2   8
BRANCH   1  10
ATOM     10  O   LIG    1       24.666 -25.563   6.714  0.00  0.00    -0.343 OA
BRANCH  10  14
ATOM     11  C   LIG    1       25.030 -21.437   5.967  0.00  0.00    +0.178 C 
ATOM     12  C   LIG    1       24.268 -22.332   4.971  0.00  0.00    +0.151 C 
ATOM     13  C   LIG    1       24.794 -23.761   5.036  0.00  0.00    +0.095 C 
ATOM     14  C   LIG    1       25.040 -24.194   6.485  0.00  0.00    +0.254 C 
ATOM     15  O   LIG    1       24.273 -23.364   7.371  0.00  0.00    -0.346 OA
ATOM     16  C   LIG    1       24.712 -21.987   7.384  0.00  0.00    +0.150 C 
ATOM     17  C   LIG    1       23.594 -21.169   8.022  0.00  0.00    +0.040 C 
BRANCH  12  18
ATOM     18  O   LIG    1       24.331 -21.842   3.634  0.00  0.00    -0.389 OA
ATOM     19  H   LIG    1       24.356 -20.869   3.685  0.00  0.00    +0.210 HD
ENDBRANCH  12  18
BRANCH  11  20
ATOM     20  O   LIG    1       26.447 -21.470   5.647  0.00  0.00    -0.343 OA
BRANCH  20  26
ATOM     21  C   LIG    1       29.368 -20.852   7.608  0.00  0.00    +0.212 C 
ATOM     22  C   LIG    1       29.761 -19.395   7.289  0.00  0.00    +0.184 C 
ATOM     23  C   LIG    1       28.893 -18.830   6.147  0.00  0.00    +0.150 C 
ATOM     24  C   LIG    1       29.708 -18.066   5.115  0.00  0.00    +0.040 C 
ATOM     25  O   LIG    1       28.194 -19.884   5.471  0.00  0.00    -0.346 OA
ATOM     26  C   LIG    1       27.214 -20.464   6.326  0.00  0.00    +0.255 C 
ATOM     27  C   LIG    1       27.850 -21.038   7.591  0.00  0.00    +0.108 C 
BRANCH  22  28
ATOM     28  O   LIG    1       29.577 -18.550   8.436  0.00  0.00    -0.386 OA
ATOM     29  H   LIG    1       28.624 -18.562   8.638  0.00  0.00    +0.210 HD
ENDBRANCH  22  28
BRANCH  21  30
ATOM     30  O   LIG    1       29.839 -21.216   8.926  0.00  0.00    -0.459 OA
BRANCH  30  32
ATOM     31  C   LIG    1       31.667 -22.695   8.792  0.00  0.00    +0.136 C 
ATOM     32  C   LIG    1       31.195 -21.294   9.037  0.00  0.00    +0.304 C 
ATOM     33  O   LIG    1       31.943 -20.347   9.237  0.00  0.00    -0.251 OA
ENDBRANCH  30  32
ENDBRANCH  21  30
ENDBRANCH  20  26
ENDBRANCH  11  20
ENDBRANCH  10  14
ENDBRANCH   1  10
BRANCH   4  34
ATOM     34  O   LIG    1       24.963 -29.733   8.421  0.00  0.00    -0.348 OA
BRANCH  34  35
ATOM     35  C   LIG    1       26.200 -29.867   9.151  0.00  0.00    +0.122 C 
ATOM     36  C   LIG    1       26.319 -31.304   9.702  0.00  0.00    +0.035 C 
ATOM     37  C   LIG    1       25.218 -31.607  10.726  0.00  0.00    -0.002 C 
ATOM     38  C   LIG    1       25.314 -33.024  11.357  0.00  0.00    +0.004 C 
ATOM     39  C   LIG    1       24.259 -33.261  12.479  0.00  0.00    +0.007 C 
ATOM     40  C   LIG    1       23.112 -32.263  12.319  0.00  0.00    +0.025 C 
ATOM     41  C   LIG    1       21.756 -32.447  13.025  0.00  0.00    +0.075 C 
ATOM     42  C   LIG    1       21.643 -31.841  14.446  0.00  0.00    +0.004 C 
ATOM     43  C   LIG    1       22.530 -32.583  15.493  0.00  0.00    +0.014 C 
ATOM     44  C   LIG    1       20.134 -32.142  14.804  0.00  0.00    +0.027 C 
ATOM     45  C   LIG    1       19.951 -33.574  14.186  0.00  0.00    +0.011 C 
ATOM     46  C   LIG    1       22.097 -30.377  14.459  0.00  0.00    +0.010 C 
ATOM     47  C   LIG    1       23.493 -30.187  13.885  0.00  0.00    +0.005 C 
ATOM     48  C   LIG    1       21.121 -33.824  13.192  0.00  0.00    +0.036 C 
ATOM     49  C   LIG    1       23.624 -30.777  12.465  0.00  0.00    +0.001 C 
ATOM     50  C   LIG    1       25.051 -30.537  11.843  0.00  0.00    -0.026 C 
ATOM     51  C   LIG    1       26.195 -30.636  12.889  0.00  0.00    +0.012 C 
ATOM     52  C   LIG    1       25.111 -29.094  11.265  0.00  0.00    +0.009 C 
ATOM     53  C   LIG    1       26.291 -28.887  10.318  0.00  0.00    +0.032 C 
BRANCH  44  54
ATOM     54  C   LIG    1       19.026 -31.169  14.398  0.00  0.00    -0.022 C 
ATOM     55  C   LIG    1       17.816 -31.599  13.639  0.00  0.00    +0.264 C 
ATOM     56  O   LIG    1       16.986 -30.443  13.529  0.00  0.00    -0.457 OA
ATOM     57  C   LIG    1       17.641 -29.380  14.093  0.00  0.00    +0.332 C 
ATOM     58  O   LIG    1       17.236 -28.236  14.171  0.00  0.00    -0.246 OA
ATOM     59  C   LIG    1       18.889 -29.849  14.604  0.00  0.00    +0.094 C 
ENDBRANCH  44  54
BRANCH  41  60
ATOM     60  O   LIG    1       20.837 -31.738  12.151  0.00  0.00    -0.388 OA
ATOM     61  H   LIG    1       21.364 -31.235  11.504  0.00  0.00    +0.210 HD
ENDBRANCH  41  60
ENDBRANCH  34  35
ENDBRANCH   4  34
TORSDOF 13
ENDMDL
MODEL 4
REMARK VINA RESULT:      -7.6      1.825      2.739
REMARK  Name = *****
REMARK                            x       y       z     vdW  Elec       q    Type
REMARK                         _______ _______ _______ _____ _____    ______ ____
ROOT
ATOM      1  C   LIG    1       25.907 -26.633   6.290  0.00  0.00    +0.178 C 
ATOM      2  C   LIG    1       25.940 -27.702   7.385  0.00  0.00    +0.151 C 
ATOM      3  C   LIG    1       24.552 -28.308   7.495  0.00  0.00    +0.095 C 
ATOM      4  C   LIG    1       24.019 -28.702   6.114  0.00  0.00    +0.253 C 
ATOM      5  O   LIG    1       25.094 -28.716   5.159  0.00  0.00    -0.346 OA
ATOM      6  C   LIG    1       25.721 -27.418   4.960  0.00  0.00    +0.150 C 
ATOM      7  C   LIG    1       27.098 -27.706   4.350  0.00  0.00    +0.040 C 
ENDROOT
BRANCH   2   8
ATOM      8  O   LIG    1       26.376 -27.181   8.636  0.00  0.00    -0.389 OA
ATOM      9  H   LIG    1       25.599 -27.169   9.223  0.00  0.00    +0.210 HD
ENDBRANCH   2   8
BRANCH   1  10
ATOM     10  O   LIG    1       24.799 -25.716   6.450  0.00  0.00    -0.343 OA
BRANCH  10  14
ATOM     11  C   LIG    1       24.957 -21.542   5.935  0.00  0.00    +0.178 C 
ATOM     12  C   LIG    1       24.222 -22.414   4.900  0.00  0.00    +0.151 C 
ATOM     13  C   LIG    1       24.815 -23.818   4.876  0.00  0.00    +0.095 C 
ATOM     14  C   LIG    1       25.104 -24.320   6.294  0.00  0.00    +0.254 C 
ATOM     15  O   LIG    1       24.313 -23.578   7.237  0.00  0.00    -0.346 OA
ATOM     16  C   LIG    1       24.687 -22.185   7.322  0.00  0.00    +0.150 C 
ATOM     17  C   LIG    1       23.542 -21.458   8.020  0.00  0.00    +0.040 C 
BRANCH  12  18
ATOM     18  O   LIG    1       24.240 -21.847   3.592  0.00  0.00    -0.389 OA
ATOM     19  H   LIG    1       24.226 -20.879   3.699  0.00  0.00    +0.210 HD
ENDBRANCH  12  18
BRANCH  11  20
ATOM     20  O   LIG    1       26.368 -21.488   5.595  0.00  0.00    -0.343 OA
BRANCH  20  26
ATOM     21  C   LIG    1       29.245 -21.048   7.667  0.00  0.00    +0.212 C 
ATOM     22  C   LIG    1       29.636 -19.566   7.497  0.00  0.00    +0.184 C 
ATOM     23  C   LIG    1       28.787 -18.899   6.396  0.00  0.00    +0.150 C 
ATOM     24  C   LIG    1       29.619 -18.037   5.458  0.00  0.00    +0.040 C 
ATOM     25  O   LIG    1       28.110 -19.886   5.608  0.00  0.00    -0.346 OA
ATOM     26  C   LIG    1       27.116 -20.549   6.383  0.00  0.00    +0.255 C 
ATOM     27  C   LIG    1       27.728 -21.238   7.601  0.00  0.00    +0.108 C 
BRANCH  22  28
ATOM     28  O   LIG    1       29.423 -18.835   8.715  0.00  0.00    -0.386 OA
ATOM     29  H   LIG    1       29.118 -19.483   9.376  0.00  0.00    +0.210 HD
ENDBRANCH  22  28
BRANCH  21  30
ATOM     30  O   LIG    1       29.690 -21.534   8.954  0.00  0.00    -0.459 OA
BRANCH  30  32
ATOM     31  C   LIG    1       31.880 -20.667   9.003  0.00  0.00    +0.136 C 
ATOM     32  C   LIG    1       31.007 -21.885   8.998  0.00  0.00    +0.304 C 
ATOM     33  O   LIG    1       31.430 -23.029   9.092  0.00  0.00    -0.251 OA
ENDBRANCH  30  32
ENDBRANCH  21  30
ENDBRANCH  20  26
ENDBRANCH  11  20
ENDBRANCH  10  14
ENDBRANCH   1  10
BRANCH   4  34
ATOM     34  O   LIG    1       23.414 -30.006   6.190  0.00  0.00    -0.348 OA
BRANCH  34  35
ATOM     35  C   LIG    1       24.308 -31.129   6.044  0.00  0.00    +0.122 C 
ATOM     36  C   LIG    1       23.555 -32.433   6.386  0.00  0.00    +0.035 C 
ATOM     37  C   LIG    1       23.119 -32.460   7.856  0.00  0.00    -0.002 C 
ATOM     38  C   LIG    1       22.400 -33.773   8.277  0.00  0.00    +0.004 C 
ATOM     39  C   LIG    1       22.076 -33.825   9.800  0.00  0.00    +0.007 C 
ATOM     40  C   LIG    1       22.084 -32.407  10.371  0.00  0.00    +0.025 C 
ATOM     41  C   LIG    1       21.463 -32.066  11.739  0.00  0.00    +0.075 C 
ATOM     42  C   LIG    1       22.400 -32.208  12.964  0.00  0.00    +0.004 C 
ATOM     43  C   LIG    1       22.781 -33.690  13.267  0.00  0.00    +0.014 C 
ATOM     44  C   LIG    1       21.469 -31.707  14.139  0.00  0.00    +0.027 C 
ATOM     45  C   LIG    1       20.086 -32.320  13.719  0.00  0.00    +0.011 C 
ATOM     46  C   LIG    1       23.720 -31.462  12.737  0.00  0.00    +0.010 C 
ATOM     47  C   LIG    1       24.420 -31.879  11.453  0.00  0.00    +0.005 C 
ATOM     48  C   LIG    1       20.174 -32.728  12.220  0.00  0.00    +0.036 C 
ATOM     49  C   LIG    1       23.505 -31.738  10.219  0.00  0.00    +0.001 C 
ATOM     50  C   LIG    1       24.240 -32.116   8.878  0.00  0.00    -0.026 C 
ATOM     51  C   LIG    1       25.231 -33.302   9.042  0.00  0.00    +0.012 C 
ATOM     52  C   LIG    1       25.087 -30.900   8.409  0.00  0.00    +0.009 C 
ATOM     53  C   LIG    1       25.530 -31.017   6.952  0.00  0.00    +0.032 C 
BRANCH  44  54
ATOM     54  C   LIG    1       21.383 -30.221  14.489  0.00  0.00    -0.022 C 
ATOM     55  C   LIG    1       20.258 -29.645  15.280  0.00  0.00    +0.264 C 
ATOM     56  O   LIG    1       20.574 -28.266  15.472  0.00  0.00    -0.457 OA
ATOM     57  C   LIG    1       21.739 -27.989  14.805  0.00  0.00    +0.332 C 
ATOM     58  O   LIG    1       22.302 -26.912  14.744  0.00  0.00    -0.246 OA
ATOM     59  C   LIG    1       22.204 -29.197  14.204  0.00  0.00    +0.094 C 
ENDBRANCH  44  54
BRANCH  41  60
ATOM     60  O   LIG    1       21.108 -30.665  11.593  0.00  0.00    -0.388 OA
ATOM     61  H   LIG    1       21.163 -30.437  10.648  0.00  0.00    +0.210 HD
ENDBRANCH  41  60
ENDBRANCH  34  35
ENDBRANCH   4  34
TORSDOF 13
ENDMDL
MODEL 5
REMARK VINA RESULT:      -7.0      1.615      2.530
REMARK  Name = *****
REMARK                            x       y       z     vdW  Elec       q    Type
REMARK                         _______ _______ _______ _____ _____    ______ ____
ROOT
ATOM      1  C   LIG    1       26.007 -25.800   5.367  0.00  0.00    +0.178 C 
ATOM      2  C   LIG    1       25.926 -26.221   6.837  0.00  0.00    +0.151 C 
ATOM      3  C   LIG    1       24.591 -26.908   7.058  0.00  0.00    +0.095 C 
ATOM      4  C   LIG    1       24.341 -27.972   5.985  0.00  0.00    +0.253 C 
ATOM      5  O   LIG    1       25.565 -28.266   5.291  0.00  0.00    -0.346 OA
ATOM      6  C   LIG    1       26.118 -27.131   4.568  0.00  0.00    +0.150 C 
ATOM      7  C   LIG    1       27.599 -27.457   4.341  0.00  0.00    +0.040 C 
ENDROOT
BRANCH   2   8
ATOM      8  O   LIG    1       26.094 -25.121   7.724  0.00  0.00    -0.389 OA
ATOM      9  H   LIG    1       25.317 -24.546   7.610  0.00  0.00    +0.210 HD
ENDBRANCH   2   8
BRANCH   1  10
ATOM     10  O   LIG    1       24.821 -25.092   4.932  0.00  0.00    -0.343 OA
BRANCH  10  14
ATOM     11  C   LIG    1       24.237 -20.927   5.081  0.00  0.00    +0.178 C 
ATOM     12  C   LIG    1       23.727 -21.729   3.869  0.00  0.00    +0.151 C 
ATOM     13  C   LIG    1       24.568 -22.985   3.676  0.00  0.00    +0.095 C 
ATOM     14  C   LIG    1       24.873 -23.658   5.018  0.00  0.00    +0.254 C 
ATOM     15  O   LIG    1       23.913 -23.231   5.998  0.00  0.00    -0.346 OA
ATOM     16  C   LIG    1       24.020 -21.828   6.326  0.00  0.00    +0.150 C 
ATOM     17  C   LIG    1       22.727 -21.437   7.036  0.00  0.00    +0.040 C 
BRANCH  12  18
ATOM     18  O   LIG    1       23.707 -20.958   2.670  0.00  0.00    -0.389 OA
ATOM     19  H   LIG    1       22.940 -21.258   2.149  0.00  0.00    +0.210 HD
ENDBRANCH  12  18
BRANCH  11  20
ATOM     20  O   LIG    1       25.629 -20.574   4.866  0.00  0.00    -0.343 OA
BRANCH  20  26
ATOM     21  C   LIG    1       28.593 -19.707   6.663  0.00  0.00    +0.212 C 
ATOM     22  C   LIG    1       28.360 -20.233   8.094  0.00  0.00    +0.184 C 
ATOM     23  C   LIG    1       26.917 -20.751   8.259  0.00  0.00    +0.150 C 
ATOM     24  C   LIG    1       26.274 -20.286   9.557  0.00  0.00    +0.040 C 
ATOM     25  O   LIG    1       26.092 -20.311   7.172  0.00  0.00    -0.346 OA
ATOM     26  C   LIG    1       26.490 -20.937   5.957  0.00  0.00    +0.255 C 
ATOM     27  C   LIG    1       27.946 -20.619   5.619  0.00  0.00    +0.108 C 
BRANCH  22  28
ATOM     28  O   LIG    1       29.250 -21.320   8.393  0.00  0.00    -0.386 OA
ATOM     29  H   LIG    1       29.932 -20.961   8.991  0.00  0.00    +0.210 HD
ENDBRANCH  22  28
BRANCH  21  30
ATOM     30  O   LIG    1       30.009 -19.653   6.378  0.00  0.00    -0.459 OA
BRANCH  30  32
ATOM     31  C   LIG    1       30.185 -17.896   7.938  0.00  0.00    +0.136 C 
ATOM     32  C   LIG    1       30.770 -19.166   7.400  0.00  0.00    +0.304 C 
ATOM     33  O   LIG    1       31.756 -19.717   7.870  0.00  0.00    -0.251 OA
ENDBRANCH  30  32
ENDBRANCH  21  30
ENDBRANCH  20  26
ENDBRANCH  11  20
ENDBRANCH  10  14
ENDBRANCH   1  10
BRANCH   4  34
ATOM     34  O   LIG    1       23.832 -29.167   6.607  0.00  0.00    -0.348 OA
BRANCH  34  35
ATOM     35  C   LIG    1       24.784 -30.232   6.808  0.00  0.00    +0.122 C 
ATOM     36  C   LIG    1       24.030 -31.548   7.095  0.00  0.00    +0.035 C 
ATOM     37  C   LIG    1       23.240 -31.469   8.407  0.00  0.00    -0.002 C 
ATOM     38  C   LIG    1       22.499 -32.783   8.779  0.00  0.00    +0.004 C 
ATOM     39  C   LIG    1       21.805 -32.715  10.172  0.00  0.00    +0.007 C 
ATOM     40  C   LIG    1       21.604 -31.253  10.570  0.00  0.00    +0.025 C 
ATOM     41  C   LIG    1       20.645 -30.831  11.698  0.00  0.00    +0.075 C 
ATOM     42  C   LIG    1       21.249 -30.789  13.124  0.00  0.00    +0.004 C 
ATOM     43  C   LIG    1       21.609 -32.205  13.670  0.00  0.00    +0.014 C 
ATOM     44  C   LIG    1       20.031 -30.248  13.973  0.00  0.00    +0.027 C 
ATOM     45  C   LIG    1       18.828 -30.995  13.295  0.00  0.00    +0.011 C 
ATOM     46  C   LIG    1       22.548 -29.976  13.148  0.00  0.00    +0.010 C 
ATOM     47  C   LIG    1       23.567 -30.461  12.128  0.00  0.00    +0.005 C 
ATOM     48  C   LIG    1       19.308 -31.534  11.917  0.00  0.00    +0.036 C 
ATOM     49  C   LIG    1       22.987 -30.502  10.699  0.00  0.00    +0.001 C 
ATOM     50  C   LIG    1       24.052 -30.951   9.629  0.00  0.00    -0.026 C 
ATOM     51  C   LIG    1       25.022 -32.042  10.159  0.00  0.00    +0.012 C 
ATOM     52  C   LIG    1       24.933 -29.726   9.252  0.00  0.00    +0.009 C 
ATOM     53  C   LIG    1       25.732 -29.948   7.970  0.00  0.00    +0.032 C 
BRANCH  44  54
ATOM     54  C   LIG    1       19.792 -28.745  14.127  0.00  0.00    -0.022 C 
ATOM     55  C   LIG    1       20.862 -27.802  14.562  0.00  0.00    +0.264 C 
ATOM     56  O   LIG    1       20.288 -26.497  14.501  0.00  0.00    -0.457 OA
ATOM     57  C   LIG    1       18.972 -26.616  14.138  0.00  0.00    +0.332 C 
ATOM     58  O   LIG    1       18.173 -25.709  13.996  0.00  0.00    -0.246 OA
ATOM     59  C   LIG    1       18.693 -28.000  13.929  0.00  0.00    +0.094 C 
ENDBRANCH  44  54
BRANCH  41  60
ATOM     60  O   LIG    1       20.274 -29.478  11.318  0.00  0.00    -0.388 OA
ATOM     61  H   LIG    1       20.851 -29.203  10.583  0.00  0.00    +0.210 HD
ENDBRANCH  41  60
ENDBRANCH  34  35
ENDBRANCH   4  34
TORSDOF 13
ENDMDL
MODEL 6
REMARK VINA RESULT:      -7.0      2.024      2.932
REMARK  Name = *****
REMARK                            x       y       z     vdW  Elec       q    Type
REMARK                         _______ _______ _______ _____ _____    ______ ____
ROOT
ATOM      1  C   LIG    1       26.073 -26.158   5.780  0.00  0.00    +0.178 C 
ATOM      2  C   LIG    1       26.008 -26.972   7.075  0.00  0.00    +0.151 C 
ATOM      3  C   LIG    1       24.641 -27.627   7.153  0.00  0.00    +0.095 C 
ATOM      4  C   LIG    1       24.299 -28.332   5.837  0.00  0.00    +0.253 C 
ATOM      5  O   LIG    1       25.485 -28.478   5.036  0.00  0.00    -0.346 OA
ATOM      6  C   LIG    1       26.083 -27.213   4.636  0.00  0.00    +0.150 C 
ATOM      7  C   LIG    1       27.535 -27.534   4.263  0.00  0.00    +0.040 C 
ENDROOT
BRANCH   2   8
ATOM      8  O   LIG    1       26.265 -26.175   8.227  0.00  0.00    -0.389 OA
ATOM      9  H   LIG    1       27.029 -26.573   8.680  0.00  0.00    +0.210 HD
ENDBRANCH   2   8
BRANCH   1  10
ATOM     10  O   LIG    1       24.919 -25.299   5.612  0.00  0.00    -0.343 OA
BRANCH  10  14
ATOM     11  C   LIG    1       25.202 -21.246   6.713  0.00  0.00    +0.178 C 
ATOM     12  C   LIG    1       23.819 -21.916   6.603  0.00  0.00    +0.151 C 
ATOM     13  C   LIG    1       23.868 -23.069   5.607  0.00  0.00    +0.095 C 
ATOM     14  C   LIG    1       25.151 -23.889   5.774  0.00  0.00    +0.254 C 
ATOM     15  O   LIG    1       25.694 -23.670   7.086  0.00  0.00    -0.346 OA
ATOM     16  C   LIG    1       26.165 -22.320   7.288  0.00  0.00    +0.150 C 
ATOM     17  C   LIG    1       26.324 -22.124   8.793  0.00  0.00    +0.040 C 
BRANCH  12  18
ATOM     18  O   LIG    1       22.791 -20.996   6.246  0.00  0.00    -0.389 OA
ATOM     19  H   LIG    1       23.026 -20.136   6.638  0.00  0.00    +0.210 HD
ENDBRANCH  12  18
BRANCH  11  20
ATOM     20  O   LIG    1       25.602 -20.765   5.402  0.00  0.00    -0.343 OA
BRANCH  20  26
ATOM     21  C   LIG    1       27.738 -17.933   4.979  0.00  0.00    +0.212 C 
ATOM     22  C   LIG    1       29.022 -18.282   5.759  0.00  0.00    +0.184 C 
ATOM     23  C   LIG    1       28.841 -19.591   6.554  0.00  0.00    +0.150 C 
ATOM     24  C   LIG    1       29.379 -19.492   7.974  0.00  0.00    +0.040 C 
ATOM     25  O   LIG    1       27.457 -19.954   6.628  0.00  0.00    -0.346 OA
ATOM     26  C   LIG    1       26.967 -20.322   5.342  0.00  0.00    +0.255 C 
ATOM     27  C   LIG    1       27.115 -19.176   4.342  0.00  0.00    +0.108 C 
BRANCH  22  28
ATOM     28  O   LIG    1       30.132 -18.464   4.866  0.00  0.00    -0.386 OA
ATOM     29  H   LIG    1       30.923 -18.570   5.426  0.00  0.00    +0.210 HD
ENDBRANCH  22  28
BRANCH  21  30
ATOM     30  O   LIG    1       28.041 -17.002   3.915  0.00  0.00    -0.459 OA
BRANCH  30  32
ATOM     31  C   LIG    1       27.494 -14.711   3.928  0.00  0.00    +0.136 C 
ATOM     32  C   LIG    1       27.044 -16.112   3.645  0.00  0.00    +0.304 C 
ATOM     33  O   LIG    1       25.953 -16.396   3.171  0.00  0.00    -0.251 OA
ENDBRANCH  30  32
ENDBRANCH  21  30
ENDBRANCH  20  26
ENDBRANCH  11  20
ENDBRANCH  10  14
ENDBRANCH   1  10
BRANCH   4  34
ATOM     34  O   LIG    1       23.739 -29.628   6.121  0.00  0.00    -0.348 OA
BRANCH  34  35
ATOM     35  C   LIG    1       24.674 -30.723   6.186  0.00  0.00    +0.122 C 
ATOM     36  C   LIG    1       23.902 -32.052   6.333  0.00  0.00    +0.035 C 
ATOM     37  C   LIG    1       23.129 -32.109   7.656  0.00  0.00    -0.002 C 
ATOM     38  C   LIG    1       22.370 -33.446   7.887  0.00  0.00    +0.004 C 
ATOM     39  C   LIG    1       21.694 -33.526   9.289  0.00  0.00    +0.007 C 
ATOM     40  C   LIG    1       21.523 -32.115   9.852  0.00  0.00    +0.025 C 
ATOM     41  C   LIG    1       20.584 -31.809  11.034  0.00  0.00    +0.075 C 
ATOM     42  C   LIG    1       21.206 -31.938  12.447  0.00  0.00    +0.004 C 
ATOM     43  C   LIG    1       21.549 -33.413  12.824  0.00  0.00    +0.014 C 
ATOM     44  C   LIG    1       20.008 -31.478  13.368  0.00  0.00    +0.027 C 
ATOM     45  C   LIG    1       18.784 -32.125  12.627  0.00  0.00    +0.011 C 
ATOM     46  C   LIG    1       22.519 -31.153  12.545  0.00  0.00    +0.010 C 
ATOM     47  C   LIG    1       23.517 -31.535  11.463  0.00  0.00    +0.005 C 
ATOM     48  C   LIG    1       19.238 -32.512  11.190  0.00  0.00    +0.036 C 
ATOM     49  C   LIG    1       22.919 -31.405  10.046  0.00  0.00    +0.001 C 
ATOM     50  C   LIG    1       23.964 -31.746   8.918  0.00  0.00    -0.026 C 
ATOM     51  C   LIG    1       24.922 -32.905   9.308  0.00  0.00    +0.012 C 
ATOM     52  C   LIG    1       24.861 -30.501   8.670  0.00  0.00    +0.009 C 
ATOM     53  C   LIG    1       25.641 -30.588   7.360  0.00  0.00    +0.032 C 
BRANCH  44  54
ATOM     54  C   LIG    1       19.797 -29.999  13.695  0.00  0.00    -0.022 C 
ATOM     55  C   LIG    1       18.455 -29.430  14.012  0.00  0.00    +0.264 C 
ATOM     56  O   LIG    1       18.675 -28.059  14.343  0.00  0.00    -0.457 OA
ATOM     57  C   LIG    1       20.007 -27.778  14.177  0.00  0.00    +0.332 C 
ATOM     58  O   LIG    1       20.551 -26.706  14.361  0.00  0.00    -0.246 OA
ATOM     59  C   LIG    1       20.665 -28.977  13.769  0.00  0.00    +0.094 C 
ENDBRANCH  44  54
BRANCH  41  60
ATOM     60  O   LIG    1       20.232 -30.416  10.815  0.00  0.00    -0.388 OA
ATOM     61  H   LIG    1       19.414 -30.231  11.311  0.00  0.00    +0.210 HD
ENDBRANCH  41  60
ENDBRANCH  34  35
ENDBRANCH   4  34
TORSDOF 13
ENDMDL
MODEL 7
REMARK VINA RESULT:      -6.8      1.556      2.421
REMARK  Name = *****
REMARK                            x       y       z     vdW  Elec       q    Type
REMARK                         _______ _______ _______ _____ _____    ______ ____
ROOT
ATOM      1  C   LIG    1       23.965 -22.875   6.296  0.00  0.00    +0.178 C 
ATOM      2  C   LIG    1       24.332 -23.664   5.036  0.00  0.00    +0.151 C 
ATOM      3  C   LIG    1       25.016 -24.949   5.467  0.00  0.00    +0.095 C 
ATOM      4  C   LIG    1       24.205 -25.659   6.556  0.00  0.00    +0.253 C 
ATOM      5  O   LIG    1       22.877 -25.110   6.615  0.00  0.00    -0.346 OA
ATOM      6  C   LIG    1       22.839 -23.702   6.981  0.00  0.00    +0.150 C 
ATOM      7  C   LIG    1       21.477 -23.182   6.508  0.00  0.00    +0.040 C 
ENDROOT
BRANCH   2   8
ATOM      8  O   LIG    1       25.155 -22.914   4.150  0.00  0.00    -0.389 OA
ATOM      9  H   LIG    1       25.103 -23.349   3.280  0.00  0.00    +0.210 HD
ENDBRANCH   2   8
BRANCH   1  10
ATOM     10  O   LIG    1       25.079 -22.754   7.213  0.00  0.00    -0.343 OA
BRANCH  10  14
ATOM     11  C   LIG    1       27.728 -19.734   5.958  0.00  0.00    +0.178 C 
ATOM     12  C   LIG    1       28.165 -21.210   5.899  0.00  0.00    +0.151 C 
ATOM     13  C   LIG    1       27.419 -22.024   6.949  0.00  0.00    +0.095 C 
ATOM     14  C   LIG    1       25.942 -21.622   7.014  0.00  0.00    +0.254 C 
ATOM     15  O   LIG    1       25.565 -20.979   5.786  0.00  0.00    -0.346 OA
ATOM     16  C   LIG    1       26.221 -19.707   5.585  0.00  0.00    +0.150 C 
ATOM     17  C   LIG    1       26.055 -19.348   4.111  0.00  0.00    +0.040 C 
BRANCH  12  18
ATOM     18  O   LIG    1       29.573 -21.372   6.054  0.00  0.00    -0.389 OA
ATOM     19  H   LIG    1       30.003 -20.715   5.479  0.00  0.00    +0.210 HD
ENDBRANCH  12  18
BRANCH  11  20
ATOM     20  O   LIG    1       27.997 -19.212   7.286  0.00  0.00    -0.343 OA
BRANCH  20  26
ATOM     21  C   LIG    1       30.436 -17.806   9.486  0.00  0.00    +0.212 C 
ATOM     22  C   LIG    1       31.564 -18.855   9.552  0.00  0.00    +0.184 C 
ATOM     23  C   LIG    1       31.153 -20.150   8.822  0.00  0.00    +0.150 C 
ATOM     24  C   LIG    1       31.504 -21.403   9.610  0.00  0.00    +0.040 C 
ATOM     25  O   LIG    1       29.742 -20.164   8.570  0.00  0.00    -0.346 OA
ATOM     26  C   LIG    1       29.394 -19.166   7.616  0.00  0.00    +0.255 C 
ATOM     27  C   LIG    1       29.784 -17.771   8.102  0.00  0.00    +0.108 C 
BRANCH  22  28
ATOM     28  O   LIG    1       32.760 -18.363   8.927  0.00  0.00    -0.386 OA
ATOM     29  H   LIG    1       32.624 -18.447   7.965  0.00  0.00    +0.210 HD
ENDBRANCH  22  28
BRANCH  21  30
ATOM     30  O   LIG    1       30.967 -16.488   9.752  0.00  0.00    -0.459 OA
BRANCH  30  32
ATOM     31  C   LIG    1       32.839 -15.768  10.987  0.00  0.00    +0.136 C 
ATOM     32  C   LIG    1       31.446 -16.320  11.017  0.00  0.00    +0.304 C 
ATOM     33  O   LIG    1       30.813 -16.520  12.045  0.00  0.00    -0.251 OA
ENDBRANCH  30  32
ENDBRANCH  21  30
ENDBRANCH  20  26
ENDBRANCH  11  20
ENDBRANCH  10  14
ENDBRANCH   1  10
BRANCH   4  34
ATOM     34  O   LIG    1       24.140 -27.067   6.261  0.00  0.00    -0.348 OA
BRANCH  34  35
ATOM     35  C   LIG    1       25.403 -27.730   6.049  0.00  0.00    +0.122 C 
ATOM     36  C   LIG    1       25.154 -29.216   5.712  0.00  0.00    +0.035 C 
ATOM     37  C   LIG    1       24.507 -29.958   6.888  0.00  0.00    -0.002 C 
ATOM     38  C   LIG    1       24.278 -31.473   6.630  0.00  0.00    +0.004 C 
ATOM     39  C   LIG    1       23.733 -32.227   7.880  0.00  0.00    +0.007 C 
ATOM     40  C   LIG    1       23.100 -31.222   8.844  0.00  0.00    +0.025 C 
ATOM     41  C   LIG    1       22.164 -31.656   9.987  0.00  0.00    +0.075 C 
ATOM     42  C   LIG    1       22.851 -32.008  11.331  0.00  0.00    +0.004 C 
ATOM     43  C   LIG    1       23.706 -33.310  11.251  0.00  0.00    +0.014 C 
ATOM     44  C   LIG    1       21.608 -32.312  12.257  0.00  0.00    +0.027 C 
ATOM     45  C   LIG    1       20.659 -33.068  11.260  0.00  0.00    +0.011 C 
ATOM     46  C   LIG    1       23.807 -30.892  11.769  0.00  0.00    +0.010 C 
ATOM     47  C   LIG    1       24.829 -30.537  10.700  0.00  0.00    +0.005 C 
ATOM     48  C   LIG    1       21.160 -32.792   9.813  0.00  0.00    +0.036 C 
ATOM     49  C   LIG    1       24.164 -30.175   9.356  0.00  0.00    +0.001 C 
ATOM     50  C   LIG    1       25.213 -29.753   8.259  0.00  0.00    -0.026 C 
ATOM     51  C   LIG    1       26.534 -30.568   8.337  0.00  0.00    +0.012 C 
ATOM     52  C   LIG    1       25.604 -28.265   8.484  0.00  0.00    +0.009 C 
ATOM     53  C   LIG    1       26.309 -27.652   7.276  0.00  0.00    +0.032 C 
BRANCH  44  54
ATOM     54  C   LIG    1       20.904 -31.185  13.015  0.00  0.00    -0.022 C 
ATOM     55  C   LIG    1       19.428 -30.980  12.960  0.00  0.00    +0.264 C 
ATOM     56  O   LIG    1       19.145 -29.902  13.853  0.00  0.00    -0.457 OA
ATOM     57  C   LIG    1       20.329 -29.432  14.357  0.00  0.00    +0.332 C 
ATOM     58  O   LIG    1       20.469 -28.513  15.142  0.00  0.00    -0.246 OA
ATOM     59  C   LIG    1       21.386 -30.224  13.819  0.00  0.00    +0.094 C 
ENDBRANCH  44  54
BRANCH  41  60
ATOM     60  O   LIG    1       21.336 -30.480  10.191  0.00  0.00    -0.388 OA
ATOM     61  H   LIG    1       20.443 -30.678   9.854  0.00  0.00    +0.210 HD
ENDBRANCH  41  60
ENDBRANCH  34  35
ENDBRANCH   4  34
TORSDOF 13
ENDMDL
MODEL 8
REMARK VINA RESULT:      -6.7      3.132      4.627
REMARK  Name = *****
REMARK                            x       y       z     vdW  Elec       q    Type
REMARK                         _______ _______ _______ _____ _____    ______ ____
ROOT
ATOM      1  C   LIG    1       25.924 -25.463   5.186  0.00  0.00    +0.178 C 
ATOM      2  C   LIG    1       25.939 -25.693   6.700  0.00  0.00    +0.151 C 
ATOM      3  C   LIG    1       24.574 -26.218   7.111  0.00  0.00    +0.095 C 
ATOM      4  C   LIG    1       24.141 -27.376   6.206  0.00  0.00    +0.253 C 
ATOM      5  O   LIG    1       25.270 -27.867   5.463  0.00  0.00    -0.346 OA
ATOM      6  C   LIG    1       25.851 -26.885   4.559  0.00  0.00    +0.150 C 
ATOM      7  C   LIG    1       27.272 -27.376   4.262  0.00  0.00    +0.040 C 
ENDROOT
BRANCH   2   8
ATOM      8  O   LIG    1       26.277 -24.514   7.423  0.00  0.00    -0.389 OA
ATOM      9  H   LIG    1       25.796 -23.779   7.004  0.00  0.00    +0.210 HD
ENDBRANCH   2   8
BRANCH   1  10
ATOM     10  O   LIG    1       24.769 -24.703   4.757  0.00  0.00    -0.343 OA
BRANCH  10  14
ATOM     11  C   LIG    1       24.352 -20.519   4.943  0.00  0.00    +0.178 C 
ATOM     12  C   LIG    1       23.829 -21.287   3.715  0.00  0.00    +0.151 C 
ATOM     13  C   LIG    1       24.621 -22.575   3.520  0.00  0.00    +0.095 C 
ATOM     14  C   LIG    1       24.878 -23.273   4.860  0.00  0.00    +0.254 C 
ATOM     15  O   LIG    1       23.922 -22.818   5.830  0.00  0.00    -0.346 OA
ATOM     16  C   LIG    1       24.081 -21.424   6.175  0.00  0.00    +0.150 C 
ATOM     17  C   LIG    1       22.794 -20.988   6.870  0.00  0.00    +0.040 C 
BRANCH  12  18
ATOM     18  O   LIG    1       23.858 -20.504   2.524  0.00  0.00    -0.389 OA
ATOM     19  H   LIG    1       23.788 -19.571   2.793  0.00  0.00    +0.210 HD
ENDBRANCH  12  18
BRANCH  11  20
ATOM     20  O   LIG    1       25.761 -20.222   4.753  0.00  0.00    -0.343 OA
BRANCH  20  26
ATOM     21  C   LIG    1       28.679 -19.545   6.699  0.00  0.00    +0.212 C 
ATOM     22  C   LIG    1       28.417 -20.222   8.059  0.00  0.00    +0.184 C 
ATOM     23  C   LIG    1       26.973 -20.758   8.135  0.00  0.00    +0.150 C 
ATOM     24  C   LIG    1       26.299 -20.438   9.461  0.00  0.00    +0.040 C 
ATOM     25  O   LIG    1       26.171 -20.207   7.083  0.00  0.00    -0.346 OA
ATOM     26  C   LIG    1       26.599 -20.698   5.817  0.00  0.00    +0.255 C 
ATOM     27  C   LIG    1       28.061 -20.341   5.549  0.00  0.00    +0.108 C 
BRANCH  22  28
ATOM     28  O   LIG    1       29.306 -21.332   8.260  0.00  0.00    -0.386 OA
ATOM     29  H   LIG    1       30.034 -21.005   8.821  0.00  0.00    +0.210 HD
ENDBRANCH  22  28
BRANCH  21  30
ATOM     30  O   LIG    1       30.101 -19.456   6.454  0.00  0.00    -0.459 OA
BRANCH  30  32
ATOM     31  C   LIG    1       30.197 -17.843   8.168  0.00  0.00    +0.136 C 
ATOM     32  C   LIG    1       30.832 -19.039   7.527  0.00  0.00    +0.304 C 
ATOM     33  O   LIG    1       31.830 -19.597   7.961  0.00  0.00    -0.251 OA
ENDBRANCH  30  32
ENDBRANCH  21  30
ENDBRANCH  20  26
ENDBRANCH  11  20
ENDBRANCH  10  14
ENDBRANCH   1  10
BRANCH   4  34
ATOM     34  O   LIG    1       23.590 -28.433   7.014  0.00  0.00    -0.348 OA
BRANCH  34  35
ATOM     35  C   LIG    1       24.194 -29.732   6.855  0.00  0.00    +0.122 C 
ATOM     36  C   LIG    1       23.640 -30.691   7.931  0.00  0.00    +0.035 C 
ATOM     37  C   LIG    1       24.035 -30.240   9.342  0.00  0.00    -0.002 C 
ATOM     38  C   LIG    1       23.551 -31.195  10.469  0.00  0.00    +0.004 C 
ATOM     39  C   LIG    1       24.067 -30.779  11.880  0.00  0.00    +0.007 C 
ATOM     40  C   LIG    1       24.472 -29.305  11.860  0.00  0.00    +0.025 C 
ATOM     41  C   LIG    1       24.682 -28.491  13.150  0.00  0.00    +0.075 C 
ATOM     42  C   LIG    1       26.109 -28.531  13.753  0.00  0.00    +0.004 C 
ATOM     43  C   LIG    1       26.486 -29.933  14.323  0.00  0.00    +0.014 C 
ATOM     44  C   LIG    1       25.967 -27.543  14.978  0.00  0.00    +0.027 C 
ATOM     45  C   LIG    1       24.528 -27.901  15.497  0.00  0.00    +0.011 C 
ATOM     46  C   LIG    1       27.165 -28.200  12.693  0.00  0.00    +0.010 C 
ATOM     47  C   LIG    1       27.060 -29.083  11.459  0.00  0.00    +0.005 C 
ATOM     48  C   LIG    1       23.791 -28.686  14.374  0.00  0.00    +0.036 C 
ATOM     49  C   LIG    1       25.648 -29.050  10.838  0.00  0.00    +0.001 C 
ATOM     50  C   LIG    1       25.546 -29.920   9.529  0.00  0.00    -0.026 C 
ATOM     51  C   LIG    1       26.390 -31.223   9.597  0.00  0.00    +0.012 C 
ATOM     52  C   LIG    1       26.108 -29.098   8.334  0.00  0.00    +0.009 C 
ATOM     53  C   LIG    1       25.715 -29.683   6.980  0.00  0.00    +0.032 C 
BRANCH  44  54
ATOM     54  C   LIG    1       26.182 -26.040  14.799  0.00  0.00    -0.022 C 
ATOM     55  C   LIG    1       27.358 -25.477  14.075  0.00  0.00    +0.264 C 
ATOM     56  O   LIG    1       27.162 -24.063  14.041  0.00  0.00    -0.457 OA
ATOM     57  C   LIG    1       26.021 -23.764  14.737  0.00  0.00    +0.332 C 
ATOM     58  O   LIG    1       25.552 -22.657  14.922  0.00  0.00    -0.246 OA
ATOM     59  C   LIG    1       25.450 -24.988  15.200  0.00  0.00    +0.094 C 
ENDBRANCH  44  54
BRANCH  41  60
ATOM     60  O   LIG    1       24.404 -27.130  12.723  0.00  0.00    -0.388 OA
ATOM     61  H   LIG    1       23.571 -27.137  12.219  0.00  0.00    +0.210 HD
ENDBRANCH  41  60
ENDBRANCH  34  35
ENDBRANCH   4  34
TORSDOF 13
ENDMDL
MODEL 9
REMARK VINA RESULT:      -6.4      3.745      5.972
REMARK  Name = *****
REMARK                            x       y       z     vdW  Elec       q    Type
REMARK                         _______ _______ _______ _____ _____    ______ ____
ROOT
ATOM      1  C   LIG    1       24.661 -27.766   5.233  0.00  0.00    +0.178 C 
ATOM      2  C   LIG    1       26.158 -27.955   5.497  0.00  0.00    +0.151 C 
ATOM      3  C   LIG    1       26.336 -28.328   6.958  0.00  0.00    +0.095 C 
ATOM      4  C   LIG    1       25.383 -29.461   7.350  0.00  0.00    +0.253 C 
ATOM      5  O   LIG    1       24.849 -30.084   6.170  0.00  0.00    -0.346 OA
ATOM      6  C   LIG    1       24.046 -29.192   5.347  0.00  0.00    +0.150 C 
ATOM      7  C   LIG    1       24.001 -29.831   3.954  0.00  0.00    +0.040 C 
ENDROOT
BRANCH   2   8
ATOM      8  O   LIG    1       26.915 -26.796   5.164  0.00  0.00    -0.389 OA
ATOM      9  H   LIG    1       26.354 -26.249   4.587  0.00  0.00    +0.210 HD
ENDBRANCH   2   8
BRANCH   1  10
ATOM     10  O   LIG    1       24.034 -26.907   6.214  0.00  0.00    -0.343 OA
BRANCH  10  14
ATOM     11  C   LIG    1       24.388 -22.715   6.320  0.00  0.00    +0.178 C 
ATOM     12  C   LIG    1       23.187 -23.400   6.999  0.00  0.00    +0.151 C 
ATOM     13  C   LIG    1       22.883 -24.729   6.319  0.00  0.00    +0.095 C 
ATOM     14  C   LIG    1       24.171 -25.493   5.997  0.00  0.00    +0.254 C 
ATOM     15  O   LIG    1       25.236 -25.011   6.833  0.00  0.00    -0.346 OA
ATOM     16  C   LIG    1       25.610 -23.645   6.547  0.00  0.00    +0.150 C 
ATOM     17  C   LIG    1       26.429 -23.149   7.736  0.00  0.00    +0.040 C 
BRANCH  12  18
ATOM     18  O   LIG    1       22.024 -22.576   7.018  0.00  0.00    -0.389 OA
ATOM     19  H   LIG    1       22.272 -21.738   7.448  0.00  0.00    +0.210 HD
ENDBRANCH  12  18
BRANCH  11  20
ATOM     20  O   LIG    1       24.083 -22.505   4.916  0.00  0.00    -0.343 OA
BRANCH  20  26
ATOM     21  C   LIG    1       24.200 -18.982   4.337  0.00  0.00    +0.212 C 
ATOM     22  C   LIG    1       25.701 -18.645   4.228  0.00  0.00    +0.184 C 
ATOM     23  C   LIG    1       26.564 -19.873   4.582  0.00  0.00    +0.150 C 
ATOM     24  C   LIG    1       27.727 -19.525   5.500  0.00  0.00    +0.040 C 
ATOM     25  O   LIG    1       25.775 -20.880   5.227  0.00  0.00    -0.346 OA
ATOM     26  C   LIG    1       24.833 -21.437   4.316  0.00  0.00    +0.255 C 
ATOM     27  C   LIG    1       23.894 -20.367   3.763  0.00  0.00    +0.108 C 
BRANCH  22  28
ATOM     28  O   LIG    1       26.042 -18.242   2.893  0.00  0.00    -0.386 OA
ATOM     29  H   LIG    1       25.203 -18.184   2.399  0.00  0.00    +0.210 HD
ENDBRANCH  22  28
BRANCH  21  30
ATOM     30  O   LIG    1       23.420 -18.019   3.592  0.00  0.00    -0.459 OA
BRANCH  30  32
ATOM     31  C   LIG    1       22.269 -16.398   4.855  0.00  0.00    +0.136 C 
ATOM     32  C   LIG    1       22.213 -17.719   4.151  0.00  0.00    +0.304 C 
ATOM     33  O   LIG    1       21.197 -18.392   4.040  0.00  0.00    -0.251 OA
ENDBRANCH  30  32
ENDBRANCH  21  30
ENDBRANCH  20  26
ENDBRANCH  11  20
ENDBRANCH  10  14
ENDBRANCH   1  10
BRANCH   4  34
ATOM     34  O   LIG    1       26.097 -30.435   8.136  0.00  0.00    -0.348 OA
BRANCH  34  35
ATOM     35  C   LIG    1       25.366 -31.627   8.484  0.00  0.00    +0.122 C 
ATOM     36  C   LIG    1       23.927 -31.247   8.896  0.00  0.00    +0.035 C 
ATOM     37  C   LIG    1       23.915 -30.388  10.166  0.00  0.00    -0.002 C 
ATOM     38  C   LIG    1       22.490 -30.014  10.662  0.00  0.00    +0.004 C 
ATOM     39  C   LIG    1       22.501 -29.245  12.017  0.00  0.00    +0.007 C 
ATOM     40  C   LIG    1       23.882 -28.628  12.241  0.00  0.00    +0.025 C 
ATOM     41  C   LIG    1       24.131 -27.523  13.284  0.00  0.00    +0.075 C 
ATOM     42  C   LIG    1       24.482 -28.006  14.714  0.00  0.00    +0.004 C 
ATOM     43  C   LIG    1       23.285 -28.706  15.427  0.00  0.00    +0.014 C 
ATOM     44  C   LIG    1       24.745 -26.637  15.459  0.00  0.00    +0.027 C 
ATOM     45  C   LIG    1       23.628 -25.728  14.834  0.00  0.00    +0.011 C 
ATOM     46  C   LIG    1       25.624 -29.029  14.684  0.00  0.00    +0.010 C 
ATOM     47  C   LIG    1       25.342 -30.201  13.757  0.00  0.00    +0.005 C 
ATOM     48  C   LIG    1       23.108 -26.419  13.541  0.00  0.00    +0.036 C 
ATOM     49  C   LIG    1       24.998 -29.741  12.325  0.00  0.00    +0.001 C 
ATOM     50  C   LIG    1       24.758 -30.951  11.346  0.00  0.00    -0.026 C 
ATOM     51  C   LIG    1       24.040 -32.150  12.025  0.00  0.00    +0.012 C 
ATOM     52  C   LIG    1       26.135 -31.485  10.860  0.00  0.00    +0.009 C 
ATOM     53  C   LIG    1       26.018 -32.390   9.635  0.00  0.00    +0.032 C 
BRANCH  44  54
ATOM     54  C   LIG    1       26.129 -25.988  15.435  0.00  0.00    -0.022 C 
ATOM     55  C   LIG    1       27.390 -26.781  15.500  0.00  0.00    +0.264 C 
ATOM     56  O   LIG    1       28.456 -25.841  15.365  0.00  0.00    -0.457 OA
ATOM     57  C   LIG    1       27.921 -24.581  15.298  0.00  0.00    +0.332 C 
ATOM     58  O   LIG    1       28.534 -23.536  15.189  0.00  0.00    -0.246 OA
ATOM     59  C   LIG    1       26.500 -24.699  15.356  0.00  0.00    +0.094 C 
ENDBRANCH  44  54
BRANCH  41  60
ATOM     60  O   LIG    1       25.281 -26.820  12.743  0.00  0.00    -0.388 OA
ATOM     61  H   LIG    1       25.026 -25.890  12.599  0.00  0.00    +0.210 HD
ENDBRANCH  41  60
ENDBRANCH  34  35
ENDBRANCH   4  34
TORSDOF 13
ENDMDL
