MODEL 1
REMARK VINA RESULT:      39.0      0.000      0.000
REMARK  Name = *****
REMARK                            x       y       z     vdW  Elec       q    Type
REMARK                         _______ _______ _______ _____ _____    ______ ____
ROOT
ATOM      1  C   UNK A  1       26.952 -13.248   2.939  0.00  0.00    +0.176 C 
ATOM      2  C   UNK A  1       25.549 -12.619   2.798  0.00  0.00    +0.235 C 
ATOM      3  O   UNK A  1       25.250 -11.924   1.828  0.00  0.00    -0.274 OA
ATOM      4  N   SER A  2       24.612 -13.057   3.706  0.00  0.00    -0.300 N 
ATOM      5  H   SER A  2       25.034 -13.404   4.565  0.00  0.00    +0.150 HD
ATOM      6  CA  SER A  2       23.297 -12.419   3.896  0.00  0.00    +0.184 C 
ATOM      7  C   SER A  2       22.802 -13.046   5.227  0.00  0.00    +0.236 C 
ATOM      8  O   SER A  2       23.447 -12.910   6.271  0.00  0.00    -0.274 OA
ATOM      9  N   UNK A  3       21.797 -13.988   5.173  0.00  0.00    -0.300 N 
ATOM     10  H   UNK A  3       21.215 -14.060   4.342  0.00  0.00    +0.150 HD
ATOM     11  C   UNK A  3       22.007 -15.280   5.844  0.00  0.00    +0.185 C 
ATOM     12  C   UNK A  3       21.758 -16.371   4.784  0.00  0.00    +0.240 C 
ATOM     13  O   UNK A  3       21.106 -16.138   3.765  0.00  0.00    -0.273 OA
ATOM     14  N   UNK A  3       22.389 -17.591   5.036  0.00  0.00    -0.279 N 
ATOM     15  H   UNK A  3       23.049 -17.466   5.807  0.00  0.00    +0.155 HD
ATOM     16  C   UNK A  3       23.067 -18.142   3.938  0.00  0.00    +0.110 C 
ATOM     17  C   UNK A  3       22.507 -19.031   3.108  0.00  0.00    +0.104 C 
ATOM     18  C   UNK A  3       24.459 -17.576   3.793  0.00  0.00    +0.260 C 
ATOM     19  O   UNK A  3       24.776 -16.611   4.490  0.00  0.00    -0.269 OA
ATOM     20  N   UNK A  3       25.359 -18.183   2.964  0.00  0.00    -0.296 N 
ATOM     21  H   UNK A  3       25.096 -19.053   2.515  0.00  0.00    +0.150 HD
ATOM     22  C   UNK A  3       26.804 -18.029   3.243  0.00  0.00    +0.194 C 
ATOM     23  C   UNK A  3       27.379 -16.596   3.005  0.00  0.00    +0.237 C 
ATOM     24  O   UNK A  3       28.533 -16.296   3.325  0.00  0.00    -0.274 OA
ATOM     25  N   UNK A  3       26.574 -15.705   2.334  0.00  0.00    -0.311 N 
ATOM     26  H   UNK A  3       25.573 -15.862   2.385  0.00  0.00    +0.149 HD
ATOM     27  C   UNK A  3       27.041 -14.389   1.896  0.00  0.00    +0.136 C 
ENDROOT
BRANCH  22  28
ATOM     28  C   UNK A  3       27.195 -18.520   4.670  0.00  0.00    +0.171 C 
ATOM     29  N   UNK A  3       28.164 -17.642   5.310  0.00  0.00    -0.233 N 
ATOM     30  H   UNK A  3       27.956 -16.647   5.247  0.00  0.00    +0.245 HD
ATOM     31  C   UNK A  3       28.808 -18.080   6.418  0.00  0.00    +0.365 C 
ATOM     32  N   UNK A  3       28.870 -19.289   6.845  0.00  0.00    -0.085 NA
ATOM     33  C   UNK A  3       28.176 -20.314   6.074  0.00  0.00    +0.319 C 
ATOM     34  C   UNK A  3       27.859 -19.901   4.643  0.00  0.00    +0.115 C 
BRANCH  31  35
ATOM     35  N   UNK A  3       29.471 -17.097   7.060  0.00  0.00    -0.252 N 
ATOM     36  H   UNK A  3       30.472 -17.060   6.939  0.00  0.00    +0.241 HD
ATOM     37  H   UNK A  3       29.023 -16.195   6.941  0.00  0.00    +0.241 HD
ENDBRANCH  31  35
BRANCH  33  38
ATOM     38  O   UNK A  3       26.973 -20.750   6.694  0.00  0.00    -0.358 OA
ATOM     39  H   UNK A  3       26.755 -20.002   7.278  0.00  0.00    +0.213 HD
ENDBRANCH  33  38
ENDBRANCH  22  28
BRANCH  17  40
ATOM     40  N   UNK A  3       21.248 -19.550   3.311  0.00  0.00    -0.274 N 
ATOM     41  H   UNK A  3       20.472 -19.122   2.825  0.00  0.00    +0.156 HD
ATOM     42  C   UNK A  3       20.985 -20.591   4.165  0.00  0.00    +0.301 C 
ATOM     43  O   UNK A  3       21.803 -21.178   4.842  0.00  0.00    -0.253 OA
ATOM     44  N   UNK A  3       19.656 -20.894   4.228  0.00  0.00    -0.313 N 
ATOM     45  H   UNK A  3       19.457 -21.717   4.785  0.00  0.00    +0.146 HD
ATOM     46  H   UNK A  3       19.091 -20.789   3.401  0.00  0.00    +0.146 HD
ENDBRANCH  17  40
BRANCH   1  48
ATOM     47  C   UNK A  0       26.479 -13.198   5.358  0.00  0.00    +0.215 C 
ATOM     48  N   UNK A  1       27.231 -13.691   4.309  0.00  0.00    -0.303 N 
ATOM     49  H   UNK A  1       28.210 -13.878   4.512  0.00  0.00    +0.149 HD
ATOM     50  O   UNK A  0       25.518 -12.458   5.188  0.00  0.00    -0.276 OA
BRANCH  47  51
ATOM     51  C   UNK A  0       26.837 -13.812   6.694  0.00  0.00    +0.114 C 
BRANCH  51  52
ATOM     52  C   UNK A  0       28.339 -14.107   6.824  0.00  0.00    +0.059 C 
BRANCH  52  53
ATOM     53  N   UNK A  0       28.717 -15.087   5.794  0.00  0.00    -0.327 NA
ATOM     54  H   UNK A  0       29.562 -15.582   6.082  0.00  0.00    +0.118 HD
ATOM     55  H   UNK A  0       27.992 -15.794   5.687  0.00  0.00    +0.118 HD
ENDBRANCH  52  53
BRANCH  52  56
ATOM     56  C   UNK A  0       29.182 -12.816   6.693  0.00  0.00    +0.020 C 
BRANCH  56  57
ATOM     57  C   UNK A  0       28.818 -11.949   5.481  0.00  0.00    +0.016 C 
BRANCH  57  58
ATOM     58  C   UNK A  0       29.443 -12.478   4.185  0.00  0.00    +0.077 C 
BRANCH  58  59
ATOM     59  N   UNK A  0       29.085 -13.880   3.984  0.00  0.00    -0.330 NA
ATOM     60  H   UNK A  0       29.000 -14.064   2.984  0.00  0.00    +0.118 HD
ATOM     61  H   UNK A  0       28.166 -14.060   4.385  0.00  0.00    +0.118 HD
ENDBRANCH  58  59
ENDBRANCH  57  58
ENDBRANCH  56  57
ENDBRANCH  52  56
ENDBRANCH  51  52
ENDBRANCH  47  51
ENDBRANCH   1  48
BRANCH   6  62
ATOM     62  CB  SER A  2       22.334 -12.628   2.717  0.00  0.00    +0.187 C 
BRANCH  62  63
ATOM     63  OG  SER A  2       22.576 -13.795   1.943  0.00  0.00    -0.393 OA
ATOM     64  H   SER A  2       22.649 -14.558   2.557  0.00  0.00    +0.209 HD
ENDBRANCH  62  63
ENDBRANCH   6  62
BRANCH  11  65
ATOM     65  C   UNK A  3       21.111 -15.474   7.059  0.00  0.00    +0.187 C 
BRANCH  65  66
ATOM     66  O   UNK A  3       19.838 -14.864   6.866  0.00  0.00    -0.393 OA
ATOM     67  H   UNK A  3       19.637 -14.887   5.908  0.00  0.00    +0.209 HD
ENDBRANCH  65  66
ENDBRANCH  11  65
TORSDOF 16
ENDMDL
