MODEL 1
REMARK VINA RESULT:      -8.7      0.000      0.000
REMARK  Name = *****
REMARK                            x       y       z     vdW  Elec       q    Type
REMARK                         _______ _______ _______ _____ _____    ______ ____
ROOT
ATOM      1  C   LIG    1       30.768 -19.250   6.688  0.00  0.00    +0.044 C 
ATOM      2  C   LIG    1       29.435 -19.935   6.738  0.00  0.00    -0.050 C 
ATOM      3  C   LIG    1       28.445 -19.575   5.811  0.00  0.00    +0.013 C 
ATOM      4  C   LIG    1       27.186 -20.207   5.838  0.00  0.00    +0.004 C 
ATOM      5  C   LIG    1       26.002 -20.073   5.059  0.00  0.00    -0.017 C 
ATOM      6  C   LIG    1       25.660 -19.179   3.919  0.00  0.00    +0.037 C 
ATOM      7  C   LIG    1       24.394 -19.686   3.189  0.00  0.00    +0.007 C 
ATOM      8  C   LIG    1       23.271 -20.103   4.171  0.00  0.00    +0.025 C 
ATOM      9  C   LIG    1       23.717 -21.251   5.114  0.00  0.00    +0.101 C 
ATOM     10  N   LIG    1       22.815 -21.395   6.263  0.00  0.00    -0.306 NA
ATOM     11  H   LIG    1       22.563 -20.458   6.580  0.00  0.00    +0.123 HD
ATOM     12  C   LIG    1       23.398 -22.122   7.417  0.00  0.00    +0.103 C 
ATOM     13  C   LIG    1       24.865 -22.596   7.340  0.00  0.00    +0.137 C 
ATOM     14  N   LIG    1       25.658 -21.625   6.615  0.00  0.00    -0.341 NA
ATOM     15  C   LIG    1       25.096 -20.965   5.570  0.00  0.00    +0.040 C 
ATOM     16  C   LIG    1       26.945 -21.194   6.810  0.00  0.00    +0.050 C 
ATOM     17  C   LIG    1       27.922 -21.569   7.743  0.00  0.00    +0.026 C 
ATOM     18  C   LIG    1       29.165 -20.924   7.689  0.00  0.00    +0.005 C 
ENDROOT
TORSDOF 0
ENDMDL
MODEL 2
REMARK VINA RESULT:      -8.4      1.091      2.977
REMARK  Name = *****
REMARK                            x       y       z     vdW  Elec       q    Type
REMARK                         _______ _______ _______ _____ _____    ______ ____
ROOT
ATOM      1  C   LIG    1       30.532 -20.568   8.346  0.00  0.00    +0.044 C 
ATOM      2  C   LIG    1       29.363 -20.363   7.428  0.00  0.00    -0.050 C 
ATOM      3  C   LIG    1       28.130 -20.954   7.747  0.00  0.00    +0.013 C 
ATOM      4  C   LIG    1       27.019 -20.774   6.900  0.00  0.00    +0.004 C 
ATOM      5  C   LIG    1       25.670 -21.227   6.939  0.00  0.00    -0.017 C 
ATOM      6  C   LIG    1       24.942 -22.093   7.906  0.00  0.00    +0.037 C 
ATOM      7  C   LIG    1       23.413 -21.973   7.701  0.00  0.00    +0.007 C 
ATOM      8  C   LIG    1       23.009 -22.025   6.207  0.00  0.00    +0.025 C 
ATOM      9  C   LIG    1       23.649 -20.871   5.390  0.00  0.00    +0.101 C 
ATOM     10  N   LIG    1       23.576 -21.120   3.945  0.00  0.00    -0.306 NA
ATOM     11  H   LIG    1       23.774 -22.110   3.790  0.00  0.00    +0.123 HD
ATOM     12  C   LIG    1       24.540 -20.335   3.136  0.00  0.00    +0.103 C 
ATOM     13  C   LIG    1       25.537 -19.401   3.855  0.00  0.00    +0.137 C 
ATOM     14  N   LIG    1       25.955 -19.999   5.106  0.00  0.00    -0.341 NA
ATOM     15  C   LIG    1       25.057 -20.724   5.821  0.00  0.00    +0.040 C 
ATOM     16  C   LIG    1       27.172 -19.999   5.737  0.00  0.00    +0.050 C 
ATOM     17  C   LIG    1       28.395 -19.398   5.403  0.00  0.00    +0.026 C 
ATOM     18  C   LIG    1       29.481 -19.594   6.266  0.00  0.00    +0.005 C 
ENDROOT
TORSDOF 0
ENDMDL
MODEL 3
REMARK VINA RESULT:      -7.3      1.976      5.152
REMARK  Name = *****
REMARK                            x       y       z     vdW  Elec       q    Type
REMARK                         _______ _______ _______ _____ _____    ______ ____
ROOT
ATOM      1  C   LIG    1       21.750 -18.071   3.938  0.00  0.00    +0.044 C 
ATOM      2  C   LIG    1       22.199 -19.355   4.570  0.00  0.00    -0.050 C 
ATOM      3  C   LIG    1       23.464 -19.414   5.177  0.00  0.00    +0.013 C 
ATOM      4  C   LIG    1       23.905 -20.609   5.777  0.00  0.00    +0.004 C 
ATOM      5  C   LIG    1       25.099 -20.986   6.456  0.00  0.00    -0.017 C 
ATOM      6  C   LIG    1       26.345 -20.232   6.762  0.00  0.00    +0.037 C 
ATOM      7  C   LIG    1       27.177 -20.969   7.839  0.00  0.00    +0.007 C 
ATOM      8  C   LIG    1       27.274 -22.492   7.575  0.00  0.00    +0.025 C 
ATOM      9  C   LIG    1       25.879 -23.171   7.563  0.00  0.00    +0.101 C 
ATOM     10  N   LIG    1       25.930 -24.509   6.960  0.00  0.00    -0.306 NA
ATOM     11  H   LIG    1       26.551 -24.462   6.151  0.00  0.00    +0.123 HD
ATOM     12  C   LIG    1       24.619 -25.024   6.494  0.00  0.00    +0.103 C 
ATOM     13  C   LIG    1       23.372 -24.124   6.623  0.00  0.00    +0.137 C 
ATOM     14  N   LIG    1       23.736 -22.742   6.388  0.00  0.00    -0.341 NA
ATOM     15  C   LIG    1       24.947 -22.300   6.814  0.00  0.00    +0.040 C 
ATOM     16  C   LIG    1       23.060 -21.733   5.751  0.00  0.00    +0.050 C 
ATOM     17  C   LIG    1       21.793 -21.693   5.152  0.00  0.00    +0.026 C 
ATOM     18  C   LIG    1       21.381 -20.489   4.565  0.00  0.00    +0.005 C 
ENDROOT
TORSDOF 0
ENDMDL
MODEL 4
REMARK VINA RESULT:      -7.1      1.647      5.453
REMARK  Name = *****
REMARK                            x       y       z     vdW  Elec       q    Type
REMARK                         _______ _______ _______ _____ _____    ______ ____
ROOT
ATOM      1  C   LIG    1       20.606 -18.795   3.616  0.00  0.00    +0.044 C 
ATOM      2  C   LIG    1       21.989 -19.180   4.053  0.00  0.00    -0.050 C 
ATOM      3  C   LIG    1       22.171 -20.366   4.782  0.00  0.00    +0.013 C 
ATOM      4  C   LIG    1       23.461 -20.747   5.201  0.00  0.00    +0.004 C 
ATOM      5  C   LIG    1       23.967 -21.858   5.935  0.00  0.00    -0.017 C 
ATOM      6  C   LIG    1       23.291 -23.031   6.551  0.00  0.00    +0.037 C 
ATOM      7  C   LIG    1       24.320 -24.132   6.902  0.00  0.00    +0.007 C 
ATOM      8  C   LIG    1       25.589 -23.562   7.583  0.00  0.00    +0.025 C 
ATOM      9  C   LIG    1       26.332 -22.546   6.676  0.00  0.00    +0.101 C 
ATOM     10  N   LIG    1       27.299 -21.743   7.434  0.00  0.00    -0.306 NA
ATOM     11  H   LIG    1       26.871 -21.505   8.329  0.00  0.00    +0.123 HD
ATOM     12  C   LIG    1       27.699 -20.477   6.773  0.00  0.00    +0.103 C 
ATOM     13  C   LIG    1       27.049 -20.096   5.426  0.00  0.00    +0.137 C 
ATOM     14  N   LIG    1       25.664 -20.517   5.413  0.00  0.00    -0.341 NA
ATOM     15  C   LIG    1       25.322 -21.674   6.035  0.00  0.00    +0.040 C 
ATOM     16  C   LIG    1       24.551 -19.919   4.881  0.00  0.00    +0.050 C 
ATOM     17  C   LIG    1       24.388 -18.732   4.152  0.00  0.00    +0.026 C 
ATOM     18  C   LIG    1       23.094 -18.381   3.747  0.00  0.00    +0.005 C 
ENDROOT
TORSDOF 0
ENDMDL
MODEL 5
REMARK VINA RESULT:      -7.0      2.794      5.336
REMARK  Name = *****
REMARK                            x       y       z     vdW  Elec       q    Type
REMARK                         _______ _______ _______ _____ _____    ______ ____
ROOT
ATOM      1  C   LIG    1       25.688 -28.237   7.040  0.00  0.00    +0.044 C 
ATOM      2  C   LIG    1       25.436 -26.870   6.475  0.00  0.00    -0.050 C 
ATOM      3  C   LIG    1       25.799 -25.742   7.227  0.00  0.00    +0.013 C 
ATOM      4  C   LIG    1       25.573 -24.449   6.716  0.00  0.00    +0.004 C 
ATOM      5  C   LIG    1       25.819 -23.138   7.215  0.00  0.00    -0.017 C 
ATOM      6  C   LIG    1       26.402 -22.658   8.497  0.00  0.00    +0.037 C 
ATOM      7  C   LIG    1       26.797 -21.166   8.392  0.00  0.00    +0.007 C 
ATOM      8  C   LIG    1       25.704 -20.310   7.705  0.00  0.00    +0.025 C 
ATOM      9  C   LIG    1       25.415 -20.786   6.257  0.00  0.00    +0.101 C 
ATOM     10  N   LIG    1       24.155 -20.236   5.743  0.00  0.00    -0.306 NA
ATOM     11  H   LIG    1       23.472 -20.263   6.501  0.00  0.00    +0.123 HD
ATOM     12  C   LIG    1       23.583 -20.979   4.593  0.00  0.00    +0.103 C 
ATOM     13  C   LIG    1       24.300 -22.250   4.090  0.00  0.00    +0.137 C 
ATOM     14  N   LIG    1       24.868 -22.970   5.211  0.00  0.00    -0.341 NA
ATOM     15  C   LIG    1       25.374 -22.266   6.256  0.00  0.00    +0.040 C 
ATOM     16  C   LIG    1       24.977 -24.315   5.450  0.00  0.00    +0.050 C 
ATOM     17  C   LIG    1       24.609 -25.431   4.684  0.00  0.00    +0.026 C 
ATOM     18  C   LIG    1       24.849 -26.704   5.218  0.00  0.00    +0.005 C 
ENDROOT
TORSDOF 0
ENDMDL
MODEL 6
REMARK VINA RESULT:      -6.7      2.213      5.223
REMARK  Name = *****
REMARK                            x       y       z     vdW  Elec       q    Type
REMARK                         _______ _______ _______ _____ _____    ______ ____
ROOT
ATOM      1  C   LIG    1       23.278 -22.090   6.102  0.00  0.00    +0.044 C 
ATOM      2  C   LIG    1       24.643 -21.908   6.695  0.00  0.00    -0.050 C 
ATOM      3  C   LIG    1       25.531 -20.996   6.103  0.00  0.00    +0.013 C 
ATOM      4  C   LIG    1       26.818 -20.808   6.644  0.00  0.00    +0.004 C 
ATOM      5  C   LIG    1       27.923 -19.984   6.288  0.00  0.00    -0.017 C 
ATOM      6  C   LIG    1       28.120 -19.015   5.176  0.00  0.00    +0.037 C 
ATOM      7  C   LIG    1       29.344 -18.109   5.452  0.00  0.00    +0.007 C 
ATOM      8  C   LIG    1       30.567 -18.906   5.970  0.00  0.00    +0.025 C 
ATOM      9  C   LIG    1       30.261 -19.642   7.301  0.00  0.00    +0.101 C 
ATOM     10  N   LIG    1       31.265 -20.671   7.598  0.00  0.00    -0.306 NA
ATOM     11  H   LIG    1       31.494 -21.143   6.722  0.00  0.00    +0.123 HD
ATOM     12  C   LIG    1       30.820 -21.704   8.565  0.00  0.00    +0.103 C 
ATOM     13  C   LIG    1       29.378 -21.646   9.113  0.00  0.00    +0.137 C 
ATOM     14  N   LIG    1       28.477 -21.182   8.078  0.00  0.00    -0.341 NA
ATOM     15  C   LIG    1       28.914 -20.245   7.198  0.00  0.00    +0.040 C 
ATOM     16  C   LIG    1       27.192 -21.551   7.777  0.00  0.00    +0.050 C 
ATOM     17  C   LIG    1       26.318 -22.465   8.384  0.00  0.00    +0.026 C 
ATOM     18  C   LIG    1       25.044 -22.628   7.824  0.00  0.00    +0.005 C 
ENDROOT
TORSDOF 0
ENDMDL
MODEL 7
REMARK VINA RESULT:      -6.6      2.669      4.884
REMARK  Name = *****
REMARK                            x       y       z     vdW  Elec       q    Type
REMARK                         _______ _______ _______ _____ _____    ______ ____
ROOT
ATOM      1  C   LIG    1       24.476 -27.937   5.005  0.00  0.00    +0.044 C 
ATOM      2  C   LIG    1       24.909 -26.640   5.621  0.00  0.00    -0.050 C 
ATOM      3  C   LIG    1       24.585 -25.434   4.979  0.00  0.00    +0.013 C 
ATOM      4  C   LIG    1       24.981 -24.205   5.540  0.00  0.00    +0.004 C 
ATOM      5  C   LIG    1       24.815 -22.846   5.147  0.00  0.00    -0.017 C 
ATOM      6  C   LIG    1       24.162 -22.229   3.961  0.00  0.00    +0.037 C 
ATOM      7  C   LIG    1       23.923 -20.719   4.193  0.00  0.00    +0.007 C 
ATOM      8  C   LIG    1       25.153 -20.013   4.816  0.00  0.00    +0.025 C 
ATOM      9  C   LIG    1       25.530 -20.611   6.197  0.00  0.00    +0.101 C 
ATOM     10  N   LIG    1       26.880 -20.212   6.613  0.00  0.00    -0.306 NA
ATOM     11  H   LIG    1       27.483 -20.247   5.790  0.00  0.00    +0.123 HD
ATOM     12  C   LIG    1       27.486 -21.079   7.653  0.00  0.00    +0.103 C 
ATOM     13  C   LIG    1       26.701 -22.313   8.150  0.00  0.00    +0.137 C 
ATOM     14  N   LIG    1       25.964 -22.901   7.051  0.00  0.00    -0.341 NA
ATOM     15  C   LIG    1       25.430 -22.084   6.106  0.00  0.00    +0.040 C 
ATOM     16  C   LIG    1       25.705 -24.212   6.745  0.00  0.00    +0.050 C 
ATOM     17  C   LIG    1       26.036 -25.405   7.403  0.00  0.00    +0.026 C 
ATOM     18  C   LIG    1       25.626 -26.612   6.821  0.00  0.00    +0.005 C 
ENDROOT
TORSDOF 0
ENDMDL
MODEL 8
REMARK VINA RESULT:      -6.4      6.595      8.866
REMARK  Name = *****
REMARK                            x       y       z     vdW  Elec       q    Type
REMARK                         _______ _______ _______ _____ _____    ______ ____
ROOT
ATOM      1  C   LIG    1       25.593 -23.514   6.291  0.00  0.00    +0.044 C 
ATOM      2  C   LIG    1       25.470 -25.006   6.187  0.00  0.00    -0.050 C 
ATOM      3  C   LIG    1       25.849 -25.802   7.280  0.00  0.00    +0.013 C 
ATOM      4  C   LIG    1       25.740 -27.204   7.205  0.00  0.00    +0.004 C 
ATOM      5  C   LIG    1       26.033 -28.262   8.112  0.00  0.00    -0.017 C 
ATOM      6  C   LIG    1       26.592 -28.260   9.491  0.00  0.00    +0.037 C 
ATOM      7  C   LIG    1       26.362 -29.629  10.175  0.00  0.00    +0.007 C 
ATOM      8  C   LIG    1       26.691 -30.820   9.241  0.00  0.00    +0.025 C 
ATOM      9  C   LIG    1       25.811 -30.819   7.963  0.00  0.00    +0.101 C 
ATOM     10  N   LIG    1       26.355 -31.704   6.925  0.00  0.00    -0.306 NA
ATOM     11  H   LIG    1       27.369 -31.592   6.921  0.00  0.00    +0.123 HD
ATOM     12  C   LIG    1       25.864 -31.419   5.554  0.00  0.00    +0.103 C 
ATOM     13  C   LIG    1       24.906 -30.229   5.333  0.00  0.00    +0.137 C 
ATOM     14  N   LIG    1       25.262 -29.140   6.219  0.00  0.00    -0.341 NA
ATOM     15  C   LIG    1       25.721 -29.429   7.464  0.00  0.00    +0.040 C 
ATOM     16  C   LIG    1       25.252 -27.784   6.021  0.00  0.00    +0.050 C 
ATOM     17  C   LIG    1       24.866 -27.005   4.920  0.00  0.00    +0.026 C 
ATOM     18  C   LIG    1       24.984 -25.613   5.026  0.00  0.00    +0.005 C 
ENDROOT
TORSDOF 0
ENDMDL
MODEL 9
REMARK VINA RESULT:      -6.3      1.828      5.767
REMARK  Name = *****
REMARK                            x       y       z     vdW  Elec       q    Type
REMARK                         _______ _______ _______ _____ _____    ______ ____
ROOT
ATOM      1  C   LIG    1       23.203 -22.814   7.014  0.00  0.00    +0.044 C 
ATOM      2  C   LIG    1       24.370 -21.979   6.579  0.00  0.00    -0.050 C 
ATOM      3  C   LIG    1       25.571 -22.051   7.302  0.00  0.00    +0.013 C 
ATOM      4  C   LIG    1       26.680 -21.277   6.910  0.00  0.00    +0.004 C 
ATOM      5  C   LIG    1       28.002 -21.126   7.417  0.00  0.00    -0.017 C 
ATOM      6  C   LIG    1       28.692 -21.738   8.586  0.00  0.00    +0.037 C 
ATOM      7  C   LIG    1       30.223 -21.538   8.481  0.00  0.00    +0.007 C 
ATOM      8  C   LIG    1       30.605 -20.096   8.063  0.00  0.00    +0.025 C 
ATOM      9  C   LIG    1       30.022 -19.718   6.675  0.00  0.00    +0.101 C 
ATOM     10  N   LIG    1       30.063 -18.270   6.443  0.00  0.00    -0.306 NA
ATOM     11  H   LIG    1       29.808 -17.807   7.316  0.00  0.00    +0.123 HD
ATOM     12  C   LIG    1       29.136 -17.789   5.389  0.00  0.00    +0.103 C 
ATOM     13  C   LIG    1       28.202 -18.802   4.694  0.00  0.00    +0.137 C 
ATOM     14  N   LIG    1       27.765 -19.802   5.646  0.00  0.00    -0.341 NA
ATOM     15  C   LIG    1       28.630 -20.216   6.608  0.00  0.00    +0.040 C 
ATOM     16  C   LIG    1       26.557 -20.434   5.791  0.00  0.00    +0.050 C 
ATOM     17  C   LIG    1       25.366 -20.350   5.055  0.00  0.00    +0.026 C 
ATOM     18  C   LIG    1       24.282 -21.135   5.469  0.00  0.00    +0.005 C 
ENDROOT
TORSDOF 0
ENDMDL
