MODEL 1
REMARK VINA RESULT:      -8.1      0.000      0.000
REMARK  Name = *****
REMARK                            x       y       z     vdW  Elec       q    Type
REMARK                         _______ _______ _______ _____ _____    ______ ____
ROOT
ATOM      1  C   LIG    1       24.491 -20.281   4.413  0.00  0.00    -0.008 A 
ATOM      2  S   LIG    1       25.944 -19.440   4.724  0.00  0.00    -0.075 S 
ATOM      3  C   LIG    1       26.352 -20.484   5.991  0.00  0.00    +0.097 A 
ATOM      4  N   LIG    1       27.493 -20.238   6.763  0.00  0.00    -0.275 N 
ATOM      5  C   LIG    1       27.616 -20.620   8.085  0.00  0.00    +0.160 A 
ATOM      6  C   LIG    1       26.499 -21.252   8.824  0.00  0.00    +0.218 C 
ATOM      7  N   LIG    1       26.137 -22.547   8.261  0.00  0.00    -0.275 NA
ATOM      8  C   LIG    1       25.651 -22.662   7.073  0.00  0.00    +0.077 C 
ATOM      9  N   LIG    1       28.771 -20.225   8.574  0.00  0.00    -0.132 NA
ATOM     10  N   LIG    1       29.441 -19.575   7.578  0.00  0.00    -0.134 NA
ATOM     11  C   LIG    1       28.686 -19.577   6.496  0.00  0.00    +0.135 A 
ATOM     12  C   LIG    1       29.125 -19.051   5.182  0.00  0.00    +0.088 C 
ATOM     13  C   LIG    1       25.446 -21.515   6.176  0.00  0.00    +0.032 A 
ATOM     14  C   LIG    1       24.322 -21.333   5.292  0.00  0.00    +0.023 A 
ENDROOT
BRANCH   8  15
ATOM     15  C   LIG    1       25.270 -24.040   6.616  0.00  0.00    +0.019 A 
ATOM     16  C   LIG    1       23.956 -24.528   6.517  0.00  0.00    +0.050 A 
ATOM     17 CL   LIG    1       22.540 -23.576   6.800  0.00  0.00    -0.083 Cl
ATOM     18  C   LIG    1       23.729 -25.841   6.078  0.00  0.00    +0.021 A 
ATOM     19  C   LIG    1       24.790 -26.655   5.685  0.00  0.00    +0.002 A 
ATOM     20  C   LIG    1       26.090 -26.163   5.726  0.00  0.00    +0.001 A 
ATOM     21  C   LIG    1       26.328 -24.869   6.194  0.00  0.00    +0.011 A 
ENDBRANCH   8  15
BRANCH   1  23
ATOM     22  C   LIG    1       22.546 -18.868   3.746  0.00  0.00    +0.009 C 
ATOM     23  C   LIG    1       23.600 -19.864   3.281  0.00  0.00    +0.039 C 
ENDBRANCH   1  23
TORSDOF 2
ENDMDL
MODEL 2
REMARK VINA RESULT:      -6.7      2.767      6.010
REMARK  Name = *****
REMARK                            x       y       z     vdW  Elec       q    Type
REMARK                         _______ _______ _______ _____ _____    ______ ____
ROOT
ATOM      1  C   LIG    1       26.887 -20.989   7.864  0.00  0.00    -0.008 A 
ATOM      2  S   LIG    1       27.001 -22.678   7.638  0.00  0.00    -0.075 S 
ATOM      3  C   LIG    1       25.456 -22.755   6.955  0.00  0.00    +0.097 A 
ATOM      4  N   LIG    1       24.900 -23.994   6.617  0.00  0.00    -0.275 N 
ATOM      5  C   LIG    1       23.542 -24.244   6.610  0.00  0.00    +0.160 A 
ATOM      6  C   LIG    1       22.557 -23.231   7.052  0.00  0.00    +0.218 C 
ATOM      7  N   LIG    1       22.561 -22.055   6.191  0.00  0.00    -0.275 NA
ATOM      8  C   LIG    1       23.586 -21.279   6.100  0.00  0.00    +0.077 C 
ATOM      9  N   LIG    1       23.305 -25.499   6.296  0.00  0.00    -0.132 NA
ATOM     10  N   LIG    1       24.509 -26.106   6.082  0.00  0.00    -0.134 NA
ATOM     11  C   LIG    1       25.464 -25.216   6.271  0.00  0.00    +0.135 A 
ATOM     12  C   LIG    1       26.901 -25.484   6.029  0.00  0.00    +0.088 C 
ATOM     13  C   LIG    1       24.841 -21.521   6.828  0.00  0.00    +0.032 A 
ATOM     14  C   LIG    1       25.665 -20.507   7.437  0.00  0.00    +0.023 A 
ENDROOT
BRANCH   8  15
ATOM     15  C   LIG    1       23.460 -20.071   5.218  0.00  0.00    +0.019 A 
ATOM     16  C   LIG    1       24.457 -19.589   4.354  0.00  0.00    +0.050 A 
ATOM     17 CL   LIG    1       25.969 -20.380   4.076  0.00  0.00    -0.083 Cl
ATOM     18  C   LIG    1       24.218 -18.443   3.581  0.00  0.00    +0.021 A 
ATOM     19  C   LIG    1       22.980 -17.804   3.617  0.00  0.00    +0.002 A 
ATOM     20  C   LIG    1       21.967 -18.306   4.427  0.00  0.00    +0.001 A 
ATOM     21  C   LIG    1       22.208 -19.426   5.226  0.00  0.00    +0.011 A 
ENDBRANCH   8  15
BRANCH   1  23
ATOM     22  C   LIG    1       29.007 -19.783   7.336  0.00  0.00    +0.009 C 
ATOM     23  C   LIG    1       28.042 -20.219   8.432  0.00  0.00    +0.039 C 
ENDBRANCH   1  23
TORSDOF 2
ENDMDL
MODEL 3
REMARK VINA RESULT:      -6.5      6.843      9.750
REMARK  Name = *****
REMARK                            x       y       z     vdW  Elec       q    Type
REMARK                         _______ _______ _______ _____ _____    ______ ____
ROOT
ATOM      1  C   LIG    1       25.156 -27.939   6.750  0.00  0.00    -0.008 A 
ATOM      2  S   LIG    1       24.716 -29.478   6.155  0.00  0.00    -0.075 S 
ATOM      3  C   LIG    1       25.336 -30.255   7.523  0.00  0.00    +0.097 A 
ATOM      4  N   LIG    1       25.349 -31.653   7.590  0.00  0.00    -0.275 N 
ATOM      5  C   LIG    1       26.283 -32.373   8.310  0.00  0.00    +0.160 A 
ATOM      6  C   LIG    1       27.413 -31.715   9.005  0.00  0.00    +0.218 C 
ATOM      7  N   LIG    1       26.956 -30.833  10.072  0.00  0.00    -0.275 NA
ATOM      8  C   LIG    1       26.256 -29.778   9.832  0.00  0.00    +0.077 C 
ATOM      9  N   LIG    1       26.084 -33.664   8.162  0.00  0.00    -0.132 NA
ATOM     10  N   LIG    1       25.005 -33.825   7.341  0.00  0.00    -0.134 NA
ATOM     11  C   LIG    1       24.561 -32.631   6.996  0.00  0.00    +0.135 A 
ATOM     12  C   LIG    1       23.338 -32.406   6.192  0.00  0.00    +0.088 C 
ATOM     13  C   LIG    1       25.835 -29.386   8.479  0.00  0.00    +0.032 A 
ATOM     14  C   LIG    1       25.791 -28.037   7.972  0.00  0.00    +0.023 A 
ENDROOT
BRANCH   8  15
ATOM     15  C   LIG    1       25.882 -28.919  11.004  0.00  0.00    +0.019 A 
ATOM     16  C   LIG    1       24.695 -29.030  11.747  0.00  0.00    +0.050 A 
ATOM     17 CL   LIG    1       23.506 -30.263  11.503  0.00  0.00    -0.083 Cl
ATOM     18  C   LIG    1       24.458 -28.162  12.823  0.00  0.00    +0.021 A 
ATOM     19  C   LIG    1       25.413 -27.219  13.202  0.00  0.00    +0.002 A 
ATOM     20  C   LIG    1       26.616 -27.138  12.508  0.00  0.00    +0.001 A 
ATOM     21  C   LIG    1       26.844 -27.976  11.415  0.00  0.00    +0.011 A 
ENDBRANCH   8  15
BRANCH   1  23
ATOM     22  C   LIG    1       25.613 -25.502   6.475  0.00  0.00    +0.009 C 
ATOM     23  C   LIG    1       24.818 -26.701   5.975  0.00  0.00    +0.039 C 
ENDBRANCH   1  23
TORSDOF 2
ENDMDL
MODEL 4
REMARK VINA RESULT:      -6.4      6.523      9.476
REMARK  Name = *****
REMARK                            x       y       z     vdW  Elec       q    Type
REMARK                         _______ _______ _______ _____ _____    ______ ____
ROOT
ATOM      1  C   LIG    1       25.482 -27.994   5.536  0.00  0.00    -0.008 A 
ATOM      2  S   LIG    1       25.594 -27.807   7.230  0.00  0.00    -0.075 S 
ATOM      3  C   LIG    1       25.320 -29.454   7.495  0.00  0.00    +0.097 A 
ATOM      4  N   LIG    1       25.199 -29.943   8.801  0.00  0.00    -0.275 N 
ATOM      5  C   LIG    1       24.446 -31.054   9.132  0.00  0.00    +0.160 A 
ATOM      6  C   LIG    1       23.625 -31.770   8.130  0.00  0.00    +0.218 C 
ATOM      7  N   LIG    1       24.444 -32.373   7.085  0.00  0.00    -0.275 NA
ATOM      8  C   LIG    1       25.140 -31.660   6.268  0.00  0.00    +0.077 C 
ATOM      9  N   LIG    1       24.477 -31.261  10.430  0.00  0.00    -0.132 NA
ATOM     10  N   LIG    1       25.260 -30.291  10.986  0.00  0.00    -0.134 NA
ATOM     11  C   LIG    1       25.693 -29.501  10.022  0.00  0.00    +0.135 A 
ATOM     12  C   LIG    1       26.654 -28.393  10.231  0.00  0.00    +0.088 C 
ATOM     13  C   LIG    1       25.193 -30.192   6.330  0.00  0.00    +0.032 A 
ATOM     14  C   LIG    1       25.215 -29.305   5.194  0.00  0.00    +0.023 A 
ENDROOT
BRANCH   8  15
ATOM     15  C   LIG    1       25.907 -32.387   5.203  0.00  0.00    +0.019 A 
ATOM     16  C   LIG    1       27.137 -33.040   5.390  0.00  0.00    +0.050 A 
ATOM     17 CL   LIG    1       27.924 -33.212   6.920  0.00  0.00    -0.083 Cl
ATOM     18  C   LIG    1       27.760 -33.682   4.310  0.00  0.00    +0.021 A 
ATOM     19  C   LIG    1       27.147 -33.730   3.059  0.00  0.00    +0.002 A 
ATOM     20  C   LIG    1       25.903 -33.136   2.876  0.00  0.00    +0.001 A 
ATOM     21  C   LIG    1       25.292 -32.464   3.938  0.00  0.00    +0.011 A 
ENDBRANCH   8  15
BRANCH   1  23
ATOM     22  C   LIG    1       25.440 -25.507   5.350  0.00  0.00    +0.009 C 
ATOM     23  C   LIG    1       25.698 -26.822   4.627  0.00  0.00    +0.039 C 
ENDBRANCH   1  23
TORSDOF 2
ENDMDL
MODEL 5
REMARK VINA RESULT:      -6.4      7.103      9.874
REMARK  Name = *****
REMARK                            x       y       z     vdW  Elec       q    Type
REMARK                         _______ _______ _______ _____ _____    ______ ____
ROOT
ATOM      1  C   LIG    1       24.793 -28.221   6.382  0.00  0.00    -0.008 A 
ATOM      2  S   LIG    1       25.256 -29.542   5.404  0.00  0.00    -0.075 S 
ATOM      3  C   LIG    1       25.482 -30.542   6.749  0.00  0.00    +0.097 A 
ATOM      4  N   LIG    1       25.987 -31.837   6.583  0.00  0.00    -0.275 N 
ATOM      5  C   LIG    1       26.724 -32.497   7.547  0.00  0.00    +0.160 A 
ATOM      6  C   LIG    1       27.118 -31.842   8.816  0.00  0.00    +0.218 C 
ATOM      7  N   LIG    1       25.961 -31.496   9.632  0.00  0.00    -0.275 NA
ATOM      8  C   LIG    1       25.090 -30.628   9.248  0.00  0.00    +0.077 C 
ATOM      9  N   LIG    1       27.104 -33.677   7.110  0.00  0.00    -0.132 NA
ATOM     10  N   LIG    1       26.618 -33.824   5.843  0.00  0.00    -0.134 NA
ATOM     11  C   LIG    1       25.952 -32.732   5.521  0.00  0.00    +0.135 A 
ATOM     12  C   LIG    1       25.195 -32.568   4.258  0.00  0.00    +0.088 C 
ATOM     13  C   LIG    1       25.166 -29.935   7.953  0.00  0.00    +0.032 A 
ATOM     14  C   LIG    1       24.839 -28.550   7.723  0.00  0.00    +0.023 A 
ENDROOT
BRANCH   8  15
ATOM     15  C   LIG    1       23.965 -30.317  10.192  0.00  0.00    +0.019 A 
ATOM     16  C   LIG    1       24.061 -29.489  11.323  0.00  0.00    +0.050 A 
ATOM     17 CL   LIG    1       25.475 -28.593  11.757  0.00  0.00    -0.083 Cl
ATOM     18  C   LIG    1       22.935 -29.278  12.133  0.00  0.00    +0.021 A 
ATOM     19  C   LIG    1       21.702 -29.837  11.799  0.00  0.00    +0.002 A 
ATOM     20  C   LIG    1       21.583 -30.612  10.650  0.00  0.00    +0.001 A 
ATOM     21  C   LIG    1       22.707 -30.855   9.858  0.00  0.00    +0.011 A 
ENDBRANCH   8  15
BRANCH   1  23
ATOM     22  C   LIG    1       25.525 -26.292   4.980  0.00  0.00    +0.009 C 
ATOM     23  C   LIG    1       24.378 -26.923   5.758  0.00  0.00    +0.039 C 
ENDBRANCH   1  23
TORSDOF 2
ENDMDL
MODEL 6
REMARK VINA RESULT:      -6.3      6.649     10.146
REMARK  Name = *****
REMARK                            x       y       z     vdW  Elec       q    Type
REMARK                         _______ _______ _______ _____ _____    ______ ____
ROOT
ATOM      1  C   LIG    1       23.725 -30.591   9.402  0.00  0.00    -0.008 A 
ATOM      2  S   LIG    1       24.796 -31.919   9.322  0.00  0.00    -0.075 S 
ATOM      3  C   LIG    1       25.353 -31.460   7.793  0.00  0.00    +0.097 A 
ATOM      4  N   LIG    1       26.259 -32.274   7.104  0.00  0.00    -0.275 N 
ATOM      5  C   LIG    1       26.336 -32.332   5.725  0.00  0.00    +0.160 A 
ATOM      6  C   LIG    1       25.391 -31.593   4.857  0.00  0.00    +0.218 C 
ATOM      7  N   LIG    1       25.520 -30.150   5.016  0.00  0.00    -0.275 NA
ATOM      8  C   LIG    1       25.240 -29.558   6.126  0.00  0.00    +0.077 C 
ATOM      9  N   LIG    1       27.242 -33.207   5.350  0.00  0.00    -0.132 NA
ATOM     10  N   LIG    1       27.791 -33.744   6.479  0.00  0.00    -0.134 NA
ATOM     11  C   LIG    1       27.210 -33.193   7.528  0.00  0.00    +0.135 A 
ATOM     12  C   LIG    1       27.618 -33.454   8.928  0.00  0.00    +0.088 C 
ATOM     13  C   LIG    1       24.797 -30.279   7.329  0.00  0.00    +0.032 A 
ATOM     14  C   LIG    1       23.788 -29.826   8.253  0.00  0.00    +0.023 A 
ENDROOT
BRANCH   8  15
ATOM     15  C   LIG    1       25.365 -28.063   6.160  0.00  0.00    +0.019 A 
ATOM     16  C   LIG    1       25.883 -27.315   7.231  0.00  0.00    +0.050 A 
ATOM     17 CL   LIG    1       26.575 -28.007   8.656  0.00  0.00    -0.083 Cl
ATOM     18  C   LIG    1       25.943 -25.916   7.143  0.00  0.00    +0.021 A 
ATOM     19  C   LIG    1       25.544 -25.257   5.981  0.00  0.00    +0.002 A 
ATOM     20  C   LIG    1       25.082 -25.992   4.894  0.00  0.00    +0.001 A 
ATOM     21  C   LIG    1       24.987 -27.382   4.986  0.00  0.00    +0.011 A 
ENDBRANCH   8  15
BRANCH   1  23
ATOM     22  C   LIG    1       21.476 -30.890  10.440  0.00  0.00    +0.009 C 
ATOM     23  C   LIG    1       22.892 -30.360  10.627  0.00  0.00    +0.039 C 
ENDBRANCH   1  23
TORSDOF 2
ENDMDL
MODEL 7
REMARK VINA RESULT:      -6.2      7.495      9.405
REMARK  Name = *****
REMARK                            x       y       z     vdW  Elec       q    Type
REMARK                         _______ _______ _______ _____ _____    ______ ____
ROOT
ATOM      1  C   LIG    1       22.578 -30.927  10.732  0.00  0.00    -0.008 A 
ATOM      2  S   LIG    1       22.939 -29.899  12.047  0.00  0.00    -0.075 S 
ATOM      3  C   LIG    1       24.382 -29.384  11.332  0.00  0.00    +0.097 A 
ATOM      4  N   LIG    1       25.243 -28.528  12.027  0.00  0.00    -0.275 N 
ATOM      5  C   LIG    1       26.612 -28.503  11.837  0.00  0.00    +0.160 A 
ATOM      6  C   LIG    1       27.293 -29.457  10.933  0.00  0.00    +0.218 C 
ATOM      7  N   LIG    1       26.883 -29.280   9.545  0.00  0.00    -0.275 NA
ATOM      8  C   LIG    1       25.674 -29.501   9.158  0.00  0.00    +0.077 C 
ATOM      9  N   LIG    1       27.175 -27.637  12.650  0.00  0.00    -0.132 NA
ATOM     10  N   LIG    1       26.184 -27.063  13.394  0.00  0.00    -0.134 NA
ATOM     11  C   LIG    1       25.030 -27.589  13.030  0.00  0.00    +0.135 A 
ATOM     12  C   LIG    1       23.718 -27.139  13.548  0.00  0.00    +0.088 C 
ATOM     13  C   LIG    1       24.603 -29.922  10.074  0.00  0.00    +0.032 A 
ATOM     14  C   LIG    1       23.572 -30.883   9.774  0.00  0.00    +0.023 A 
ENDROOT
BRANCH   8  15
ATOM     15  C   LIG    1       25.377 -29.332   7.697  0.00  0.00    +0.019 A 
ATOM     16  C   LIG    1       25.461 -30.346   6.728  0.00  0.00    +0.050 A 
ATOM     17 CL   LIG    1       25.815 -32.002   7.081  0.00  0.00    -0.083 Cl
ATOM     18  C   LIG    1       25.161 -30.061   5.388  0.00  0.00    +0.021 A 
ATOM     19  C   LIG    1       24.725 -28.792   5.010  0.00  0.00    +0.002 A 
ATOM     20  C   LIG    1       24.585 -27.796   5.970  0.00  0.00    +0.001 A 
ATOM     21  C   LIG    1       24.914 -28.062   7.300  0.00  0.00    +0.011 A 
ENDBRANCH   8  15
BRANCH   1  23
ATOM     22  C   LIG    1       20.094 -30.790  10.548  0.00  0.00    +0.009 C 
ATOM     23  C   LIG    1       21.298 -31.708  10.708  0.00  0.00    +0.039 C 
ENDBRANCH   1  23
TORSDOF 2
ENDMDL
MODEL 8
REMARK VINA RESULT:      -6.1      8.209      9.611
REMARK  Name = *****
REMARK                            x       y       z     vdW  Elec       q    Type
REMARK                         _______ _______ _______ _____ _____    ______ ____
ROOT
ATOM      1  C   LIG    1       23.595 -27.035  13.701  0.00  0.00    -0.008 A 
ATOM      2  S   LIG    1       24.903 -26.522  14.671  0.00  0.00    -0.075 S 
ATOM      3  C   LIG    1       25.953 -27.642  13.963  0.00  0.00    +0.097 A 
ATOM      4  N   LIG    1       27.261 -27.777  14.441  0.00  0.00    -0.275 N 
ATOM      5  C   LIG    1       27.981 -28.955  14.373  0.00  0.00    +0.160 A 
ATOM      6  C   LIG    1       27.382 -30.209  13.861  0.00  0.00    +0.218 C 
ATOM      7  N   LIG    1       27.015 -30.103  12.454  0.00  0.00    -0.275 NA
ATOM      8  C   LIG    1       26.100 -29.291  12.048  0.00  0.00    +0.077 C 
ATOM      9  N   LIG    1       29.161 -28.808  14.932  0.00  0.00    -0.132 NA
ATOM     10  N   LIG    1       29.249 -27.521  15.379  0.00  0.00    -0.134 NA
ATOM     11  C   LIG    1       28.121 -26.900  15.091  0.00  0.00    +0.135 A 
ATOM     12  C   LIG    1       27.888 -25.457  15.332  0.00  0.00    +0.088 C 
ATOM     13  C   LIG    1       25.371 -28.388  12.951  0.00  0.00    +0.032 A 
ATOM     14  C   LIG    1       23.968 -28.070  12.865  0.00  0.00    +0.023 A 
ENDROOT
BRANCH   8  15
ATOM     15  C   LIG    1       25.772 -29.301  10.583  0.00  0.00    +0.019 A 
ATOM     16  C   LIG    1       24.766 -30.074   9.982  0.00  0.00    +0.050 A 
ATOM     17 CL   LIG    1       23.652 -31.070  10.853  0.00  0.00    -0.083 Cl
ATOM     18  C   LIG    1       24.559 -29.999   8.596  0.00  0.00    +0.021 A 
ATOM     19  C   LIG    1       25.305 -29.121   7.811  0.00  0.00    +0.002 A 
ATOM     20  C   LIG    1       26.265 -28.309   8.405  0.00  0.00    +0.001 A 
ATOM     21  C   LIG    1       26.501 -28.404   9.778  0.00  0.00    +0.011 A 
ENDBRANCH   8  15
BRANCH   1  23
ATOM     22  C   LIG    1       21.199 -27.106  13.010  0.00  0.00    +0.009 C 
ATOM     23  C   LIG    1       22.263 -26.356  13.802  0.00  0.00    +0.039 C 
ENDBRANCH   1  23
TORSDOF 2
ENDMDL
MODEL 9
REMARK VINA RESULT:      -6.0      8.366     10.073
REMARK  Name = *****
REMARK                            x       y       z     vdW  Elec       q    Type
REMARK                         _______ _______ _______ _____ _____    ______ ____
ROOT
ATOM      1  C   LIG    1       21.342 -31.334  10.544  0.00  0.00    -0.008 A 
ATOM      2  S   LIG    1       21.331 -30.142  11.767  0.00  0.00    -0.075 S 
ATOM      3  C   LIG    1       22.930 -29.700  11.440  0.00  0.00    +0.097 A 
ATOM      4  N   LIG    1       23.573 -28.750  12.242  0.00  0.00    -0.275 N 
ATOM      5  C   LIG    1       24.939 -28.729  12.454  0.00  0.00    +0.160 A 
ATOM      6  C   LIG    1       25.831 -29.780  11.913  0.00  0.00    +0.218 C 
ATOM      7  N   LIG    1       25.842 -29.787  10.455  0.00  0.00    -0.275 NA
ATOM      8  C   LIG    1       24.792 -30.074   9.766  0.00  0.00    +0.077 C 
ATOM      9  N   LIG    1       25.262 -27.758  13.278  0.00  0.00    -0.132 NA
ATOM     10  N   LIG    1       24.113 -27.110  13.626  0.00  0.00    -0.134 NA
ATOM     11  C   LIG    1       23.102 -27.695  13.013  0.00  0.00    +0.135 A 
ATOM     12  C   LIG    1       21.706 -27.202  13.068  0.00  0.00    +0.088 C 
ATOM     13  C   LIG    1       23.493 -30.390  10.379  0.00  0.00    +0.032 A 
ATOM     14  C   LIG    1       22.571 -31.398   9.917  0.00  0.00    +0.023 A 
ENDROOT
BRANCH   8  15
ATOM     15  C   LIG    1       24.933 -30.097   8.272  0.00  0.00    +0.019 A 
ATOM     16  C   LIG    1       25.441 -31.169   7.520  0.00  0.00    +0.050 A 
ATOM     17 CL   LIG    1       25.886 -32.701   8.189  0.00  0.00    -0.083 Cl
ATOM     18  C   LIG    1       25.527 -31.067   6.124  0.00  0.00    +0.021 A 
ATOM     19  C   LIG    1       25.063 -29.931   5.462  0.00  0.00    +0.002 A 
ATOM     20  C   LIG    1       24.507 -28.886   6.193  0.00  0.00    +0.001 A 
ATOM     21  C   LIG    1       24.449 -28.966   7.586  0.00  0.00    +0.011 A 
ENDBRANCH   8  15
BRANCH   1  23
ATOM     22  C   LIG    1       18.866 -31.247  10.250  0.00  0.00    +0.009 C 
ATOM     23  C   LIG    1       20.106 -32.131  10.250  0.00  0.00    +0.039 C 
ENDBRANCH   1  23
TORSDOF 2
ENDMDL
