MODEL 1
REMARK VINA RESULT:       7.2      0.000      0.000
REMARK  Name = *****
REMARK                            x       y       z     vdW  Elec       q    Type
REMARK                         _______ _______ _______ _____ _____    ______ ____
ROOT
ATOM      1  C   LIG    1       23.953 -13.298   2.343  0.00  0.00    +0.042 C 
ATOM      2  C   LIG    1       24.278 -13.543   3.821  0.00  0.00    +0.069 C 
ATOM      3  C   LIG    1       23.813 -14.919   4.439  0.00  0.00    -0.000 C 
ATOM      4  C   LIG    1       23.681 -14.733   5.984  0.00  0.00    +0.014 C 
ATOM      5  C   LIG    1       25.015 -15.895   4.168  0.00  0.00    +0.001 C 
ATOM      6  C   LIG    1       24.790 -17.076   3.197  0.00  0.00    -0.003 C 
ATOM      7  C   LIG    1       23.375 -17.682   3.240  0.00  0.00    +0.002 C 
ATOM      8  C   LIG    1       22.382 -16.544   2.974  0.00  0.00    +0.005 C 
ATOM      9  C   LIG    1       23.073 -18.761   4.354  0.00  0.00    -0.007 C 
ATOM     10  C   LIG    1       21.677 -19.373   4.041  0.00  0.00    +0.016 C 
ATOM     11  C   LIG    1       24.232 -19.772   4.305  0.00  0.00    -0.060 C 
ATOM     12  C   LIG    1       24.044 -21.003   4.812  0.00  0.00    +0.046 C 
ATOM     13  C   LIG    1       23.999 -20.787   6.319  0.00  0.00    +0.156 C 
ATOM     14  O   LIG    1       24.568 -21.572   7.062  0.00  0.00    -0.293 OA
ATOM     15  C   LIG    1       23.101 -19.637   6.804  0.00  0.00    +0.080 C 
ATOM     16  C   LIG    1       25.622 -19.157   4.421  0.00  0.00    +0.032 C 
ATOM     17  C   LIG    1       23.053 -18.389   5.867  0.00  0.00    +0.019 C 
ATOM     18  C   LIG    1       25.875 -18.163   3.300  0.00  0.00    +0.008 C 
ATOM     19  C   LIG    1       26.174 -15.001   3.653  0.00  0.00    +0.007 C 
ATOM     20  C   LIG    1       22.417 -15.407   3.978  0.00  0.00    +0.010 C 
ATOM     21  C   LIG    1       25.798 -13.580   4.027  0.00  0.00    +0.035 C 
ENDROOT
BRANCH   2  22
ATOM     22  O   LIG    1       23.758 -12.427   4.541  0.00  0.00    -0.388 OA
ATOM     23  H   LIG    1       23.990 -11.620   4.052  0.00  0.00    +0.210 HD
ENDBRANCH   2  22
TORSDOF 1
ENDMDL
MODEL 2
REMARK VINA RESULT:       8.1      1.204      6.031
REMARK  Name = *****
REMARK                            x       y       z     vdW  Elec       q    Type
REMARK                         _______ _______ _______ _____ _____    ______ ____
ROOT
ATOM      1  C   LIG    1       24.316 -21.206   3.352  0.00  0.00    +0.042 C 
ATOM      2  C   LIG    1       24.778 -20.637   4.699  0.00  0.00    +0.069 C 
ATOM      3  C   LIG    1       25.342 -19.164   4.699  0.00  0.00    -0.000 C 
ATOM      4  C   LIG    1       26.273 -19.004   5.942  0.00  0.00    +0.014 C 
ATOM      5  C   LIG    1       24.074 -18.260   4.923  0.00  0.00    +0.001 C 
ATOM      6  C   LIG    1       23.634 -17.326   3.774  0.00  0.00    -0.003 C 
ATOM      7  C   LIG    1       24.790 -16.737   2.945  0.00  0.00    +0.002 C 
ATOM      8  C   LIG    1       25.620 -17.916   2.419  0.00  0.00    +0.005 C 
ATOM      9  C   LIG    1       25.505 -15.442   3.499  0.00  0.00    -0.007 C 
ATOM     10  C   LIG    1       26.460 -14.927   2.384  0.00  0.00    +0.016 C 
ATOM     11  C   LIG    1       24.385 -14.457   3.877  0.00  0.00    -0.060 C 
ATOM     12  C   LIG    1       24.672 -13.145   3.960  0.00  0.00    +0.046 C 
ATOM     13  C   LIG    1       25.514 -13.024   5.224  0.00  0.00    +0.156 C 
ATOM     14  O   LIG    1       25.330 -12.089   5.987  0.00  0.00    -0.293 OA
ATOM     15  C   LIG    1       26.653 -14.046   5.370  0.00  0.00    +0.080 C 
ATOM     16  C   LIG    1       23.333 -15.018   4.826  0.00  0.00    +0.032 C 
ATOM     17  C   LIG    1       26.346 -15.470   4.810  0.00  0.00    +0.019 C 
ATOM     18  C   LIG    1       22.647 -16.233   4.225  0.00  0.00    +0.008 C 
ATOM     19  C   LIG    1       22.923 -19.236   5.283  0.00  0.00    +0.007 C 
ATOM     20  C   LIG    1       26.235 -18.801   3.486  0.00  0.00    +0.010 C 
ATOM     21  C   LIG    1       23.590 -20.543   5.666  0.00  0.00    +0.035 C 
ENDROOT
BRANCH   2  22
ATOM     22  O   LIG    1       25.715 -21.572   5.234  0.00  0.00    -0.388 OA
ATOM     23  H   LIG    1       26.541 -21.095   5.421  0.00  0.00    +0.210 HD
ENDBRANCH   2  22
TORSDOF 1
ENDMDL
MODEL 3
REMARK VINA RESULT:      10.0      1.548      2.130
REMARK  Name = *****
REMARK                            x       y       z     vdW  Elec       q    Type
REMARK                         _______ _______ _______ _____ _____    ______ ____
ROOT
ATOM      1  C   LIG    1       27.070 -13.607   2.443  0.00  0.00    +0.042 C 
ATOM      2  C   LIG    1       26.331 -13.753   3.779  0.00  0.00    +0.069 C 
ATOM      3  C   LIG    1       25.598 -15.124   4.046  0.00  0.00    -0.000 C 
ATOM      4  C   LIG    1       24.466 -14.870   5.091  0.00  0.00    +0.014 C 
ATOM      5  C   LIG    1       26.693 -16.026   4.725  0.00  0.00    +0.001 C 
ATOM      6  C   LIG    1       27.194 -17.267   3.954  0.00  0.00    -0.003 C 
ATOM      7  C   LIG    1       26.124 -17.970   3.099  0.00  0.00    +0.002 C 
ATOM      8  C   LIG    1       25.540 -16.919   2.146  0.00  0.00    +0.005 C 
ATOM      9  C   LIG    1       25.176 -19.009   3.819  0.00  0.00    -0.007 C 
ATOM     10  C   LIG    1       24.357 -19.733   2.712  0.00  0.00    +0.016 C 
ATOM     11  C   LIG    1       26.091 -19.937   4.637  0.00  0.00    -0.060 C 
ATOM     12  C   LIG    1       25.636 -21.151   4.994  0.00  0.00    +0.046 C 
ATOM     13  C   LIG    1       24.593 -20.862   6.066  0.00  0.00    +0.156 C 
ATOM     14  O   LIG    1       24.536 -21.566   7.062  0.00  0.00    -0.293 OA
ATOM     15  C   LIG    1       23.579 -19.755   5.732  0.00  0.00    +0.080 C 
ATOM     16  C   LIG    1       27.037 -19.220   5.593  0.00  0.00    +0.032 C 
ATOM     17  C   LIG    1       24.145 -18.563   4.898  0.00  0.00    +0.019 C 
ATOM     18  C   LIG    1       27.955 -18.268   4.844  0.00  0.00    +0.008 C 
ATOM     19  C   LIG    1       27.882 -15.079   5.036  0.00  0.00    +0.007 C 
ATOM     20  C   LIG    1       24.875 -15.733   2.818  0.00  0.00    +0.010 C 
ATOM     21  C   LIG    1       27.326 -13.671   4.943  0.00  0.00    +0.035 C 
ENDROOT
BRANCH   2  22
ATOM     22  O   LIG    1       25.442 -12.641   3.874  0.00  0.00    -0.388 OA
ATOM     23  H   LIG    1       25.978 -11.831   3.910  0.00  0.00    +0.210 HD
ENDBRANCH   2  22
TORSDOF 1
ENDMDL
