MODEL 1
REMARK VINA RESULT:      -4.1      0.000      0.000
REMARK  Name = *****
REMARK                            x       y       z     vdW  Elec       q    Type
REMARK                         _______ _______ _______ _____ _____    ______ ____
ROOT
ATOM      1  O   LIG    1       30.793 -22.056  10.236  0.00  0.00    -0.248 OA
ATOM      2  C   LIG    1       31.240 -21.831   9.118  0.00  0.00    +0.338 C 
ENDROOT
BRANCH   2   3
ATOM      3  C   LIG    1       30.807 -20.648   8.267  0.00  0.00    +0.279 C 
ATOM      4 CL   LIG    1       30.969 -19.130   9.190  0.00  0.00    -0.092 Cl
ATOM      5 CL   LIG    1       29.116 -20.881   7.789  0.00  0.00    -0.092 Cl
ENDBRANCH   2   3
BRANCH   2   6
ATOM      6  O   LIG    1       32.210 -22.617   8.581  0.00  0.00    -0.479 OA
ATOM      7  H   LIG    1       33.078 -22.509   9.025  0.00  0.00    +0.295 HD
ENDBRANCH   2   6
TORSDOF 2
ENDMDL
MODEL 2
REMARK VINA RESULT:      -4.0      3.338      4.073
REMARK  Name = *****
REMARK                            x       y       z     vdW  Elec       q    Type
REMARK                         _______ _______ _______ _____ _____    ______ ____
ROOT
ATOM      1  O   LIG    1       31.537 -18.183   7.718  0.00  0.00    -0.248 OA
ATOM      2  C   LIG    1       31.814 -18.509   8.866  0.00  0.00    +0.338 C 
ENDROOT
BRANCH   2   3
ATOM      3  C   LIG    1       31.860 -17.527  10.025  0.00  0.00    +0.279 C 
ATOM      4 CL   LIG    1       30.239 -17.346  10.748  0.00  0.00    -0.092 Cl
ATOM      5 CL   LIG    1       32.425 -15.959   9.420  0.00  0.00    -0.092 Cl
ENDBRANCH   2   3
BRANCH   2   6
ATOM      6  O   LIG    1       32.052 -19.808   9.186  0.00  0.00    -0.479 OA
ATOM      7  H   LIG    1       31.306 -20.401   8.956  0.00  0.00    +0.295 HD
ENDBRANCH   2   6
TORSDOF 2
ENDMDL
MODEL 3
REMARK VINA RESULT:      -4.0      2.366      2.870
REMARK  Name = *****
REMARK                            x       y       z     vdW  Elec       q    Type
REMARK                         _______ _______ _______ _____ _____    ______ ____
ROOT
ATOM      1  O   LIG    1       32.117 -19.404   9.443  0.00  0.00    -0.248 OA
ATOM      2  C   LIG    1       31.300 -19.595   8.550  0.00  0.00    +0.338 C 
ENDROOT
BRANCH   2   3
ATOM      3  C   LIG    1       30.011 -18.801   8.413  0.00  0.00    +0.279 C 
ATOM      4 CL   LIG    1       29.685 -18.440   6.697  0.00  0.00    -0.092 Cl
ATOM      5 CL   LIG    1       30.174 -17.290   9.324  0.00  0.00    -0.092 Cl
ENDBRANCH   2   3
BRANCH   2   6
ATOM      6  O   LIG    1       31.530 -20.515   7.577  0.00  0.00    -0.479 OA
ATOM      7  H   LIG    1       30.932 -20.413   6.806  0.00  0.00    +0.295 HD
ENDBRANCH   2   6
TORSDOF 2
ENDMDL
MODEL 4
REMARK VINA RESULT:      -4.0      2.847      3.102
REMARK  Name = *****
REMARK                            x       y       z     vdW  Elec       q    Type
REMARK                         _______ _______ _______ _____ _____    ______ ____
ROOT
ATOM      1  O   LIG    1       31.949 -17.669   8.096  0.00  0.00    -0.248 OA
ATOM      2  C   LIG    1       31.637 -18.850   8.198  0.00  0.00    +0.338 C 
ENDROOT
BRANCH   2   3
ATOM      3  C   LIG    1       30.802 -19.586   7.162  0.00  0.00    +0.279 C 
ATOM      4 CL   LIG    1       29.692 -18.454   6.344  0.00  0.00    -0.092 Cl
ATOM      5 CL   LIG    1       29.871 -20.853   7.980  0.00  0.00    -0.092 Cl
ENDBRANCH   2   3
BRANCH   2   6
ATOM      6  O   LIG    1       32.074 -19.601   9.243  0.00  0.00    -0.479 OA
ATOM      7  H   LIG    1       31.426 -20.283   9.520  0.00  0.00    +0.295 HD
ENDBRANCH   2   6
TORSDOF 2
ENDMDL
MODEL 5
REMARK VINA RESULT:      -4.0      1.691      1.751
REMARK  Name = *****
REMARK                            x       y       z     vdW  Elec       q    Type
REMARK                         _______ _______ _______ _____ _____    ______ ____
ROOT
ATOM      1  O   LIG    1       30.069 -21.306   8.768  0.00  0.00    -0.248 OA
ATOM      2  C   LIG    1       31.092 -20.631   8.774  0.00  0.00    +0.338 C 
ENDROOT
BRANCH   2   3
ATOM      3  C   LIG    1       31.162 -19.214   8.230  0.00  0.00    +0.279 C 
ATOM      4 CL   LIG    1       30.072 -18.143   9.151  0.00  0.00    -0.092 Cl
ATOM      5 CL   LIG    1       30.682 -19.235   6.524  0.00  0.00    -0.092 Cl
ENDBRANCH   2   3
BRANCH   2   6
ATOM      6  O   LIG    1       32.239 -21.106   9.328  0.00  0.00    -0.479 OA
ATOM      7  H   LIG    1       32.982 -21.149   8.689  0.00  0.00    +0.295 HD
ENDBRANCH   2   6
TORSDOF 2
ENDMDL
MODEL 6
REMARK VINA RESULT:      -4.0      2.876      3.066
REMARK  Name = *****
REMARK                            x       y       z     vdW  Elec       q    Type
REMARK                         _______ _______ _______ _____ _____    ______ ____
ROOT
ATOM      1  O   LIG    1       32.064 -19.436   9.333  0.00  0.00    -0.248 OA
ATOM      2  C   LIG    1       31.725 -18.901   8.284  0.00  0.00    +0.338 C 
ENDROOT
BRANCH   2   3
ATOM      3  C   LIG    1       30.862 -19.585   7.237  0.00  0.00    +0.279 C 
ATOM      4 CL   LIG    1       29.734 -18.415   6.503  0.00  0.00    -0.092 Cl
ATOM      5 CL   LIG    1       29.951 -20.890   8.016  0.00  0.00    -0.092 Cl
ENDBRANCH   2   3
BRANCH   2   6
ATOM      6  O   LIG    1       32.069 -17.614   8.014  0.00  0.00    -0.479 OA
ATOM      7  H   LIG    1       31.320 -16.989   8.119  0.00  0.00    +0.295 HD
ENDBRANCH   2   6
TORSDOF 2
ENDMDL
MODEL 7
REMARK VINA RESULT:      -4.0      2.816      3.129
REMARK  Name = *****
REMARK                            x       y       z     vdW  Elec       q    Type
REMARK                         _______ _______ _______ _____ _____    ______ ____
ROOT
ATOM      1  O   LIG    1       32.103 -19.646   9.218  0.00  0.00    -0.248 OA
ATOM      2  C   LIG    1       31.522 -18.913   8.426  0.00  0.00    +0.338 C 
ENDROOT
BRANCH   2   3
ATOM      3  C   LIG    1       30.127 -19.198   7.893  0.00  0.00    +0.279 C 
ATOM      4 CL   LIG    1       29.765 -20.941   8.004  0.00  0.00    -0.092 Cl
ATOM      5 CL   LIG    1       30.047 -18.675   6.201  0.00  0.00    -0.092 Cl
ENDBRANCH   2   3
BRANCH   2   6
ATOM      6  O   LIG    1       32.085 -17.750   8.007  0.00  0.00    -0.479 OA
ATOM      7  H   LIG    1       32.132 -17.679   7.029  0.00  0.00    +0.295 HD
ENDBRANCH   2   6
TORSDOF 2
ENDMDL
MODEL 8
REMARK VINA RESULT:      -3.9      3.276      3.758
REMARK  Name = *****
REMARK                            x       y       z     vdW  Elec       q    Type
REMARK                         _______ _______ _______ _____ _____    ______ ____
ROOT
ATOM      1  O   LIG    1       32.132 -19.405   9.353  0.00  0.00    -0.248 OA
ATOM      2  C   LIG    1       31.605 -18.530   8.676  0.00  0.00    +0.338 C 
ENDROOT
BRANCH   2   3
ATOM      3  C   LIG    1       31.113 -17.212   9.250  0.00  0.00    +0.279 C 
ATOM      4 CL   LIG    1       32.481 -16.092   9.490  0.00  0.00    -0.092 Cl
ATOM      5 CL   LIG    1       30.318 -17.529  10.802  0.00  0.00    -0.092 Cl
ENDBRANCH   2   3
BRANCH   2   6
ATOM      6  O   LIG    1       31.472 -18.672   7.331  0.00  0.00    -0.479 OA
ATOM      7  H   LIG    1       32.062 -19.362   6.960  0.00  0.00    +0.295 HD
ENDBRANCH   2   6
TORSDOF 2
ENDMDL
MODEL 9
REMARK VINA RESULT:      -3.9      7.477      8.016
REMARK  Name = *****
REMARK                            x       y       z     vdW  Elec       q    Type
REMARK                         _______ _______ _______ _____ _____    ______ ____
ROOT
ATOM      1  O   LIG    1       23.674 -25.310   6.510  0.00  0.00    -0.248 OA
ATOM      2  C   LIG    1       23.357 -24.131   6.610  0.00  0.00    +0.338 C 
ENDROOT
BRANCH   2   3
ATOM      3  C   LIG    1       24.363 -22.991   6.603  0.00  0.00    +0.279 C 
ATOM      4 CL   LIG    1       25.852 -23.475   7.457  0.00  0.00    -0.092 Cl
ATOM      5 CL   LIG    1       23.638 -21.588   7.408  0.00  0.00    -0.092 Cl
ENDBRANCH   2   3
BRANCH   2   6
ATOM      6  O   LIG    1       22.051 -23.762   6.685  0.00  0.00    -0.479 OA
ATOM      7  H   LIG    1       21.640 -23.984   7.548  0.00  0.00    +0.295 HD
ENDBRANCH   2   6
TORSDOF 2
ENDMDL
