MODEL 1
REMARK VINA RESULT:       2.4      0.000      0.000
REMARK  Name = *****
REMARK                            x       y       z     vdW  Elec       q    Type
REMARK                         _______ _______ _______ _____ _____    ______ ____
ROOT
ATOM      1  N   LIG    1       25.347 -14.769   3.845  0.00  0.00    -0.248 N 
ATOM      2  C   LIG    1       24.119 -14.320   4.485  0.00  0.00    +0.163 C 
ATOM      3  C   LIG    1       24.123 -14.426   6.017  0.00  0.00    +0.050 C 
ATOM      4  N   LIG    1       22.999 -15.095   3.943  0.00  0.00    -0.325 N 
ATOM      5  H   LIG    1       22.100 -14.789   4.305  0.00  0.00    +0.148 HD
ATOM      6  C   LIG    1       23.180 -16.485   4.008  0.00  0.00    +0.042 A 
ATOM      7  C   LIG    1       24.459 -17.043   3.918  0.00  0.00    +0.060 A 
ATOM      8  C   LIG    1       24.642 -18.431   3.957  0.00  0.00    +0.045 A 
ATOM      9  C   LIG    1       23.529 -19.278   4.059  0.00  0.00    +0.124 A 
ATOM     10  C   LIG    1       22.242 -18.735   4.096  0.00  0.00    +0.069 A 
ATOM     11 CL   LIG    1       20.798 -19.680   4.187  0.00  0.00    -0.082 Cl
ATOM     12  C   LIG    1       22.075 -17.342   4.051  0.00  0.00    +0.045 A 
ATOM     13  C   LIG    1       25.618 -16.132   3.743  0.00  0.00    +0.254 C 
ATOM     14  O   LIG    1       26.721 -16.623   3.521  0.00  0.00    -0.270 OA
ENDROOT
BRANCH   1  17
ATOM     15  C   LIG    1       24.698 -12.586   1.921  0.00  0.00    +0.045 C 
ATOM     16  C   LIG    1       26.049 -12.766   2.563  0.00  0.00    -0.029 A 
ATOM     17  C   LIG    1       26.334 -13.804   3.478  0.00  0.00    +0.041 A 
ATOM     18  C   LIG    1       27.609 -13.854   4.063  0.00  0.00    +0.024 A 
ATOM     19  C   LIG    1       28.596 -12.922   3.736  0.00  0.00    +0.002 A 
ATOM     20  C   LIG    1       28.318 -11.908   2.831  0.00  0.00    +0.000 A 
ATOM     21  C   LIG    1       27.055 -11.831   2.249  0.00  0.00    +0.005 A 
ENDBRANCH   1  17
BRANCH   9  22
ATOM     22  S   LIG    1       23.806 -21.016   4.164  0.00  0.00    +0.057 S 
ATOM     23  O   LIG    1       23.850 -21.572   2.834  0.00  0.00    -0.153 OA
ATOM     24  O   LIG    1       22.946 -21.568   5.188  0.00  0.00    -0.153 OA
BRANCH  22  25
ATOM     25  N   LIG    1       25.352 -21.126   4.805  0.00  0.00    -0.203 NA
ATOM     26  H   LIG    1       25.584 -20.262   5.301  0.00  0.00    +0.144 HD
ATOM     27  H   LIG    1       26.016 -21.371   4.069  0.00  0.00    +0.144 HD
ENDBRANCH  22  25
ENDBRANCH   9  22
TORSDOF 3
ENDMDL
MODEL 2
REMARK VINA RESULT:       4.2      0.468      1.410
REMARK  Name = *****
REMARK                            x       y       z     vdW  Elec       q    Type
REMARK                         _______ _______ _______ _____ _____    ______ ____
ROOT
ATOM      1  N   LIG    1       25.247 -14.733   3.956  0.00  0.00    -0.248 N 
ATOM      2  C   LIG    1       23.981 -14.311   4.537  0.00  0.00    +0.163 C 
ATOM      3  C   LIG    1       23.911 -14.421   6.067  0.00  0.00    +0.050 C 
ATOM      4  N   LIG    1       22.904 -15.106   3.939  0.00  0.00    -0.325 N 
ATOM      5  H   LIG    1       21.983 -14.819   4.257  0.00  0.00    +0.148 HD
ATOM      6  C   LIG    1       23.110 -16.491   4.009  0.00  0.00    +0.042 A 
ATOM      7  C   LIG    1       24.402 -17.025   3.981  0.00  0.00    +0.060 A 
ATOM      8  C   LIG    1       24.610 -18.408   4.026  0.00  0.00    +0.045 A 
ATOM      9  C   LIG    1       23.511 -19.277   4.072  0.00  0.00    +0.124 A 
ATOM     10  C   LIG    1       22.213 -18.761   4.047  0.00  0.00    +0.069 A 
ATOM     11 CL   LIG    1       20.785 -19.734   4.065  0.00  0.00    -0.082 Cl
ATOM     12  C   LIG    1       22.021 -17.371   3.996  0.00  0.00    +0.045 A 
ATOM     13  C   LIG    1       25.550 -16.090   3.865  0.00  0.00    +0.254 C 
ATOM     14  O   LIG    1       26.672 -16.558   3.697  0.00  0.00    -0.270 OA
ENDROOT
BRANCH   1  17
ATOM     15  C   LIG    1       27.401 -14.058   5.903  0.00  0.00    +0.045 C 
ATOM     16  C   LIG    1       27.256 -13.409   4.552  0.00  0.00    -0.029 A 
ATOM     17  C   LIG    1       26.232 -13.747   3.640  0.00  0.00    +0.041 A 
ATOM     18  C   LIG    1       26.214 -13.122   2.384  0.00  0.00    +0.024 A 
ATOM     19  C   LIG    1       27.166 -12.161   2.037  0.00  0.00    +0.002 A 
ATOM     20  C   LIG    1       28.168 -11.823   2.935  0.00  0.00    +0.000 A 
ATOM     21  C   LIG    1       28.212 -12.441   4.183  0.00  0.00    +0.005 A 
ENDBRANCH   1  17
BRANCH   9  22
ATOM     22  S   LIG    1       23.817 -21.010   4.186  0.00  0.00    +0.057 S 
ATOM     23  O   LIG    1       23.876 -21.571   2.860  0.00  0.00    -0.153 OA
ATOM     24  O   LIG    1       22.962 -21.572   5.210  0.00  0.00    -0.153 OA
BRANCH  22  25
ATOM     25  N   LIG    1       25.362 -21.090   4.835  0.00  0.00    -0.203 NA
ATOM     26  H   LIG    1       25.852 -21.906   4.462  0.00  0.00    +0.144 HD
ATOM     27  H   LIG    1       25.311 -21.069   5.855  0.00  0.00    +0.144 HD
ENDBRANCH  22  25
ENDBRANCH   9  22
TORSDOF 3
ENDMDL
MODEL 3
REMARK VINA RESULT:       4.6      3.687      7.536
REMARK  Name = *****
REMARK                            x       y       z     vdW  Elec       q    Type
REMARK                         _______ _______ _______ _____ _____    ______ ____
ROOT
ATOM      1  N   LIG    1       23.717 -18.566   4.242  0.00  0.00    -0.248 N 
ATOM      2  C   LIG    1       25.092 -18.936   3.938  0.00  0.00    +0.163 C 
ATOM      3  C   LIG    1       26.036 -18.936   5.149  0.00  0.00    +0.050 C 
ATOM      4  N   LIG    1       25.607 -18.022   2.914  0.00  0.00    -0.325 N 
ATOM      5  H   LIG    1       26.546 -18.263   2.610  0.00  0.00    +0.148 HD
ATOM      6  C   LIG    1       25.458 -16.664   3.234  0.00  0.00    +0.042 A 
ATOM      7  C   LIG    1       24.382 -16.226   4.012  0.00  0.00    +0.060 A 
ATOM      8  C   LIG    1       24.216 -14.869   4.312  0.00  0.00    +0.045 A 
ATOM      9  C   LIG    1       25.122 -13.927   3.805  0.00  0.00    +0.124 A 
ATOM     10  C   LIG    1       26.172 -14.344   2.982  0.00  0.00    +0.069 A 
ATOM     11 CL   LIG    1       27.328 -13.273   2.273  0.00  0.00    -0.082 Cl
ATOM     12  C   LIG    1       26.321 -15.708   2.686  0.00  0.00    +0.045 A 
ATOM     13  C   LIG    1       23.396 -17.231   4.484  0.00  0.00    +0.254 C 
ATOM     14  O   LIG    1       22.378 -16.835   5.044  0.00  0.00    -0.270 OA
ENDROOT
BRANCH   1  17
ATOM     15  C   LIG    1       24.134 -20.638   6.344  0.00  0.00    +0.045 C 
ATOM     16  C   LIG    1       22.931 -20.589   5.439  0.00  0.00    -0.029 A 
ATOM     17  C   LIG    1       22.749 -19.595   4.453  0.00  0.00    +0.041 A 
ATOM     18  C   LIG    1       21.567 -19.605   3.695  0.00  0.00    +0.024 A 
ATOM     19  C   LIG    1       20.594 -20.589   3.880  0.00  0.00    +0.002 A 
ATOM     20  C   LIG    1       20.777 -21.571   4.843  0.00  0.00    +0.000 A 
ATOM     21  C   LIG    1       21.936 -21.572   5.616  0.00  0.00    +0.005 A 
ENDBRANCH   1  17
BRANCH   9  22
ATOM     22  S   LIG    1       24.912 -12.236   4.253  0.00  0.00    +0.057 S 
ATOM     23  O   LIG    1       24.647 -11.458   3.068  0.00  0.00    -0.153 OA
ATOM     24  O   LIG    1       25.953 -11.863   5.186  0.00  0.00    -0.153 OA
BRANCH  22  25
ATOM     25  N   LIG    1       23.508 -12.248   5.170  0.00  0.00    -0.203 NA
ATOM     26  H   LIG    1       23.718 -12.556   6.121  0.00  0.00    +0.144 HD
ATOM     27  H   LIG    1       22.793 -12.807   4.702  0.00  0.00    +0.144 HD
ENDBRANCH  22  25
ENDBRANCH   9  22
TORSDOF 3
ENDMDL
