MODEL 1
REMARK VINA RESULT:      -1.6      0.000      0.000
REMARK  Name = *****
REMARK                            x       y       z     vdW  Elec       q    Type
REMARK                         _______ _______ _______ _____ _____    ______ ____
ROOT
ATOM      1  C   LIG    1       25.957 -18.653   3.586  0.00  0.00    +0.249 C 
ATOM      2  N   LIG    1       26.251 -17.348   3.952  0.00  0.00    -0.298 N 
ATOM      3  H   LIG    1       26.565 -17.208   4.909  0.00  0.00    +0.150 HD
ATOM      4  O   LIG    1       25.858 -18.964   2.403  0.00  0.00    -0.270 OA
ENDROOT
BRANCH   1   6
ATOM      5  C   LIG    1       26.839 -20.138   5.459  0.00  0.00    +0.133 A 
ATOM      6  C   LIG    1       25.739 -19.662   4.698  0.00  0.00    +0.086 A 
ATOM      7  C   LIG    1       24.395 -20.141   4.994  0.00  0.00    -0.002 A 
ATOM      8  C   LIG    1       24.235 -21.059   6.070  0.00  0.00    -0.017 A 
ATOM      9  C   LIG    1       22.978 -21.571   6.437  0.00  0.00    +0.008 A 
ATOM     10  C   LIG    1       21.830 -21.216   5.748  0.00  0.00    +0.001 A 
ATOM     11  C   LIG    1       21.930 -20.325   4.694  0.00  0.00    +0.001 A 
ATOM     12  C   LIG    1       25.337 -21.505   6.786  0.00  0.00    +0.012 A 
ATOM     13  C   LIG    1       23.180 -19.793   4.331  0.00  0.00    +0.009 A 
ATOM     14  C   LIG    1       26.617 -21.085   6.463  0.00  0.00    +0.047 A 
BRANCH   5  15
ATOM     15  O   LIG    1       28.116 -19.697   5.170  0.00  0.00    -0.491 OA
BRANCH  15  17
ATOM     16  C   LIG    1       29.470 -18.658   6.932  0.00  0.00    +0.048 C 
ATOM     17  C   LIG    1       29.121 -19.931   6.172  0.00  0.00    +0.226 C 
ENDBRANCH  15  17
ENDBRANCH   5  15
ENDBRANCH   1   6
BRANCH   2  18
ATOM     18  CA  LIG    1       26.482 -16.260   2.958  0.00  0.00    +0.190 C 
ATOM     19  C   LIG    1       25.332 -15.231   2.741  0.00  0.00    +0.165 C 
ATOM     20  S   LIG    1       24.182 -14.926   4.138  0.00  0.00    -0.127 S 
ATOM     21  C   LIG    1       24.683 -13.135   4.333  0.00  0.00    +0.042 C 
ATOM     22  CA  LIG    1       25.957 -12.907   3.475  0.00  0.00    +0.201 C 
ATOM     23  C   LIG    1       24.989 -12.900   5.821  0.00  0.00    +0.025 C 
ATOM     24  C   LIG    1       23.458 -12.289   3.947  0.00  0.00    +0.025 C 
ATOM     25  N   LIG    1       26.340 -14.175   2.874  0.00  0.00    -0.271 N 
ATOM     26  C   LIG    1       27.253 -15.007   3.457  0.00  0.00    +0.240 C 
ATOM     27  O   LIG    1       28.179 -14.750   4.203  0.00  0.00    -0.273 OA
BRANCH  22  28
ATOM     28  C   LIG    1       25.795 -11.875   2.362  0.00  0.00    +0.327 C 
ATOM     29  O   LIG    1       24.736 -11.512   1.874  0.00  0.00    -0.249 OA
BRANCH  28  30
ATOM     30  OXT LIG    1       26.961 -11.447   1.826  0.00  0.00    -0.479 OA
ATOM     31  HXT LIG    1       27.262 -10.730   2.422  0.00  0.00    +0.295 HD
ENDBRANCH  28  30
ENDBRANCH  22  28
ENDBRANCH   2  18
TORSDOF 6
ENDMDL
MODEL 2
REMARK VINA RESULT:       0.1      1.543      2.341
REMARK  Name = *****
REMARK                            x       y       z     vdW  Elec       q    Type
REMARK                         _______ _______ _______ _____ _____    ______ ____
ROOT
ATOM      1  C   LIG    1       25.516 -18.913   3.896  0.00  0.00    +0.249 C 
ATOM      2  N   LIG    1       25.253 -17.578   3.628  0.00  0.00    -0.298 N 
ATOM      3  H   LIG    1       24.439 -17.178   4.087  0.00  0.00    +0.150 HD
ATOM      4  O   LIG    1       26.613 -19.400   3.638  0.00  0.00    -0.270 OA
ENDROOT
BRANCH   1   6
ATOM      5  C   LIG    1       24.686 -20.805   5.387  0.00  0.00    +0.133 A 
ATOM      6  C   LIG    1       24.394 -19.744   4.491  0.00  0.00    +0.086 A 
ATOM      7  C   LIG    1       23.008 -19.448   4.147  0.00  0.00    -0.002 A 
ATOM      8  C   LIG    1       21.988 -20.231   4.758  0.00  0.00    -0.017 A 
ATOM      9  C   LIG    1       20.624 -20.017   4.497  0.00  0.00    +0.008 A 
ATOM     10  C   LIG    1       20.208 -19.036   3.610  0.00  0.00    +0.001 A 
ATOM     11  C   LIG    1       21.160 -18.247   2.990  0.00  0.00    +0.001 A 
ATOM     12  C   LIG    1       22.315 -21.264   5.625  0.00  0.00    +0.012 A 
ATOM     13  C   LIG    1       22.527 -18.441   3.259  0.00  0.00    +0.009 A 
ATOM     14  C   LIG    1       23.637 -21.572   5.903  0.00  0.00    +0.047 A 
BRANCH   5  15
ATOM     15  O   LIG    1       25.999 -21.097   5.701  0.00  0.00    -0.491 OA
BRANCH  15  17
ATOM     16  C   LIG    1       27.897 -20.092   6.886  0.00  0.00    +0.048 C 
ATOM     17  C   LIG    1       26.476 -20.632   6.976  0.00  0.00    +0.226 C 
ENDBRANCH  15  17
ENDBRANCH   5  15
ENDBRANCH   1   6
BRANCH   2  18
ATOM     18  CA  LIG    1       26.267 -16.655   3.040  0.00  0.00    +0.190 C 
ATOM     19  C   LIG    1       25.954 -15.129   3.075  0.00  0.00    +0.165 C 
ATOM     20  S   LIG    1       24.865 -14.511   4.416  0.00  0.00    -0.127 S 
ATOM     21  C   LIG    1       26.197 -13.453   5.192  0.00  0.00    +0.042 C 
ATOM     22  CA  LIG    1       27.550 -13.845   4.537  0.00  0.00    +0.201 C 
ATOM     23  C   LIG    1       26.220 -13.768   6.696  0.00  0.00    +0.025 C 
ATOM     24  C   LIG    1       25.764 -11.989   5.005  0.00  0.00    +0.025 C 
ATOM     25  N   LIG    1       27.309 -14.930   3.599  0.00  0.00    -0.271 N 
ATOM     26  C   LIG    1       27.453 -16.240   3.954  0.00  0.00    +0.240 C 
ATOM     27  O   LIG    1       28.161 -16.746   4.805  0.00  0.00    -0.273 OA
BRANCH  22  28
ATOM     28  C   LIG    1       28.245 -12.708   3.791  0.00  0.00    +0.327 C 
ATOM     29  O   LIG    1       29.225 -12.093   4.182  0.00  0.00    -0.249 OA
BRANCH  28  30
ATOM     30  OXT LIG    1       27.611 -12.312   2.665  0.00  0.00    -0.479 OA
ATOM     31  HXT LIG    1       28.094 -11.510   2.374  0.00  0.00    +0.295 HD
ENDBRANCH  28  30
ENDBRANCH  22  28
ENDBRANCH   2  18
TORSDOF 6
ENDMDL
