MODEL 1
REMARK VINA RESULT:      -7.5      0.000      0.000
REMARK  Name = *****
REMARK                            x       y       z     vdW  Elec       q    Type
REMARK                         _______ _______ _______ _____ _____    ______ ____
ROOT
ATOM      1  C   LIG    1       28.980 -17.402   5.527  0.00  0.00    +0.008 C 
ATOM      2  C   LIG    1       29.371 -18.814   5.957  0.00  0.00    -0.003 C 
ATOM      3  C   LIG    1       29.019 -19.092   7.440  0.00  0.00    +0.067 C 
ATOM      4  C   LIG    1       28.530 -20.567   7.454  0.00  0.00    -0.017 C 
ATOM      5  C   LIG    1       29.727 -21.552   7.439  0.00  0.00    +0.012 C 
ATOM      6  C   LIG    1       27.747 -20.666   6.112  0.00  0.00    -0.000 C 
ATOM      7  C   LIG    1       26.315 -20.067   6.176  0.00  0.00    +0.002 C 
ATOM      8  C   LIG    1       25.459 -20.674   7.312  0.00  0.00    +0.035 C 
ATOM      9  C   LIG    1       26.215 -20.422   8.640  0.00  0.00    +0.119 C 
ATOM     10  C   LIG    1       24.822 -22.109   7.024  0.00  0.00    +0.016 C 
ATOM     11  C   LIG    1       23.522 -22.235   7.874  0.00  0.00    +0.020 C 
ATOM     12  C   LIG    1       24.424 -22.308   5.534  0.00  0.00    -0.023 C 
ATOM     13  C   LIG    1       23.962 -23.522   5.147  0.00  0.00    +0.053 C 
ATOM     14  C   LIG    1       25.032 -24.559   5.388  0.00  0.00    +0.179 C 
ATOM     15  O   LIG    1       25.171 -25.529   4.653  0.00  0.00    -0.288 OA
ATOM     16  C   LIG    1       25.834 -24.400   6.633  0.00  0.00    +0.047 C 
ATOM     17  C   LIG    1       25.205 -21.566   4.475  0.00  0.00    +0.193 C 
ATOM     18  F   LIG    1       24.473 -21.501   3.323  0.00  0.00    -0.241 F 
ATOM     19  C   LIG    1       25.702 -23.300   7.398  0.00  0.00    -0.012 C 
ATOM     20  C   LIG    1       25.525 -20.142   4.867  0.00  0.00    +0.045 C 
ATOM     21  C   LIG    1       27.660 -20.922   8.671  0.00  0.00    +0.039 C 
ATOM     22  C   LIG    1       28.650 -19.895   5.132  0.00  0.00    +0.008 C 
ENDROOT
BRANCH   3  23
ATOM     23  C   LIG    1       30.196 -18.784   8.377  0.00  0.00    +0.162 C 
ATOM     24  O   LIG    1       30.053 -18.579   9.584  0.00  0.00    -0.295 OA
BRANCH  23  25
ATOM     25  C   LIG    1       31.585 -18.692   7.751  0.00  0.00    +0.230 C 
BRANCH  25  26
ATOM     26  O   LIG    1       32.283 -17.531   8.169  0.00  0.00    -0.388 OA
ATOM     27  H   LIG    1       32.811 -17.237   7.399  0.00  0.00    +0.210 HD
ENDBRANCH  25  26
ENDBRANCH  23  25
ENDBRANCH   3  23
BRANCH   9  28
ATOM     28  O   LIG    1       25.519 -20.961   9.751  0.00  0.00    -0.391 OA
ATOM     29  H   LIG    1       24.791 -21.515   9.421  0.00  0.00    +0.210 HD
ENDBRANCH   9  28
TORSDOF 4
ENDMDL
MODEL 2
REMARK VINA RESULT:      -5.7     10.507     13.568
REMARK  Name = *****
REMARK                            x       y       z     vdW  Elec       q    Type
REMARK                         _______ _______ _______ _____ _____    ______ ____
ROOT
ATOM      1  C   LIG    1       17.774 -26.498  14.359  0.00  0.00    +0.008 C 
ATOM      2  C   LIG    1       18.411 -27.745  14.968  0.00  0.00    -0.003 C 
ATOM      3  C   LIG    1       18.324 -28.968  14.020  0.00  0.00    +0.067 C 
ATOM      4  C   LIG    1       19.679 -29.705  14.211  0.00  0.00    -0.017 C 
ATOM      5  C   LIG    1       19.671 -30.565  15.500  0.00  0.00    +0.012 C 
ATOM      6  C   LIG    1       20.677 -28.520  14.371  0.00  0.00    -0.000 C 
ATOM      7  C   LIG    1       21.090 -27.860  13.027  0.00  0.00    +0.002 C 
ATOM      8  C   LIG    1       21.662 -28.875  12.010  0.00  0.00    +0.035 C 
ATOM      9  C   LIG    1       20.574 -29.953  11.777  0.00  0.00    +0.119 C 
ATOM     10  C   LIG    1       23.180 -29.318  12.233  0.00  0.00    +0.016 C 
ATOM     11  C   LIG    1       23.770 -29.719  10.848  0.00  0.00    +0.020 C 
ATOM     12  C   LIG    1       24.066 -28.173  12.802  0.00  0.00    -0.023 C 
ATOM     13  C   LIG    1       25.352 -28.455  13.125  0.00  0.00    +0.053 C 
ATOM     14  C   LIG    1       25.371 -29.512  14.203  0.00  0.00    +0.179 C 
ATOM     15  O   LIG    1       26.235 -29.536  15.071  0.00  0.00    -0.288 OA
ATOM     16  C   LIG    1       24.351 -30.591  14.085  0.00  0.00    +0.047 C 
ATOM     17  C   LIG    1       23.416 -27.122  13.669  0.00  0.00    +0.193 C 
ATOM     18  F   LIG    1       24.201 -26.003  13.705  0.00  0.00    -0.241 F 
ATOM     19  C   LIG    1       23.380 -30.517  13.156  0.00  0.00    -0.012 C 
ATOM     20  C   LIG    1       22.063 -26.687  13.156  0.00  0.00    +0.045 C 
ATOM     21  C   LIG    1       20.051 -30.633  13.042  0.00  0.00    +0.039 C 
ATOM     22  C   LIG    1       19.905 -27.544  15.278  0.00  0.00    +0.008 C 
ENDROOT
BRANCH   3  23
ATOM     23  C   LIG    1       17.074 -29.817  14.291  0.00  0.00    +0.162 C 
ATOM     24  O   LIG    1       16.334 -29.628  15.259  0.00  0.00    -0.295 OA
BRANCH  23  25
ATOM     25  C   LIG    1       16.784 -30.965  13.328  0.00  0.00    +0.230 C 
BRANCH  25  26
ATOM     26  O   LIG    1       16.581 -30.510  12.000  0.00  0.00    -0.388 OA
ATOM     27  H   LIG    1       15.849 -31.048  11.635  0.00  0.00    +0.210 HD
ENDBRANCH  25  26
ENDBRANCH  23  25
ENDBRANCH   3  23
BRANCH   9  28
ATOM     28  O   LIG    1       21.010 -30.951  10.868  0.00  0.00    -0.391 OA
ATOM     29  H   LIG    1       21.846 -30.660  10.466  0.00  0.00    +0.210 HD
ENDBRANCH   9  28
TORSDOF 4
ENDMDL
MODEL 3
REMARK VINA RESULT:      -5.4      9.521     12.168
REMARK  Name = *****
REMARK                            x       y       z     vdW  Elec       q    Type
REMARK                         _______ _______ _______ _____ _____    ______ ____
ROOT
ATOM      1  C   LIG    1       27.214 -33.278   8.745  0.00  0.00    +0.008 C 
ATOM      2  C   LIG    1       26.806 -31.808   8.666  0.00  0.00    -0.003 C 
ATOM      3  C   LIG    1       25.338 -31.633   8.201  0.00  0.00    +0.067 C 
ATOM      4  C   LIG    1       24.802 -30.445   9.047  0.00  0.00    -0.017 C 
ATOM      5  C   LIG    1       25.265 -29.087   8.460  0.00  0.00    +0.012 C 
ATOM      6  C   LIG    1       25.486 -30.687  10.424  0.00  0.00    -0.000 C 
ATOM      7  C   LIG    1       24.788 -31.772  11.290  0.00  0.00    +0.002 C 
ATOM      8  C   LIG    1       23.284 -31.490  11.510  0.00  0.00    +0.035 C 
ATOM      9  C   LIG    1       22.625 -31.400  10.112  0.00  0.00    +0.119 C 
ATOM     10  C   LIG    1       22.927 -30.403  12.625  0.00  0.00    +0.016 C 
ATOM     11  C   LIG    1       21.514 -30.742  13.188  0.00  0.00    +0.020 C 
ATOM     12  C   LIG    1       23.920 -30.415  13.822  0.00  0.00    -0.023 C 
ATOM     13  C   LIG    1       23.777 -29.471  14.785  0.00  0.00    +0.053 C 
ATOM     14  C   LIG    1       23.953 -28.104  14.169  0.00  0.00    +0.179 C 
ATOM     15  O   LIG    1       24.460 -27.177  14.787  0.00  0.00    -0.288 OA
ATOM     16  C   LIG    1       23.369 -27.914  12.812  0.00  0.00    +0.047 C 
ATOM     17  C   LIG    1       25.345 -30.848  13.572  0.00  0.00    +0.193 C 
ATOM     18  F   LIG    1       25.929 -31.217  14.751  0.00  0.00    -0.241 F 
ATOM     19  C   LIG    1       22.864 -28.960  12.131  0.00  0.00    -0.012 C 
ATOM     20  C   LIG    1       25.446 -32.037  12.645  0.00  0.00    +0.045 C 
ATOM     21  C   LIG    1       23.268 -30.399   9.152  0.00  0.00    +0.039 C 
ATOM     22  C   LIG    1       26.915 -31.100  10.027  0.00  0.00    +0.008 C 
ENDROOT
BRANCH   3  23
ATOM     23  C   LIG    1       25.235 -31.452   6.680  0.00  0.00    +0.162 C 
ATOM     24  O   LIG    1       26.208 -31.188   5.970  0.00  0.00    -0.295 OA
BRANCH  23  25
ATOM     25  C   LIG    1       23.848 -31.568   6.053  0.00  0.00    +0.230 C 
BRANCH  25  26
ATOM     26  O   LIG    1       23.326 -30.306   5.672  0.00  0.00    -0.388 OA
ATOM     27  H   LIG    1       22.818 -30.456   4.850  0.00  0.00    +0.210 HD
ENDBRANCH  25  26
ENDBRANCH  23  25
ENDBRANCH   3  23
BRANCH   9  28
ATOM     28  O   LIG    1       21.237 -31.122  10.202  0.00  0.00    -0.391 OA
ATOM     29  H   LIG    1       21.109 -30.385  10.825  0.00  0.00    +0.210 HD
ENDBRANCH   9  28
TORSDOF 4
ENDMDL
MODEL 4
REMARK VINA RESULT:      -5.4      8.622     10.477
REMARK  Name = *****
REMARK                            x       y       z     vdW  Elec       q    Type
REMARK                         _______ _______ _______ _____ _____    ______ ____
ROOT
ATOM      1  C   LIG    1       23.616 -26.064  15.498  0.00  0.00    +0.008 C 
ATOM      2  C   LIG    1       24.554 -26.109  14.294  0.00  0.00    -0.003 C 
ATOM      3  C   LIG    1       25.776 -27.030  14.539  0.00  0.00    +0.067 C 
ATOM      4  C   LIG    1       26.012 -27.734  13.173  0.00  0.00    -0.017 C 
ATOM      5  C   LIG    1       26.769 -26.806  12.189  0.00  0.00    +0.012 C 
ATOM      6  C   LIG    1       24.557 -27.966  12.668  0.00  0.00    -0.000 C 
ATOM      7  C   LIG    1       23.857 -29.193  13.314  0.00  0.00    +0.002 C 
ATOM      8  C   LIG    1       24.667 -30.501  13.154  0.00  0.00    +0.035 C 
ATOM      9  C   LIG    1       26.055 -30.262  13.800  0.00  0.00    +0.119 C 
ATOM     10  C   LIG    1       24.570 -31.222  11.733  0.00  0.00    +0.016 C 
ATOM     11  C   LIG    1       24.813 -32.745  11.951  0.00  0.00    +0.020 C 
ATOM     12  C   LIG    1       23.172 -31.064  11.068  0.00  0.00    -0.023 C 
ATOM     13  C   LIG    1       22.997 -31.550   9.815  0.00  0.00    +0.053 C 
ATOM     14  C   LIG    1       23.940 -30.840   8.872  0.00  0.00    +0.179 C 
ATOM     15  O   LIG    1       23.637 -30.607   7.709  0.00  0.00    -0.288 OA
ATOM     16  C   LIG    1       25.300 -30.545   9.402  0.00  0.00    +0.047 C 
ATOM     17  C   LIG    1       22.360 -29.830  11.384  0.00  0.00    +0.193 C 
ATOM     18  F   LIG    1       21.044 -30.057  11.094  0.00  0.00    -0.241 F 
ATOM     19  C   LIG    1       25.594 -30.762  10.697  0.00  0.00    -0.012 C 
ATOM     20  C   LIG    1       22.423 -29.439  12.842  0.00  0.00    +0.045 C 
ATOM     21  C   LIG    1       26.814 -29.042  13.278  0.00  0.00    +0.039 C 
ATOM     22  C   LIG    1       23.855 -26.645  13.032  0.00  0.00    +0.008 C 
ENDROOT
BRANCH   3  23
ATOM     23  C   LIG    1       26.980 -26.253  15.090  0.00  0.00    +0.162 C 
ATOM     24  O   LIG    1       28.002 -26.806  15.500  0.00  0.00    -0.295 OA
BRANCH  23  25
ATOM     25  C   LIG    1       26.859 -24.733  15.161  0.00  0.00    +0.230 C 
BRANCH  25  26
ATOM     26  O   LIG    1       27.743 -24.084  14.262  0.00  0.00    -0.388 OA
ATOM     27  H   LIG    1       28.600 -24.551  14.336  0.00  0.00    +0.210 HD
ENDBRANCH  25  26
ENDBRANCH  23  25
ENDBRANCH   3  23
BRANCH   9  28
ATOM     28  O   LIG    1       26.889 -31.403  13.689  0.00  0.00    -0.391 OA
ATOM     29  H   LIG    1       26.349 -32.198  13.842  0.00  0.00    +0.210 HD
ENDBRANCH   9  28
TORSDOF 4
ENDMDL
MODEL 5
REMARK VINA RESULT:      -5.2      3.291      7.342
REMARK  Name = *****
REMARK                            x       y       z     vdW  Elec       q    Type
REMARK                         _______ _______ _______ _____ _____    ______ ____
ROOT
ATOM      1  C   LIG    1       26.570 -27.682   8.169  0.00  0.00    +0.008 C 
ATOM      2  C   LIG    1       26.396 -27.156   6.746  0.00  0.00    -0.003 C 
ATOM      3  C   LIG    1       24.903 -26.972   6.370  0.00  0.00    +0.067 C 
ATOM      4  C   LIG    1       24.875 -25.670   5.521  0.00  0.00    -0.017 C 
ATOM      5  C   LIG    1       25.322 -25.944   4.063  0.00  0.00    +0.012 C 
ATOM      6  C   LIG    1       25.934 -24.784   6.241  0.00  0.00    -0.000 C 
ATOM      7  C   LIG    1       25.405 -24.096   7.530  0.00  0.00    +0.002 C 
ATOM      8  C   LIG    1       24.125 -23.263   7.284  0.00  0.00    +0.035 C 
ATOM      9  C   LIG    1       23.058 -24.223   6.702  0.00  0.00    +0.119 C 
ATOM     10  C   LIG    1       24.336 -21.823   6.628  0.00  0.00    +0.016 C 
ATOM     11  C   LIG    1       23.159 -20.910   7.086  0.00  0.00    +0.020 C 
ATOM     12  C   LIG    1       25.658 -21.139   7.082  0.00  0.00    -0.023 C 
ATOM     13  C   LIG    1       25.996 -19.954   6.517  0.00  0.00    +0.053 C 
ATOM     14  C   LIG    1       26.168 -20.145   5.029  0.00  0.00    +0.179 C 
ATOM     15  O   LIG    1       26.991 -19.507   4.386  0.00  0.00    -0.288 OA
ATOM     16  C   LIG    1       25.201 -21.066   4.369  0.00  0.00    +0.047 C 
ATOM     17  C   LIG    1       26.831 -22.015   7.456  0.00  0.00    +0.193 C 
ATOM     18  F   LIG    1       27.710 -21.305   8.224  0.00  0.00    -0.241 F 
ATOM     19  C   LIG    1       24.339 -21.796   5.102  0.00  0.00    -0.012 C 
ATOM     20  C   LIG    1       26.428 -23.227   8.263  0.00  0.00    +0.045 C 
ATOM     21  C   LIG    1       23.492 -24.999   5.458  0.00  0.00    +0.039 C 
ATOM     22  C   LIG    1       27.064 -25.785   6.546  0.00  0.00    +0.008 C 
ENDROOT
BRANCH   3  23
ATOM     23  C   LIG    1       24.327 -28.216   5.680  0.00  0.00    +0.162 C 
ATOM     24  O   LIG    1       24.052 -28.247   4.478  0.00  0.00    -0.295 OA
BRANCH  23  25
ATOM     25  C   LIG    1       24.051 -29.437   6.553  0.00  0.00    +0.230 C 
BRANCH  25  26
ATOM     26  O   LIG    1       23.318 -30.434   5.860  0.00  0.00    -0.388 OA
ATOM     27  H   LIG    1       23.979 -31.064   5.508  0.00  0.00    +0.210 HD
ENDBRANCH  25  26
ENDBRANCH  23  25
ENDBRANCH   3  23
BRANCH   9  28
ATOM     28  O   LIG    1       21.843 -23.549   6.420  0.00  0.00    -0.391 OA
ATOM     29  H   LIG    1       21.996 -22.591   6.494  0.00  0.00    +0.210 HD
ENDBRANCH   9  28
TORSDOF 4
ENDMDL
MODEL 6
REMARK VINA RESULT:      -4.9      9.786     12.114
REMARK  Name = *****
REMARK                            x       y       z     vdW  Elec       q    Type
REMARK                         _______ _______ _______ _____ _____    ______ ____
ROOT
ATOM      1  C   LIG    1       24.027 -30.075   8.601  0.00  0.00    +0.008 C 
ATOM      2  C   LIG    1       24.339 -30.544  10.020  0.00  0.00    -0.003 C 
ATOM      3  C   LIG    1       24.532 -29.357  10.998  0.00  0.00    +0.067 C 
ATOM      4  C   LIG    1       23.872 -29.834  12.322  0.00  0.00    -0.017 C 
ATOM      5  C   LIG    1       24.816 -30.778  13.108  0.00  0.00    +0.012 C 
ATOM      6  C   LIG    1       22.637 -30.630  11.806  0.00  0.00    -0.000 C 
ATOM      7  C   LIG    1       21.438 -29.731  11.394  0.00  0.00    +0.002 C 
ATOM      8  C   LIG    1       20.992 -28.771  12.521  0.00  0.00    +0.035 C 
ATOM      9  C   LIG    1       22.219 -27.904  12.898  0.00  0.00    +0.119 C 
ATOM     10  C   LIG    1       20.089 -29.408  13.674  0.00  0.00    +0.016 C 
ATOM     11  C   LIG    1       19.199 -28.275  14.267  0.00  0.00    +0.020 C 
ATOM     12  C   LIG    1       19.137 -30.521  13.151  0.00  0.00    -0.023 C 
ATOM     13  C   LIG    1       18.390 -31.205  14.052  0.00  0.00    +0.053 C 
ATOM     14  C   LIG    1       19.307 -31.921  15.014  0.00  0.00    +0.179 C 
ATOM     15  O   LIG    1       19.016 -33.006  15.500  0.00  0.00    -0.288 OA
ATOM     16  C   LIG    1       20.531 -31.181  15.430  0.00  0.00    +0.047 C 
ATOM     17  C   LIG    1       19.564 -31.328  11.948  0.00  0.00    +0.193 C 
ATOM     18  F   LIG    1       18.472 -31.919  11.376  0.00  0.00    -0.241 F 
ATOM     19  C   LIG    1       20.859 -30.014  14.845  0.00  0.00    -0.012 C 
ATOM     20  C   LIG    1       20.215 -30.487  10.874  0.00  0.00    +0.045 C 
ATOM     21  C   LIG    1       23.479 -28.687  13.269  0.00  0.00    +0.039 C 
ATOM     22  C   LIG    1       23.210 -31.409  10.608  0.00  0.00    +0.008 C 
ENDROOT
BRANCH   3  23
ATOM     23  C   LIG    1       26.005 -28.942  11.114  0.00  0.00    +0.162 C 
ATOM     24  O   LIG    1       26.374 -27.958  11.760  0.00  0.00    -0.295 OA
BRANCH  23  25
ATOM     25  C   LIG    1       27.030 -29.777  10.351  0.00  0.00    +0.230 C 
BRANCH  25  26
ATOM     26  O   LIG    1       27.399 -29.177   9.121  0.00  0.00    -0.388 OA
ATOM     27  H   LIG    1       28.360 -29.005   9.177  0.00  0.00    +0.210 HD
ENDBRANCH  25  26
ENDBRANCH  23  25
ENDBRANCH   3  23
BRANCH   9  28
ATOM     28  O   LIG    1       21.919 -26.996  13.946  0.00  0.00    -0.391 OA
ATOM     29  H   LIG    1       20.954 -26.879  13.987  0.00  0.00    +0.210 HD
ENDBRANCH   9  28
TORSDOF 4
ENDMDL
MODEL 7
REMARK VINA RESULT:      -4.9      9.676     11.682
REMARK  Name = *****
REMARK                            x       y       z     vdW  Elec       q    Type
REMARK                         _______ _______ _______ _____ _____    ______ ____
ROOT
ATOM      1  C   LIG    1       28.150 -29.633  11.000  0.00  0.00    +0.008 C 
ATOM      2  C   LIG    1       26.778 -29.765  10.343  0.00  0.00    -0.003 C 
ATOM      3  C   LIG    1       26.026 -31.037  10.814  0.00  0.00    +0.067 C 
ATOM      4  C   LIG    1       24.542 -30.588  10.933  0.00  0.00    -0.017 C 
ATOM      5  C   LIG    1       23.854 -30.560   9.545  0.00  0.00    +0.012 C 
ATOM      6  C   LIG    1       24.680 -29.138  11.484  0.00  0.00    -0.000 C 
ATOM      7  C   LIG    1       24.947 -29.070  13.013  0.00  0.00    +0.002 C 
ATOM      8  C   LIG    1       23.887 -29.832  13.842  0.00  0.00    +0.035 C 
ATOM      9  C   LIG    1       23.892 -31.302  13.352  0.00  0.00    +0.119 C 
ATOM     10  C   LIG    1       22.498 -29.080  14.074  0.00  0.00    +0.016 C 
ATOM     11  C   LIG    1       21.886 -29.603  15.408  0.00  0.00    +0.020 C 
ATOM     12  C   LIG    1       22.661 -27.539  14.210  0.00  0.00    -0.023 C 
ATOM     13  C   LIG    1       21.541 -26.780  14.312  0.00  0.00    +0.053 C 
ATOM     14  C   LIG    1       20.707 -26.958  13.067  0.00  0.00    +0.179 C 
ATOM     15  O   LIG    1       20.033 -26.047  12.604  0.00  0.00    -0.288 OA
ATOM     16  C   LIG    1       20.656 -28.334  12.500  0.00  0.00    +0.047 C 
ATOM     17  C   LIG    1       23.810 -26.869  13.495  0.00  0.00    +0.193 C 
ATOM     18  F   LIG    1       24.059 -25.650  14.061  0.00  0.00    -0.241 F 
ATOM     19  C   LIG    1       21.445 -29.308  12.992  0.00  0.00    -0.012 C 
ATOM     20  C   LIG    1       25.097 -27.658  13.579  0.00  0.00    +0.045 C 
ATOM     21  C   LIG    1       23.693 -31.487  11.848  0.00  0.00    +0.039 C 
ATOM     22  C   LIG    1       25.859 -28.575  10.669  0.00  0.00    +0.008 C 
ENDROOT
BRANCH   3  23
ATOM     23  C   LIG    1       26.275 -32.230   9.881  0.00  0.00    +0.162 C 
ATOM     24  O   LIG    1       26.097 -33.399  10.228  0.00  0.00    -0.295 OA
BRANCH  23  25
ATOM     25  C   LIG    1       26.807 -31.927   8.482  0.00  0.00    +0.230 C 
BRANCH  25  26
ATOM     26  O   LIG    1       25.984 -32.476   7.467  0.00  0.00    -0.388 OA
ATOM     27  H   LIG    1       25.659 -33.332   7.812  0.00  0.00    +0.210 HD
ENDBRANCH  25  26
ENDBRANCH  23  25
ENDBRANCH   3  23
BRANCH   9  28
ATOM     28  O   LIG    1       22.933 -32.088  14.041  0.00  0.00    -0.391 OA
ATOM     29  H   LIG    1       22.474 -32.652  13.395  0.00  0.00    +0.210 HD
ENDBRANCH   9  28
TORSDOF 4
ENDMDL
MODEL 8
REMARK VINA RESULT:      -4.9      9.864     12.149
REMARK  Name = *****
REMARK                            x       y       z     vdW  Elec       q    Type
REMARK                         _______ _______ _______ _____ _____    ______ ____
ROOT
ATOM      1  C   LIG    1       23.645 -31.962   5.901  0.00  0.00    +0.008 C 
ATOM      2  C   LIG    1       24.380 -32.745   6.987  0.00  0.00    -0.003 C 
ATOM      3  C   LIG    1       25.798 -32.178   7.257  0.00  0.00    +0.067 C 
ATOM      4  C   LIG    1       25.978 -32.300   8.796  0.00  0.00    -0.017 C 
ATOM      5  C   LIG    1       26.358 -33.746   9.201  0.00  0.00    +0.012 C 
ATOM      6  C   LIG    1       24.551 -31.961   9.321  0.00  0.00    -0.000 C 
ATOM      7  C   LIG    1       24.241 -30.439   9.359  0.00  0.00    +0.002 C 
ATOM      8  C   LIG    1       25.286 -29.633  10.163  0.00  0.00    +0.035 C 
ATOM      9  C   LIG    1       26.667 -29.891   9.511  0.00  0.00    +0.119 C 
ATOM     10  C   LIG    1       25.140 -29.678  11.753  0.00  0.00    +0.016 C 
ATOM     11  C   LIG    1       25.741 -28.360  12.327  0.00  0.00    +0.020 C 
ATOM     12  C   LIG    1       23.660 -29.758  12.223  0.00  0.00    -0.023 C 
ATOM     13  C   LIG    1       23.412 -29.901  13.549  0.00  0.00    +0.053 C 
ATOM     14  C   LIG    1       24.026 -31.193  14.031  0.00  0.00    +0.179 C 
ATOM     15  O   LIG    1       23.511 -31.862  14.917  0.00  0.00    -0.288 OA
ATOM     16  C   LIG    1       25.351 -31.548  13.451  0.00  0.00    +0.047 C 
ATOM     17  C   LIG    1       22.652 -30.428  11.320  0.00  0.00    +0.193 C 
ATOM     18  F   LIG    1       21.390 -30.028  11.658  0.00  0.00    -0.241 F 
ATOM     19  C   LIG    1       25.873 -30.827  12.442  0.00  0.00    -0.012 C 
ATOM     20  C   LIG    1       22.842 -30.079   9.862  0.00  0.00    +0.045 C 
ATOM     21  C   LIG    1       27.054 -31.364   9.371  0.00  0.00    +0.039 C 
ATOM     22  C   LIG    1       23.638 -32.710   8.334  0.00  0.00    +0.008 C 
ENDROOT
BRANCH   3  23
ATOM     23  C   LIG    1       26.869 -32.886   6.415  0.00  0.00    +0.162 C 
ATOM     24  O   LIG    1       28.077 -32.698   6.576  0.00  0.00    -0.295 OA
BRANCH  23  25
ATOM     25  C   LIG    1       26.387 -33.823   5.311  0.00  0.00    +0.230 C 
BRANCH  25  26
ATOM     26  O   LIG    1       26.448 -33.216   4.031  0.00  0.00    -0.388 OA
ATOM     27  H   LIG    1       27.314 -33.467   3.651  0.00  0.00    +0.210 HD
ENDBRANCH  25  26
ENDBRANCH  23  25
ENDBRANCH   3  23
BRANCH   9  28
ATOM     28  O   LIG    1       27.706 -29.207  10.192  0.00  0.00    -0.391 OA
ATOM     29  H   LIG    1       27.307 -28.624  10.860  0.00  0.00    +0.210 HD
ENDBRANCH   9  28
TORSDOF 4
ENDMDL
MODEL 9
REMARK VINA RESULT:      -4.8      8.895     12.651
REMARK  Name = *****
REMARK                            x       y       z     vdW  Elec       q    Type
REMARK                         _______ _______ _______ _____ _____    ______ ____
ROOT
ATOM      1  C   LIG    1       22.791 -32.518   9.314  0.00  0.00    +0.008 C 
ATOM      2  C   LIG    1       22.165 -31.322  10.028  0.00  0.00    -0.003 C 
ATOM      3  C   LIG    1       21.901 -31.611  11.528  0.00  0.00    +0.067 C 
ATOM      4  C   LIG    1       22.241 -30.275  12.246  0.00  0.00    -0.017 C 
ATOM      5  C   LIG    1       21.075 -29.261  12.123  0.00  0.00    +0.012 C 
ATOM      6  C   LIG    1       23.470 -29.769  11.435  0.00  0.00    -0.000 C 
ATOM      7  C   LIG    1       24.807 -30.456  11.826  0.00  0.00    +0.002 C 
ATOM      8  C   LIG    1       25.116 -30.353  13.338  0.00  0.00    +0.035 C 
ATOM      9  C   LIG    1       23.929 -30.999  14.094  0.00  0.00    +0.119 C 
ATOM     10  C   LIG    1       25.711 -28.960  13.842  0.00  0.00    +0.016 C 
ATOM     11  C   LIG    1       26.574 -29.238  15.109  0.00  0.00    +0.020 C 
ATOM     12  C   LIG    1       26.635 -28.280  12.791  0.00  0.00    -0.023 C 
ATOM     13  C   LIG    1       27.122 -27.045  13.065  0.00  0.00    +0.053 C 
ATOM     14  C   LIG    1       25.970 -26.082  13.226  0.00  0.00    +0.179 C 
ATOM     15  O   LIG    1       26.055 -24.909  12.887  0.00  0.00    -0.288 OA
ATOM     16  C   LIG    1       24.766 -26.609  13.927  0.00  0.00    +0.047 C 
ATOM     17  C   LIG    1       26.374 -28.542  11.326  0.00  0.00    +0.193 C 
ATOM     18  F   LIG    1       27.494 -28.252  10.599  0.00  0.00    -0.241 F 
ATOM     19  C   LIG    1       24.673 -27.914  14.243  0.00  0.00    -0.012 C 
ATOM     20  C   LIG    1       26.030 -29.985  11.037  0.00  0.00    +0.045 C 
ATOM     21  C   LIG    1       22.551 -30.436  13.744  0.00  0.00    +0.039 C 
ATOM     22  C   LIG    1       23.068 -30.077   9.981  0.00  0.00    +0.008 C 
ENDROOT
BRANCH   3  23
ATOM     23  C   LIG    1       20.481 -32.140  11.770  0.00  0.00    +0.162 C 
ATOM     24  O   LIG    1       20.142 -32.689  12.820  0.00  0.00    -0.295 OA
BRANCH  23  25
ATOM     25  C   LIG    1       19.478 -32.005  10.626  0.00  0.00    +0.230 C 
BRANCH  25  26
ATOM     26  O   LIG    1       18.411 -31.131  10.952  0.00  0.00    -0.388 OA
ATOM     27  H   LIG    1       17.600 -31.678  10.954  0.00  0.00    +0.210 HD
ENDBRANCH  25  26
ENDBRANCH  23  25
ENDBRANCH   3  23
BRANCH   9  28
ATOM     28  O   LIG    1       24.105 -30.938  15.500  0.00  0.00    -0.391 OA
ATOM     29  H   LIG    1       23.589 -31.654  15.908  0.00  0.00    +0.210 HD
ENDBRANCH   9  28
TORSDOF 4
ENDMDL
