MODEL 1
REMARK VINA RESULT:      -5.8      0.000      0.000
REMARK  Name = *****
REMARK                            x       y       z     vdW  Elec       q    Type
REMARK                         _______ _______ _______ _____ _____    ______ ____
ROOT
ATOM      1  C   LIG    1       22.332 -16.597   4.823  0.00  0.00    -0.000 C 
ENDROOT
BRANCH   1   2
ATOM      2  C   LIG    1       22.139 -18.077   4.494  0.00  0.00    -0.000 C 
BRANCH   2   3
ATOM      3  C   LIG    1       23.442 -18.768   4.051  0.00  0.00    -0.000 C 
BRANCH   3   4
ATOM      4  C   LIG    1       23.414 -20.277   4.321  0.00  0.00    -0.000 C 
BRANCH   4   5
ATOM      5  C   LIG    1       22.567 -20.607   5.556  0.00  0.00    -0.000 C 
BRANCH   5   6
ATOM      6  C   LIG    1       23.392 -20.613   6.847  0.00  0.00    -0.000 C 
BRANCH   6   7
ATOM      7  C   LIG    1       24.703 -21.405   6.730  0.00  0.00    -0.000 C 
BRANCH   7   8
ATOM      8  C   LIG    1       25.951 -20.575   7.062  0.00  0.00    -0.000 C 
BRANCH   8  10
ATOM      9  C   LIG    1       28.279 -19.921   6.167  0.00  0.00    +0.004 C 
ATOM     10  C   LIG    1       26.830 -20.261   5.849  0.00  0.00    -0.003 C 
ENDBRANCH   8  10
ENDBRANCH   7   8
ENDBRANCH   6   7
ENDBRANCH   5   6
ENDBRANCH   4   5
ENDBRANCH   3   4
ENDBRANCH   2   3
ENDBRANCH   1   2
BRANCH   1  11
ATOM     11  C   LIG    1       23.470 -15.901   4.071  0.00  0.00    -0.000 C 
BRANCH  11  12
ATOM     12  C   LIG    1       23.739 -14.421   4.388  0.00  0.00    +0.000 C 
BRANCH  12  13
ATOM     13  C   LIG    1       23.889 -13.480   3.181  0.00  0.00    +0.000 C 
BRANCH  13  14
ATOM     14  C   LIG    1       25.318 -13.053   2.831  0.00  0.00    +0.011 C 
BRANCH  14  15
ATOM     15  C   LIG    1       26.394 -14.120   2.705  0.00  0.00    +0.120 C 
BRANCH  15  16
ATOM     16  C   LIG    1       27.372 -14.290   3.840  0.00  0.00    +0.305 C 
ATOM     17  O   LIG    1       27.627 -13.410   4.621  0.00  0.00    -0.251 OA
BRANCH  16  18
ATOM     18  O   LIG    1       27.865 -15.538   3.982  0.00  0.00    -0.481 OA
ATOM     19  H   LIG    1       27.759 -16.110   3.208  0.00  0.00    +0.295 HD
ENDBRANCH  16  18
ENDBRANCH  15  16
ENDBRANCH  14  15
ENDBRANCH  13  14
ENDBRANCH  12  13
ENDBRANCH  11  12
ENDBRANCH   1  11
TORSDOF 15
ENDMDL
MODEL 2
REMARK VINA RESULT:      -5.8      1.964      6.420
REMARK  Name = *****
REMARK                            x       y       z     vdW  Elec       q    Type
REMARK                         _______ _______ _______ _____ _____    ______ ____
ROOT
ATOM      1  C   LIG    1       23.321 -18.483   4.004  0.00  0.00    -0.000 C 
ENDROOT
BRANCH   1   2
ATOM      2  C   LIG    1       22.075 -17.730   4.471  0.00  0.00    -0.000 C 
BRANCH   2   3
ATOM      3  C   LIG    1       22.356 -16.252   4.800  0.00  0.00    -0.000 C 
BRANCH   3   4
ATOM      4  C   LIG    1       23.602 -15.728   4.074  0.00  0.00    -0.000 C 
BRANCH   4   5
ATOM      5  C   LIG    1       23.849 -14.247   4.388  0.00  0.00    -0.000 C 
BRANCH   5   6
ATOM      6  C   LIG    1       23.995 -13.397   3.122  0.00  0.00    -0.000 C 
BRANCH   6   7
ATOM      7  C   LIG    1       25.445 -12.980   2.831  0.00  0.00    -0.000 C 
BRANCH   7   8
ATOM      8  C   LIG    1       26.424 -14.161   2.787  0.00  0.00    -0.000 C 
BRANCH   8  10
ATOM      9  C   LIG    1       27.238 -13.330   5.089  0.00  0.00    +0.004 C 
ATOM     10  C   LIG    1       27.572 -14.057   3.794  0.00  0.00    -0.003 C 
ENDBRANCH   8  10
ENDBRANCH   7   8
ENDBRANCH   6   7
ENDBRANCH   5   6
ENDBRANCH   4   5
ENDBRANCH   3   4
ENDBRANCH   2   3
ENDBRANCH   1   2
BRANCH   1  11
ATOM     11  C   LIG    1       23.299 -19.996   4.240  0.00  0.00    -0.000 C 
BRANCH  11  12
ATOM     12  C   LIG    1       22.704 -20.506   5.562  0.00  0.00    +0.000 C 
BRANCH  12  13
ATOM     13  C   LIG    1       23.638 -20.486   6.784  0.00  0.00    +0.000 C 
BRANCH  13  14
ATOM     14  C   LIG    1       24.989 -21.188   6.613  0.00  0.00    +0.011 C 
BRANCH  14  15
ATOM     15  C   LIG    1       26.256 -20.451   7.017  0.00  0.00    +0.120 C 
BRANCH  15  16
ATOM     16  C   LIG    1       27.240 -20.071   5.939  0.00  0.00    +0.305 C 
ATOM     17  O   LIG    1       28.402 -19.850   6.162  0.00  0.00    -0.251 OA
BRANCH  16  18
ATOM     18  O   LIG    1       26.744 -20.100   4.684  0.00  0.00    -0.481 OA
ATOM     19  H   LIG    1       26.312 -19.283   4.395  0.00  0.00    +0.295 HD
ENDBRANCH  16  18
ENDBRANCH  15  16
ENDBRANCH  14  15
ENDBRANCH  13  14
ENDBRANCH  12  13
ENDBRANCH  11  12
ENDBRANCH   1  11
TORSDOF 15
ENDMDL
MODEL 3
REMARK VINA RESULT:      -5.6      2.915      7.533
REMARK  Name = *****
REMARK                            x       y       z     vdW  Elec       q    Type
REMARK                         _______ _______ _______ _____ _____    ______ ____
ROOT
ATOM      1  C   LIG    1       25.319 -18.557   3.481  0.00  0.00    -0.000 C 
ENDROOT
BRANCH   1   2
ATOM      2  C   LIG    1       26.577 -17.687   3.495  0.00  0.00    -0.000 C 
BRANCH   2   3
ATOM      3  C   LIG    1       26.270 -16.188   3.330  0.00  0.00    -0.000 C 
BRANCH   3   4
ATOM      4  C   LIG    1       27.409 -15.305   3.856  0.00  0.00    -0.000 C 
BRANCH   4   5
ATOM      5  C   LIG    1       27.380 -13.914   3.212  0.00  0.00    -0.000 C 
BRANCH   5   6
ATOM      6  C   LIG    1       26.258 -13.770   2.178  0.00  0.00    -0.000 C 
BRANCH   6   7
ATOM      7  C   LIG    1       25.341 -12.566   2.437  0.00  0.00    -0.000 C 
BRANCH   7   8
ATOM      8  C   LIG    1       23.987 -12.948   3.051  0.00  0.00    -0.000 C 
BRANCH   8  10
ATOM      9  C   LIG    1       23.267 -14.979   4.468  0.00  0.00    +0.004 C 
ATOM     10  C   LIG    1       24.095 -13.705   4.376  0.00  0.00    -0.003 C 
ENDBRANCH   8  10
ENDBRANCH   7   8
ENDBRANCH   6   7
ENDBRANCH   5   6
ENDBRANCH   4   5
ENDBRANCH   3   4
ENDBRANCH   2   3
ENDBRANCH   1   2
BRANCH   1  11
ATOM     11  C   LIG    1       25.487 -19.962   4.069  0.00  0.00    -0.000 C 
BRANCH  11  12
ATOM     12  C   LIG    1       26.421 -20.124   5.279  0.00  0.00    +0.000 C 
BRANCH  12  13
ATOM     13  C   LIG    1       25.965 -21.114   6.365  0.00  0.00    +0.000 C 
BRANCH  13  14
ATOM     14  C   LIG    1       24.639 -20.790   7.061  0.00  0.00    +0.011 C 
BRANCH  14  15
ATOM     15  C   LIG    1       23.373 -21.488   6.591  0.00  0.00    +0.120 C 
BRANCH  15  16
ATOM     16  C   LIG    1       22.476 -20.767   5.616  0.00  0.00    +0.305 C 
ATOM     17  O   LIG    1       22.487 -19.571   5.479  0.00  0.00    -0.251 OA
BRANCH  16  18
ATOM     18  O   LIG    1       21.733 -21.572   4.828  0.00  0.00    -0.481 OA
ATOM     19  H   LIG    1       21.086 -21.116   4.271  0.00  0.00    +0.295 HD
ENDBRANCH  16  18
ENDBRANCH  15  16
ENDBRANCH  14  15
ENDBRANCH  13  14
ENDBRANCH  12  13
ENDBRANCH  11  12
ENDBRANCH   1  11
TORSDOF 15
ENDMDL
MODEL 4
REMARK VINA RESULT:      -5.6      1.924      3.770
REMARK  Name = *****
REMARK                            x       y       z     vdW  Elec       q    Type
REMARK                         _______ _______ _______ _____ _____    ______ ____
ROOT
ATOM      1  C   LIG    1       25.436 -18.592   3.472  0.00  0.00    -0.000 C 
ENDROOT
BRANCH   1   2
ATOM      2  C   LIG    1       25.801 -19.938   4.099  0.00  0.00    -0.000 C 
BRANCH   2   3
ATOM      3  C   LIG    1       26.863 -19.816   5.206  0.00  0.00    -0.000 C 
BRANCH   3   4
ATOM      4  C   LIG    1       26.435 -20.527   6.495  0.00  0.00    -0.000 C 
BRANCH   4   5
ATOM      5  C   LIG    1       25.315 -21.541   6.228  0.00  0.00    -0.000 C 
BRANCH   5   6
ATOM      6  C   LIG    1       24.061 -21.261   7.062  0.00  0.00    -0.000 C 
BRANCH   6   7
ATOM      7  C   LIG    1       23.159 -20.173   6.460  0.00  0.00    -0.000 C 
BRANCH   7   8
ATOM      8  C   LIG    1       22.381 -20.637   5.222  0.00  0.00    -0.000 C 
BRANCH   8  10
ATOM      9  C   LIG    1       22.054 -18.143   4.657  0.00  0.00    +0.004 C 
ATOM     10  C   LIG    1       22.229 -19.564   4.142  0.00  0.00    -0.003 C 
ENDBRANCH   8  10
ENDBRANCH   7   8
ENDBRANCH   6   7
ENDBRANCH   5   6
ENDBRANCH   4   5
ENDBRANCH   3   4
ENDBRANCH   2   3
ENDBRANCH   1   2
BRANCH   1  11
ATOM     11  C   LIG    1       26.481 -17.485   3.643  0.00  0.00    -0.000 C 
BRANCH  11  12
ATOM     12  C   LIG    1       26.074 -16.051   3.268  0.00  0.00    +0.000 C 
BRANCH  12  13
ATOM     13  C   LIG    1       27.081 -14.942   3.616  0.00  0.00    +0.000 C 
BRANCH  13  14
ATOM     14  C   LIG    1       26.836 -13.578   2.963  0.00  0.00    +0.011 C 
BRANCH  14  15
ATOM     15  C   LIG    1       25.516 -13.331   2.250  0.00  0.00    +0.120 C 
BRANCH  15  16
ATOM     16  C   LIG    1       24.389 -12.699   3.028  0.00  0.00    +0.305 C 
ATOM     17  O   LIG    1       24.143 -12.984   4.171  0.00  0.00    -0.251 OA
BRANCH  16  18
ATOM     18  O   LIG    1       23.738 -11.710   2.380  0.00  0.00    -0.481 OA
ATOM     19  H   LIG    1       23.920 -11.653   1.431  0.00  0.00    +0.295 HD
ENDBRANCH  16  18
ENDBRANCH  15  16
ENDBRANCH  14  15
ENDBRANCH  13  14
ENDBRANCH  12  13
ENDBRANCH  11  12
ENDBRANCH   1  11
TORSDOF 15
ENDMDL
MODEL 5
REMARK VINA RESULT:      -5.6      0.966      1.242
REMARK  Name = *****
REMARK                            x       y       z     vdW  Elec       q    Type
REMARK                         _______ _______ _______ _____ _____    ______ ____
ROOT
ATOM      1  C   LIG    1       22.378 -16.594   4.795  0.00  0.00    -0.000 C 
ENDROOT
BRANCH   1   2
ATOM      2  C   LIG    1       22.141 -18.029   4.322  0.00  0.00    -0.000 C 
BRANCH   2   3
ATOM      3  C   LIG    1       22.420 -19.075   5.416  0.00  0.00    -0.000 C 
BRANCH   3   4
ATOM      4  C   LIG    1       22.325 -20.509   4.880  0.00  0.00    -0.000 C 
BRANCH   4   5
ATOM      5  C   LIG    1       22.724 -21.533   5.950  0.00  0.00    -0.000 C 
BRANCH   5   6
ATOM      6  C   LIG    1       23.683 -20.947   6.992  0.00  0.00    -0.000 C 
BRANCH   6   7
ATOM      7  C   LIG    1       25.094 -21.549   6.928  0.00  0.00    -0.000 C 
BRANCH   7   8
ATOM      8  C   LIG    1       26.211 -20.505   7.062  0.00  0.00    -0.000 C 
BRANCH   8  10
ATOM      9  C   LIG    1       25.897 -20.094   4.536  0.00  0.00    +0.004 C 
ATOM     10  C   LIG    1       26.840 -20.090   5.730  0.00  0.00    -0.003 C 
ENDBRANCH   8  10
ENDBRANCH   7   8
ENDBRANCH   6   7
ENDBRANCH   5   6
ENDBRANCH   4   5
ENDBRANCH   3   4
ENDBRANCH   2   3
ENDBRANCH   1   2
BRANCH   1  11
ATOM     11  C   LIG    1       23.494 -15.839   4.066  0.00  0.00    -0.000 C 
BRANCH  11  12
ATOM     12  C   LIG    1       23.823 -14.415   4.540  0.00  0.00    +0.000 C 
BRANCH  12  13
ATOM     13  C   LIG    1       24.108 -13.378   3.440  0.00  0.00    +0.000 C 
BRANCH  13  14
ATOM     14  C   LIG    1       25.527 -13.378   2.862  0.00  0.00    +0.011 C 
BRANCH  14  15
ATOM     15  C   LIG    1       26.609 -14.174   3.573  0.00  0.00    +0.120 C 
BRANCH  15  16
ATOM     16  C   LIG    1       27.703 -13.420   4.287  0.00  0.00    +0.305 C 
ATOM     17  O   LIG    1       28.739 -13.114   3.757  0.00  0.00    -0.251 OA
BRANCH  16  18
ATOM     18  O   LIG    1       27.391 -13.018   5.537  0.00  0.00    -0.481 OA
ATOM     19  H   LIG    1       26.854 -12.214   5.587  0.00  0.00    +0.295 HD
ENDBRANCH  16  18
ENDBRANCH  15  16
ENDBRANCH  14  15
ENDBRANCH  13  14
ENDBRANCH  12  13
ENDBRANCH  11  12
ENDBRANCH   1  11
TORSDOF 15
ENDMDL
MODEL 6
REMARK VINA RESULT:      -5.6      2.135      6.519
REMARK  Name = *****
REMARK                            x       y       z     vdW  Elec       q    Type
REMARK                         _______ _______ _______ _____ _____    ______ ____
ROOT
ATOM      1  C   LIG    1       22.929 -17.444   4.251  0.00  0.00    -0.000 C 
ENDROOT
BRANCH   1   2
ATOM      2  C   LIG    1       22.397 -16.095   4.736  0.00  0.00    -0.000 C 
BRANCH   2   3
ATOM      3  C   LIG    1       23.480 -15.000   4.766  0.00  0.00    -0.000 C 
BRANCH   3   4
ATOM      4  C   LIG    1       23.475 -14.150   3.490  0.00  0.00    -0.000 C 
BRANCH   4   5
ATOM      5  C   LIG    1       24.244 -12.838   3.691  0.00  0.00    -0.000 C 
BRANCH   5   6
ATOM      6  C   LIG    1       25.167 -12.514   2.512  0.00  0.00    -0.000 C 
BRANCH   6   7
ATOM      7  C   LIG    1       26.167 -13.636   2.194  0.00  0.00    -0.000 C 
BRANCH   7   8
ATOM      8  C   LIG    1       27.376 -13.665   3.137  0.00  0.00    -0.000 C 
BRANCH   8  10
ATOM      9  C   LIG    1       26.724 -16.134   3.494  0.00  0.00    +0.004 C 
ATOM     10  C   LIG    1       27.438 -14.904   4.034  0.00  0.00    -0.003 C 
ENDBRANCH   8  10
ENDBRANCH   7   8
ENDBRANCH   6   7
ENDBRANCH   5   6
ENDBRANCH   4   5
ENDBRANCH   3   4
ENDBRANCH   2   3
ENDBRANCH   1   2
BRANCH   1  11
ATOM     11  C   LIG    1       21.975 -18.629   4.436  0.00  0.00    -0.000 C 
BRANCH  11  12
ATOM     12  C   LIG    1       22.591 -20.001   4.754  0.00  0.00    +0.000 C 
BRANCH  12  13
ATOM     13  C   LIG    1       23.139 -20.190   6.179  0.00  0.00    +0.000 C 
BRANCH  13  14
ATOM     14  C   LIG    1       24.297 -21.181   6.331  0.00  0.00    +0.011 C 
BRANCH  14  15
ATOM     15  C   LIG    1       25.645 -20.667   6.809  0.00  0.00    +0.120 C 
BRANCH  15  16
ATOM     16  C   LIG    1       26.668 -20.267   5.775  0.00  0.00    +0.305 C 
ATOM     17  O   LIG    1       27.805 -19.989   6.053  0.00  0.00    -0.251 OA
BRANCH  16  18
ATOM     18  O   LIG    1       26.241 -20.345   4.497  0.00  0.00    -0.481 OA
ATOM     19  H   LIG    1       25.484 -19.781   4.283  0.00  0.00    +0.295 HD
ENDBRANCH  16  18
ENDBRANCH  15  16
ENDBRANCH  14  15
ENDBRANCH  13  14
ENDBRANCH  12  13
ENDBRANCH  11  12
ENDBRANCH   1  11
TORSDOF 15
ENDMDL
MODEL 7
REMARK VINA RESULT:      -5.5      1.643      3.487
REMARK  Name = *****
REMARK                            x       y       z     vdW  Elec       q    Type
REMARK                         _______ _______ _______ _____ _____    ______ ____
ROOT
ATOM      1  C   LIG    1       25.737 -18.165   3.256  0.00  0.00    -0.000 C 
ENDROOT
BRANCH   1   2
ATOM      2  C   LIG    1       25.749 -19.469   4.054  0.00  0.00    -0.000 C 
BRANCH   2   3
ATOM      3  C   LIG    1       27.021 -19.639   4.906  0.00  0.00    -0.000 C 
BRANCH   3   4
ATOM      4  C   LIG    1       26.783 -20.542   6.122  0.00  0.00    -0.000 C 
BRANCH   4   5
ATOM      5  C   LIG    1       25.450 -21.292   6.009  0.00  0.00    -0.000 C 
BRANCH   5   6
ATOM      6  C   LIG    1       24.431 -20.839   7.060  0.00  0.00    -0.000 C 
BRANCH   6   7
ATOM      7  C   LIG    1       23.000 -20.730   6.515  0.00  0.00    -0.000 C 
BRANCH   7   8
ATOM      8  C   LIG    1       22.937 -20.501   4.999  0.00  0.00    -0.000 C 
BRANCH   8  10
ATOM      9  C   LIG    1       22.252 -18.062   4.517  0.00  0.00    +0.004 C 
ATOM     10  C   LIG    1       21.842 -19.527   4.561  0.00  0.00    -0.003 C 
ENDBRANCH   8  10
ENDBRANCH   7   8
ENDBRANCH   6   7
ENDBRANCH   5   6
ENDBRANCH   4   5
ENDBRANCH   3   4
ENDBRANCH   2   3
ENDBRANCH   1   2
BRANCH   1  11
ATOM     11  C   LIG    1       26.709 -17.088   3.746  0.00  0.00    -0.000 C 
BRANCH  11  12
ATOM     12  C   LIG    1       26.534 -15.662   3.198  0.00  0.00    +0.000 C 
BRANCH  12  13
ATOM     13  C   LIG    1       25.439 -14.807   3.859  0.00  0.00    +0.000 C 
BRANCH  13  14
ATOM     14  C   LIG    1       25.883 -13.445   4.403  0.00  0.00    +0.011 C 
BRANCH  14  15
ATOM     15  C   LIG    1       27.083 -13.382   5.333  0.00  0.00    +0.120 C 
BRANCH  15  16
ATOM     16  C   LIG    1       28.369 -12.797   4.805  0.00  0.00    +0.305 C 
ATOM     17  O   LIG    1       28.778 -13.013   3.694  0.00  0.00    -0.251 OA
BRANCH  16  18
ATOM     18  O   LIG    1       28.978 -11.925   5.635  0.00  0.00    -0.481 OA
ATOM     19  H   LIG    1       29.916 -12.102   5.800  0.00  0.00    +0.295 HD
ENDBRANCH  16  18
ENDBRANCH  15  16
ENDBRANCH  14  15
ENDBRANCH  13  14
ENDBRANCH  12  13
ENDBRANCH  11  12
ENDBRANCH   1  11
TORSDOF 15
ENDMDL
MODEL 8
REMARK VINA RESULT:      -5.3      1.295      2.694
REMARK  Name = *****
REMARK                            x       y       z     vdW  Elec       q    Type
REMARK                         _______ _______ _______ _____ _____    ______ ____
ROOT
ATOM      1  C   LIG    1       23.871 -14.110   4.423  0.00  0.00    -0.000 C 
ENDROOT
BRANCH   1   2
ATOM      2  C   LIG    1       23.342 -15.475   3.983  0.00  0.00    -0.000 C 
BRANCH   2   3
ATOM      3  C   LIG    1       22.370 -16.098   5.001  0.00  0.00    -0.000 C 
BRANCH   3   4
ATOM      4  C   LIG    1       22.047 -17.560   4.670  0.00  0.00    -0.000 C 
BRANCH   4   5
ATOM      5  C   LIG    1       23.263 -18.278   4.072  0.00  0.00    -0.000 C 
BRANCH   5   6
ATOM      6  C   LIG    1       23.227 -19.791   4.314  0.00  0.00    -0.000 C 
BRANCH   6   7
ATOM      7  C   LIG    1       22.855 -20.170   5.755  0.00  0.00    -0.000 C 
BRANCH   7   8
ATOM      8  C   LIG    1       23.749 -21.265   6.351  0.00  0.00    -0.000 C 
BRANCH   8  10
ATOM      9  C   LIG    1       26.236 -20.602   6.190  0.00  0.00    +0.004 C 
ATOM     10  C   LIG    1       24.996 -20.734   7.062  0.00  0.00    -0.003 C 
ENDBRANCH   8  10
ENDBRANCH   7   8
ENDBRANCH   6   7
ENDBRANCH   5   6
ENDBRANCH   4   5
ENDBRANCH   3   4
ENDBRANCH   2   3
ENDBRANCH   1   2
BRANCH   1  11
ATOM     11  C   LIG    1       23.924 -13.043   3.326  0.00  0.00    -0.000 C 
BRANCH  11  12
ATOM     12  C   LIG    1       25.307 -12.610   2.813  0.00  0.00    +0.000 C 
BRANCH  12  13
ATOM     13  C   LIG    1       26.165 -13.706   2.157  0.00  0.00    +0.000 C 
BRANCH  13  14
ATOM     14  C   LIG    1       27.437 -14.108   2.910  0.00  0.00    +0.011 C 
BRANCH  14  15
ATOM     15  C   LIG    1       27.328 -15.090   4.065  0.00  0.00    +0.120 C 
BRANCH  15  16
ATOM     16  C   LIG    1       27.177 -16.557   3.748  0.00  0.00    +0.305 C 
ATOM     17  O   LIG    1       26.264 -16.994   3.097  0.00  0.00    -0.251 OA
BRANCH  16  18
ATOM     18  O   LIG    1       28.201 -17.334   4.159  0.00  0.00    -0.481 OA
ATOM     19  H   LIG    1       28.307 -18.163   3.671  0.00  0.00    +0.295 HD
ENDBRANCH  16  18
ENDBRANCH  15  16
ENDBRANCH  14  15
ENDBRANCH  13  14
ENDBRANCH  12  13
ENDBRANCH  11  12
ENDBRANCH   1  11
TORSDOF 15
ENDMDL
MODEL 9
REMARK VINA RESULT:      -5.3      2.561      6.939
REMARK  Name = *****
REMARK                            x       y       z     vdW  Elec       q    Type
REMARK                         _______ _______ _______ _____ _____    ______ ____
ROOT
ATOM      1  C   LIG    1       24.350 -18.975   3.249  0.00  0.00    -0.000 C 
ENDROOT
BRANCH   1   2
ATOM      2  C   LIG    1       25.767 -18.419   3.392  0.00  0.00    -0.000 C 
BRANCH   2   3
ATOM      3  C   LIG    1       25.810 -16.880   3.387  0.00  0.00    -0.000 C 
BRANCH   3   4
ATOM      4  C   LIG    1       27.233 -16.342   3.582  0.00  0.00    -0.000 C 
BRANCH   4   5
ATOM      5  C   LIG    1       27.219 -14.911   4.132  0.00  0.00    -0.000 C 
BRANCH   5   6
ATOM      6  C   LIG    1       27.436 -13.861   3.038  0.00  0.00    -0.000 C 
BRANCH   6   7
ATOM      7  C   LIG    1       26.142 -13.454   2.318  0.00  0.00    -0.000 C 
BRANCH   7   8
ATOM      8  C   LIG    1       25.065 -12.900   3.261  0.00  0.00    -0.000 C 
BRANCH   8  10
ATOM      9  C   LIG    1       23.545 -14.565   4.514  0.00  0.00    +0.004 C 
ATOM     10  C   LIG    1       23.769 -13.714   3.272  0.00  0.00    -0.003 C 
ENDBRANCH   8  10
ENDBRANCH   7   8
ENDBRANCH   6   7
ENDBRANCH   5   6
ENDBRANCH   4   5
ENDBRANCH   3   4
ENDBRANCH   2   3
ENDBRANCH   1   2
BRANCH   1  11
ATOM     11  C   LIG    1       23.289 -18.298   4.121  0.00  0.00    -0.000 C 
BRANCH  11  12
ATOM     12  C   LIG    1       22.133 -19.165   4.645  0.00  0.00    +0.000 C 
BRANCH  12  13
ATOM     13  C   LIG    1       22.526 -20.479   5.342  0.00  0.00    +0.000 C 
BRANCH  13  14
ATOM     14  C   LIG    1       23.178 -20.343   6.722  0.00  0.00    +0.011 C 
BRANCH  14  15
ATOM     15  C   LIG    1       24.376 -21.216   7.058  0.00  0.00    +0.120 C 
BRANCH  15  16
ATOM     16  C   LIG    1       25.547 -21.223   6.108  0.00  0.00    +0.305 C 
ATOM     17  O   LIG    1       25.456 -21.571   4.959  0.00  0.00    -0.251 OA
BRANCH  16  18
ATOM     18  O   LIG    1       26.688 -20.707   6.611  0.00  0.00    -0.481 OA
ATOM     19  H   LIG    1       27.219 -21.323   7.136  0.00  0.00    +0.295 HD
ENDBRANCH  16  18
ENDBRANCH  15  16
ENDBRANCH  14  15
ENDBRANCH  13  14
ENDBRANCH  12  13
ENDBRANCH  11  12
ENDBRANCH   1  11
TORSDOF 15
ENDMDL
