MODEL 1
REMARK VINA RESULT:       0.2      0.000      0.000
REMARK  Name = *****
REMARK                            x       y       z     vdW  Elec       q    Type
REMARK                         _______ _______ _______ _____ _____    ______ ____
ROOT
ATOM      1  C   LIG    1       25.589 -14.958   3.456  0.00  0.00    +0.080 C 
ENDROOT
BRANCH   1   2
ATOM      2  C   LIG    1       26.642 -14.030   4.170  0.00  0.00    -0.030 A 
ATOM      3  C   LIG    1       26.598 -13.718   5.542  0.00  0.00    +0.005 A 
ATOM      4  C   LIG    1       27.564 -12.902   6.144  0.00  0.00    +0.000 A 
ATOM      5  C   LIG    1       28.623 -12.398   5.402  0.00  0.00    +0.000 A 
ATOM      6  C   LIG    1       28.710 -12.703   4.047  0.00  0.00    +0.000 A 
ATOM      7  C   LIG    1       27.727 -13.497   3.439  0.00  0.00    +0.005 A 
ENDBRANCH   1   2
BRANCH   1   8
ATOM      8  C   LIG    1       24.281 -15.055   4.334  0.00  0.00    -0.030 A 
ATOM      9  C   LIG    1       23.426 -16.168   4.209  0.00  0.00    +0.005 A 
ATOM     10  C   LIG    1       22.258 -16.276   4.978  0.00  0.00    +0.000 A 
ATOM     11  C   LIG    1       21.923 -15.286   5.894  0.00  0.00    +0.000 A 
ATOM     12  C   LIG    1       22.745 -14.180   6.041  0.00  0.00    +0.000 A 
ATOM     13  C   LIG    1       23.907 -14.065   5.271  0.00  0.00    +0.005 A 
ENDBRANCH   1   8
BRANCH   1  14
ATOM     14  C   LIG    1       26.102 -16.450   3.266  0.00  0.00    +0.148 C 
ATOM     15  O   LIG    1       27.308 -16.745   3.297  0.00  0.00    -0.296 OA
BRANCH  14  17
ATOM     16  C   LIG    1       25.738 -18.918   3.648  0.00  0.00    +0.012 C 
ATOM     17  C   LIG    1       25.121 -17.609   3.175  0.00  0.00    +0.072 C 
ENDBRANCH  14  17
ENDBRANCH   1  14
BRANCH   1  18
ATOM     18  C   LIG    1       25.235 -14.268   2.092  0.00  0.00    +0.039 C 
BRANCH  18  19
ATOM     19  C   LIG    1       23.923 -13.485   1.985  0.00  0.00    +0.085 C 
BRANCH  19  20
ATOM     20  N   LIG    1       24.166 -12.026   2.050  0.00  0.00    -0.308 NA
ATOM     21  C   LIG    1       25.584 -11.742   1.812  0.00  0.00    +0.104 C 
ATOM     22  C   LIG    1       23.765 -11.447   3.337  0.00  0.00    +0.104 C 
ENDBRANCH  19  20
ENDBRANCH  18  19
ENDBRANCH   1  18
TORSDOF 7
ENDMDL
MODEL 2
REMARK VINA RESULT:       0.8      3.432      6.161
REMARK  Name = *****
REMARK                            x       y       z     vdW  Elec       q    Type
REMARK                         _______ _______ _______ _____ _____    ______ ____
ROOT
ATOM      1  C   LIG    1       25.266 -18.982   4.316  0.00  0.00    +0.080 C 
ENDROOT
BRANCH   1   2
ATOM      2  C   LIG    1       25.423 -17.459   3.950  0.00  0.00    -0.030 A 
ATOM      3  C   LIG    1       24.370 -16.529   4.033  0.00  0.00    +0.005 A 
ATOM      4  C   LIG    1       24.554 -15.176   3.715  0.00  0.00    +0.000 A 
ATOM      5  C   LIG    1       25.804 -14.705   3.337  0.00  0.00    +0.000 A 
ATOM      6  C   LIG    1       26.873 -15.593   3.265  0.00  0.00    +0.000 A 
ATOM      7  C   LIG    1       26.681 -16.951   3.556  0.00  0.00    +0.005 A 
ENDBRANCH   1   2
BRANCH   1   8
ATOM      8  C   LIG    1       26.528 -19.468   5.129  0.00  0.00    -0.030 A 
ATOM      9  C   LIG    1       26.392 -20.457   6.124  0.00  0.00    +0.005 A 
ATOM     10  C   LIG    1       27.500 -20.904   6.859  0.00  0.00    +0.000 A 
ATOM     11  C   LIG    1       28.766 -20.386   6.613  0.00  0.00    +0.000 A 
ATOM     12  C   LIG    1       28.932 -19.414   5.639  0.00  0.00    +0.000 A 
ATOM     13  C   LIG    1       27.829 -18.960   4.909  0.00  0.00    +0.005 A 
ENDBRANCH   1   8
BRANCH   1  14
ATOM     14  C   LIG    1       25.177 -19.924   3.040  0.00  0.00    +0.148 C 
ATOM     15  O   LIG    1       25.639 -19.590   1.936  0.00  0.00    -0.296 OA
BRANCH  14  17
ATOM     16  C   LIG    1       23.433 -21.571   2.255  0.00  0.00    +0.012 C 
ATOM     17  C   LIG    1       24.642 -21.344   3.151  0.00  0.00    +0.072 C 
ENDBRANCH  14  17
ENDBRANCH   1  14
BRANCH   1  18
ATOM     18  C   LIG    1       23.998 -19.095   5.234  0.00  0.00    +0.039 C 
BRANCH  18  19
ATOM     19  C   LIG    1       22.643 -19.388   4.581  0.00  0.00    +0.085 C 
BRANCH  19  20
ATOM     20  N   LIG    1       21.888 -20.401   5.352  0.00  0.00    -0.308 NA
ATOM     21  C   LIG    1       22.815 -21.260   6.095  0.00  0.00    +0.104 C 
ATOM     22  C   LIG    1       21.033 -21.234   4.499  0.00  0.00    +0.104 C 
ENDBRANCH  19  20
ENDBRANCH  18  19
ENDBRANCH   1  18
TORSDOF 7
ENDMDL
MODEL 3
REMARK VINA RESULT:       0.8      2.523      4.756
REMARK  Name = *****
REMARK                            x       y       z     vdW  Elec       q    Type
REMARK                         _______ _______ _______ _____ _____    ______ ____
ROOT
ATOM      1  C   LIG    1       25.620 -18.731   3.686  0.00  0.00    +0.080 C 
ENDROOT
BRANCH   1   2
ATOM      2  C   LIG    1       26.390 -19.387   4.893  0.00  0.00    -0.030 A 
ATOM      3  C   LIG    1       25.802 -20.304   5.783  0.00  0.00    +0.005 A 
ATOM      4  C   LIG    1       26.527 -20.880   6.835  0.00  0.00    +0.000 A 
ATOM      5  C   LIG    1       27.871 -20.583   7.009  0.00  0.00    +0.000 A 
ATOM      6  C   LIG    1       28.492 -19.697   6.135  0.00  0.00    +0.000 A 
ATOM      7  C   LIG    1       27.759 -19.099   5.099  0.00  0.00    +0.005 A 
ENDBRANCH   1   2
BRANCH   1   8
ATOM      8  C   LIG    1       24.232 -18.167   4.183  0.00  0.00    -0.030 A 
ATOM      9  C   LIG    1       23.916 -16.805   4.004  0.00  0.00    +0.005 A 
ATOM     10  C   LIG    1       22.689 -16.282   4.438  0.00  0.00    +0.000 A 
ATOM     11  C   LIG    1       21.747 -17.103   5.047  0.00  0.00    +0.000 A 
ATOM     12  C   LIG    1       22.028 -18.448   5.234  0.00  0.00    +0.000 A 
ATOM     13  C   LIG    1       23.254 -18.972   4.811  0.00  0.00    +0.005 A 
ENDBRANCH   1   8
BRANCH   1  14
ATOM     14  C   LIG    1       25.284 -19.762   2.526  0.00  0.00    +0.148 C 
ATOM     15  O   LIG    1       26.167 -20.268   1.813  0.00  0.00    -0.296 OA
BRANCH  14  17
ATOM     16  C   LIG    1       23.621 -21.571   3.102  0.00  0.00    +0.012 C 
ATOM     17  C   LIG    1       23.869 -20.285   2.327  0.00  0.00    +0.072 C 
ENDBRANCH  14  17
ENDBRANCH   1  14
BRANCH   1  18
ATOM     18  C   LIG    1       26.504 -17.534   3.187  0.00  0.00    +0.039 C 
BRANCH  18  19
ATOM     19  C   LIG    1       25.946 -16.112   3.301  0.00  0.00    +0.085 C 
BRANCH  19  20
ATOM     20  N   LIG    1       27.000 -15.104   3.044  0.00  0.00    -0.308 NA
ATOM     21  C   LIG    1       27.769 -14.858   4.267  0.00  0.00    +0.104 C 
ATOM     22  C   LIG    1       26.455 -13.835   2.551  0.00  0.00    +0.104 C 
ENDBRANCH  19  20
ENDBRANCH  18  19
ENDBRANCH   1  18
TORSDOF 7
ENDMDL
MODEL 4
REMARK VINA RESULT:       0.8      3.025      5.766
REMARK  Name = *****
REMARK                            x       y       z     vdW  Elec       q    Type
REMARK                         _______ _______ _______ _____ _____    ______ ____
ROOT
ATOM      1  C   LIG    1       24.692 -18.939   4.172  0.00  0.00    +0.080 C 
ENDROOT
BRANCH   1   2
ATOM      2  C   LIG    1       25.048 -17.432   3.885  0.00  0.00    -0.030 A 
ATOM      3  C   LIG    1       26.294 -17.012   3.383  0.00  0.00    +0.005 A 
ATOM      4  C   LIG    1       26.566 -15.662   3.124  0.00  0.00    +0.000 A 
ATOM      5  C   LIG    1       25.592 -14.694   3.327  0.00  0.00    +0.000 A 
ATOM      6  C   LIG    1       24.342 -15.077   3.802  0.00  0.00    +0.000 A 
ATOM      7  C   LIG    1       24.079 -16.425   4.088  0.00  0.00    +0.005 A 
ENDBRANCH   1   2
BRANCH   1   8
ATOM      8  C   LIG    1       25.791 -19.579   5.106  0.00  0.00    -0.030 A 
ATOM      9  C   LIG    1       27.157 -19.328   4.868  0.00  0.00    +0.005 A 
ATOM     10  C   LIG    1       28.151 -19.886   5.684  0.00  0.00    +0.000 A 
ATOM     11  C   LIG    1       27.808 -20.696   6.761  0.00  0.00    +0.000 A 
ATOM     12  C   LIG    1       26.472 -20.960   7.022  0.00  0.00    +0.000 A 
ATOM     13  C   LIG    1       25.478 -20.411   6.206  0.00  0.00    +0.005 A 
ENDBRANCH   1   8
BRANCH   1  14
ATOM     14  C   LIG    1       24.657 -19.833   2.859  0.00  0.00    +0.148 C 
ATOM     15  O   LIG    1       25.320 -19.549   1.847  0.00  0.00    -0.296 OA
BRANCH  14  17
ATOM     16  C   LIG    1       23.430 -21.570   4.217  0.00  0.00    +0.012 C 
ATOM     17  C   LIG    1       23.913 -21.159   2.834  0.00  0.00    +0.072 C 
ENDBRANCH  14  17
ENDBRANCH   1  14
BRANCH   1  18
ATOM     18  C   LIG    1       23.318 -18.938   4.932  0.00  0.00    +0.039 C 
BRANCH  18  19
ATOM     19  C   LIG    1       22.158 -18.124   4.351  0.00  0.00    +0.085 C 
BRANCH  19  20
ATOM     20  N   LIG    1       21.265 -18.977   3.535  0.00  0.00    -0.308 NA
ATOM     21  C   LIG    1       20.115 -18.197   3.068  0.00  0.00    +0.104 C 
ATOM     22  C   LIG    1       20.786 -20.152   4.271  0.00  0.00    +0.104 C 
ENDBRANCH  19  20
ENDBRANCH  18  19
ENDBRANCH   1  18
TORSDOF 7
ENDMDL
MODEL 5
REMARK VINA RESULT:       1.7      1.660      4.173
REMARK  Name = *****
REMARK                            x       y       z     vdW  Elec       q    Type
REMARK                         _______ _______ _______ _____ _____    ______ ____
ROOT
ATOM      1  C   LIG    1       25.549 -14.291   3.827  0.00  0.00    +0.080 C 
ENDROOT
BRANCH   1   2
ATOM      2  C   LIG    1       26.884 -13.560   4.230  0.00  0.00    -0.030 A 
ATOM      3  C   LIG    1       27.901 -13.238   3.312  0.00  0.00    +0.005 A 
ATOM      4  C   LIG    1       29.068 -12.571   3.707  0.00  0.00    +0.000 A 
ATOM      5  C   LIG    1       29.240 -12.175   5.026  0.00  0.00    +0.000 A 
ATOM      6  C   LIG    1       28.246 -12.457   5.957  0.00  0.00    +0.000 A 
ATOM      7  C   LIG    1       27.091 -13.150   5.567  0.00  0.00    +0.005 A 
ENDBRANCH   1   2
BRANCH   1   8
ATOM      8  C   LIG    1       25.812 -15.840   3.681  0.00  0.00    -0.030 A 
ATOM      9  C   LIG    1       27.117 -16.353   3.822  0.00  0.00    +0.005 A 
ATOM     10  C   LIG    1       27.374 -17.727   3.695  0.00  0.00    +0.000 A 
ATOM     11  C   LIG    1       26.338 -18.618   3.439  0.00  0.00    +0.000 A 
ATOM     12  C   LIG    1       25.044 -18.143   3.298  0.00  0.00    +0.000 A 
ATOM     13  C   LIG    1       24.784 -16.774   3.415  0.00  0.00    +0.005 A 
ENDBRANCH   1   8
BRANCH   1  14
ATOM     14  C   LIG    1       24.973 -13.810   2.427  0.00  0.00    +0.148 C 
ATOM     15  O   LIG    1       24.104 -14.451   1.812  0.00  0.00    -0.296 OA
BRANCH  14  17
ATOM     16  C   LIG    1       24.233 -11.447   1.937  0.00  0.00    +0.012 C 
ATOM     17  C   LIG    1       25.364 -12.461   1.841  0.00  0.00    +0.072 C 
ENDBRANCH  14  17
ENDBRANCH   1  14
BRANCH   1  18
ATOM     18  C   LIG    1       24.537 -14.057   5.004  0.00  0.00    +0.039 C 
BRANCH  18  19
ATOM     19  C   LIG    1       23.051 -14.335   4.759  0.00  0.00    +0.085 C 
BRANCH  19  20
ATOM     20  N   LIG    1       22.570 -15.448   5.609  0.00  0.00    -0.308 NA
ATOM     21  C   LIG    1       21.984 -16.500   4.774  0.00  0.00    +0.104 C 
ATOM     22  C   LIG    1       21.583 -15.011   6.602  0.00  0.00    +0.104 C 
ENDBRANCH  19  20
ENDBRANCH  18  19
ENDBRANCH   1  18
TORSDOF 7
ENDMDL
MODEL 6
REMARK VINA RESULT:       2.8      1.341      4.474
REMARK  Name = *****
REMARK                            x       y       z     vdW  Elec       q    Type
REMARK                         _______ _______ _______ _____ _____    ______ ____
ROOT
ATOM      1  C   LIG    1       25.897 -14.694   3.779  0.00  0.00    +0.080 C 
ENDROOT
BRANCH   1   2
ATOM      2  C   LIG    1       24.506 -14.668   4.516  0.00  0.00    -0.030 A 
ATOM      3  C   LIG    1       24.043 -13.566   5.261  0.00  0.00    +0.005 A 
ATOM      4  C   LIG    1       22.790 -13.575   5.888  0.00  0.00    +0.000 A 
ATOM      5  C   LIG    1       21.947 -14.670   5.764  0.00  0.00    +0.000 A 
ATOM      6  C   LIG    1       22.363 -15.768   5.018  0.00  0.00    +0.000 A 
ATOM      7  C   LIG    1       23.629 -15.771   4.413  0.00  0.00    +0.005 A 
ENDBRANCH   1   2
BRANCH   1   8
ATOM      8  C   LIG    1       26.513 -16.145   3.854  0.00  0.00    -0.030 A 
ATOM      9  C   LIG    1       27.774 -16.349   4.449  0.00  0.00    +0.005 A 
ATOM     10  C   LIG    1       28.341 -17.630   4.527  0.00  0.00    +0.000 A 
ATOM     11  C   LIG    1       27.662 -18.734   4.025  0.00  0.00    +0.000 A 
ATOM     12  C   LIG    1       26.418 -18.566   3.436  0.00  0.00    +0.000 A 
ATOM     13  C   LIG    1       25.853 -17.290   3.350  0.00  0.00    +0.005 A 
ENDBRANCH   1   8
BRANCH   1  14
ATOM     14  C   LIG    1       26.971 -13.727   4.438  0.00  0.00    +0.148 C 
ATOM     15  O   LIG    1       26.827 -13.256   5.579  0.00  0.00    -0.296 OA
BRANCH  14  17
ATOM     16  C   LIG    1       28.999 -12.228   4.335  0.00  0.00    +0.012 C 
ATOM     17  C   LIG    1       28.298 -13.445   3.749  0.00  0.00    +0.072 C 
ENDBRANCH  14  17
ENDBRANCH   1  14
BRANCH   1  18
ATOM     18  C   LIG    1       25.614 -14.341   2.276  0.00  0.00    +0.039 C 
BRANCH  18  19
ATOM     19  C   LIG    1       24.304 -13.628   1.924  0.00  0.00    +0.085 C 
BRANCH  19  20
ATOM     20  N   LIG    1       24.500 -12.163   1.844  0.00  0.00    -0.308 NA
ATOM     21  C   LIG    1       25.930 -11.845   1.859  0.00  0.00    +0.104 C 
ATOM     22  C   LIG    1       23.833 -11.448   2.937  0.00  0.00    +0.104 C 
ENDBRANCH  19  20
ENDBRANCH  18  19
ENDBRANCH   1  18
TORSDOF 7
ENDMDL
MODEL 7
REMARK VINA RESULT:       2.9      3.665      6.336
REMARK  Name = *****
REMARK                            x       y       z     vdW  Elec       q    Type
REMARK                         _______ _______ _______ _____ _____    ______ ____
ROOT
ATOM      1  C   LIG    1       25.368 -19.430   4.663  0.00  0.00    +0.080 C 
ENDROOT
BRANCH   1   2
ATOM      2  C   LIG    1       26.739 -19.778   5.354  0.00  0.00    -0.030 A 
ATOM      3  C   LIG    1       27.917 -19.032   5.161  0.00  0.00    +0.005 A 
ATOM      4  C   LIG    1       29.114 -19.364   5.809  0.00  0.00    +0.000 A 
ATOM      5  C   LIG    1       29.164 -20.431   6.695  0.00  0.00    +0.000 A 
ATOM      6  C   LIG    1       28.013 -21.178   6.926  0.00  0.00    +0.000 A 
ATOM      7  C   LIG    1       26.822 -20.863   6.256  0.00  0.00    +0.005 A 
ENDBRANCH   1   2
BRANCH   1   8
ATOM      8  C   LIG    1       25.379 -17.927   4.181  0.00  0.00    -0.030 A 
ATOM      9  C   LIG    1       24.201 -17.157   4.236  0.00  0.00    +0.005 A 
ATOM     10  C   LIG    1       24.188 -15.819   3.813  0.00  0.00    +0.000 A 
ATOM     11  C   LIG    1       25.347 -15.218   3.338  0.00  0.00    +0.000 A 
ATOM     12  C   LIG    1       26.523 -15.949   3.274  0.00  0.00    +0.000 A 
ATOM     13  C   LIG    1       26.538 -17.285   3.687  0.00  0.00    +0.005 A 
ENDBRANCH   1   8
BRANCH   1  14
ATOM     14  C   LIG    1       24.124 -19.567   5.642  0.00  0.00    +0.148 C 
ATOM     15  O   LIG    1       22.992 -19.153   5.337  0.00  0.00    -0.296 OA
BRANCH  14  17
ATOM     16  C   LIG    1       23.238 -21.489   7.017  0.00  0.00    +0.012 C 
ATOM     17  C   LIG    1       24.236 -20.342   6.946  0.00  0.00    +0.072 C 
ENDBRANCH  14  17
ENDBRANCH   1  14
BRANCH   1  18
ATOM     18  C   LIG    1       25.248 -20.364   3.407  0.00  0.00    +0.039 C 
BRANCH  18  19
ATOM     19  C   LIG    1       24.304 -21.569   3.476  0.00  0.00    +0.085 C 
BRANCH  19  20
ATOM     20  N   LIG    1       23.010 -21.269   2.822  0.00  0.00    -0.308 NA
ATOM     21  C   LIG    1       23.066 -19.954   2.177  0.00  0.00    +0.104 C 
ATOM     22  C   LIG    1       21.885 -21.300   3.763  0.00  0.00    +0.104 C 
ENDBRANCH  19  20
ENDBRANCH  18  19
ENDBRANCH   1  18
TORSDOF 7
ENDMDL
MODEL 8
REMARK VINA RESULT:       3.1      1.134      3.708
REMARK  Name = *****
REMARK                            x       y       z     vdW  Elec       q    Type
REMARK                         _______ _______ _______ _____ _____    ______ ____
ROOT
ATOM      1  C   LIG    1       25.951 -14.892   3.553  0.00  0.00    +0.080 C 
ENDROOT
BRANCH   1   2
ATOM      2  C   LIG    1       24.919 -14.159   4.489  0.00  0.00    -0.030 A 
ATOM      3  C   LIG    1       23.617 -14.635   4.733  0.00  0.00    +0.005 A 
ATOM      4  C   LIG    1       22.734 -13.963   5.588  0.00  0.00    +0.000 A 
ATOM      5  C   LIG    1       23.134 -12.811   6.252  0.00  0.00    +0.000 A 
ATOM      6  C   LIG    1       24.421 -12.323   6.051  0.00  0.00    +0.000 A 
ATOM      7  C   LIG    1       25.296 -12.981   5.174  0.00  0.00    +0.005 A 
ENDBRANCH   1   2
BRANCH   1   8
ATOM      8  C   LIG    1       25.696 -16.449   3.594  0.00  0.00    -0.030 A 
ATOM      9  C   LIG    1       26.784 -17.343   3.634  0.00  0.00    +0.005 A 
ATOM     10  C   LIG    1       26.582 -18.730   3.670  0.00  0.00    +0.000 A 
ATOM     11  C   LIG    1       25.295 -19.257   3.680  0.00  0.00    +0.000 A 
ATOM     12  C   LIG    1       24.205 -18.402   3.645  0.00  0.00    +0.000 A 
ATOM     13  C   LIG    1       24.402 -17.018   3.600  0.00  0.00    +0.005 A 
ENDBRANCH   1   8
BRANCH   1  14
ATOM     14  C   LIG    1       27.460 -14.682   4.003  0.00  0.00    +0.148 C 
ATOM     15  O   LIG    1       28.022 -15.441   4.811  0.00  0.00    -0.296 OA
BRANCH  14  17
ATOM     16  C   LIG    1       28.697 -12.507   4.330  0.00  0.00    +0.012 C 
ATOM     17  C   LIG    1       28.330 -13.615   3.355  0.00  0.00    +0.072 C 
ENDBRANCH  14  17
ENDBRANCH   1  14
BRANCH   1  18
ATOM     18  C   LIG    1       25.682 -14.372   2.097  0.00  0.00    +0.039 C 
BRANCH  18  19
ATOM     19  C   LIG    1       24.379 -13.616   1.816  0.00  0.00    +0.085 C 
BRANCH  19  20
ATOM     20  N   LIG    1       24.602 -12.153   1.817  0.00  0.00    -0.308 NA
ATOM     21  C   LIG    1       26.017 -11.860   2.060  0.00  0.00    +0.104 C 
ATOM     22  C   LIG    1       23.785 -11.462   2.821  0.00  0.00    +0.104 C 
ENDBRANCH  19  20
ENDBRANCH  18  19
ENDBRANCH   1  18
TORSDOF 7
ENDMDL
