MODEL 1
REMARK VINA RESULT:      -7.3      0.000      0.000
REMARK  Name = *****
REMARK                            x       y       z     vdW  Elec       q    Type
REMARK                         _______ _______ _______ _____ _____    ______ ____
ROOT
ATOM      1  C   LIG    1       24.786 -29.510  10.844  0.00  0.00    +0.035 C 
ATOM      2  N   LIG    1       23.670 -29.918  10.092  0.00  0.00    -0.342 NA
ATOM      3  C   LIG    1       22.514 -30.106  10.957  0.00  0.00    +0.058 C 
ATOM      4  C   LIG    1       22.771 -29.244  12.081  0.00  0.00    +0.020 C 
ATOM      5  C   LIG    1       24.276 -28.985  12.075  0.00  0.00    +0.066 C 
ENDROOT
BRANCH   3   6
ATOM      6  C   LIG    1       21.305 -31.078  10.668  0.00  0.00    -0.001 C 
ATOM      7  C   LIG    1       19.949 -30.688  10.518  0.00  0.00    +0.013 C 
ATOM      8  C   LIG    1       18.895 -31.551  10.158  0.00  0.00    +0.039 C 
ATOM      9  C   LIG    1       19.156 -32.875   9.912  0.00  0.00    +0.123 C 
ATOM     10  F   LIG    1       18.166 -33.684   9.511  0.00  0.00    -0.205 F 
ATOM     11  C   LIG    1       20.445 -33.347  10.068  0.00  0.00    +0.039 C 
ATOM     12  C   LIG    1       21.496 -32.464  10.442  0.00  0.00    +0.013 C 
ENDBRANCH   3   6
BRANCH   4  13
ATOM     13  C   LIG    1       21.682 -28.854  13.094  0.00  0.00    -0.015 C 
ATOM     14  C   LIG    1       21.354 -29.656  14.209  0.00  0.00    +0.008 C 
ATOM     15  C   LIG    1       20.378 -29.253  15.164  0.00  0.00    +0.001 C 
ATOM     16  C   LIG    1       19.650 -28.073  15.008  0.00  0.00    +0.000 C 
ATOM     17  C   LIG    1       19.896 -27.300  13.896  0.00  0.00    +0.001 C 
ATOM     18  C   LIG    1       20.926 -27.661  13.012  0.00  0.00    +0.008 C 
ENDBRANCH   4  13
BRANCH   5  19
ATOM     19  C   LIG    1       25.151 -28.344  13.142  0.00  0.00    +0.251 C 
ATOM     20  N   LIG    1       25.210 -27.016  13.138  0.00  0.00    -0.281 N 
ATOM     21  H   LIG    1       24.771 -26.608  12.296  0.00  0.00    +0.155 HD
ATOM     22  O   LIG    1       25.840 -29.044  13.976  0.00  0.00    -0.270 OA
BRANCH  20  23
ATOM     23  C   LIG    1       25.745 -26.017  14.001  0.00  0.00    +0.034 C 
ATOM     24  C   LIG    1       27.103 -25.724  13.880  0.00  0.00    +0.023 C 
ATOM     25  C   LIG    1       27.672 -24.622  14.532  0.00  0.00    +0.002 C 
ATOM     26  C   LIG    1       26.862 -23.716  15.209  0.00  0.00    +0.000 C 
ATOM     27  C   LIG    1       25.488 -23.940  15.260  0.00  0.00    +0.002 C 
ATOM     28  C   LIG    1       24.929 -25.102  14.681  0.00  0.00    +0.023 C 
ENDBRANCH  20  23
ENDBRANCH   5  19
BRANCH   1  30
ATOM     29  C   LIG    1       26.798 -30.996   9.908  0.00  0.00    +0.014 C 
ATOM     30  C   LIG    1       26.313 -29.643  10.439  0.00  0.00    +0.030 C 
ATOM     31  C   LIG    1       26.806 -28.616   9.396  0.00  0.00    +0.014 C 
ENDBRANCH   1  30
BRANCH   2  32
ATOM     32  C   LIG    1       23.629 -30.262   8.661  0.00  0.00    +0.124 C 
BRANCH  32  33
ATOM     33  C   LIG    1       24.016 -31.606   7.993  0.00  0.00    +0.053 C 
BRANCH  33  34
ATOM     34  C   LIG    1       24.426 -31.494   6.460  0.00  0.00    +0.119 C 
BRANCH  34  35
ATOM     35  O   LIG    1       23.210 -31.495   5.715  0.00  0.00    -0.392 OA
ATOM     36  H   LIG    1       22.667 -32.262   5.975  0.00  0.00    +0.210 HD
ENDBRANCH  34  35
BRANCH  34  37
ATOM     37  C   LIG    1       25.287 -30.256   6.099  0.00  0.00    +0.063 C 
BRANCH  37  38
ATOM     38  C   LIG    1       24.707 -28.818   5.846  0.00  0.00    +0.128 C 
BRANCH  38  39
ATOM     39  O   LIG    1       23.603 -28.948   4.948  0.00  0.00    -0.391 OA
ATOM     40  H   LIG    1       23.941 -29.082   4.043  0.00  0.00    +0.210 HD
ENDBRANCH  38  39
BRANCH  38  41
ATOM     41  C   LIG    1       25.580 -27.628   5.404  0.00  0.00    +0.151 C 
BRANCH  41  42
ATOM     42  C   LIG    1       24.912 -26.244   5.298  0.00  0.00    +0.307 C 
ATOM     43  O   LIG    1       25.526 -25.258   4.902  0.00  0.00    -0.251 OA
BRANCH  42  44
ATOM     44  O   LIG    1       23.635 -26.108   5.702  0.00  0.00    -0.481 OA
ATOM     45  H   LIG    1       23.367 -26.497   6.545  0.00  0.00    +0.295 HD
ENDBRANCH  42  44
ENDBRANCH  41  42
ENDBRANCH  38  41
ENDBRANCH  37  38
ENDBRANCH  34  37
ENDBRANCH  33  34
ENDBRANCH  32  33
ENDBRANCH   2  32
TORSDOF 15
ENDMDL
MODEL 2
REMARK VINA RESULT:      -6.4      3.047      7.687
REMARK  Name = *****
REMARK                            x       y       z     vdW  Elec       q    Type
REMARK                         _______ _______ _______ _____ _____    ______ ____
ROOT
ATOM      1  C   LIG    1       25.134 -29.179  11.498  0.00  0.00    +0.035 C 
ATOM      2  N   LIG    1       24.454 -28.700  12.632  0.00  0.00    -0.342 NA
ATOM      3  C   LIG    1       23.037 -29.029  12.552  0.00  0.00    +0.058 C 
ATOM      4  C   LIG    1       22.994 -30.194  11.708  0.00  0.00    +0.020 C 
ATOM      5  C   LIG    1       24.304 -30.195  10.925  0.00  0.00    +0.066 C 
ENDROOT
BRANCH   3   6
ATOM      6  C   LIG    1       21.872 -28.220  13.241  0.00  0.00    -0.001 C 
ATOM      7  C   LIG    1       21.275 -27.036  12.733  0.00  0.00    +0.013 C 
ATOM      8  C   LIG    1       20.166 -26.381  13.304  0.00  0.00    +0.039 C 
ATOM      9  C   LIG    1       19.578 -26.898  14.430  0.00  0.00    +0.123 C 
ATOM     10  F   LIG    1       18.487 -26.311  14.940  0.00  0.00    -0.205 F 
ATOM     11  C   LIG    1       20.117 -28.030  15.011  0.00  0.00    +0.039 C 
ATOM     12  C   LIG    1       21.243 -28.674  14.427  0.00  0.00    +0.013 C 
ENDBRANCH   3   6
BRANCH   4  13
ATOM     13  C   LIG    1       21.752 -31.096  11.604  0.00  0.00    -0.015 C 
ATOM     14  C   LIG    1       21.523 -32.185  12.475  0.00  0.00    +0.008 C 
ATOM     15  C   LIG    1       20.343 -32.976  12.394  0.00  0.00    +0.001 C 
ATOM     16  C   LIG    1       19.383 -32.755  11.406  0.00  0.00    +0.000 C 
ATOM     17  C   LIG    1       19.607 -31.746  10.498  0.00  0.00    +0.001 C 
ATOM     18  C   LIG    1       20.728 -30.912  10.646  0.00  0.00    +0.008 C 
ENDBRANCH   4  13
BRANCH   5  19
ATOM     19  C   LIG    1       24.716 -31.042   9.730  0.00  0.00    +0.251 C 
ATOM     20  N   LIG    1       24.134 -30.750   8.571  0.00  0.00    -0.281 N 
ATOM     21  H   LIG    1       23.354 -30.083   8.683  0.00  0.00    +0.155 HD
ATOM     22  O   LIG    1       25.547 -32.021   9.836  0.00  0.00    -0.270 OA
BRANCH  20  23
ATOM     23  C   LIG    1       24.312 -31.146   7.214  0.00  0.00    +0.034 C 
ATOM     24  C   LIG    1       25.273 -30.467   6.468  0.00  0.00    +0.023 C 
ATOM     25  C   LIG    1       25.664 -30.918   5.199  0.00  0.00    +0.002 C 
ATOM     26  C   LIG    1       25.193 -32.133   4.714  0.00  0.00    +0.000 C 
ATOM     27  C   LIG    1       24.304 -32.875   5.489  0.00  0.00    +0.002 C 
ATOM     28  C   LIG    1       23.840 -32.374   6.727  0.00  0.00    +0.023 C 
ENDBRANCH  20  23
ENDBRANCH   5  19
BRANCH   1  30
ATOM     29  C   LIG    1       27.750 -29.569  11.127  0.00  0.00    +0.014 C 
ATOM     30  C   LIG    1       26.525 -28.670  10.931  0.00  0.00    +0.030 C 
ATOM     31  C   LIG    1       26.532 -28.325   9.426  0.00  0.00    +0.014 C 
ENDBRANCH   1  30
BRANCH   2  32
ATOM     32  C   LIG    1       24.993 -27.861  13.715  0.00  0.00    +0.124 C 
BRANCH  32  33
ATOM     33  C   LIG    1       25.427 -26.375  13.642  0.00  0.00    +0.053 C 
BRANCH  33  34
ATOM     34  C   LIG    1       26.999 -26.139  13.669  0.00  0.00    +0.119 C 
BRANCH  34  35
ATOM     35  O   LIG    1       27.214 -24.793  13.250  0.00  0.00    -0.392 OA
ATOM     36  H   LIG    1       26.857 -24.669  12.350  0.00  0.00    +0.210 HD
ENDBRANCH  34  35
BRANCH  34  37
ATOM     37  C   LIG    1       27.681 -26.400  15.037  0.00  0.00    +0.063 C 
BRANCH  37  38
ATOM     38  C   LIG    1       28.726 -27.544  15.301  0.00  0.00    +0.128 C 
BRANCH  38  39
ATOM     39  O   LIG    1       30.025 -27.014  15.033  0.00  0.00    -0.391 OA
ATOM     40  H   LIG    1       30.678 -27.738  15.065  0.00  0.00    +0.210 HD
ENDBRANCH  38  39
BRANCH  38  41
ATOM     41  C   LIG    1       28.611 -28.945  14.671  0.00  0.00    +0.151 C 
BRANCH  41  42
ATOM     42  C   LIG    1       29.914 -29.680  14.304  0.00  0.00    +0.307 C 
ATOM     43  O   LIG    1       30.348 -30.606  14.982  0.00  0.00    -0.251 OA
BRANCH  42  44
ATOM     44  O   LIG    1       30.621 -29.254  13.240  0.00  0.00    -0.481 OA
ATOM     45  H   LIG    1       30.192 -29.225  12.374  0.00  0.00    +0.295 HD
ENDBRANCH  42  44
ENDBRANCH  41  42
ENDBRANCH  38  41
ENDBRANCH  37  38
ENDBRANCH  34  37
ENDBRANCH  33  34
ENDBRANCH  32  33
ENDBRANCH   2  32
TORSDOF 15
ENDMDL
MODEL 3
REMARK VINA RESULT:      -6.2      2.627      5.466
REMARK  Name = *****
REMARK                            x       y       z     vdW  Elec       q    Type
REMARK                         _______ _______ _______ _____ _____    ______ ____
ROOT
ATOM      1  C   LIG    1       25.707 -28.872  10.334  0.00  0.00    +0.035 C 
ATOM      2  N   LIG    1       25.784 -29.107   8.949  0.00  0.00    -0.342 NA
ATOM      3  C   LIG    1       25.147 -30.372   8.611  0.00  0.00    +0.058 C 
ATOM      4  C   LIG    1       24.188 -30.577   9.665  0.00  0.00    +0.020 C 
ATOM      5  C   LIG    1       24.650 -29.703  10.828  0.00  0.00    +0.066 C 
ENDROOT
BRANCH   3   6
ATOM      6  C   LIG    1       25.507 -31.271   7.366  0.00  0.00    -0.001 C 
ATOM      7  C   LIG    1       24.817 -31.280   6.126  0.00  0.00    +0.013 C 
ATOM      8  C   LIG    1       25.211 -32.011   4.987  0.00  0.00    +0.039 C 
ATOM      9  C   LIG    1       26.349 -32.775   5.031  0.00  0.00    +0.123 C 
ATOM     10  F   LIG    1       26.758 -33.423   3.931  0.00  0.00    -0.205 F 
ATOM     11  C   LIG    1       27.063 -32.851   6.211  0.00  0.00    +0.039 C 
ATOM     12  C   LIG    1       26.647 -32.115   7.355  0.00  0.00    +0.013 C 
ENDBRANCH   3   6
BRANCH   4  13
ATOM     13  C   LIG    1       23.053 -31.609   9.564  0.00  0.00    -0.015 C 
ATOM     14  C   LIG    1       21.798 -31.428  10.186  0.00  0.00    +0.008 C 
ATOM     15  C   LIG    1       20.742 -32.372  10.039  0.00  0.00    +0.001 C 
ATOM     16  C   LIG    1       20.919 -33.556   9.323  0.00  0.00    +0.000 C 
ATOM     17  C   LIG    1       22.151 -33.798   8.761  0.00  0.00    +0.001 C 
ATOM     18  C   LIG    1       23.154 -32.817   8.833  0.00  0.00    +0.008 C 
ENDBRANCH   4  13
BRANCH   5  19
ATOM     19  C   LIG    1       24.171 -29.682  12.272  0.00  0.00    +0.251 C 
ATOM     20  N   LIG    1       23.151 -28.875  12.545  0.00  0.00    -0.281 N 
ATOM     21  H   LIG    1       22.929 -28.246  11.756  0.00  0.00    +0.155 HD
ATOM     22  O   LIG    1       24.748 -30.370  13.197  0.00  0.00    -0.270 OA
BRANCH  20  23
ATOM     23  C   LIG    1       22.300 -28.650  13.665  0.00  0.00    +0.034 C 
ATOM     24  C   LIG    1       22.242 -27.356  14.178  0.00  0.00    +0.023 C 
ATOM     25  C   LIG    1       21.285 -26.994  15.136  0.00  0.00    +0.002 C 
ATOM     26  C   LIG    1       20.284 -27.889  15.498  0.00  0.00    +0.000 C 
ATOM     27  C   LIG    1       20.268 -29.158  14.922  0.00  0.00    +0.002 C 
ATOM     28  C   LIG    1       21.288 -29.552  14.027  0.00  0.00    +0.023 C 
ENDBRANCH  20  23
ENDBRANCH   5  19
BRANCH   1  30
ATOM     29  C   LIG    1       25.961 -27.033  12.252  0.00  0.00    +0.014 C 
ATOM     30  C   LIG    1       26.632 -27.915  11.195  0.00  0.00    +0.030 C 
ATOM     31  C   LIG    1       27.782 -28.618  11.947  0.00  0.00    +0.014 C 
ENDBRANCH   1  30
BRANCH   2  32
ATOM     32  C   LIG    1       26.504 -28.310   7.942  0.00  0.00    +0.124 C 
BRANCH  32  33
ATOM     33  C   LIG    1       26.065 -26.970   7.297  0.00  0.00    +0.053 C 
BRANCH  33  34
ATOM     34  C   LIG    1       25.071 -27.119   6.065  0.00  0.00    +0.119 C 
BRANCH  34  35
ATOM     35  O   LIG    1       23.992 -27.937   6.510  0.00  0.00    -0.392 OA
ATOM     36  H   LIG    1       23.151 -27.454   6.409  0.00  0.00    +0.210 HD
ENDBRANCH  34  35
BRANCH  34  37
ATOM     37  C   LIG    1       24.540 -25.783   5.483  0.00  0.00    +0.063 C 
BRANCH  37  38
ATOM     38  C   LIG    1       24.248 -24.499   6.341  0.00  0.00    +0.128 C 
BRANCH  38  39
ATOM     39  O   LIG    1       22.846 -24.471   6.614  0.00  0.00    -0.391 OA
ATOM     40  H   LIG    1       22.710 -24.409   7.578  0.00  0.00    +0.210 HD
ENDBRANCH  38  39
BRANCH  38  41
ATOM     41  C   LIG    1       24.709 -23.090   5.925  0.00  0.00    +0.151 C 
BRANCH  41  42
ATOM     42  C   LIG    1       23.687 -21.941   6.010  0.00  0.00    +0.307 C 
ATOM     43  O   LIG    1       23.221 -21.568   7.082  0.00  0.00    -0.251 OA
BRANCH  42  44
ATOM     44  O   LIG    1       23.257 -21.371   4.869  0.00  0.00    -0.481 OA
ATOM     45  H   LIG    1       22.377 -20.972   4.847  0.00  0.00    +0.295 HD
ENDBRANCH  42  44
ENDBRANCH  41  42
ENDBRANCH  38  41
ENDBRANCH  37  38
ENDBRANCH  34  37
ENDBRANCH  33  34
ENDBRANCH  32  33
ENDBRANCH   2  32
TORSDOF 15
ENDMDL
MODEL 4
REMARK VINA RESULT:      -6.2      2.759      7.122
REMARK  Name = *****
REMARK                            x       y       z     vdW  Elec       q    Type
REMARK                         _______ _______ _______ _____ _____    ______ ____
ROOT
ATOM      1  C   LIG    1       24.895 -29.540  11.509  0.00  0.00    +0.035 C 
ATOM      2  N   LIG    1       24.037 -30.477  12.112  0.00  0.00    -0.342 NA
ATOM      3  C   LIG    1       23.187 -31.107  11.111  0.00  0.00    +0.058 C 
ATOM      4  C   LIG    1       23.942 -31.000   9.891  0.00  0.00    +0.020 C 
ATOM      5  C   LIG    1       24.952 -29.878  10.118  0.00  0.00    +0.066 C 
ENDROOT
BRANCH   3   6
ATOM      6  C   LIG    1       21.759 -31.720  11.381  0.00  0.00    -0.001 C 
ATOM      7  C   LIG    1       21.476 -32.803  12.253  0.00  0.00    +0.013 C 
ATOM      8  C   LIG    1       20.185 -33.274  12.565  0.00  0.00    +0.039 C 
ATOM      9  C   LIG    1       19.087 -32.659  12.017  0.00  0.00    +0.123 C 
ATOM     10  F   LIG    1       17.857 -33.066  12.359  0.00  0.00    -0.205 F 
ATOM     11  C   LIG    1       19.274 -31.616  11.130  0.00  0.00    +0.039 C 
ATOM     12  C   LIG    1       20.585 -31.160  10.818  0.00  0.00    +0.013 C 
ENDBRANCH   3   6
BRANCH   4  13
ATOM     13  C   LIG    1       23.601 -31.813   8.630  0.00  0.00    -0.015 C 
ATOM     14  C   LIG    1       23.906 -31.365   7.326  0.00  0.00    +0.008 C 
ATOM     15  C   LIG    1       23.628 -32.155   6.176  0.00  0.00    +0.001 C 
ATOM     16  C   LIG    1       22.980 -33.387   6.277  0.00  0.00    +0.000 C 
ATOM     17  C   LIG    1       22.607 -33.824   7.527  0.00  0.00    +0.001 C 
ATOM     18  C   LIG    1       22.971 -33.079   8.661  0.00  0.00    +0.008 C 
ENDBRANCH   4  13
BRANCH   5  19
ATOM     19  C   LIG    1       25.850 -29.166   9.117  0.00  0.00    +0.251 C 
ATOM     20  N   LIG    1       25.249 -28.637   8.057  0.00  0.00    -0.281 N 
ATOM     21  H   LIG    1       24.260 -28.927   7.982  0.00  0.00    +0.155 HD
ATOM     22  O   LIG    1       27.130 -29.118   9.257  0.00  0.00    -0.270 OA
BRANCH  20  23
ATOM     23  C   LIG    1       25.639 -27.781   6.986  0.00  0.00    +0.034 C 
ATOM     24  C   LIG    1       25.390 -28.222   5.688  0.00  0.00    +0.023 C 
ATOM     25  C   LIG    1       25.544 -27.370   4.586  0.00  0.00    +0.002 C 
ATOM     26  C   LIG    1       25.821 -26.021   4.779  0.00  0.00    +0.000 C 
ATOM     27  C   LIG    1       25.978 -25.539   6.077  0.00  0.00    +0.002 C 
ATOM     28  C   LIG    1       25.914 -26.419   7.182  0.00  0.00    +0.023 C 
ENDBRANCH  20  23
ENDBRANCH   5  19
BRANCH   1  30
ATOM     29  C   LIG    1       24.776 -27.377  13.070  0.00  0.00    +0.014 C 
ATOM     30  C   LIG    1       25.624 -28.319  12.211  0.00  0.00    +0.030 C 
ATOM     31  C   LIG    1       26.817 -28.701  13.114  0.00  0.00    +0.014 C 
ENDBRANCH   1  30
BRANCH   2  32
ATOM     32  C   LIG    1       23.864 -30.740  13.550  0.00  0.00    +0.124 C 
BRANCH  32  33
ATOM     33  C   LIG    1       23.009 -29.942  14.568  0.00  0.00    +0.053 C 
BRANCH  33  34
ATOM     34  C   LIG    1       21.591 -29.472  14.023  0.00  0.00    +0.119 C 
BRANCH  34  35
ATOM     35  O   LIG    1       20.822 -29.098  15.163  0.00  0.00    -0.392 OA
ATOM     36  H   LIG    1       20.606 -28.148  15.115  0.00  0.00    +0.210 HD
ENDBRANCH  34  35
BRANCH  34  37
ATOM     37  C   LIG    1       21.634 -28.317  12.989  0.00  0.00    +0.063 C 
BRANCH  37  38
ATOM     38  C   LIG    1       21.168 -26.846  13.288  0.00  0.00    +0.128 C 
BRANCH  38  39
ATOM     39  O   LIG    1       21.514 -26.549  14.642  0.00  0.00    -0.391 OA
ATOM     40  H   LIG    1       22.415 -26.877  14.821  0.00  0.00    +0.210 HD
ENDBRANCH  38  39
BRANCH  38  41
ATOM     41  C   LIG    1       19.738 -26.347  13.010  0.00  0.00    +0.151 C 
BRANCH  41  42
ATOM     42  C   LIG    1       18.694 -26.484  14.135  0.00  0.00    +0.307 C 
ATOM     43  O   LIG    1       18.638 -27.483  14.846  0.00  0.00    -0.251 OA
BRANCH  42  44
ATOM     44  O   LIG    1       17.789 -25.503  14.302  0.00  0.00    -0.481 OA
ATOM     45  H   LIG    1       17.114 -25.600  14.987  0.00  0.00    +0.295 HD
ENDBRANCH  42  44
ENDBRANCH  41  42
ENDBRANCH  38  41
ENDBRANCH  37  38
ENDBRANCH  34  37
ENDBRANCH  33  34
ENDBRANCH  32  33
ENDBRANCH   2  32
TORSDOF 15
ENDMDL
MODEL 5
REMARK VINA RESULT:      -6.2      3.225      7.657
REMARK  Name = *****
REMARK                            x       y       z     vdW  Elec       q    Type
REMARK                         _______ _______ _______ _____ _____    ______ ____
ROOT
ATOM      1  C   LIG    1       25.307 -29.063  11.471  0.00  0.00    +0.035 C 
ATOM      2  N   LIG    1       24.666 -28.557  12.615  0.00  0.00    -0.342 NA
ATOM      3  C   LIG    1       23.251 -28.901  12.601  0.00  0.00    +0.058 C 
ATOM      4  C   LIG    1       23.186 -30.090  11.794  0.00  0.00    +0.020 C 
ATOM      5  C   LIG    1       24.465 -30.103  10.960  0.00  0.00    +0.066 C 
ENDROOT
BRANCH   3   6
ATOM      6  C   LIG    1       22.105 -28.082  13.311  0.00  0.00    -0.001 C 
ATOM      7  C   LIG    1       21.120 -27.299  12.654  0.00  0.00    +0.013 C 
ATOM      8  C   LIG    1       20.040 -26.657  13.293  0.00  0.00    +0.039 C 
ATOM      9  C   LIG    1       19.882 -26.782  14.650  0.00  0.00    +0.123 C 
ATOM     10  F   LIG    1       18.823 -26.222  15.250  0.00  0.00    -0.205 F 
ATOM     11  C   LIG    1       20.816 -27.499  15.372  0.00  0.00    +0.039 C 
ATOM     12  C   LIG    1       21.907 -28.133  14.714  0.00  0.00    +0.013 C 
ENDBRANCH   3   6
BRANCH   4  13
ATOM     13  C   LIG    1       21.951 -31.006  11.764  0.00  0.00    -0.015 C 
ATOM     14  C   LIG    1       21.012 -30.989  10.709  0.00  0.00    +0.008 C 
ATOM     15  C   LIG    1       19.903 -31.880  10.675  0.00  0.00    +0.001 C 
ATOM     16  C   LIG    1       19.653 -32.772  11.717  0.00  0.00    +0.000 C 
ATOM     17  C   LIG    1       20.509 -32.769  12.795  0.00  0.00    +0.001 C 
ATOM     18  C   LIG    1       21.651 -31.952  12.772  0.00  0.00    +0.008 C 
ENDBRANCH   4  13
BRANCH   5  19
ATOM     19  C   LIG    1       24.839 -30.980   9.775  0.00  0.00    +0.251 C 
ATOM     20  N   LIG    1       24.174 -30.762   8.645  0.00  0.00    -0.281 N 
ATOM     21  H   LIG    1       23.373 -30.123   8.780  0.00  0.00    +0.155 HD
ATOM     22  O   LIG    1       25.717 -31.919   9.865  0.00  0.00    -0.270 OA
BRANCH  20  23
ATOM     23  C   LIG    1       24.283 -31.206   7.296  0.00  0.00    +0.034 C 
ATOM     24  C   LIG    1       25.353 -30.721   6.545  0.00  0.00    +0.023 C 
ATOM     25  C   LIG    1       25.663 -31.256   5.287  0.00  0.00    +0.002 C 
ATOM     26  C   LIG    1       24.986 -32.376   4.818  0.00  0.00    +0.000 C 
ATOM     27  C   LIG    1       23.975 -32.935   5.598  0.00  0.00    +0.002 C 
ATOM     28  C   LIG    1       23.603 -32.338   6.825  0.00  0.00    +0.023 C 
ENDBRANCH  20  23
ENDBRANCH   5  19
BRANCH   1  30
ATOM     29  C   LIG    1       27.920 -29.415  11.052  0.00  0.00    +0.014 C 
ATOM     30  C   LIG    1       26.669 -28.558  10.835  0.00  0.00    +0.030 C 
ATOM     31  C   LIG    1       26.628 -28.307   9.312  0.00  0.00    +0.014 C 
ENDBRANCH   1  30
BRANCH   2  32
ATOM     32  C   LIG    1       25.238 -27.682  13.652  0.00  0.00    +0.124 C 
BRANCH  32  33
ATOM     33  C   LIG    1       25.633 -28.059  15.104  0.00  0.00    +0.053 C 
BRANCH  33  34
ATOM     34  C   LIG    1       26.759 -29.175  15.219  0.00  0.00    +0.119 C 
BRANCH  34  35
ATOM     35  O   LIG    1       26.313 -30.283  14.440  0.00  0.00    -0.392 OA
ATOM     36  H   LIG    1       26.912 -31.042  14.576  0.00  0.00    +0.210 HD
ENDBRANCH  34  35
BRANCH  34  37
ATOM     37  C   LIG    1       28.176 -28.729  14.772  0.00  0.00    +0.063 C 
BRANCH  37  38
ATOM     38  C   LIG    1       29.286 -29.708  14.245  0.00  0.00    +0.128 C 
BRANCH  38  39
ATOM     39  O   LIG    1       29.010 -31.004  14.779  0.00  0.00    -0.391 OA
ATOM     40  H   LIG    1       28.084 -31.033  15.084  0.00  0.00    +0.210 HD
ENDBRANCH  38  39
BRANCH  38  41
ATOM     41  C   LIG    1       30.793 -29.416  14.379  0.00  0.00    +0.151 C 
BRANCH  41  42
ATOM     42  C   LIG    1       31.717 -29.854  13.227  0.00  0.00    +0.307 C 
ATOM     43  O   LIG    1       32.379 -30.886  13.285  0.00  0.00    -0.251 OA
BRANCH  42  44
ATOM     44  O   LIG    1       31.840 -29.051  12.154  0.00  0.00    -0.481 OA
ATOM     45  H   LIG    1       31.675 -28.104  12.256  0.00  0.00    +0.295 HD
ENDBRANCH  42  44
ENDBRANCH  41  42
ENDBRANCH  38  41
ENDBRANCH  37  38
ENDBRANCH  34  37
ENDBRANCH  33  34
ENDBRANCH  32  33
ENDBRANCH   2  32
TORSDOF 15
ENDMDL
MODEL 6
REMARK VINA RESULT:      -5.9      2.917      7.534
REMARK  Name = *****
REMARK                            x       y       z     vdW  Elec       q    Type
REMARK                         _______ _______ _______ _____ _____    ______ ____
ROOT
ATOM      1  C   LIG    1       24.903 -29.309  11.395  0.00  0.00    +0.035 C 
ATOM      2  N   LIG    1       24.170 -28.807  12.484  0.00  0.00    -0.342 NA
ATOM      3  C   LIG    1       22.763 -29.164  12.359  0.00  0.00    +0.058 C 
ATOM      4  C   LIG    1       22.773 -30.357  11.553  0.00  0.00    +0.020 C 
ATOM      5  C   LIG    1       24.114 -30.359  10.823  0.00  0.00    +0.066 C 
ENDROOT
BRANCH   3   6
ATOM      6  C   LIG    1       21.557 -28.355  12.975  0.00  0.00    -0.001 C 
ATOM      7  C   LIG    1       21.335 -26.961  12.824  0.00  0.00    +0.013 C 
ATOM      8  C   LIG    1       20.200 -26.269  13.292  0.00  0.00    +0.039 C 
ATOM      9  C   LIG    1       19.202 -26.956  13.935  0.00  0.00    +0.123 C 
ATOM     10  F   LIG    1       18.096 -26.310  14.326  0.00  0.00    -0.205 F 
ATOM     11  C   LIG    1       19.354 -28.312  14.154  0.00  0.00    +0.039 C 
ATOM     12  C   LIG    1       20.510 -28.995  13.685  0.00  0.00    +0.013 C 
ENDBRANCH   3   6
BRANCH   4  13
ATOM     13  C   LIG    1       21.553 -31.284  11.429  0.00  0.00    -0.015 C 
ATOM     14  C   LIG    1       20.476 -31.017  10.556  0.00  0.00    +0.008 C 
ATOM     15  C   LIG    1       19.379 -31.914  10.418  0.00  0.00    +0.001 C 
ATOM     16  C   LIG    1       19.284 -33.072  11.190  0.00  0.00    +0.000 C 
ATOM     17  C   LIG    1       20.282 -33.330  12.101  0.00  0.00    +0.001 C 
ATOM     18  C   LIG    1       21.404 -32.487  12.160  0.00  0.00    +0.008 C 
ENDBRANCH   4  13
BRANCH   5  19
ATOM     19  C   LIG    1       24.588 -31.235   9.673  0.00  0.00    +0.251 C 
ATOM     20  N   LIG    1       24.137 -30.918   8.464  0.00  0.00    -0.281 N 
ATOM     21  H   LIG    1       23.390 -30.205   8.499  0.00  0.00    +0.155 HD
ATOM     22  O   LIG    1       25.346 -32.261   9.859  0.00  0.00    -0.270 OA
BRANCH  20  23
ATOM     23  C   LIG    1       24.420 -31.331   7.130  0.00  0.00    +0.034 C 
ATOM     24  C   LIG    1       25.159 -30.461   6.331  0.00  0.00    +0.023 C 
ATOM     25  C   LIG    1       25.662 -30.864   5.086  0.00  0.00    +0.002 C 
ATOM     26  C   LIG    1       25.545 -32.189   4.681  0.00  0.00    +0.000 C 
ATOM     27  C   LIG    1       24.892 -33.098   5.511  0.00  0.00    +0.002 C 
ATOM     28  C   LIG    1       24.305 -32.669   6.723  0.00  0.00    +0.023 C 
ENDBRANCH  20  23
ENDBRANCH   5  19
BRANCH   1  30
ATOM     29  C   LIG    1       27.538 -29.661  11.143  0.00  0.00    +0.014 C 
ATOM     30  C   LIG    1       26.306 -28.793  10.866  0.00  0.00    +0.030 C 
ATOM     31  C   LIG    1       26.369 -28.500   9.352  0.00  0.00    +0.014 C 
ENDBRANCH   1  30
BRANCH   2  32
ATOM     32  C   LIG    1       24.650 -27.925  13.560  0.00  0.00    +0.124 C 
BRANCH  32  33
ATOM     33  C   LIG    1       24.857 -28.274  15.056  0.00  0.00    +0.053 C 
BRANCH  33  34
ATOM     34  C   LIG    1       26.280 -28.893  15.405  0.00  0.00    +0.119 C 
BRANCH  34  35
ATOM     35  O   LIG    1       26.478 -29.984  14.508  0.00  0.00    -0.392 OA
ATOM     36  H   LIG    1       27.378 -30.344  14.624  0.00  0.00    +0.210 HD
ENDBRANCH  34  35
BRANCH  34  37
ATOM     37  C   LIG    1       27.467 -27.898  15.326  0.00  0.00    +0.063 C 
BRANCH  37  38
ATOM     38  C   LIG    1       27.360 -26.436  14.759  0.00  0.00    +0.128 C 
BRANCH  38  39
ATOM     39  O   LIG    1       28.680 -26.003  14.426  0.00  0.00    -0.391 OA
ATOM     40  H   LIG    1       28.857 -26.210  13.489  0.00  0.00    +0.210 HD
ENDBRANCH  38  39
BRANCH  38  41
ATOM     41  C   LIG    1       26.627 -25.302  15.500  0.00  0.00    +0.151 C 
BRANCH  41  42
ATOM     42  C   LIG    1       27.008 -23.850  15.153  0.00  0.00    +0.307 C 
ATOM     43  O   LIG    1       28.148 -23.424  15.312  0.00  0.00    -0.251 OA
BRANCH  42  44
ATOM     44  O   LIG    1       26.048 -23.016  14.714  0.00  0.00    -0.481 OA
ATOM     45  H   LIG    1       25.683 -23.145  13.828  0.00  0.00    +0.295 HD
ENDBRANCH  42  44
ENDBRANCH  41  42
ENDBRANCH  38  41
ENDBRANCH  37  38
ENDBRANCH  34  37
ENDBRANCH  33  34
ENDBRANCH  32  33
ENDBRANCH   2  32
TORSDOF 15
ENDMDL
MODEL 7
REMARK VINA RESULT:      -4.9      3.455      6.551
REMARK  Name = *****
REMARK                            x       y       z     vdW  Elec       q    Type
REMARK                         _______ _______ _______ _____ _____    ______ ____
ROOT
ATOM      1  C   LIG    1       22.120 -28.868  12.455  0.00  0.00    +0.035 C 
ATOM      2  N   LIG    1       22.264 -29.868  11.477  0.00  0.00    -0.342 NA
ATOM      3  C   LIG    1       23.623 -29.875  10.953  0.00  0.00    +0.058 C 
ATOM      4  C   LIG    1       24.414 -29.319  12.019  0.00  0.00    +0.020 C 
ATOM      5  C   LIG    1       23.440 -28.547  12.906  0.00  0.00    +0.066 C 
ENDROOT
BRANCH   3   6
ATOM      6  C   LIG    1       24.045 -30.371   9.516  0.00  0.00    -0.001 C 
ATOM      7  C   LIG    1       24.267 -31.722   9.141  0.00  0.00    +0.013 C 
ATOM      8  C   LIG    1       24.542 -32.161   7.830  0.00  0.00    +0.039 C 
ATOM      9  C   LIG    1       24.596 -31.250   6.806  0.00  0.00    +0.123 C 
ATOM     10  F   LIG    1       24.797 -31.673   5.550  0.00  0.00    -0.205 F 
ATOM     11  C   LIG    1       24.425 -29.909   7.090  0.00  0.00    +0.039 C 
ATOM     12  C   LIG    1       24.158 -29.480   8.420  0.00  0.00    +0.013 C 
ENDBRANCH   3   6
BRANCH   4  13
ATOM     13  C   LIG    1       25.948 -29.431  12.059  0.00  0.00    -0.015 C 
ATOM     14  C   LIG    1       26.659 -29.760  13.234  0.00  0.00    +0.008 C 
ATOM     15  C   LIG    1       28.075 -29.909  13.239  0.00  0.00    +0.001 C 
ATOM     16  C   LIG    1       28.836 -29.672  12.094  0.00  0.00    +0.000 C 
ATOM     17  C   LIG    1       28.182 -29.284  10.948  0.00  0.00    +0.001 C 
ATOM     18  C   LIG    1       26.778 -29.232  10.931  0.00  0.00    +0.008 C 
ENDBRANCH   4  13
BRANCH   5  19
ATOM     19  C   LIG    1       23.728 -27.572  14.039  0.00  0.00    +0.251 C 
ATOM     20  N   LIG    1       24.830 -26.839  13.921  0.00  0.00    -0.281 N 
ATOM     21  H   LIG    1       25.429 -27.155  13.141  0.00  0.00    +0.155 HD
ATOM     22  O   LIG    1       22.975 -27.490  15.081  0.00  0.00    -0.270 OA
BRANCH  20  23
ATOM     23  C   LIG    1       25.398 -25.734  14.619  0.00  0.00    +0.034 C 
ATOM     24  C   LIG    1       26.737 -25.832  14.995  0.00  0.00    +0.023 C 
ATOM     25  C   LIG    1       27.437 -24.725  15.494  0.00  0.00    +0.002 C 
ATOM     26  C   LIG    1       26.843 -23.468  15.500  0.00  0.00    +0.000 C 
ATOM     27  C   LIG    1       25.536 -23.332  15.037  0.00  0.00    +0.002 C 
ATOM     28  C   LIG    1       24.801 -24.466  14.621  0.00  0.00    +0.023 C 
ENDBRANCH  20  23
ENDBRANCH   5  19
BRANCH   1  30
ATOM     29  C   LIG    1       20.248 -28.550  14.333  0.00  0.00    +0.014 C 
ATOM     30  C   LIG    1       20.770 -28.190  12.938  0.00  0.00    +0.030 C 
ATOM     31  C   LIG    1       20.764 -26.647  12.906  0.00  0.00    +0.014 C 
ENDBRANCH   1  30
BRANCH   2  32
ATOM     32  C   LIG    1       21.213 -30.729  10.911  0.00  0.00    +0.124 C 
BRANCH  32  33
ATOM     33  C   LIG    1       21.052 -32.263  11.067  0.00  0.00    +0.053 C 
BRANCH  33  34
ATOM     34  C   LIG    1       21.273 -32.808  12.545  0.00  0.00    +0.119 C 
BRANCH  34  35
ATOM     35  O   LIG    1       22.644 -32.576  12.861  0.00  0.00    -0.392 OA
ATOM     36  H   LIG    1       23.041 -31.990  12.189  0.00  0.00    +0.210 HD
ENDBRANCH  34  35
BRANCH  34  37
ATOM     37  C   LIG    1       20.350 -32.182  13.622  0.00  0.00    +0.063 C 
BRANCH  37  38
ATOM     38  C   LIG    1       18.884 -32.662  13.918  0.00  0.00    +0.128 C 
BRANCH  38  39
ATOM     39  O   LIG    1       18.603 -33.759  13.047  0.00  0.00    -0.391 OA
ATOM     40  H   LIG    1       17.982 -34.367  13.489  0.00  0.00    +0.210 HD
ENDBRANCH  38  39
BRANCH  38  41
ATOM     41  C   LIG    1       17.676 -31.707  13.933  0.00  0.00    +0.151 C 
BRANCH  41  42
ATOM     42  C   LIG    1       17.151 -31.186  12.582  0.00  0.00    +0.307 C 
ATOM     43  O   LIG    1       17.546 -31.644  11.514  0.00  0.00    -0.251 OA
BRANCH  42  44
ATOM     44  O   LIG    1       16.276 -30.163  12.578  0.00  0.00    -0.481 OA
ATOM     45  H   LIG    1       15.512 -30.198  13.168  0.00  0.00    +0.295 HD
ENDBRANCH  42  44
ENDBRANCH  41  42
ENDBRANCH  38  41
ENDBRANCH  37  38
ENDBRANCH  34  37
ENDBRANCH  33  34
ENDBRANCH  32  33
ENDBRANCH   2  32
TORSDOF 15
ENDMDL
MODEL 8
REMARK VINA RESULT:      -4.8      7.428     11.221
REMARK  Name = *****
REMARK                            x       y       z     vdW  Elec       q    Type
REMARK                         _______ _______ _______ _____ _____    ______ ____
ROOT
ATOM      1  C   LIG    1       28.750 -21.095   7.396  0.00  0.00    +0.035 C 
ATOM      2  N   LIG    1       27.653 -21.649   6.713  0.00  0.00    -0.342 NA
ATOM      3  C   LIG    1       26.859 -20.599   6.088  0.00  0.00    +0.058 C 
ATOM      4  C   LIG    1       27.794 -19.523   5.887  0.00  0.00    +0.020 C 
ATOM      5  C   LIG    1       28.949 -19.786   6.850  0.00  0.00    +0.066 C 
ENDROOT
BRANCH   3   6
ATOM      6  C   LIG    1       25.318 -20.690   5.765  0.00  0.00    -0.001 C 
ATOM      7  C   LIG    1       24.753 -20.887   4.478  0.00  0.00    +0.013 C 
ATOM      8  C   LIG    1       23.381 -21.070   4.216  0.00  0.00    +0.039 C 
ATOM      9  C   LIG    1       22.487 -21.078   5.257  0.00  0.00    +0.123 C 
ATOM     10  F   LIG    1       21.189 -21.311   5.017  0.00  0.00    -0.205 F 
ATOM     11  C   LIG    1       22.948 -20.859   6.541  0.00  0.00    +0.039 C 
ATOM     12  C   LIG    1       24.335 -20.666   6.787  0.00  0.00    +0.013 C 
ENDBRANCH   3   6
BRANCH   4  13
ATOM     13  C   LIG    1       27.499 -18.330   4.962  0.00  0.00    -0.015 C 
ATOM     14  C   LIG    1       26.445 -18.335   4.022  0.00  0.00    +0.008 C 
ATOM     15  C   LIG    1       26.157 -17.202   3.211  0.00  0.00    +0.001 C 
ATOM     16  C   LIG    1       26.944 -16.051   3.259  0.00  0.00    +0.000 C 
ATOM     17  C   LIG    1       28.022 -16.037   4.115  0.00  0.00    +0.001 C 
ATOM     18  C   LIG    1       28.239 -17.125   4.978  0.00  0.00    +0.008 C 
ENDBRANCH   4  13
BRANCH   5  19
ATOM     19  C   LIG    1       30.103 -18.877   7.247  0.00  0.00    +0.251 C 
ATOM     20  N   LIG    1       29.927 -18.142   8.341  0.00  0.00    -0.281 N 
ATOM     21  H   LIG    1       28.953 -18.176   8.682  0.00  0.00    +0.155 HD
ATOM     22  O   LIG    1       31.177 -18.782   6.540  0.00  0.00    -0.270 OA
BRANCH  20  23
ATOM     23  C   LIG    1       30.749 -17.305   9.149  0.00  0.00    +0.034 C 
ATOM     24  C   LIG    1       30.328 -17.060  10.455  0.00  0.00    +0.023 C 
ATOM     25  C   LIG    1       31.165 -16.427  11.384  0.00  0.00    +0.002 C 
ATOM     26  C   LIG    1       32.488 -16.150  11.058  0.00  0.00    +0.000 C 
ATOM     27  C   LIG    1       32.957 -16.476   9.787  0.00  0.00    +0.002 C 
ATOM     28  C   LIG    1       32.085 -17.029   8.821  0.00  0.00    +0.023 C 
ENDBRANCH  20  23
ENDBRANCH   5  19
BRANCH   1  30
ATOM     29  C   LIG    1       30.879 -22.487   8.206  0.00  0.00    +0.014 C 
ATOM     30  C   LIG    1       29.581 -21.761   8.571  0.00  0.00    +0.030 C 
ATOM     31  C   LIG    1       29.978 -20.804   9.715  0.00  0.00    +0.014 C 
ENDBRANCH   1  30
BRANCH   2  32
ATOM     32  C   LIG    1       27.221 -23.056   6.698  0.00  0.00    +0.124 C 
BRANCH  32  33
ATOM     33  C   LIG    1       25.959 -23.672   7.354  0.00  0.00    +0.053 C 
BRANCH  33  34
ATOM     34  C   LIG    1       24.888 -24.246   6.328  0.00  0.00    +0.119 C 
BRANCH  34  35
ATOM     35  O   LIG    1       25.447 -24.082   5.026  0.00  0.00    -0.392 OA
ATOM     36  H   LIG    1       26.247 -23.526   5.081  0.00  0.00    +0.210 HD
ENDBRANCH  34  35
BRANCH  34  37
ATOM     37  C   LIG    1       24.476 -25.722   6.564  0.00  0.00    +0.063 C 
BRANCH  37  38
ATOM     38  C   LIG    1       25.481 -26.930   6.572  0.00  0.00    +0.128 C 
BRANCH  38  39
ATOM     39  O   LIG    1       26.163 -26.934   5.317  0.00  0.00    -0.391 OA
ATOM     40  H   LIG    1       25.535 -27.177   4.612  0.00  0.00    +0.210 HD
ENDBRANCH  38  39
BRANCH  38  41
ATOM     41  C   LIG    1       25.058 -28.370   6.921  0.00  0.00    +0.151 C 
BRANCH  41  42
ATOM     42  C   LIG    1       24.606 -29.288   5.770  0.00  0.00    +0.307 C 
ATOM     43  O   LIG    1       25.407 -29.953   5.120  0.00  0.00    -0.251 OA
BRANCH  42  44
ATOM     44  O   LIG    1       23.302 -29.317   5.439  0.00  0.00    -0.481 OA
ATOM     45  H   LIG    1       22.668 -29.700   6.060  0.00  0.00    +0.295 HD
ENDBRANCH  42  44
ENDBRANCH  41  42
ENDBRANCH  38  41
ENDBRANCH  37  38
ENDBRANCH  34  37
ENDBRANCH  33  34
ENDBRANCH  32  33
ENDBRANCH   2  32
TORSDOF 15
ENDMDL
MODEL 9
REMARK VINA RESULT:      -4.7      2.196      2.888
REMARK  Name = *****
REMARK                            x       y       z     vdW  Elec       q    Type
REMARK                         _______ _______ _______ _____ _____    ______ ____
ROOT
ATOM      1  C   LIG    1       24.616 -31.435  10.789  0.00  0.00    +0.035 C 
ATOM      2  N   LIG    1       23.285 -31.739  10.454  0.00  0.00    -0.342 NA
ATOM      3  C   LIG    1       22.364 -31.018  11.321  0.00  0.00    +0.058 C 
ATOM      4  C   LIG    1       23.109 -29.860  11.742  0.00  0.00    +0.020 C 
ATOM      5  C   LIG    1       24.580 -30.205  11.523  0.00  0.00    +0.066 C 
ENDROOT
BRANCH   3   6
ATOM      6  C   LIG    1       20.904 -31.485  11.692  0.00  0.00    -0.001 C 
ATOM      7  C   LIG    1       20.510 -32.065  12.926  0.00  0.00    +0.013 C 
ATOM      8  C   LIG    1       19.184 -32.382  13.284  0.00  0.00    +0.039 C 
ATOM      9  C   LIG    1       18.163 -32.116  12.407  0.00  0.00    +0.123 C 
ATOM     10  F   LIG    1       16.896 -32.361  12.769  0.00  0.00    -0.205 F 
ATOM     11  C   LIG    1       18.462 -31.583  11.168  0.00  0.00    +0.039 C 
ATOM     12  C   LIG    1       19.806 -31.277  10.819  0.00  0.00    +0.013 C 
ENDBRANCH   3   6
BRANCH   4  13
ATOM     13  C   LIG    1       22.444 -28.639  12.399  0.00  0.00    -0.015 C 
ATOM     14  C   LIG    1       21.042 -28.472  12.456  0.00  0.00    +0.008 C 
ATOM     15  C   LIG    1       20.445 -27.360  13.114  0.00  0.00    +0.001 C 
ATOM     16  C   LIG    1       21.218 -26.346  13.680  0.00  0.00    +0.000 C 
ATOM     17  C   LIG    1       22.587 -26.443  13.583  0.00  0.00    +0.001 C 
ATOM     18  C   LIG    1       23.165 -27.590  13.015  0.00  0.00    +0.008 C 
ENDBRANCH   4  13
BRANCH   5  19
ATOM     19  C   LIG    1       25.827 -29.471  11.994  0.00  0.00    +0.251 C 
ATOM     20  N   LIG    1       26.127 -29.585  13.284  0.00  0.00    -0.281 N 
ATOM     21  H   LIG    1       25.369 -30.034  13.824  0.00  0.00    +0.155 HD
ATOM     22  O   LIG    1       26.531 -28.736  11.203  0.00  0.00    -0.270 OA
BRANCH  20  23
ATOM     23  C   LIG    1       27.231 -29.224  14.109  0.00  0.00    +0.034 C 
ATOM     24  C   LIG    1       28.397 -29.978  13.986  0.00  0.00    +0.023 C 
ATOM     25  C   LIG    1       29.593 -29.575  14.596  0.00  0.00    +0.002 C 
ATOM     26  C   LIG    1       29.674 -28.339  15.228  0.00  0.00    +0.000 C 
ATOM     27  C   LIG    1       28.543 -27.527  15.276  0.00  0.00    +0.002 C 
ATOM     28  C   LIG    1       27.313 -27.976  14.742  0.00  0.00    +0.023 C 
ENDBRANCH  20  23
ENDBRANCH   5  19
BRANCH   1  30
ATOM     29  C   LIG    1       25.764 -33.824  10.466  0.00  0.00    +0.014 C 
ATOM     30  C   LIG    1       25.906 -32.299  10.465  0.00  0.00    +0.030 C 
ATOM     31  C   LIG    1       26.592 -31.972   9.121  0.00  0.00    +0.014 C 
ENDBRANCH   1  30
BRANCH   2  32
ATOM     32  C   LIG    1       22.810 -32.732   9.477  0.00  0.00    +0.124 C 
BRANCH  32  33
ATOM     33  C   LIG    1       23.419 -33.073   8.092  0.00  0.00    +0.053 C 
BRANCH  33  34
ATOM     34  C   LIG    1       23.307 -31.911   7.012  0.00  0.00    +0.119 C 
BRANCH  34  35
ATOM     35  O   LIG    1       23.428 -30.682   7.725  0.00  0.00    -0.392 OA
ATOM     36  H   LIG    1       24.358 -30.387   7.715  0.00  0.00    +0.210 HD
ENDBRANCH  34  35
BRANCH  34  37
ATOM     37  C   LIG    1       24.346 -31.979   5.862  0.00  0.00    +0.063 C 
BRANCH  37  38
ATOM     38  C   LIG    1       25.477 -30.914   5.628  0.00  0.00    +0.128 C 
BRANCH  38  39
ATOM     39  O   LIG    1       26.731 -31.598   5.666  0.00  0.00    -0.391 OA
ATOM     40  H   LIG    1       26.922 -31.863   6.585  0.00  0.00    +0.210 HD
ENDBRANCH  38  39
BRANCH  38  41
ATOM     41  C   LIG    1       25.586 -29.613   6.445  0.00  0.00    +0.151 C 
BRANCH  41  42
ATOM     42  C   LIG    1       25.338 -28.280   5.716  0.00  0.00    +0.307 C 
ATOM     43  O   LIG    1       24.317 -28.078   5.065  0.00  0.00    -0.251 OA
BRANCH  42  44
ATOM     44  O   LIG    1       26.294 -27.334   5.752  0.00  0.00    -0.481 OA
ATOM     45  H   LIG    1       26.904 -27.312   6.502  0.00  0.00    +0.295 HD
ENDBRANCH  42  44
ENDBRANCH  41  42
ENDBRANCH  38  41
ENDBRANCH  37  38
ENDBRANCH  34  37
ENDBRANCH  33  34
ENDBRANCH  32  33
ENDBRANCH   2  32
TORSDOF 15
ENDMDL
