MODEL 1
REMARK VINA RESULT:      -8.2      0.000      0.000
REMARK  Name = *****
REMARK                            x       y       z     vdW  Elec       q    Type
REMARK                         _______ _______ _______ _____ _____    ______ ____
ROOT
ATOM      1  C   LIG    1       30.562 -18.066   8.974  0.00  0.00    +0.108 C 
ATOM      2  C   LIG    1       30.426 -18.011   7.482  0.00  0.00    +0.123 C 
ATOM      3  C   LIG    1       30.237 -19.421   6.919  0.00  0.00    +0.207 C 
ATOM      4  O   LIG    1       31.252 -20.307   7.427  0.00  0.00    -0.454 OA
ATOM      5  C   LIG    1       31.548 -20.303   8.751  0.00  0.00    +0.336 C 
ATOM      6  O   LIG    1       32.194 -21.199   9.278  0.00  0.00    -0.245 OA
ATOM      7  C   LIG    1       31.063 -19.169   9.553  0.00  0.00    +0.132 C 
ENDROOT
BRANCH   1   9
ATOM      8  C   LIG    1       30.808 -16.528  10.793  0.00  0.00    +0.276 C 
ATOM      9  O   LIG    1       30.117 -16.931   9.615  0.00  0.00    -0.499 OA
ENDBRANCH   1   9
BRANCH   3  10
ATOM     10  C   LIG    1       28.843 -19.976   7.135  0.00  0.00    +0.018 C 
ATOM     11  C   LIG    1       27.844 -19.986   6.235  0.00  0.00    +0.007 C 
BRANCH  11  12
ATOM     12  C   LIG    1       26.510 -20.521   6.469  0.00  0.00    -0.029 C 
ATOM     13  C   LIG    1       25.460 -20.567   5.461  0.00  0.00    +0.003 C 
ATOM     14  C   LIG    1       24.223 -21.011   5.714  0.00  0.00    -0.026 C 
ATOM     15  C   LIG    1       23.790 -21.490   7.067  0.00  0.00    +0.031 C 
ATOM     16  C   LIG    1       24.889 -21.499   8.138  0.00  0.00    +0.032 C 
ATOM     17  C   LIG    1       26.215 -20.927   7.722  0.00  0.00    -0.019 C 
ENDBRANCH  11  12
ENDBRANCH   3  10
TORSDOF 3
ENDMDL
MODEL 2
REMARK VINA RESULT:      -7.9      3.605      6.764
REMARK  Name = *****
REMARK                            x       y       z     vdW  Elec       q    Type
REMARK                         _______ _______ _______ _____ _____    ______ ____
ROOT
ATOM      1  C   LIG    1       23.628 -20.825   5.628  0.00  0.00    +0.108 C 
ATOM      2  C   LIG    1       23.583 -20.804   7.127  0.00  0.00    +0.123 C 
ATOM      3  C   LIG    1       24.764 -21.589   7.700  0.00  0.00    +0.207 C 
ATOM      4  O   LIG    1       24.848 -22.891   7.090  0.00  0.00    -0.454 OA
ATOM      5  C   LIG    1       24.738 -23.012   5.744  0.00  0.00    +0.336 C 
ATOM      6  O   LIG    1       25.061 -24.034   5.153  0.00  0.00    -0.245 OA
ATOM      7  C   LIG    1       24.206 -21.861   4.998  0.00  0.00    +0.132 C 
ENDROOT
BRANCH   1   9
ATOM      8  C   LIG    1       23.688 -19.204   3.867  0.00  0.00    +0.276 C 
ATOM      9  O   LIG    1       23.062 -19.717   5.039  0.00  0.00    -0.499 OA
ENDBRANCH   1   9
BRANCH   3  10
ATOM     10  C   LIG    1       26.080 -20.843   7.621  0.00  0.00    +0.018 C 
ATOM     11  C   LIG    1       27.281 -21.378   7.344  0.00  0.00    +0.007 C 
BRANCH  11  12
ATOM     12  C   LIG    1       28.535 -20.638   7.279  0.00  0.00    -0.029 C 
ATOM     13  C   LIG    1       28.789 -19.540   6.357  0.00  0.00    +0.003 C 
ATOM     14  C   LIG    1       29.968 -18.911   6.276  0.00  0.00    -0.026 C 
ATOM     15  C   LIG    1       31.151 -19.286   7.117  0.00  0.00    +0.031 C 
ATOM     16  C   LIG    1       30.898 -20.409   8.133  0.00  0.00    +0.032 C 
ATOM     17  C   LIG    1       29.542 -21.053   8.076  0.00  0.00    -0.019 C 
ENDBRANCH  11  12
ENDBRANCH   3  10
TORSDOF 3
ENDMDL
MODEL 3
REMARK VINA RESULT:      -7.9      4.029      5.669
REMARK  Name = *****
REMARK                            x       y       z     vdW  Elec       q    Type
REMARK                         _______ _______ _______ _____ _____    ______ ____
ROOT
ATOM      1  C   LIG    1       27.169 -20.453   7.599  0.00  0.00    +0.108 C 
ATOM      2  C   LIG    1       25.909 -20.629   8.394  0.00  0.00    +0.123 C 
ATOM      3  C   LIG    1       24.853 -21.349   7.553  0.00  0.00    +0.207 C 
ATOM      4  O   LIG    1       24.705 -20.708   6.271  0.00  0.00    -0.454 OA
ATOM      5  C   LIG    1       25.807 -20.369   5.557  0.00  0.00    +0.336 C 
ATOM      6  O   LIG    1       25.750 -20.073   4.371  0.00  0.00    -0.245 OA
ATOM      7  C   LIG    1       27.100 -20.366   6.260  0.00  0.00    +0.132 C 
ENDROOT
BRANCH   1   9
ATOM      8  C   LIG    1       29.553 -20.258   7.690  0.00  0.00    +0.276 C 
ATOM      9  O   LIG    1       28.311 -20.420   8.367  0.00  0.00    -0.499 OA
ENDBRANCH   1   9
BRANCH   3  10
ATOM     10  C   LIG    1       25.102 -22.837   7.414  0.00  0.00    +0.018 C 
ATOM     11  C   LIG    1       24.593 -23.643   6.467  0.00  0.00    +0.007 C 
BRANCH  11  12
ATOM     12  C   LIG    1       24.844 -25.074   6.359  0.00  0.00    -0.029 C 
ATOM     13  C   LIG    1       24.048 -25.984   5.546  0.00  0.00    +0.003 C 
ATOM     14  C   LIG    1       24.262 -27.304   5.505  0.00  0.00    -0.026 C 
ATOM     15  C   LIG    1       25.333 -27.982   6.306  0.00  0.00    +0.031 C 
ATOM     16  C   LIG    1       26.220 -27.041   7.135  0.00  0.00    +0.032 C 
ATOM     17  C   LIG    1       25.831 -25.590   7.121  0.00  0.00    -0.019 C 
ENDBRANCH  11  12
ENDBRANCH   3  10
TORSDOF 3
ENDMDL
MODEL 4
REMARK VINA RESULT:      -7.8      4.087      7.329
REMARK  Name = *****
REMARK                            x       y       z     vdW  Elec       q    Type
REMARK                         _______ _______ _______ _____ _____    ______ ____
ROOT
ATOM      1  C   LIG    1       23.244 -21.135   5.933  0.00  0.00    +0.108 C 
ATOM      2  C   LIG    1       24.013 -21.706   4.779  0.00  0.00    +0.123 C 
ATOM      3  C   LIG    1       24.627 -20.579   3.946  0.00  0.00    +0.207 C 
ATOM      4  O   LIG    1       23.629 -19.596   3.613  0.00  0.00    -0.454 OA
ATOM      5  C   LIG    1       22.784 -19.143   4.572  0.00  0.00    +0.336 C 
ATOM      6  O   LIG    1       22.106 -18.135   4.421  0.00  0.00    -0.245 OA
ATOM      7  C   LIG    1       22.701 -19.911   5.825  0.00  0.00    +0.132 C 
ENDROOT
BRANCH   1   9
ATOM      8  C   LIG    1       22.939 -23.343   6.806  0.00  0.00    +0.276 C 
ATOM      9  O   LIG    1       23.197 -21.961   7.033  0.00  0.00    -0.499 OA
ENDBRANCH   1   9
BRANCH   3  10
ATOM     10  C   LIG    1       25.847 -19.950   4.588  0.00  0.00    +0.018 C 
ATOM     11  C   LIG    1       26.608 -20.496   5.552  0.00  0.00    +0.007 C 
BRANCH  11  12
ATOM     12  C   LIG    1       27.775 -19.867   6.157  0.00  0.00    -0.029 C 
ATOM     13  C   LIG    1       28.687 -18.983   5.446  0.00  0.00    +0.003 C 
ATOM     14  C   LIG    1       29.785 -18.461   6.007  0.00  0.00    -0.026 C 
ATOM     15  C   LIG    1       30.193 -18.747   7.420  0.00  0.00    +0.031 C 
ATOM     16  C   LIG    1       29.223 -19.638   8.211  0.00  0.00    +0.032 C 
ATOM     17  C   LIG    1       28.060 -20.189   7.436  0.00  0.00    -0.019 C 
ENDBRANCH  11  12
ENDBRANCH   3  10
TORSDOF 3
ENDMDL
MODEL 5
REMARK VINA RESULT:      -7.5      3.729      7.206
REMARK  Name = *****
REMARK                            x       y       z     vdW  Elec       q    Type
REMARK                         _______ _______ _______ _____ _____    ______ ____
ROOT
ATOM      1  C   LIG    1       24.593 -23.232   5.631  0.00  0.00    +0.108 C 
ATOM      2  C   LIG    1       24.801 -22.014   4.780  0.00  0.00    +0.123 C 
ATOM      3  C   LIG    1       24.885 -20.766   5.660  0.00  0.00    +0.207 C 
ATOM      4  O   LIG    1       23.772 -20.715   6.572  0.00  0.00    -0.454 OA
ATOM      5  C   LIG    1       23.418 -21.826   7.265  0.00  0.00    +0.336 C 
ATOM      6  O   LIG    1       22.669 -21.780   8.232  0.00  0.00    -0.245 OA
ATOM      7  C   LIG    1       23.967 -23.114   6.814  0.00  0.00    +0.132 C 
ENDROOT
BRANCH   1   9
ATOM      8  C   LIG    1       24.479 -25.615   5.431  0.00  0.00    +0.276 C 
ATOM      9  O   LIG    1       25.110 -24.386   5.086  0.00  0.00    -0.499 OA
ENDBRANCH   1   9
BRANCH   3  10
ATOM     10  C   LIG    1       26.212 -20.623   6.380  0.00  0.00    +0.018 C 
ATOM     11  C   LIG    1       27.361 -20.175   5.845  0.00  0.00    +0.007 C 
BRANCH  11  12
ATOM     12  C   LIG    1       28.625 -20.052   6.558  0.00  0.00    -0.029 C 
ATOM     13  C   LIG    1       29.593 -18.988   6.328  0.00  0.00    +0.003 C 
ATOM     14  C   LIG    1       30.774 -18.926   6.954  0.00  0.00    -0.026 C 
ATOM     15  C   LIG    1       31.226 -19.957   7.944  0.00  0.00    +0.031 C 
ATOM     16  C   LIG    1       30.207 -21.065   8.244  0.00  0.00    +0.032 C 
ATOM     17  C   LIG    1       28.944 -21.031   7.430  0.00  0.00    -0.019 C 
ENDBRANCH  11  12
ENDBRANCH   3  10
TORSDOF 3
ENDMDL
MODEL 6
REMARK VINA RESULT:      -7.3      5.221      7.336
REMARK  Name = *****
REMARK                            x       y       z     vdW  Elec       q    Type
REMARK                         _______ _______ _______ _____ _____    ______ ____
ROOT
ATOM      1  C   LIG    1       23.884 -21.719   6.546  0.00  0.00    +0.108 C 
ATOM      2  C   LIG    1       24.994 -22.186   5.653  0.00  0.00    +0.123 C 
ATOM      3  C   LIG    1       26.049 -22.933   6.472  0.00  0.00    +0.207 C 
ATOM      4  O   LIG    1       26.445 -22.152   7.616  0.00  0.00    -0.454 OA
ATOM      5  C   LIG    1       25.500 -21.561   8.388  0.00  0.00    +0.336 C 
ATOM      6  O   LIG    1       25.751 -21.117   9.501  0.00  0.00    -0.245 OA
ATOM      7  C   LIG    1       24.138 -21.461   7.840  0.00  0.00    +0.132 C 
ENDROOT
BRANCH   1   9
ATOM      8  C   LIG    1       22.455 -20.500   5.061  0.00  0.00    +0.276 C 
ATOM      9  O   LIG    1       22.665 -21.622   5.913  0.00  0.00    -0.499 OA
ENDBRANCH   1   9
BRANCH   3  10
ATOM     10  C   LIG    1       25.628 -24.335   6.864  0.00  0.00    +0.018 C 
ATOM     11  C   LIG    1       25.896 -25.464   6.185  0.00  0.00    +0.007 C 
BRANCH  11  12
ATOM     12  C   LIG    1       25.474 -26.801   6.581  0.00  0.00    -0.029 C 
ATOM     13  C   LIG    1       25.999 -27.514   7.737  0.00  0.00    +0.003 C 
ATOM     14  C   LIG    1       25.639 -28.765   8.049  0.00  0.00    -0.026 C 
ATOM     15  C   LIG    1       24.670 -29.563   7.230  0.00  0.00    +0.031 C 
ATOM     16  C   LIG    1       24.062 -28.819   6.032  0.00  0.00    +0.032 C 
ATOM     17  C   LIG    1       24.598 -27.438   5.777  0.00  0.00    -0.019 C 
ENDBRANCH  11  12
ENDBRANCH   3  10
TORSDOF 3
ENDMDL
MODEL 7
REMARK VINA RESULT:      -7.3      4.713      6.633
REMARK  Name = *****
REMARK                            x       y       z     vdW  Elec       q    Type
REMARK                         _______ _______ _______ _____ _____    ______ ____
ROOT
ATOM      1  C   LIG    1       25.662 -20.506   5.815  0.00  0.00    +0.108 C 
ATOM      2  C   LIG    1       26.782 -20.862   6.746  0.00  0.00    +0.123 C 
ATOM      3  C   LIG    1       26.353 -22.002   7.672  0.00  0.00    +0.207 C 
ATOM      4  O   LIG    1       25.089 -21.700   8.293  0.00  0.00    -0.454 OA
ATOM      5  C   LIG    1       24.068 -21.219   7.541  0.00  0.00    +0.336 C 
ATOM      6  O   LIG    1       22.913 -21.196   7.947  0.00  0.00    -0.245 OA
ATOM      7  C   LIG    1       24.391 -20.712   6.198  0.00  0.00    +0.132 C 
ENDROOT
BRANCH   1   9
ATOM      8  C   LIG    1       25.084 -19.542   3.700  0.00  0.00    +0.276 C 
ATOM      9  O   LIG    1       26.084 -20.001   4.605  0.00  0.00    -0.499 OA
ENDBRANCH   1   9
BRANCH   3  10
ATOM     10  C   LIG    1       26.340 -23.358   6.994  0.00  0.00    +0.018 C 
ATOM     11  C   LIG    1       25.321 -24.234   6.992  0.00  0.00    +0.007 C 
BRANCH  11  12
ATOM     12  C   LIG    1       25.335 -25.536   6.337  0.00  0.00    -0.029 C 
ATOM     13  C   LIG    1       24.167 -26.395   6.203  0.00  0.00    +0.003 C 
ATOM     14  C   LIG    1       24.215 -27.612   5.646  0.00  0.00    -0.026 C 
ATOM     15  C   LIG    1       25.481 -28.218   5.121  0.00  0.00    +0.031 C 
ATOM     16  C   LIG    1       26.720 -27.315   5.205  0.00  0.00    +0.032 C 
ATOM     17  C   LIG    1       26.525 -25.996   5.898  0.00  0.00    -0.019 C 
ENDBRANCH  11  12
ENDBRANCH   3  10
TORSDOF 3
ENDMDL
MODEL 8
REMARK VINA RESULT:      -7.2      4.422      6.610
REMARK  Name = *****
REMARK                            x       y       z     vdW  Elec       q    Type
REMARK                         _______ _______ _______ _____ _____    ______ ____
ROOT
ATOM      1  C   LIG    1       26.034 -20.489   6.340  0.00  0.00    +0.108 C 
ATOM      2  C   LIG    1       25.067 -20.722   7.462  0.00  0.00    +0.123 C 
ATOM      3  C   LIG    1       23.780 -21.351   6.926  0.00  0.00    +0.207 C 
ATOM      4  O   LIG    1       23.277 -20.596   5.808  0.00  0.00    -0.454 OA
ATOM      5  C   LIG    1       24.124 -20.207   4.823  0.00  0.00    +0.336 C 
ATOM      6  O   LIG    1       23.723 -19.805   3.738  0.00  0.00    -0.245 OA
ATOM      7  C   LIG    1       25.568 -20.281   5.097  0.00  0.00    +0.132 C 
ENDROOT
BRANCH   1   9
ATOM      8  C   LIG    1       28.308 -19.891   5.886  0.00  0.00    +0.276 C 
ATOM      9  O   LIG    1       27.355 -20.538   6.725  0.00  0.00    -0.499 OA
ENDBRANCH   1   9
BRANCH   3  10
ATOM     10  C   LIG    1       23.920 -22.824   6.596  0.00  0.00    +0.018 C 
ATOM     11  C   LIG    1       24.920 -23.633   6.984  0.00  0.00    +0.007 C 
BRANCH  11  12
ATOM     12  C   LIG    1       25.034 -25.046   6.648  0.00  0.00    -0.029 C 
ATOM     13  C   LIG    1       26.134 -25.901   7.074  0.00  0.00    +0.003 C 
ATOM     14  C   LIG    1       26.248 -27.183   6.707  0.00  0.00    -0.026 C 
ATOM     15  C   LIG    1       25.262 -27.863   5.806  0.00  0.00    +0.031 C 
ATOM     16  C   LIG    1       24.065 -27.001   5.380  0.00  0.00    +0.032 C 
ATOM     17  C   LIG    1       24.097 -25.567   5.829  0.00  0.00    -0.019 C 
ENDBRANCH  11  12
ENDBRANCH   3  10
TORSDOF 3
ENDMDL
MODEL 9
REMARK VINA RESULT:      -6.8      6.451      8.781
REMARK  Name = *****
REMARK                            x       y       z     vdW  Elec       q    Type
REMARK                         _______ _______ _______ _____ _____    ______ ____
ROOT
ATOM      1  C   LIG    1       25.842 -28.305   7.752  0.00  0.00    +0.108 C 
ATOM      2  C   LIG    1       26.677 -27.677   6.676  0.00  0.00    +0.123 C 
ATOM      3  C   LIG    1       25.784 -27.187   5.535  0.00  0.00    +0.207 C 
ATOM      4  O   LIG    1       24.889 -28.232   5.109  0.00  0.00    -0.454 OA
ATOM      5  C   LIG    1       24.213 -28.958   6.034  0.00  0.00    +0.336 C 
ATOM      6  O   LIG    1       23.258 -29.663   5.738  0.00  0.00    -0.245 OA
ATOM      7  C   LIG    1       24.668 -28.874   7.431  0.00  0.00    +0.132 C 
ENDROOT
BRANCH   1   9
ATOM      8  C   LIG    1       26.654 -29.417   9.711  0.00  0.00    +0.276 C 
ATOM      9  O   LIG    1       26.390 -28.205   9.011  0.00  0.00    -0.499 OA
ENDBRANCH   1   9
BRANCH   3  10
ATOM     10  C   LIG    1       25.041 -25.905   5.858  0.00  0.00    +0.018 C 
ATOM     11  C   LIG    1       25.528 -24.857   6.545  0.00  0.00    +0.007 C 
BRANCH  11  12
ATOM     12  C   LIG    1       24.791 -23.637   6.847  0.00  0.00    -0.029 C 
ATOM     13  C   LIG    1       23.349 -23.496   6.700  0.00  0.00    +0.003 C 
ATOM     14  C   LIG    1       22.699 -22.349   6.930  0.00  0.00    -0.026 C 
ATOM     15  C   LIG    1       23.395 -21.088   7.346  0.00  0.00    +0.031 C 
ATOM     16  C   LIG    1       24.910 -21.219   7.557  0.00  0.00    +0.032 C 
ATOM     17  C   LIG    1       25.507 -22.555   7.215  0.00  0.00    -0.019 C 
ENDBRANCH  11  12
ENDBRANCH   3  10
TORSDOF 3
ENDMDL
