MODEL 1
REMARK VINA RESULT:      -6.7      0.000      0.000
REMARK  Name = *****
REMARK                            x       y       z     vdW  Elec       q    Type
REMARK                         _______ _______ _______ _____ _____    ______ ____
ROOT
ATOM      1  N   LIG    1       23.344 -31.879  11.122  0.00  0.00    -0.279 NA
ATOM      2  C   LIG    1       23.972 -30.758  11.214  0.00  0.00    +0.082 C 
ATOM      3  C   LIG    1       25.409 -30.697  10.774  0.00  0.00    +0.059 C 
ATOM      4  C   LIG    1       26.145 -29.662  11.161  0.00  0.00    +0.055 C 
ATOM      5  C   LIG    1       25.620 -28.567  11.994  0.00  0.00    +0.090 C 
ATOM      6  C   LIG    1       24.154 -28.540  12.347  0.00  0.00    +0.075 C 
ATOM      7  N   LIG    1       23.714 -27.476  13.212  0.00  0.00    -0.306 N 
ATOM      8  C   LIG    1       24.719 -26.509  13.640  0.00  0.00    +0.072 C 
ATOM      9  C   LIG    1       26.038 -26.598  13.137  0.00  0.00    +0.088 C 
ATOM     10  C   LIG    1       27.010 -25.659  13.489  0.00  0.00    +0.030 C 
ATOM     11  C   LIG    1       26.717 -24.604  14.348  0.00  0.00    +0.002 C 
ATOM     12  C   LIG    1       25.449 -24.530  14.902  0.00  0.00    +0.002 C 
ATOM     13  C   LIG    1       24.474 -25.483  14.578  0.00  0.00    +0.028 C 
ATOM     14  N   LIG    1       26.474 -27.659  12.326  0.00  0.00    -0.244 NA
ATOM     15  C   LIG    1       23.419 -29.494  11.773  0.00  0.00    +0.057 C 
ENDROOT
BRANCH   7  16
ATOM     16  C   LIG    1       22.358 -27.492  13.740  0.00  0.00    +0.047 A 
ATOM     17  C   LIG    1       21.301 -26.819  13.091  0.00  0.00    +0.027 A 
ATOM     18  C   LIG    1       20.000 -26.785  13.611  0.00  0.00    +0.022 A 
ATOM     19  C   LIG    1       19.698 -27.518  14.752  0.00  0.00    +0.041 A 
ATOM     20 CL   LIG    1       18.090 -27.536  15.359  0.00  0.00    -0.084 Cl
ATOM     21  C   LIG    1       20.697 -28.238  15.395  0.00  0.00    +0.022 A 
ATOM     22  C   LIG    1       22.020 -28.183  14.924  0.00  0.00    +0.027 A 
ENDBRANCH   7  16
BRANCH   1  24
ATOM     23  C   LIG    1       20.974 -32.031  10.521  0.00  0.00    +0.032 C 
ATOM     24  C   LIG    1       21.979 -32.017  11.665  0.00  0.00    +0.100 C 
ATOM     25  C   LIG    1       21.908 -33.310  12.468  0.00  0.00    +0.032 C 
ENDBRANCH   1  24
BRANCH   3  26
ATOM     26  N   LIG    1       25.894 -31.809  10.066  0.00  0.00    -0.313 N 
ATOM     27  H   LIG    1       25.408 -32.632  10.395  0.00  0.00    +0.152 HD
BRANCH  26  28
ATOM     28  C   LIG    1       25.947 -31.837   8.643  0.00  0.00    +0.031 A 
ATOM     29  C   LIG    1       26.999 -32.544   8.029  0.00  0.00    +0.024 A 
ATOM     30  C   LIG    1       27.083 -32.642   6.635  0.00  0.00    +0.022 A 
ATOM     31  C   LIG    1       26.143 -31.994   5.839  0.00  0.00    +0.041 A 
ATOM     32 CL   LIG    1       26.215 -32.144   4.126  0.00  0.00    -0.084 Cl
ATOM     33  C   LIG    1       25.143 -31.224   6.425  0.00  0.00    +0.022 A 
ATOM     34  C   LIG    1       25.061 -31.132   7.818  0.00  0.00    +0.024 A 
ENDBRANCH  26  28
ENDBRANCH   3  26
TORSDOF 4
ENDMDL
MODEL 2
REMARK VINA RESULT:      -6.0      3.187      8.371
REMARK  Name = *****
REMARK                            x       y       z     vdW  Elec       q    Type
REMARK                         _______ _______ _______ _____ _____    ______ ____
ROOT
ATOM      1  N   LIG    1       23.047 -30.374  11.727  0.00  0.00    -0.279 NA
ATOM      2  C   LIG    1       23.045 -31.004  10.603  0.00  0.00    +0.082 C 
ATOM      3  C   LIG    1       22.777 -32.484  10.603  0.00  0.00    +0.059 C 
ATOM      4  C   LIG    1       23.092 -33.183   9.520  0.00  0.00    +0.055 C 
ATOM      5  C   LIG    1       23.683 -32.579   8.314  0.00  0.00    +0.090 C 
ATOM      6  C   LIG    1       23.850 -31.082   8.240  0.00  0.00    +0.075 C 
ATOM      7  N   LIG    1       24.487 -30.558   7.060  0.00  0.00    -0.306 N 
ATOM      8  C   LIG    1       24.885 -31.519   6.037  0.00  0.00    +0.072 C 
ATOM      9  C   LIG    1       24.563 -32.888   6.196  0.00  0.00    +0.088 C 
ATOM     10  C   LIG    1       24.885 -33.825   5.212  0.00  0.00    +0.030 C 
ATOM     11  C   LIG    1       25.536 -33.447   4.041  0.00  0.00    +0.002 C 
ATOM     12  C   LIG    1       25.916 -32.123   3.889  0.00  0.00    +0.002 C 
ATOM     13  C   LIG    1       25.623 -31.180   4.883  0.00  0.00    +0.028 C 
ATOM     14  N   LIG    1       23.977 -33.402   7.364  0.00  0.00    -0.244 NA
ATOM     15  C   LIG    1       23.340 -30.407   9.271  0.00  0.00    +0.057 C 
ENDROOT
BRANCH   7  16
ATOM     16  C   LIG    1       24.845 -29.149   7.001  0.00  0.00    +0.047 A 
ATOM     17  C   LIG    1       24.122 -28.233   6.207  0.00  0.00    +0.027 A 
ATOM     18  C   LIG    1       24.483 -26.882   6.102  0.00  0.00    +0.022 A 
ATOM     19  C   LIG    1       25.523 -26.388   6.878  0.00  0.00    +0.041 A 
ATOM     20 CL   LIG    1       25.929 -24.719   6.806  0.00  0.00    -0.084 Cl
ATOM     21  C   LIG    1       26.230 -27.244   7.713  0.00  0.00    +0.022 A 
ATOM     22  C   LIG    1       25.928 -28.616   7.734  0.00  0.00    +0.027 A 
ENDBRANCH   7  16
BRANCH   1  24
ATOM     23  C   LIG    1       22.596 -28.237  12.836  0.00  0.00    +0.032 C 
ATOM     24  C   LIG    1       23.435 -28.953  11.786  0.00  0.00    +0.100 C 
ATOM     25  C   LIG    1       24.919 -28.872  12.128  0.00  0.00    +0.032 C 
ENDBRANCH   1  24
BRANCH   3  26
ATOM     26  N   LIG    1       22.305 -33.033  11.807  0.00  0.00    -0.313 N 
ATOM     27  H   LIG    1       22.765 -32.561  12.574  0.00  0.00    +0.152 HD
BRANCH  26  28
ATOM     28  C   LIG    1       20.916 -33.145  12.096  0.00  0.00    +0.031 A 
ATOM     29  C   LIG    1       19.996 -32.670  11.142  0.00  0.00    +0.024 A 
ATOM     30  C   LIG    1       18.616 -32.789  11.352  0.00  0.00    +0.022 A 
ATOM     31  C   LIG    1       18.142 -33.339  12.538  0.00  0.00    +0.041 A 
ATOM     32 CL   LIG    1       16.449 -33.525  12.784  0.00  0.00    -0.084 Cl
ATOM     33  C   LIG    1       19.033 -33.740  13.528  0.00  0.00    +0.022 A 
ATOM     34  C   LIG    1       20.411 -33.623  13.313  0.00  0.00    +0.024 A 
ENDBRANCH  26  28
ENDBRANCH   3  26
TORSDOF 4
ENDMDL
MODEL 3
REMARK VINA RESULT:      -5.8      2.489      5.438
REMARK  Name = *****
REMARK                            x       y       z     vdW  Elec       q    Type
REMARK                         _______ _______ _______ _____ _____    ______ ____
ROOT
ATOM      1  N   LIG    1       26.638 -30.659  10.064  0.00  0.00    -0.279 NA
ATOM      2  C   LIG    1       25.558 -31.358  10.140  0.00  0.00    +0.082 C 
ATOM      3  C   LIG    1       25.331 -32.450   9.131  0.00  0.00    +0.059 C 
ATOM      4  C   LIG    1       24.105 -32.943   9.000  0.00  0.00    +0.055 C 
ATOM      5  C   LIG    1       22.960 -32.480   9.800  0.00  0.00    +0.090 C 
ATOM      6  C   LIG    1       23.183 -31.474  10.902  0.00  0.00    +0.075 C 
ATOM      7  N   LIG    1       22.015 -31.017  11.610  0.00  0.00    -0.306 N 
ATOM      8  C   LIG    1       20.732 -31.590  11.215  0.00  0.00    +0.072 C 
ATOM      9  C   LIG    1       20.690 -32.610  10.235  0.00  0.00    +0.088 C 
ATOM     10  C   LIG    1       19.484 -33.212   9.872  0.00  0.00    +0.030 C 
ATOM     11  C   LIG    1       18.281 -32.831  10.458  0.00  0.00    +0.002 C 
ATOM     12  C   LIG    1       18.288 -31.793  11.376  0.00  0.00    +0.002 C 
ATOM     13  C   LIG    1       19.488 -31.161  11.727  0.00  0.00    +0.028 C 
ATOM     14  N   LIG    1       21.824 -33.025   9.519  0.00  0.00    -0.244 NA
ATOM     15  C   LIG    1       24.459 -31.156  11.124  0.00  0.00    +0.057 C 
ENDROOT
BRANCH   7  16
ATOM     16  C   LIG    1       22.131 -29.918  12.556  0.00  0.00    +0.047 A 
ATOM     17  C   LIG    1       22.125 -28.572  12.134  0.00  0.00    +0.027 A 
ATOM     18  C   LIG    1       22.283 -27.504  13.028  0.00  0.00    +0.022 A 
ATOM     19  C   LIG    1       22.347 -27.755  14.392  0.00  0.00    +0.041 A 
ATOM     20 CL   LIG    1       22.473 -26.446  15.500  0.00  0.00    -0.084 Cl
ATOM     21  C   LIG    1       22.305 -29.063  14.857  0.00  0.00    +0.022 A 
ATOM     22  C   LIG    1       22.250 -30.132  13.947  0.00  0.00    +0.027 A 
ENDBRANCH   7  16
BRANCH   1  24
ATOM     23  C   LIG    1       28.235 -29.549  11.552  0.00  0.00    +0.032 C 
ATOM     24  C   LIG    1       26.838 -29.496  10.948  0.00  0.00    +0.100 C 
ATOM     25  C   LIG    1       26.649 -28.226  10.125  0.00  0.00    +0.032 C 
ENDBRANCH   1  24
BRANCH   3  26
ATOM     26  N   LIG    1       26.427 -32.791   8.322  0.00  0.00    -0.313 N 
ATOM     27  H   LIG    1       26.746 -33.712   8.590  0.00  0.00    +0.152 HD
BRANCH  26  28
ATOM     28  C   LIG    1       26.374 -32.714   6.901  0.00  0.00    +0.031 A 
ATOM     29  C   LIG    1       26.891 -33.790   6.154  0.00  0.00    +0.024 A 
ATOM     30  C   LIG    1       26.831 -33.790   4.755  0.00  0.00    +0.022 A 
ATOM     31  C   LIG    1       26.297 -32.693   4.086  0.00  0.00    +0.041 A 
ATOM     32 CL   LIG    1       26.183 -32.703   2.370  0.00  0.00    -0.084 Cl
ATOM     33  C   LIG    1       25.856 -31.585   4.803  0.00  0.00    +0.022 A 
ATOM     34  C   LIG    1       25.914 -31.591   6.200  0.00  0.00    +0.024 A 
ENDBRANCH  26  28
ENDBRANCH   3  26
TORSDOF 4
ENDMDL
MODEL 4
REMARK VINA RESULT:      -5.6      2.225      7.832
REMARK  Name = *****
REMARK                            x       y       z     vdW  Elec       q    Type
REMARK                         _______ _______ _______ _____ _____    ______ ____
ROOT
ATOM      1  N   LIG    1       19.398 -31.323  11.571  0.00  0.00    -0.279 NA
ATOM      2  C   LIG    1       20.516 -30.943  12.086  0.00  0.00    +0.082 C 
ATOM      3  C   LIG    1       20.502 -30.275  13.433  0.00  0.00    +0.059 C 
ATOM      4  C   LIG    1       21.579 -29.600  13.815  0.00  0.00    +0.055 C 
ATOM      5  C   LIG    1       22.790 -29.480  12.987  0.00  0.00    +0.090 C 
ATOM      6  C   LIG    1       22.879 -30.239  11.687  0.00  0.00    +0.075 C 
ATOM      7  N   LIG    1       24.064 -30.034  10.895  0.00  0.00    -0.306 N 
ATOM      8  C   LIG    1       25.079 -29.137  11.437  0.00  0.00    +0.072 C 
ATOM      9  C   LIG    1       24.907 -28.579  12.726  0.00  0.00    +0.088 C 
ATOM     10  C   LIG    1       25.882 -27.756  13.293  0.00  0.00    +0.030 C 
ATOM     11  C   LIG    1       27.056 -27.453  12.611  0.00  0.00    +0.002 C 
ATOM     12  C   LIG    1       27.222 -27.938  11.323  0.00  0.00    +0.002 C 
ATOM     13  C   LIG    1       26.236 -28.741  10.733  0.00  0.00    +0.028 C 
ATOM     14  N   LIG    1       23.733 -28.748  13.479  0.00  0.00    -0.244 NA
ATOM     15  C   LIG    1       21.853 -31.056  11.441  0.00  0.00    +0.057 C 
ENDROOT
BRANCH   7  16
ATOM     16  C   LIG    1       24.136 -30.588   9.551  0.00  0.00    +0.047 A 
ATOM     17  C   LIG    1       24.288 -31.973   9.327  0.00  0.00    +0.027 A 
ATOM     18  C   LIG    1       24.407 -32.516   8.040  0.00  0.00    +0.022 A 
ATOM     19  C   LIG    1       24.272 -31.691   6.932  0.00  0.00    +0.041 A 
ATOM     20 CL   LIG    1       24.349 -32.359   5.350  0.00  0.00    -0.084 Cl
ATOM     21  C   LIG    1       24.070 -30.327   7.105  0.00  0.00    +0.022 A 
ATOM     22  C   LIG    1       24.055 -29.777   8.398  0.00  0.00    +0.027 A 
ENDBRANCH   7  16
BRANCH   1  24
ATOM     23  C   LIG    1       19.357 -33.382  10.244  0.00  0.00    +0.032 C 
ATOM     24  C   LIG    1       19.353 -31.860  10.198  0.00  0.00    +0.100 C 
ATOM     25  C   LIG    1       18.090 -31.340   9.519  0.00  0.00    +0.032 C 
ENDBRANCH   1  24
BRANCH   3  26
ATOM     26  N   LIG    1       19.292 -30.331  14.146  0.00  0.00    -0.313 N 
ATOM     27  H   LIG    1       19.466 -30.788  15.031  0.00  0.00    +0.152 HD
BRANCH  26  28
ATOM     28  C   LIG    1       18.488 -29.177  14.367  0.00  0.00    +0.031 A 
ATOM     29  C   LIG    1       17.095 -29.347  14.478  0.00  0.00    +0.024 A 
ATOM     30  C   LIG    1       16.255 -28.256  14.736  0.00  0.00    +0.022 A 
ATOM     31  C   LIG    1       16.795 -26.977  14.837  0.00  0.00    +0.041 A 
ATOM     32 CL   LIG    1       15.775 -25.638  15.194  0.00  0.00    -0.084 Cl
ATOM     33  C   LIG    1       18.159 -26.778  14.649  0.00  0.00    +0.022 A 
ATOM     34  C   LIG    1       18.994 -27.871  14.396  0.00  0.00    +0.024 A 
ENDBRANCH  26  28
ENDBRANCH   3  26
TORSDOF 4
ENDMDL
MODEL 5
REMARK VINA RESULT:      -5.0      2.971      6.388
REMARK  Name = *****
REMARK                            x       y       z     vdW  Elec       q    Type
REMARK                         _______ _______ _______ _____ _____    ______ ____
ROOT
ATOM      1  N   LIG    1       24.481 -31.971   9.928  0.00  0.00    -0.279 NA
ATOM      2  C   LIG    1       24.121 -31.194  10.891  0.00  0.00    +0.082 C 
ATOM      3  C   LIG    1       22.687 -30.744  10.959  0.00  0.00    +0.059 C 
ATOM      4  C   LIG    1       22.387 -29.708  11.732  0.00  0.00    +0.055 C 
ATOM      5  C   LIG    1       23.386 -28.983  12.533  0.00  0.00    +0.090 C 
ATOM      6  C   LIG    1       24.808 -29.486  12.578  0.00  0.00    +0.075 C 
ATOM      7  N   LIG    1       25.751 -28.701  13.331  0.00  0.00    -0.306 N 
ATOM      8  C   LIG    1       25.239 -27.510  14.002  0.00  0.00    +0.072 C 
ATOM      9  C   LIG    1       23.854 -27.222  13.961  0.00  0.00    +0.088 C 
ATOM     10  C   LIG    1       23.326 -26.118  14.634  0.00  0.00    +0.030 C 
ATOM     11  C   LIG    1       24.142 -25.261  15.366  0.00  0.00    +0.002 C 
ATOM     12  C   LIG    1       25.509 -25.487  15.372  0.00  0.00    +0.002 C 
ATOM     13  C   LIG    1       26.054 -26.575  14.676  0.00  0.00    +0.028 C 
ATOM     14  N   LIG    1       22.944 -27.967  13.194  0.00  0.00    -0.244 NA
ATOM     15  C   LIG    1       25.017 -30.641  11.943  0.00  0.00    +0.057 C 
ENDROOT
BRANCH   7  16
ATOM     16  C   LIG    1       27.169 -29.023  13.268  0.00  0.00    +0.047 A 
ATOM     17  C   LIG    1       27.890 -29.419  14.414  0.00  0.00    +0.027 A 
ATOM     18  C   LIG    1       29.266 -29.687  14.380  0.00  0.00    +0.022 A 
ATOM     19  C   LIG    1       29.939 -29.666  13.165  0.00  0.00    +0.041 A 
ATOM     20 CL   LIG    1       31.611 -30.060  13.104  0.00  0.00    -0.084 Cl
ATOM     21  C   LIG    1       29.256 -29.331  12.003  0.00  0.00    +0.022 A 
ATOM     22  C   LIG    1       27.901 -28.964  12.063  0.00  0.00    +0.027 A 
ENDBRANCH   7  16
BRANCH   1  24
ATOM     23  C   LIG    1       26.011 -33.785   9.321  0.00  0.00    +0.032 C 
ATOM     24  C   LIG    1       25.901 -32.327   9.747  0.00  0.00    +0.100 C 
ATOM     25  C   LIG    1       26.498 -31.404   8.690  0.00  0.00    +0.032 C 
ENDBRANCH   1  24
BRANCH   3  26
ATOM     26  N   LIG    1       21.785 -31.400  10.105  0.00  0.00    -0.313 N 
ATOM     27  H   LIG    1       22.259 -32.188   9.685  0.00  0.00    +0.152 HD
BRANCH  26  28
ATOM     28  C   LIG    1       20.493 -31.812  10.539  0.00  0.00    +0.031 A 
ATOM     29  C   LIG    1       20.391 -32.988  11.307  0.00  0.00    +0.024 A 
ATOM     30  C   LIG    1       19.153 -33.422  11.797  0.00  0.00    +0.022 A 
ATOM     31  C   LIG    1       17.998 -32.713  11.483  0.00  0.00    +0.041 A 
ATOM     32 CL   LIG    1       16.480 -33.217  12.116  0.00  0.00    -0.084 Cl
ATOM     33  C   LIG    1       18.068 -31.594  10.659  0.00  0.00    +0.022 A 
ATOM     34  C   LIG    1       19.307 -31.161  10.175  0.00  0.00    +0.024 A 
ENDBRANCH  26  28
ENDBRANCH   3  26
TORSDOF 4
ENDMDL
MODEL 6
REMARK VINA RESULT:      -4.8      2.126      4.889
REMARK  Name = *****
REMARK                            x       y       z     vdW  Elec       q    Type
REMARK                         _______ _______ _______ _____ _____    ______ ____
ROOT
ATOM      1  N   LIG    1       25.855 -30.671  10.615  0.00  0.00    -0.279 NA
ATOM      2  C   LIG    1       24.789 -30.972  11.271  0.00  0.00    +0.082 C 
ATOM      3  C   LIG    1       23.996 -32.179  10.848  0.00  0.00    +0.059 C 
ATOM      4  C   LIG    1       22.752 -32.305  11.293  0.00  0.00    +0.055 C 
ATOM      5  C   LIG    1       22.113 -31.327  12.188  0.00  0.00    +0.090 C 
ATOM      6  C   LIG    1       22.922 -30.172  12.724  0.00  0.00    +0.075 C 
ATOM      7  N   LIG    1       22.225 -29.218  13.547  0.00  0.00    -0.306 N 
ATOM      8  C   LIG    1       20.812 -29.471  13.807  0.00  0.00    +0.072 C 
ATOM      9  C   LIG    1       20.211 -30.659  13.326  0.00  0.00    +0.088 C 
ATOM     10  C   LIG    1       18.874 -30.954  13.600  0.00  0.00    +0.030 C 
ATOM     11  C   LIG    1       18.084 -30.091  14.353  0.00  0.00    +0.002 C 
ATOM     12  C   LIG    1       18.632 -28.893  14.784  0.00  0.00    +0.002 C 
ATOM     13  C   LIG    1       19.964 -28.573  14.490  0.00  0.00    +0.028 C 
ATOM     14  N   LIG    1       20.882 -31.568  12.491  0.00  0.00    -0.244 NA
ATOM     15  C   LIG    1       24.217 -30.197  12.406  0.00  0.00    +0.057 C 
ENDROOT
BRANCH   7  16
ATOM     16  C   LIG    1       22.893 -27.988  13.947  0.00  0.00    +0.047 A 
ATOM     17  C   LIG    1       23.740 -27.938  15.074  0.00  0.00    +0.027 A 
ATOM     18  C   LIG    1       24.353 -26.751  15.500  0.00  0.00    +0.022 A 
ATOM     19  C   LIG    1       24.215 -25.597  14.740  0.00  0.00    +0.041 A 
ATOM     20 CL   LIG    1       25.019 -24.154  15.218  0.00  0.00    -0.084 Cl
ATOM     21  C   LIG    1       23.432 -25.614  13.593  0.00  0.00    +0.022 A 
ATOM     22  C   LIG    1       22.739 -26.781  13.231  0.00  0.00    +0.027 A 
ENDBRANCH   7  16
BRANCH   1  24
ATOM     23  C   LIG    1       27.997 -29.759  11.378  0.00  0.00    +0.032 C 
ATOM     24  C   LIG    1       26.587 -29.425  10.911  0.00  0.00    +0.100 C 
ATOM     25  C   LIG    1       26.619 -28.573   9.646  0.00  0.00    +0.032 C 
ENDBRANCH   1  24
BRANCH   3  26
ATOM     26  N   LIG    1       24.609 -33.034   9.917  0.00  0.00    -0.313 N 
ATOM     27  H   LIG    1       24.078 -33.893   9.876  0.00  0.00    +0.152 HD
BRANCH  26  28
ATOM     28  C   LIG    1       24.918 -32.615   8.592  0.00  0.00    +0.031 A 
ATOM     29  C   LIG    1       23.909 -31.988   7.838  0.00  0.00    +0.024 A 
ATOM     30  C   LIG    1       24.163 -31.518   6.543  0.00  0.00    +0.022 A 
ATOM     31  C   LIG    1       25.416 -31.714   5.971  0.00  0.00    +0.041 A 
ATOM     32 CL   LIG    1       25.748 -31.103   4.397  0.00  0.00    -0.084 Cl
ATOM     33  C   LIG    1       26.402 -32.404   6.669  0.00  0.00    +0.022 A 
ATOM     34  C   LIG    1       26.145 -32.867   7.963  0.00  0.00    +0.024 A 
ENDBRANCH  26  28
ENDBRANCH   3  26
TORSDOF 4
ENDMDL
MODEL 7
REMARK VINA RESULT:      -4.8      3.224      7.381
REMARK  Name = *****
REMARK                            x       y       z     vdW  Elec       q    Type
REMARK                         _______ _______ _______ _____ _____    ______ ____
ROOT
ATOM      1  N   LIG    1       20.699 -27.427  13.863  0.00  0.00    -0.279 NA
ATOM      2  C   LIG    1       21.512 -28.258  13.308  0.00  0.00    +0.082 C 
ATOM      3  C   LIG    1       22.885 -27.778  12.923  0.00  0.00    +0.059 C 
ATOM      4  C   LIG    1       23.595 -28.511  12.075  0.00  0.00    +0.055 C 
ATOM      5  C   LIG    1       23.108 -29.775  11.497  0.00  0.00    +0.090 C 
ATOM      6  C   LIG    1       21.787 -30.340  11.957  0.00  0.00    +0.075 C 
ATOM      7  N   LIG    1       21.338 -31.547  11.313  0.00  0.00    -0.306 N 
ATOM      8  C   LIG    1       22.214 -32.124  10.298  0.00  0.00    +0.072 C 
ATOM      9  C   LIG    1       23.479 -31.542  10.049  0.00  0.00    +0.088 C 
ATOM     10  C   LIG    1       24.360 -32.100   9.120  0.00  0.00    +0.030 C 
ATOM     11  C   LIG    1       24.026 -33.245   8.405  0.00  0.00    +0.002 C 
ATOM     12  C   LIG    1       22.769 -33.800   8.587  0.00  0.00    +0.002 C 
ATOM     13  C   LIG    1       21.865 -33.232   9.495  0.00  0.00    +0.028 C 
ATOM     14  N   LIG    1       23.898 -30.344  10.650  0.00  0.00    -0.244 NA
ATOM     15  C   LIG    1       21.204 -29.670  12.952  0.00  0.00    +0.057 C 
ENDROOT
BRANCH   7  16
ATOM     16  C   LIG    1       19.997 -32.046  11.574  0.00  0.00    +0.047 A 
ATOM     17  C   LIG    1       18.865 -31.503  10.930  0.00  0.00    +0.027 A 
ATOM     18  C   LIG    1       17.562 -31.941  11.206  0.00  0.00    +0.022 A 
ATOM     19  C   LIG    1       17.366 -33.015  12.064  0.00  0.00    +0.041 A 
ATOM     20 CL   LIG    1       15.777 -33.602  12.355  0.00  0.00    -0.084 Cl
ATOM     21  C   LIG    1       18.457 -33.614  12.681  0.00  0.00    +0.022 A 
ATOM     22  C   LIG    1       19.750 -33.102  12.478  0.00  0.00    +0.027 A 
ENDBRANCH   7  16
BRANCH   1  24
ATOM     23  C   LIG    1       19.217 -28.501  15.490  0.00  0.00    +0.032 C 
ATOM     24  C   LIG    1       19.303 -27.817  14.133  0.00  0.00    +0.100 C 
ATOM     25  C   LIG    1       18.437 -26.562  14.101  0.00  0.00    +0.032 C 
ENDBRANCH   1  24
BRANCH   3  26
ATOM     26  N   LIG    1       23.270 -26.522  13.419  0.00  0.00    -0.313 N 
ATOM     27  H   LIG    1       22.610 -26.246  14.133  0.00  0.00    +0.152 HD
BRANCH  26  28
ATOM     28  C   LIG    1       24.591 -26.261  13.882  0.00  0.00    +0.031 A 
ATOM     29  C   LIG    1       25.322 -27.324  14.447  0.00  0.00    +0.024 A 
ATOM     30  C   LIG    1       26.640 -27.140  14.883  0.00  0.00    +0.022 A 
ATOM     31  C   LIG    1       27.224 -25.880  14.803  0.00  0.00    +0.041 A 
ATOM     32 CL   LIG    1       28.857 -25.656  15.298  0.00  0.00    -0.084 Cl
ATOM     33  C   LIG    1       26.492 -24.799  14.323  0.00  0.00    +0.022 A 
ATOM     34  C   LIG    1       25.177 -24.988  13.885  0.00  0.00    +0.024 A 
ENDBRANCH  26  28
ENDBRANCH   3  26
TORSDOF 4
ENDMDL
MODEL 8
REMARK VINA RESULT:      -4.8      9.536     11.403
REMARK  Name = *****
REMARK                            x       y       z     vdW  Elec       q    Type
REMARK                         _______ _______ _______ _____ _____    ______ ____
ROOT
ATOM      1  N   LIG    1       23.748 -21.724   5.375  0.00  0.00    -0.279 NA
ATOM      2  C   LIG    1       24.991 -21.793   5.706  0.00  0.00    +0.082 C 
ATOM      3  C   LIG    1       25.430 -22.883   6.645  0.00  0.00    +0.059 C 
ATOM      4  C   LIG    1       26.611 -22.768   7.238  0.00  0.00    +0.055 C 
ATOM      5  C   LIG    1       27.517 -21.630   7.016  0.00  0.00    +0.090 C 
ATOM      6  C   LIG    1       27.158 -20.584   5.990  0.00  0.00    +0.075 C 
ATOM      7  N   LIG    1       28.055 -19.465   5.861  0.00  0.00    -0.306 N 
ATOM      8  C   LIG    1       29.240 -19.462   6.713  0.00  0.00    +0.072 C 
ATOM      9  C   LIG    1       29.504 -20.570   7.553  0.00  0.00    +0.088 C 
ATOM     10  C   LIG    1       30.655 -20.619   8.342  0.00  0.00    +0.030 C 
ATOM     11  C   LIG    1       31.581 -19.580   8.334  0.00  0.00    +0.002 C 
ATOM     12  C   LIG    1       31.315 -18.458   7.566  0.00  0.00    +0.002 C 
ATOM     13  C   LIG    1       30.149 -18.385   6.792  0.00  0.00    +0.028 C 
ATOM     14  N   LIG    1       28.608 -21.640   7.706  0.00  0.00    -0.244 NA
ATOM     15  C   LIG    1       26.058 -20.846   5.281  0.00  0.00    +0.057 C 
ENDROOT
BRANCH   7  16
ATOM     16  C   LIG    1       27.680 -18.334   5.026  0.00  0.00    +0.047 A 
ATOM     17  C   LIG    1       26.557 -18.382   4.173  0.00  0.00    +0.027 A 
ATOM     18  C   LIG    1       26.211 -17.318   3.328  0.00  0.00    +0.022 A 
ATOM     19  C   LIG    1       26.925 -16.129   3.393  0.00  0.00    +0.041 A 
ATOM     20 CL   LIG    1       26.465 -14.797   2.409  0.00  0.00    -0.084 Cl
ATOM     21  C   LIG    1       28.007 -16.020   4.257  0.00  0.00    +0.022 A 
ATOM     22  C   LIG    1       28.410 -17.126   5.025  0.00  0.00    +0.027 A 
ENDBRANCH   7  16
BRANCH   1  24
ATOM     23  C   LIG    1       23.712 -20.760   3.123  0.00  0.00    +0.032 C 
ATOM     24  C   LIG    1       23.253 -20.595   4.566  0.00  0.00    +0.100 C 
ATOM     25  C   LIG    1       21.731 -20.570   4.653  0.00  0.00    +0.032 C 
ENDBRANCH   1  24
BRANCH   3  26
ATOM     26  N   LIG    1       24.494 -23.899   6.903  0.00  0.00    -0.313 N 
ATOM     27  H   LIG    1       23.592 -23.595   6.564  0.00  0.00    +0.152 HD
BRANCH  26  28
ATOM     28  C   LIG    1       24.711 -25.248   6.502  0.00  0.00    +0.031 A 
ATOM     29  C   LIG    1       25.722 -25.983   7.150  0.00  0.00    +0.024 A 
ATOM     30  C   LIG    1       25.956 -27.326   6.827  0.00  0.00    +0.022 A 
ATOM     31  C   LIG    1       25.213 -27.934   5.821  0.00  0.00    +0.041 A 
ATOM     32 CL   LIG    1       25.466 -29.594   5.448  0.00  0.00    -0.084 Cl
ATOM     33  C   LIG    1       24.265 -27.202   5.113  0.00  0.00    +0.022 A 
ATOM     34  C   LIG    1       24.032 -25.863   5.441  0.00  0.00    +0.024 A 
ENDBRANCH  26  28
ENDBRANCH   3  26
TORSDOF 4
ENDMDL
MODEL 9
REMARK VINA RESULT:      -4.5      2.795      7.341
REMARK  Name = *****
REMARK                            x       y       z     vdW  Elec       q    Type
REMARK                         _______ _______ _______ _____ _____    ______ ____
ROOT
ATOM      1  N   LIG    1       19.776 -30.351  11.911  0.00  0.00    -0.279 NA
ATOM      2  C   LIG    1       20.638 -29.668  12.582  0.00  0.00    +0.082 C 
ATOM      3  C   LIG    1       20.141 -28.616  13.537  0.00  0.00    +0.059 C 
ATOM      4  C   LIG    1       21.000 -27.705  13.975  0.00  0.00    +0.055 C 
ATOM      5  C   LIG    1       22.418 -27.676  13.578  0.00  0.00    +0.090 C 
ATOM      6  C   LIG    1       22.970 -28.787  12.719  0.00  0.00    +0.075 C 
ATOM      7  N   LIG    1       24.348 -28.672  12.317  0.00  0.00    -0.306 N 
ATOM      8  C   LIG    1       25.087 -27.510  12.800  0.00  0.00    +0.072 C 
ATOM      9  C   LIG    1       24.466 -26.604  13.692  0.00  0.00    +0.088 C 
ATOM     10  C   LIG    1       25.162 -25.510  14.211  0.00  0.00    +0.030 C 
ATOM     11  C   LIG    1       26.489 -25.270  13.867  0.00  0.00    +0.002 C 
ATOM     12  C   LIG    1       27.101 -26.107  12.948  0.00  0.00    +0.002 C 
ATOM     13  C   LIG    1       26.403 -27.192  12.399  0.00  0.00    +0.028 C 
ATOM     14  N   LIG    1       23.112 -26.696  14.052  0.00  0.00    -0.244 NA
ATOM     15  C   LIG    1       22.118 -29.781  12.468  0.00  0.00    +0.057 C 
ENDROOT
BRANCH   7  16
ATOM     16  C   LIG    1       24.894 -29.606  11.344  0.00  0.00    +0.047 A 
ATOM     17  C   LIG    1       25.471 -30.832  11.736  0.00  0.00    +0.027 A 
ATOM     18  C   LIG    1       26.043 -31.721  10.815  0.00  0.00    +0.022 A 
ATOM     19  C   LIG    1       25.959 -31.449   9.456  0.00  0.00    +0.041 A 
ATOM     20 CL   LIG    1       26.599 -32.566   8.316  0.00  0.00    -0.084 Cl
ATOM     21  C   LIG    1       25.354 -30.276   9.022  0.00  0.00    +0.022 A 
ATOM     22  C   LIG    1       24.875 -29.343   9.957  0.00  0.00    +0.027 A 
ENDBRANCH   7  16
BRANCH   1  24
ATOM     23  C   LIG    1       20.679 -32.594  11.520  0.00  0.00    +0.032 C 
ATOM     24  C   LIG    1       20.221 -31.296  10.870  0.00  0.00    +0.100 C 
ATOM     25  C   LIG    1       19.057 -31.545   9.917  0.00  0.00    +0.032 C 
ENDBRANCH   1  24
BRANCH   3  26
ATOM     26  N   LIG    1       18.763 -28.621  13.811  0.00  0.00    -0.313 N 
ATOM     27  H   LIG    1       18.281 -28.205  13.026  0.00  0.00    +0.152 HD
BRANCH  26  28
ATOM     28  C   LIG    1       18.073 -29.803  14.206  0.00  0.00    +0.031 A 
ATOM     29  C   LIG    1       16.801 -30.047  13.655  0.00  0.00    +0.024 A 
ATOM     30  C   LIG    1       16.090 -31.211  13.974  0.00  0.00    +0.022 A 
ATOM     31  C   LIG    1       16.623 -32.119  14.883  0.00  0.00    +0.041 A 
ATOM     32 CL   LIG    1       15.775 -33.571  15.248  0.00  0.00    -0.084 Cl
ATOM     33  C   LIG    1       17.842 -31.856  15.500  0.00  0.00    +0.022 A 
ATOM     34  C   LIG    1       18.551 -30.694  15.175  0.00  0.00    +0.024 A 
ENDBRANCH  26  28
ENDBRANCH   3  26
TORSDOF 4
ENDMDL
