MODEL 1
REMARK VINA RESULT:      -9.1      0.000      0.000
REMARK  Name = *****
REMARK                            x       y       z     vdW  Elec       q    Type
REMARK                         _______ _______ _______ _____ _____    ______ ____
ROOT
ATOM      1  N   LIG    1       25.133 -25.492   5.575  0.00  0.00    -0.296 NA
ATOM      2  C   LIG    1       24.217 -24.449   5.066  0.00  0.00    +0.100 C 
ATOM      3  C   LIG    1       23.797 -23.385   6.112  0.00  0.00    +0.100 C 
ATOM      4  N   LIG    1       24.923 -22.699   6.801  0.00  0.00    -0.289 NA
ATOM      5  C   LIG    1       25.844 -23.752   7.294  0.00  0.00    +0.100 C 
ATOM      6  C   LIG    1       26.262 -24.821   6.256  0.00  0.00    +0.100 C 
ENDROOT
BRANCH   1   7
ATOM      7  C   LIG    1       24.458 -26.442   6.476  0.00  0.00    +0.112 C 
BRANCH   7   8
ATOM      8  C   LIG    1       25.119 -27.791   6.484  0.00  0.00    -0.011 C 
ATOM      9  C   LIG    1       24.489 -28.980   6.375  0.00  0.00    +0.005 C 
BRANCH   9  10
ATOM     10  C   LIG    1       25.214 -30.260   6.417  0.00  0.00    -0.025 A 
ATOM     11  C   LIG    1       25.529 -30.843   7.654  0.00  0.00    +0.008 A 
ATOM     12  C   LIG    1       26.235 -32.050   7.707  0.00  0.00    +0.001 A 
ATOM     13  C   LIG    1       26.617 -32.694   6.533  0.00  0.00    +0.000 A 
ATOM     14  C   LIG    1       26.292 -32.134   5.300  0.00  0.00    +0.001 A 
ATOM     15  C   LIG    1       25.587 -30.934   5.246  0.00  0.00    +0.008 A 
ENDBRANCH   9  10
ENDBRANCH   7   8
ENDBRANCH   1   7
BRANCH   4  16
ATOM     16  C   LIG    1       25.585 -21.680   5.924  0.00  0.00    +0.117 C 
BRANCH  16  17
ATOM     17  C   LIG    1       26.717 -20.885   6.600  0.00  0.00    -0.026 A 
ATOM     18  C   LIG    1       26.767 -20.669   7.989  0.00  0.00    +0.005 A 
ATOM     19  C   LIG    1       27.845 -20.001   8.573  0.00  0.00    +0.000 A 
ATOM     20  C   LIG    1       28.867 -19.492   7.775  0.00  0.00    +0.000 A 
ATOM     21  C   LIG    1       28.806 -19.640   6.392  0.00  0.00    +0.000 A 
ATOM     22  C   LIG    1       27.740 -20.332   5.808  0.00  0.00    +0.005 A 
ENDBRANCH  16  17
BRANCH  16  23
ATOM     23  C   LIG    1       24.568 -20.703   5.308  0.00  0.00    -0.026 A 
ATOM     24  C   LIG    1       24.785 -20.122   4.047  0.00  0.00    +0.005 A 
ATOM     25  C   LIG    1       23.883 -19.195   3.520  0.00  0.00    +0.000 A 
ATOM     26  C   LIG    1       22.749 -18.834   4.246  0.00  0.00    +0.000 A 
ATOM     27  C   LIG    1       22.510 -19.410   5.491  0.00  0.00    +0.000 A 
ATOM     28  C   LIG    1       23.409 -20.342   6.018  0.00  0.00    +0.005 A 
ENDBRANCH  16  23
ENDBRANCH   4  16
TORSDOF 6
ENDMDL
MODEL 2
REMARK VINA RESULT:      -8.8      1.569      2.047
REMARK  Name = *****
REMARK                            x       y       z     vdW  Elec       q    Type
REMARK                         _______ _______ _______ _____ _____    ______ ____
ROOT
ATOM      1  N   LIG    1       25.574 -25.530   5.425  0.00  0.00    -0.296 NA
ATOM      2  C   LIG    1       24.743 -24.632   4.594  0.00  0.00    +0.100 C 
ATOM      3  C   LIG    1       23.852 -23.647   5.393  0.00  0.00    +0.100 C 
ATOM      4  N   LIG    1       24.573 -22.804   6.383  0.00  0.00    -0.289 NA
ATOM      5  C   LIG    1       25.416 -23.711   7.201  0.00  0.00    +0.100 C 
ATOM      6  C   LIG    1       26.304 -24.701   6.410  0.00  0.00    +0.100 C 
ENDROOT
BRANCH   1   7
ATOM      7  C   LIG    1       24.780 -26.574   6.094  0.00  0.00    +0.112 C 
BRANCH   7   8
ATOM      8  C   LIG    1       25.525 -27.223   7.226  0.00  0.00    -0.011 C 
ATOM      9  C   LIG    1       25.382 -28.501   7.636  0.00  0.00    +0.005 C 
BRANCH   9  10
ATOM     10  C   LIG    1       26.137 -29.050   8.773  0.00  0.00    -0.025 A 
ATOM     11  C   LIG    1       26.620 -28.189   9.771  0.00  0.00    +0.008 A 
ATOM     12  C   LIG    1       27.355 -28.696  10.847  0.00  0.00    +0.001 A 
ATOM     13  C   LIG    1       27.602 -30.063  10.949  0.00  0.00    +0.000 A 
ATOM     14  C   LIG    1       27.111 -30.929   9.975  0.00  0.00    +0.001 A 
ATOM     15  C   LIG    1       26.376 -30.425   8.904  0.00  0.00    +0.008 A 
ENDBRANCH   9  10
ENDBRANCH   7   8
ENDBRANCH   1   7
BRANCH   4  16
ATOM     16  C   LIG    1       25.339 -21.695   5.728  0.00  0.00    +0.117 C 
BRANCH  16  17
ATOM     17  C   LIG    1       26.385 -21.014   6.630  0.00  0.00    -0.026 A 
ATOM     18  C   LIG    1       26.136 -20.702   7.979  0.00  0.00    +0.005 A 
ATOM     19  C   LIG    1       27.133 -20.147   8.784  0.00  0.00    +0.000 A 
ATOM     20  C   LIG    1       28.380 -19.845   8.242  0.00  0.00    +0.000 A 
ATOM     21  C   LIG    1       28.627 -20.088   6.894  0.00  0.00    +0.000 A 
ATOM     22  C   LIG    1       27.639 -20.669   6.094  0.00  0.00    +0.005 A 
ENDBRANCH  16  17
BRANCH  16  23
ATOM     23  C   LIG    1       24.406 -20.629   5.129  0.00  0.00    -0.026 A 
ATOM     24  C   LIG    1       24.747 -19.938   3.953  0.00  0.00    +0.005 A 
ATOM     25  C   LIG    1       23.920 -18.934   3.446  0.00  0.00    +0.000 A 
ATOM     26  C   LIG    1       22.737 -18.604   4.106  0.00  0.00    +0.000 A 
ATOM     27  C   LIG    1       22.376 -19.287   5.265  0.00  0.00    +0.000 A 
ATOM     28  C   LIG    1       23.200 -20.296   5.772  0.00  0.00    +0.005 A 
ENDBRANCH  16  23
ENDBRANCH   4  16
TORSDOF 6
ENDMDL
MODEL 3
REMARK VINA RESULT:      -8.6      1.073      3.749
REMARK  Name = *****
REMARK                            x       y       z     vdW  Elec       q    Type
REMARK                         _______ _______ _______ _____ _____    ______ ____
ROOT
ATOM      1  N   LIG    1       24.059 -25.105   6.672  0.00  0.00    -0.296 NA
ATOM      2  C   LIG    1       25.245 -24.495   7.311  0.00  0.00    +0.100 C 
ATOM      3  C   LIG    1       26.214 -23.781   6.336  0.00  0.00    +0.100 C 
ATOM      4  N   LIG    1       25.590 -22.749   5.467  0.00  0.00    -0.289 NA
ATOM      5  C   LIG    1       24.393 -23.365   4.843  0.00  0.00    +0.100 C 
ATOM      6  C   LIG    1       23.424 -24.083   5.811  0.00  0.00    +0.100 C 
ENDROOT
BRANCH   1   7
ATOM      7  C   LIG    1       24.395 -26.315   5.902  0.00  0.00    +0.112 C 
BRANCH   7   8
ATOM      8  C   LIG    1       25.140 -27.327   6.724  0.00  0.00    -0.011 C 
ATOM      9  C   LIG    1       24.675 -28.538   7.098  0.00  0.00    +0.005 C 
BRANCH   9  10
ATOM     10  C   LIG    1       25.466 -29.461   7.928  0.00  0.00    -0.025 A 
ATOM     11  C   LIG    1       26.163 -28.972   9.044  0.00  0.00    +0.008 A 
ATOM     12  C   LIG    1       26.933 -29.836   9.830  0.00  0.00    +0.001 A 
ATOM     13  C   LIG    1       27.005 -31.193   9.523  0.00  0.00    +0.000 A 
ATOM     14  C   LIG    1       26.301 -31.691   8.429  0.00  0.00    +0.001 A 
ATOM     15  C   LIG    1       25.531 -30.832   7.647  0.00  0.00    +0.008 A 
ENDBRANCH   9  10
ENDBRANCH   7   8
ENDBRANCH   1   7
BRANCH   4  16
ATOM     16  C   LIG    1       25.297 -21.484   6.215  0.00  0.00    +0.117 C 
BRANCH  16  17
ATOM     17  C   LIG    1       24.362 -20.504   5.483  0.00  0.00    -0.026 A 
ATOM     18  C   LIG    1       23.075 -20.186   5.954  0.00  0.00    +0.005 A 
ATOM     19  C   LIG    1       22.283 -19.241   5.299  0.00  0.00    +0.000 A 
ATOM     20  C   LIG    1       22.740 -18.635   4.131  0.00  0.00    +0.000 A 
ATOM     21  C   LIG    1       23.986 -18.981   3.613  0.00  0.00    +0.000 A 
ATOM     22  C   LIG    1       24.791 -19.907   4.283  0.00  0.00    +0.005 A 
ENDBRANCH  16  17
BRANCH  16  23
ATOM     23  C   LIG    1       26.584 -20.751   6.631  0.00  0.00    -0.026 A 
ATOM     24  C   LIG    1       27.503 -20.287   5.674  0.00  0.00    +0.005 A 
ATOM     25  C   LIG    1       28.694 -19.672   6.063  0.00  0.00    +0.000 A 
ATOM     26  C   LIG    1       28.987 -19.510   7.417  0.00  0.00    +0.000 A 
ATOM     27  C   LIG    1       28.082 -19.951   8.379  0.00  0.00    +0.000 A 
ATOM     28  C   LIG    1       26.887 -20.562   7.992  0.00  0.00    +0.005 A 
ENDBRANCH  16  23
ENDBRANCH   4  16
TORSDOF 6
ENDMDL
MODEL 4
REMARK VINA RESULT:      -8.6      3.210      9.361
REMARK  Name = *****
REMARK                            x       y       z     vdW  Elec       q    Type
REMARK                         _______ _______ _______ _____ _____    ______ ____
ROOT
ATOM      1  N   LIG    1       28.631 -20.230   8.356  0.00  0.00    -0.296 NA
ATOM      2  C   LIG    1       27.690 -19.444   7.528  0.00  0.00    +0.100 C 
ATOM      3  C   LIG    1       27.423 -20.026   6.117  0.00  0.00    +0.100 C 
ATOM      4  N   LIG    1       26.970 -21.442   6.093  0.00  0.00    -0.289 NA
ATOM      5  C   LIG    1       27.910 -22.219   6.938  0.00  0.00    +0.100 C 
ATOM      6  C   LIG    1       28.184 -21.641   8.346  0.00  0.00    +0.100 C 
ENDROOT
BRANCH   1   7
ATOM      7  C   LIG    1       30.023 -20.110   7.892  0.00  0.00    +0.112 C 
BRANCH   7   8
ATOM      8  C   LIG    1       30.835 -19.184   8.752  0.00  0.00    -0.011 C 
ATOM      9  C   LIG    1       30.394 -18.038   9.314  0.00  0.00    +0.005 C 
BRANCH   9  10
ATOM     10  C   LIG    1       31.267 -17.175  10.125  0.00  0.00    -0.025 A 
ATOM     11  C   LIG    1       32.176 -16.312   9.493  0.00  0.00    +0.008 A 
ATOM     12  C   LIG    1       33.025 -15.500  10.253  0.00  0.00    +0.001 A 
ATOM     13  C   LIG    1       32.965 -15.526  11.644  0.00  0.00    +0.000 A 
ATOM     14  C   LIG    1       32.053 -16.364  12.281  0.00  0.00    +0.001 A 
ATOM     15  C   LIG    1       31.205 -17.171  11.525  0.00  0.00    +0.008 A 
ENDBRANCH   9  10
ENDBRANCH   7   8
ENDBRANCH   1   7
BRANCH   4  16
ATOM     16  C   LIG    1       25.535 -21.582   6.500  0.00  0.00    +0.117 C 
BRANCH  16  17
ATOM     17  C   LIG    1       25.008 -23.029   6.517  0.00  0.00    -0.026 A 
ATOM     18  C   LIG    1       23.637 -23.336   6.589  0.00  0.00    +0.005 A 
ATOM     19  C   LIG    1       23.195 -24.660   6.533  0.00  0.00    +0.000 A 
ATOM     20  C   LIG    1       24.115 -25.702   6.458  0.00  0.00    +0.000 A 
ATOM     21  C   LIG    1       25.480 -25.422   6.448  0.00  0.00    +0.000 A 
ATOM     22  C   LIG    1       25.923 -24.097   6.477  0.00  0.00    +0.005 A 
ENDBRANCH  16  17
BRANCH  16  23
ATOM     23  C   LIG    1       24.605 -20.707   5.642  0.00  0.00    -0.026 A 
ATOM     24  C   LIG    1       24.992 -20.265   4.364  0.00  0.00    +0.005 A 
ATOM     25  C   LIG    1       24.165 -19.427   3.614  0.00  0.00    +0.000 A 
ATOM     26  C   LIG    1       22.936 -19.016   4.130  0.00  0.00    +0.000 A 
ATOM     27  C   LIG    1       22.530 -19.454   5.388  0.00  0.00    +0.000 A 
ATOM     28  C   LIG    1       23.355 -20.297   6.138  0.00  0.00    +0.005 A 
ENDBRANCH  16  23
ENDBRANCH   4  16
TORSDOF 6
ENDMDL
MODEL 5
REMARK VINA RESULT:      -8.2      1.226      3.767
REMARK  Name = *****
REMARK                            x       y       z     vdW  Elec       q    Type
REMARK                         _______ _______ _______ _____ _____    ______ ____
ROOT
ATOM      1  N   LIG    1       24.430 -25.350   6.706  0.00  0.00    -0.296 NA
ATOM      2  C   LIG    1       25.581 -24.620   7.280  0.00  0.00    +0.100 C 
ATOM      3  C   LIG    1       26.399 -23.790   6.259  0.00  0.00    +0.100 C 
ATOM      4  N   LIG    1       25.608 -22.821   5.454  0.00  0.00    -0.289 NA
ATOM      5  C   LIG    1       24.448 -23.559   4.895  0.00  0.00    +0.100 C 
ATOM      6  C   LIG    1       23.630 -24.395   5.909  0.00  0.00    +0.100 C 
ENDROOT
BRANCH   1   7
ATOM      7  C   LIG    1       24.846 -26.504   5.890  0.00  0.00    +0.112 C 
BRANCH   7   8
ATOM      8  C   LIG    1       24.306 -27.803   6.419  0.00  0.00    -0.011 C 
ATOM      9  C   LIG    1       24.969 -28.670   7.214  0.00  0.00    +0.005 C 
BRANCH   9  10
ATOM     10  C   LIG    1       24.370 -29.935   7.667  0.00  0.00    -0.025 A 
ATOM     11  C   LIG    1       23.900 -30.052   8.984  0.00  0.00    +0.008 A 
ATOM     12  C   LIG    1       23.346 -31.256   9.433  0.00  0.00    +0.001 A 
ATOM     13  C   LIG    1       23.238 -32.345   8.572  0.00  0.00    +0.000 A 
ATOM     14  C   LIG    1       23.683 -32.233   7.257  0.00  0.00    +0.001 A 
ATOM     15  C   LIG    1       24.233 -31.034   6.808  0.00  0.00    +0.008 A 
ENDBRANCH   9  10
ENDBRANCH   7   8
ENDBRANCH   1   7
BRANCH   4  16
ATOM     16  C   LIG    1       25.227 -21.607   6.246  0.00  0.00    +0.117 C 
BRANCH  16  17
ATOM     17  C   LIG    1       24.311 -20.616   5.504  0.00  0.00    -0.026 A 
ATOM     18  C   LIG    1       23.037 -20.257   5.981  0.00  0.00    +0.005 A 
ATOM     19  C   LIG    1       22.264 -19.303   5.317  0.00  0.00    +0.000 A 
ATOM     20  C   LIG    1       22.727 -18.728   4.135  0.00  0.00    +0.000 A 
ATOM     21  C   LIG    1       23.958 -19.115   3.612  0.00  0.00    +0.000 A 
ATOM     22  C   LIG    1       24.745 -20.050   4.291  0.00  0.00    +0.005 A 
ENDBRANCH  16  17
BRANCH  16  23
ATOM     23  C   LIG    1       26.460 -20.863   6.785  0.00  0.00    -0.026 A 
ATOM     24  C   LIG    1       27.452 -20.368   5.919  0.00  0.00    +0.005 A 
ATOM     25  C   LIG    1       28.594 -19.742   6.421  0.00  0.00    +0.000 A 
ATOM     26  C   LIG    1       28.764 -19.599   7.797  0.00  0.00    +0.000 A 
ATOM     27  C   LIG    1       27.787 -20.071   8.670  0.00  0.00    +0.000 A 
ATOM     28  C   LIG    1       26.640 -20.694   8.170  0.00  0.00    +0.005 A 
ENDBRANCH  16  23
ENDBRANCH   4  16
TORSDOF 6
ENDMDL
MODEL 6
REMARK VINA RESULT:      -7.7      2.366     10.641
REMARK  Name = *****
REMARK                            x       y       z     vdW  Elec       q    Type
REMARK                         _______ _______ _______ _____ _____    ______ ____
ROOT
ATOM      1  N   LIG    1       25.341 -27.421   5.924  0.00  0.00    -0.296 NA
ATOM      2  C   LIG    1       25.516 -28.010   7.268  0.00  0.00    +0.100 C 
ATOM      3  C   LIG    1       24.370 -28.950   7.720  0.00  0.00    +0.100 C 
ATOM      4  N   LIG    1       24.055 -30.059   6.780  0.00  0.00    -0.289 NA
ATOM      5  C   LIG    1       23.897 -29.460   5.432  0.00  0.00    +0.100 C 
ATOM      6  C   LIG    1       25.035 -28.516   4.977  0.00  0.00    +0.100 C 
ENDROOT
BRANCH   1   7
ATOM      7  C   LIG    1       24.294 -26.386   5.895  0.00  0.00    +0.112 C 
BRANCH   7   8
ATOM      8  C   LIG    1       24.698 -25.142   6.634  0.00  0.00    -0.011 C 
ATOM      9  C   LIG    1       24.978 -23.945   6.074  0.00  0.00    +0.005 C 
BRANCH   9  10
ATOM     10  C   LIG    1       25.392 -22.782   6.873  0.00  0.00    -0.025 A 
ATOM     11  C   LIG    1       24.428 -21.866   7.324  0.00  0.00    +0.008 A 
ATOM     12  C   LIG    1       24.810 -20.746   8.069  0.00  0.00    +0.001 A 
ATOM     13  C   LIG    1       26.150 -20.536   8.387  0.00  0.00    +0.000 A 
ATOM     14  C   LIG    1       27.112 -21.449   7.962  0.00  0.00    +0.001 A 
ATOM     15  C   LIG    1       26.732 -22.566   7.222  0.00  0.00    +0.008 A 
ENDBRANCH   9  10
ENDBRANCH   7   8
ENDBRANCH   1   7
BRANCH   4  16
ATOM     16  C   LIG    1       25.074 -31.155   6.839  0.00  0.00    +0.117 C 
BRANCH  16  17
ATOM     17  C   LIG    1       25.105 -32.073   5.602  0.00  0.00    -0.026 A 
ATOM     18  C   LIG    1       24.074 -32.983   5.307  0.00  0.00    +0.005 A 
ATOM     19  C   LIG    1       24.106 -33.749   4.140  0.00  0.00    +0.000 A 
ATOM     20  C   LIG    1       25.193 -33.659   3.273  0.00  0.00    +0.000 A 
ATOM     21  C   LIG    1       26.253 -32.809   3.579  0.00  0.00    +0.000 A 
ATOM     22  C   LIG    1       26.210 -32.021   4.733  0.00  0.00    +0.005 A 
ENDBRANCH  16  17
BRANCH  16  23
ATOM     23  C   LIG    1       24.927 -32.010   8.109  0.00  0.00    -0.026 A 
ATOM     24  C   LIG    1       23.682 -32.165   8.745  0.00  0.00    +0.005 A 
ATOM     25  C   LIG    1       23.568 -32.899   9.927  0.00  0.00    +0.000 A 
ATOM     26  C   LIG    1       24.696 -33.490  10.494  0.00  0.00    +0.000 A 
ATOM     27  C   LIG    1       25.935 -33.358   9.871  0.00  0.00    +0.000 A 
ATOM     28  C   LIG    1       26.051 -32.629   8.684  0.00  0.00    +0.005 A 
ENDBRANCH  16  23
ENDBRANCH   4  16
TORSDOF 6
ENDMDL
MODEL 7
REMARK VINA RESULT:      -7.7      2.390     10.113
REMARK  Name = *****
REMARK                            x       y       z     vdW  Elec       q    Type
REMARK                         _______ _______ _______ _____ _____    ______ ____
ROOT
ATOM      1  N   LIG    1       25.985 -27.186   5.183  0.00  0.00    -0.296 NA
ATOM      2  C   LIG    1       26.162 -27.350   6.642  0.00  0.00    +0.100 C 
ATOM      3  C   LIG    1       24.898 -27.828   7.400  0.00  0.00    +0.100 C 
ATOM      4  N   LIG    1       24.283 -29.077   6.878  0.00  0.00    -0.289 NA
ATOM      5  C   LIG    1       24.124 -28.909   5.412  0.00  0.00    +0.100 C 
ATOM      6  C   LIG    1       25.381 -28.427   4.650  0.00  0.00    +0.100 C 
ENDROOT
BRANCH   1   7
ATOM      7  C   LIG    1       25.167 -26.009   4.844  0.00  0.00    +0.112 C 
BRANCH   7   8
ATOM      8  C   LIG    1       25.533 -24.803   5.662  0.00  0.00    -0.011 C 
ATOM      9  C   LIG    1       24.664 -23.950   6.244  0.00  0.00    +0.005 C 
BRANCH   9  10
ATOM     10  C   LIG    1       25.111 -22.776   7.010  0.00  0.00    -0.025 A 
ATOM     11  C   LIG    1       26.457 -22.663   7.391  0.00  0.00    +0.008 A 
ATOM     12  C   LIG    1       26.891 -21.561   8.136  0.00  0.00    +0.001 A 
ATOM     13  C   LIG    1       25.995 -20.555   8.492  0.00  0.00    +0.000 A 
ATOM     14  C   LIG    1       24.661 -20.648   8.102  0.00  0.00    +0.001 A 
ATOM     15  C   LIG    1       24.229 -21.744   7.358  0.00  0.00    +0.008 A 
ENDBRANCH   9  10
ENDBRANCH   7   8
ENDBRANCH   1   7
BRANCH   4  16
ATOM     16  C   LIG    1       25.064 -30.296   7.266  0.00  0.00    +0.117 C 
BRANCH  16  17
ATOM     17  C   LIG    1       24.857 -31.513   6.345  0.00  0.00    -0.026 A 
ATOM     18  C   LIG    1       23.630 -32.192   6.250  0.00  0.00    +0.005 A 
ATOM     19  C   LIG    1       23.462 -33.250   5.353  0.00  0.00    +0.000 A 
ATOM     20  C   LIG    1       24.533 -33.681   4.574  0.00  0.00    +0.000 A 
ATOM     21  C   LIG    1       25.774 -33.063   4.698  0.00  0.00    +0.000 A 
ATOM     22  C   LIG    1       25.936 -31.986   5.575  0.00  0.00    +0.005 A 
ENDBRANCH  16  17
BRANCH  16  23
ATOM     23  C   LIG    1       24.804 -30.705   8.725  0.00  0.00    -0.026 A 
ATOM     24  C   LIG    1       25.733 -31.478   9.444  0.00  0.00    +0.005 A 
ATOM     25  C   LIG    1       25.463 -31.890  10.750  0.00  0.00    +0.000 A 
ATOM     26  C   LIG    1       24.261 -31.537  11.361  0.00  0.00    +0.000 A 
ATOM     27  C   LIG    1       23.334 -30.760  10.669  0.00  0.00    +0.000 A 
ATOM     28  C   LIG    1       23.604 -30.342   9.363  0.00  0.00    +0.005 A 
ENDBRANCH  16  23
ENDBRANCH   4  16
TORSDOF 6
ENDMDL
MODEL 8
REMARK VINA RESULT:      -7.6      2.024     10.760
REMARK  Name = *****
REMARK                            x       y       z     vdW  Elec       q    Type
REMARK                         _______ _______ _______ _____ _____    ______ ____
ROOT
ATOM      1  N   LIG    1       25.377 -27.429   6.112  0.00  0.00    -0.296 NA
ATOM      2  C   LIG    1       25.667 -28.081   7.407  0.00  0.00    +0.100 C 
ATOM      3  C   LIG    1       24.552 -29.025   7.923  0.00  0.00    +0.100 C 
ATOM      4  N   LIG    1       24.132 -30.086   6.970  0.00  0.00    -0.289 NA
ATOM      5  C   LIG    1       23.859 -29.425   5.670  0.00  0.00    +0.100 C 
ATOM      6  C   LIG    1       24.966 -28.476   5.151  0.00  0.00    +0.100 C 
ENDROOT
BRANCH   1   7
ATOM      7  C   LIG    1       24.350 -26.380   6.227  0.00  0.00    +0.112 C 
BRANCH   7   8
ATOM      8  C   LIG    1       24.889 -25.014   5.909  0.00  0.00    -0.011 C 
ATOM      9  C   LIG    1       24.649 -23.887   6.612  0.00  0.00    +0.005 C 
BRANCH   9  10
ATOM     10  C   LIG    1       25.200 -22.582   6.215  0.00  0.00    -0.025 A 
ATOM     11  C   LIG    1       24.636 -21.887   5.132  0.00  0.00    +0.008 A 
ATOM     12  C   LIG    1       25.162 -20.654   4.732  0.00  0.00    +0.001 A 
ATOM     13  C   LIG    1       26.240 -20.094   5.414  0.00  0.00    +0.000 A 
ATOM     14  C   LIG    1       26.793 -20.765   6.502  0.00  0.00    +0.001 A 
ATOM     15  C   LIG    1       26.268 -21.992   6.903  0.00  0.00    +0.008 A 
ENDBRANCH   9  10
ENDBRANCH   7   8
ENDBRANCH   1   7
BRANCH   4  16
ATOM     16  C   LIG    1       25.133 -31.197   6.884  0.00  0.00    +0.117 C 
BRANCH  16  17
ATOM     17  C   LIG    1       24.989 -32.100   5.645  0.00  0.00    -0.026 A 
ATOM     18  C   LIG    1       23.919 -32.999   5.482  0.00  0.00    +0.005 A 
ATOM     19  C   LIG    1       23.786 -33.752   4.313  0.00  0.00    +0.000 A 
ATOM     20  C   LIG    1       24.747 -33.660   3.309  0.00  0.00    +0.000 A 
ATOM     21  C   LIG    1       25.847 -32.823   3.478  0.00  0.00    +0.000 A 
ATOM     22  C   LIG    1       25.967 -32.048   4.636  0.00  0.00    +0.005 A 
ENDBRANCH  16  17
BRANCH  16  23
ATOM     23  C   LIG    1       25.139 -32.065   8.154  0.00  0.00    -0.026 A 
ATOM     24  C   LIG    1       26.265 -32.828   8.512  0.00  0.00    +0.005 A 
ATOM     25  C   LIG    1       26.242 -33.654   9.637  0.00  0.00    +0.000 A 
ATOM     26  C   LIG    1       25.094 -33.731  10.424  0.00  0.00    +0.000 A 
ATOM     27  C   LIG    1       23.974 -32.971  10.093  0.00  0.00    +0.000 A 
ATOM     28  C   LIG    1       23.996 -32.139   8.970  0.00  0.00    +0.005 A 
ENDBRANCH  16  23
ENDBRANCH   4  16
TORSDOF 6
ENDMDL
MODEL 9
REMARK VINA RESULT:      -7.3      2.285      9.990
REMARK  Name = *****
REMARK                            x       y       z     vdW  Elec       q    Type
REMARK                         _______ _______ _______ _____ _____    ______ ____
ROOT
ATOM      1  N   LIG    1       26.055 -27.232   5.001  0.00  0.00    -0.296 NA
ATOM      2  C   LIG    1       26.538 -27.227   6.399  0.00  0.00    +0.100 C 
ATOM      3  C   LIG    1       25.455 -27.539   7.463  0.00  0.00    +0.100 C 
ATOM      4  N   LIG    1       24.708 -28.807   7.249  0.00  0.00    -0.289 NA
ATOM      5  C   LIG    1       24.241 -28.810   5.841  0.00  0.00    +0.100 C 
ATOM      6  C   LIG    1       25.317 -28.494   4.775  0.00  0.00    +0.100 C 
ENDROOT
BRANCH   1   7
ATOM      7  C   LIG    1       25.216 -26.062   4.692  0.00  0.00    +0.112 C 
BRANCH   7   8
ATOM      8  C   LIG    1       25.415 -24.940   5.670  0.00  0.00    -0.011 C 
ATOM      9  C   LIG    1       24.994 -23.667   5.510  0.00  0.00    +0.005 C 
BRANCH   9  10
ATOM     10  C   LIG    1       25.255 -22.622   6.512  0.00  0.00    -0.025 A 
ATOM     11  C   LIG    1       24.295 -21.624   6.745  0.00  0.00    +0.008 A 
ATOM     12  C   LIG    1       24.539 -20.614   7.681  0.00  0.00    +0.001 A 
ATOM     13  C   LIG    1       25.729 -20.597   8.406  0.00  0.00    +0.000 A 
ATOM     14  C   LIG    1       26.679 -21.594   8.197  0.00  0.00    +0.001 A 
ATOM     15  C   LIG    1       26.436 -22.602   7.266  0.00  0.00    +0.008 A 
ENDBRANCH   9  10
ENDBRANCH   7   8
ENDBRANCH   1   7
BRANCH   4  16
ATOM     16  C   LIG    1       25.521 -30.011   7.619  0.00  0.00    +0.117 C 
BRANCH  16  17
ATOM     17  C   LIG    1       24.979 -31.346   7.077  0.00  0.00    -0.026 A 
ATOM     18  C   LIG    1       23.749 -31.889   7.490  0.00  0.00    +0.005 A 
ATOM     19  C   LIG    1       23.259 -33.068   6.925  0.00  0.00    +0.000 A 
ATOM     20  C   LIG    1       24.013 -33.754   5.976  0.00  0.00    +0.000 A 
ATOM     21  C   LIG    1       25.261 -33.266   5.598  0.00  0.00    +0.000 A 
ATOM     22  C   LIG    1       25.741 -32.071   6.143  0.00  0.00    +0.005 A 
ENDBRANCH  16  17
BRANCH  16  23
ATOM     23  C   LIG    1       25.728 -30.119   9.139  0.00  0.00    -0.026 A 
ATOM     24  C   LIG    1       24.640 -30.075  10.030  0.00  0.00    +0.005 A 
ATOM     25  C   LIG    1       24.842 -30.120  11.410  0.00  0.00    +0.000 A 
ATOM     26  C   LIG    1       26.135 -30.211  11.925  0.00  0.00    +0.000 A 
ATOM     27  C   LIG    1       27.224 -30.269  11.058  0.00  0.00    +0.000 A 
ATOM     28  C   LIG    1       27.024 -30.230   9.675  0.00  0.00    +0.005 A 
ENDBRANCH  16  23
ENDBRANCH   4  16
TORSDOF 6
ENDMDL
