MODEL 1
REMARK VINA RESULT:      -5.7      0.000      0.000
REMARK  Name = *****
REMARK                            x       y       z     vdW  Elec       q    Type
REMARK                         _______ _______ _______ _____ _____    ______ ____
ROOT
ATOM      1  C   LIG    1       27.081 -20.475   6.484  0.00  0.00    +0.059 C 
ATOM      2  C   LIG    1       26.033 -21.137   5.614  0.00  0.00    +0.037 C 
ATOM      3  C   LIG    1       26.200 -21.539   7.061  0.00  0.00    +0.029 C 
ENDROOT
BRANCH   2   4
ATOM      4  C   LIG    1       24.813 -20.362   5.178  0.00  0.00    -0.043 A 
ATOM      5  C   LIG    1       23.613 -20.418   5.905  0.00  0.00    +0.004 A 
ATOM      6  C   LIG    1       22.477 -19.712   5.496  0.00  0.00    +0.000 A 
ATOM      7  C   LIG    1       22.519 -18.938   4.341  0.00  0.00    +0.000 A 
ATOM      8  C   LIG    1       23.692 -18.873   3.594  0.00  0.00    +0.000 A 
ATOM      9  C   LIG    1       24.824 -19.581   4.009  0.00  0.00    +0.004 A 
ENDBRANCH   2   4
BRANCH   1  10
ATOM     10  N   LIG    1       28.494 -20.779   6.257  0.00  0.00    -0.327 NA
ATOM     11  H   LIG    1       28.690 -21.755   6.473  0.00  0.00    +0.118 HD
ATOM     12  H   LIG    1       28.734 -20.652   5.274  0.00  0.00    +0.118 HD
ENDBRANCH   1  10
TORSDOF 2
ENDMDL
MODEL 2
REMARK VINA RESULT:      -5.7      0.030      1.521
REMARK  Name = *****
REMARK                            x       y       z     vdW  Elec       q    Type
REMARK                         _______ _______ _______ _____ _____    ______ ____
ROOT
ATOM      1  C   LIG    1       27.045 -20.459   6.481  0.00  0.00    +0.059 C 
ATOM      2  C   LIG    1       26.009 -21.137   5.610  0.00  0.00    +0.037 C 
ATOM      3  C   LIG    1       26.169 -21.525   7.062  0.00  0.00    +0.029 C 
ENDROOT
BRANCH   2   4
ATOM      4  C   LIG    1       24.785 -20.375   5.160  0.00  0.00    -0.043 A 
ATOM      5  C   LIG    1       24.807 -19.571   4.008  0.00  0.00    +0.004 A 
ATOM      6  C   LIG    1       23.680 -18.854   3.596  0.00  0.00    +0.000 A 
ATOM      7  C   LIG    1       22.504 -18.922   4.337  0.00  0.00    +0.000 A 
ATOM      8  C   LIG    1       22.456 -19.702   5.489  0.00  0.00    +0.000 A 
ATOM      9  C   LIG    1       23.588 -20.416   5.895  0.00  0.00    +0.004 A 
ENDBRANCH   2   4
BRANCH   1  10
ATOM     10  N   LIG    1       28.462 -20.753   6.266  0.00  0.00    -0.327 NA
ATOM     11  H   LIG    1       28.955 -19.922   5.943  0.00  0.00    +0.118 HD
ATOM     12  H   LIG    1       28.908 -21.025   7.142  0.00  0.00    +0.118 HD
ENDBRANCH   1  10
TORSDOF 2
ENDMDL
MODEL 3
REMARK VINA RESULT:      -4.7      2.387      4.585
REMARK  Name = *****
REMARK                            x       y       z     vdW  Elec       q    Type
REMARK                         _______ _______ _______ _____ _____    ______ ____
ROOT
ATOM      1  C   LIG    1       23.124 -19.924   4.947  0.00  0.00    +0.059 C 
ATOM      2  C   LIG    1       24.382 -20.559   4.394  0.00  0.00    +0.037 C 
ATOM      3  C   LIG    1       23.832 -19.285   3.794  0.00  0.00    +0.029 C 
ENDROOT
BRANCH   2   4
ATOM      4  C   LIG    1       25.660 -20.528   5.199  0.00  0.00    -0.043 A 
ATOM      5  C   LIG    1       26.733 -19.699   4.835  0.00  0.00    +0.004 A 
ATOM      6  C   LIG    1       27.923 -19.678   5.570  0.00  0.00    +0.000 A 
ATOM      7  C   LIG    1       28.065 -20.498   6.685  0.00  0.00    +0.000 A 
ATOM      8  C   LIG    1       27.022 -21.338   7.062  0.00  0.00    +0.000 A 
ATOM      9  C   LIG    1       25.835 -21.354   6.323  0.00  0.00    +0.004 A 
ENDBRANCH   2   4
BRANCH   1  10
ATOM     10  N   LIG    1       21.833 -20.571   4.708  0.00  0.00    -0.327 NA
ATOM     11  H   LIG    1       21.606 -21.210   5.469  0.00  0.00    +0.118 HD
ATOM     12  H   LIG    1       21.085 -19.879   4.686  0.00  0.00    +0.118 HD
ENDBRANCH   1  10
TORSDOF 2
ENDMDL
MODEL 4
REMARK VINA RESULT:      -4.5      2.373      4.373
REMARK  Name = *****
REMARK                            x       y       z     vdW  Elec       q    Type
REMARK                         _______ _______ _______ _____ _____    ______ ____
ROOT
ATOM      1  C   LIG    1       23.848 -19.182   4.162  0.00  0.00    +0.059 C 
ATOM      2  C   LIG    1       24.374 -20.488   4.718  0.00  0.00    +0.037 C 
ATOM      3  C   LIG    1       24.256 -20.276   3.226  0.00  0.00    +0.029 C 
ENDROOT
BRANCH   2   4
ATOM      4  C   LIG    1       25.735 -20.537   5.371  0.00  0.00    -0.043 A 
ATOM      5  C   LIG    1       25.999 -21.402   6.446  0.00  0.00    +0.004 A 
ATOM      6  C   LIG    1       27.253 -21.441   7.062  0.00  0.00    +0.000 A 
ATOM      7  C   LIG    1       28.272 -20.605   6.616  0.00  0.00    +0.000 A 
ATOM      8  C   LIG    1       28.036 -19.729   5.560  0.00  0.00    +0.000 A 
ATOM      9  C   LIG    1       26.778 -19.696   4.949  0.00  0.00    +0.004 A 
ENDBRANCH   2   4
BRANCH   1  10
ATOM     10  N   LIG    1       22.425 -18.868   4.300  0.00  0.00    -0.327 NA
ATOM     11  H   LIG    1       21.971 -19.532   4.926  0.00  0.00    +0.118 HD
ATOM     12  H   LIG    1       22.301 -17.949   4.724  0.00  0.00    +0.118 HD
ENDBRANCH   1  10
TORSDOF 2
ENDMDL
MODEL 5
REMARK VINA RESULT:      -4.4      5.852      6.875
REMARK  Name = *****
REMARK                            x       y       z     vdW  Elec       q    Type
REMARK                         _______ _______ _______ _____ _____    ______ ____
ROOT
ATOM      1  C   LIG    1       26.493 -15.985   3.007  0.00  0.00    +0.059 C 
ATOM      2  C   LIG    1       25.997 -14.985   4.030  0.00  0.00    +0.037 C 
ATOM      3  C   LIG    1       27.475 -15.134   3.749  0.00  0.00    +0.029 C 
ENDROOT
BRANCH   2   4
ATOM      4  C   LIG    1       25.260 -13.746   3.580  0.00  0.00    -0.043 A 
ATOM      5  C   LIG    1       24.495 -12.984   4.478  0.00  0.00    +0.004 A 
ATOM      6  C   LIG    1       23.801 -11.844   4.061  0.00  0.00    +0.000 A 
ATOM      7  C   LIG    1       23.853 -11.447   2.729  0.00  0.00    +0.000 A 
ATOM      8  C   LIG    1       24.594 -12.189   1.815  0.00  0.00    +0.000 A 
ATOM      9  C   LIG    1       25.287 -13.328   2.238  0.00  0.00    +0.004 A 
ENDBRANCH   2   4
BRANCH   1  10
ATOM     10  N   LIG    1       26.428 -17.414   3.315  0.00  0.00    -0.327 NA
ATOM     11  H   LIG    1       25.996 -17.927   2.548  0.00  0.00    +0.118 HD
ATOM     12  H   LIG    1       27.365 -17.800   3.422  0.00  0.00    +0.118 HD
ENDBRANCH   1  10
TORSDOF 2
ENDMDL
MODEL 6
REMARK VINA RESULT:      -4.3      5.796      6.986
REMARK  Name = *****
REMARK                            x       y       z     vdW  Elec       q    Type
REMARK                         _______ _______ _______ _____ _____    ______ ____
ROOT
ATOM      1  C   LIG    1       26.318 -16.091   2.975  0.00  0.00    +0.059 C 
ATOM      2  C   LIG    1       25.880 -15.063   3.996  0.00  0.00    +0.037 C 
ATOM      3  C   LIG    1       27.344 -15.257   3.677  0.00  0.00    +0.029 C 
ENDROOT
BRANCH   2   4
ATOM      4  C   LIG    1       25.165 -13.811   3.548  0.00  0.00    -0.043 A 
ATOM      5  C   LIG    1       25.262 -13.346   2.226  0.00  0.00    +0.004 A 
ATOM      6  C   LIG    1       24.613 -12.180   1.812  0.00  0.00    +0.000 A 
ATOM      7  C   LIG    1       23.855 -11.447   2.719  0.00  0.00    +0.000 A 
ATOM      8  C   LIG    1       23.750 -11.877   4.039  0.00  0.00    +0.000 A 
ATOM      9  C   LIG    1       24.402 -13.045   4.447  0.00  0.00    +0.004 A 
ENDBRANCH   2   4
BRANCH   1  10
ATOM     10  N   LIG    1       26.223 -17.513   3.307  0.00  0.00    -0.327 NA
ATOM     11  H   LIG    1       26.002 -17.637   4.294  0.00  0.00    +0.118 HD
ATOM     12  H   LIG    1       25.461 -17.951   2.789  0.00  0.00    +0.118 HD
ENDBRANCH   1  10
TORSDOF 2
ENDMDL
MODEL 7
REMARK VINA RESULT:      -4.2      2.845      4.496
REMARK  Name = *****
REMARK                            x       y       z     vdW  Elec       q    Type
REMARK                         _______ _______ _______ _____ _____    ______ ____
ROOT
ATOM      1  C   LIG    1       21.887 -18.566   4.435  0.00  0.00    +0.059 C 
ATOM      2  C   LIG    1       23.123 -19.345   4.037  0.00  0.00    +0.037 C 
ATOM      3  C   LIG    1       23.138 -17.834   4.059  0.00  0.00    +0.029 C 
ENDROOT
BRANCH   2   4
ATOM      4  C   LIG    1       23.891 -20.126   5.076  0.00  0.00    -0.043 A 
ATOM      5  C   LIG    1       23.231 -20.839   6.090  0.00  0.00    +0.004 A 
ATOM      6  C   LIG    1       23.940 -21.553   7.061  0.00  0.00    +0.000 A 
ATOM      7  C   LIG    1       25.331 -21.560   7.041  0.00  0.00    +0.000 A 
ATOM      8  C   LIG    1       26.012 -20.853   6.055  0.00  0.00    +0.000 A 
ATOM      9  C   LIG    1       25.297 -20.142   5.086  0.00  0.00    +0.004 A 
ENDBRANCH   2   4
BRANCH   1  10
ATOM     10  N   LIG    1       20.746 -18.522   3.521  0.00  0.00    -0.327 NA
ATOM     11  H   LIG    1       21.023 -18.137   2.619  0.00  0.00    +0.118 HD
ATOM     12  H   LIG    1       20.401 -19.463   3.334  0.00  0.00    +0.118 HD
ENDBRANCH   1  10
TORSDOF 2
ENDMDL
MODEL 8
REMARK VINA RESULT:      -4.1      6.273      7.140
REMARK  Name = *****
REMARK                            x       y       z     vdW  Elec       q    Type
REMARK                         _______ _______ _______ _____ _____    ______ ____
ROOT
ATOM      1  C   LIG    1       28.435 -12.895   4.928  0.00  0.00    +0.059 C 
ATOM      2  C   LIG    1       27.389 -12.766   3.842  0.00  0.00    +0.037 C 
ATOM      3  C   LIG    1       28.693 -13.483   3.577  0.00  0.00    +0.029 C 
ENDROOT
BRANCH   2   4
ATOM      4  C   LIG    1       26.100 -13.546   3.938  0.00  0.00    -0.043 A 
ATOM      5  C   LIG    1       26.041 -14.906   3.593  0.00  0.00    +0.004 A 
ATOM      6  C   LIG    1       24.846 -15.628   3.668  0.00  0.00    +0.000 A 
ATOM      7  C   LIG    1       23.678 -14.996   4.084  0.00  0.00    +0.000 A 
ATOM      8  C   LIG    1       23.704 -13.646   4.420  0.00  0.00    +0.000 A 
ATOM      9  C   LIG    1       24.903 -12.931   4.343  0.00  0.00    +0.004 A 
ENDBRANCH   2   4
BRANCH   1  10
ATOM     10  N   LIG    1       29.192 -11.711   5.336  0.00  0.00    -0.327 NA
ATOM     11  H   LIG    1       29.689 -11.312   4.540  0.00  0.00    +0.118 HD
ATOM     12  H   LIG    1       28.563 -10.982   5.671  0.00  0.00    +0.118 HD
ENDBRANCH   1  10
TORSDOF 2
ENDMDL
MODEL 9
REMARK VINA RESULT:      -4.0      6.485      7.767
REMARK  Name = *****
REMARK                            x       y       z     vdW  Elec       q    Type
REMARK                         _______ _______ _______ _____ _____    ______ ____
ROOT
ATOM      1  C   LIG    1       23.781 -14.358   4.485  0.00  0.00    +0.059 C 
ATOM      2  C   LIG    1       24.964 -14.508   3.553  0.00  0.00    +0.037 C 
ATOM      3  C   LIG    1       23.789 -13.637   3.174  0.00  0.00    +0.029 C 
ENDROOT
BRANCH   2   4
ATOM      4  C   LIG    1       26.291 -13.880   3.908  0.00  0.00    -0.043 A 
ATOM      5  C   LIG    1       26.583 -13.483   5.224  0.00  0.00    +0.004 A 
ATOM      6  C   LIG    1       27.805 -12.890   5.553  0.00  0.00    +0.000 A 
ATOM      7  C   LIG    1       28.761 -12.673   4.566  0.00  0.00    +0.000 A 
ATOM      8  C   LIG    1       28.494 -13.046   3.252  0.00  0.00    +0.000 A 
ATOM      9  C   LIG    1       27.270 -13.639   2.929  0.00  0.00    +0.004 A 
ENDBRANCH   2   4
BRANCH   1  10
ATOM     10  N   LIG    1       22.864 -15.484   4.662  0.00  0.00    -0.327 NA
ATOM     11  H   LIG    1       23.376 -16.365   4.677  0.00  0.00    +0.118 HD
ATOM     12  H   LIG    1       22.386 -15.419   5.560  0.00  0.00    +0.118 HD
ENDBRANCH   1  10
TORSDOF 2
ENDMDL
