MODEL 1
REMARK VINA RESULT:      -5.3      0.000      0.000
REMARK  Name = *****
REMARK                            x       y       z     vdW  Elec       q    Type
REMARK                         _______ _______ _______ _____ _____    ______ ____
ROOT
ATOM      1  C   LIG    1       26.204 -20.172   5.334  0.00  0.00    -0.046 A 
ATOM      2  C   LIG    1       25.432 -19.986   4.179  0.00  0.00    +0.007 A 
ATOM      3  C   LIG    1       24.096 -20.387   4.151  0.00  0.00    +0.045 A 
ATOM      4  C   LIG    1       23.530 -20.981   5.271  0.00  0.00    +0.117 A 
ATOM      5  C   LIG    1       24.276 -21.170   6.430  0.00  0.00    +0.045 A 
ATOM      6  C   LIG    1       25.611 -20.759   6.461  0.00  0.00    +0.007 A 
ENDROOT
BRANCH   4   7
ATOM      7  O   LIG    1       22.227 -21.374   5.195  0.00  0.00    -0.507 OA
ATOM      8  H   LIG    1       21.731 -20.702   4.700  0.00  0.00    +0.292 HD
ENDBRANCH   4   7
BRANCH   1   9
ATOM      9  C   LIG    1       27.658 -19.759   5.358  0.00  0.00    +0.053 C 
BRANCH   9  11
ATOM     10  C   LIG    1       29.472 -19.082   7.032  0.00  0.00    +0.024 C 
ATOM     11  C   LIG    1       28.382 -20.096   6.680  0.00  0.00    +0.052 C 
BRANCH  11  12
ATOM     12  N   LIG    1       29.014 -21.421   6.593  0.00  0.00    -0.327 NA
ATOM     13  H   LIG    1       28.568 -22.060   7.252  0.00  0.00    +0.118 HD
ATOM     14  H   LIG    1       28.866 -21.817   5.665  0.00  0.00    +0.118 HD
ENDBRANCH  11  12
ENDBRANCH   9  11
ENDBRANCH   1   9
TORSDOF 4
ENDMDL
MODEL 2
REMARK VINA RESULT:      -5.2      0.125      1.461
REMARK  Name = *****
REMARK                            x       y       z     vdW  Elec       q    Type
REMARK                         _______ _______ _______ _____ _____    ______ ____
ROOT
ATOM      1  C   LIG    1       26.281 -20.131   5.271  0.00  0.00    -0.046 A 
ATOM      2  C   LIG    1       25.692 -20.789   6.360  0.00  0.00    +0.007 A 
ATOM      3  C   LIG    1       24.350 -21.169   6.313  0.00  0.00    +0.045 A 
ATOM      4  C   LIG    1       23.592 -20.889   5.184  0.00  0.00    +0.117 A 
ATOM      5  C   LIG    1       24.157 -20.242   4.090  0.00  0.00    +0.045 A 
ATOM      6  C   LIG    1       25.504 -19.869   4.134  0.00  0.00    +0.007 A 
ENDROOT
BRANCH   4   7
ATOM      7  O   LIG    1       22.281 -21.263   5.187  0.00  0.00    -0.507 OA
ATOM      8  H   LIG    1       22.177 -22.029   4.600  0.00  0.00    +0.292 HD
ENDBRANCH   4   7
BRANCH   1   9
ATOM      9  C   LIG    1       27.727 -19.696   5.331  0.00  0.00    +0.053 C 
BRANCH   9  11
ATOM     10  C   LIG    1       29.475 -18.992   7.062  0.00  0.00    +0.024 C 
ATOM     11  C   LIG    1       28.426 -20.032   6.667  0.00  0.00    +0.052 C 
BRANCH  11  12
ATOM     12  N   LIG    1       29.100 -21.336   6.577  0.00  0.00    -0.327 NA
ATOM     13  H   LIG    1       29.421 -21.623   7.502  0.00  0.00    +0.118 HD
ATOM     14  H   LIG    1       28.438 -22.049   6.270  0.00  0.00    +0.118 HD
ENDBRANCH  11  12
ENDBRANCH   9  11
ENDBRANCH   1   9
TORSDOF 4
ENDMDL
MODEL 3
REMARK VINA RESULT:      -5.0      1.531      1.913
REMARK  Name = *****
REMARK                            x       y       z     vdW  Elec       q    Type
REMARK                         _______ _______ _______ _____ _____    ______ ____
ROOT
ATOM      1  C   LIG    1       24.952 -20.464   5.208  0.00  0.00    -0.046 A 
ATOM      2  C   LIG    1       24.936 -19.706   4.028  0.00  0.00    +0.007 A 
ATOM      3  C   LIG    1       23.788 -19.008   3.653  0.00  0.00    +0.045 A 
ATOM      4  C   LIG    1       22.651 -19.070   4.448  0.00  0.00    +0.117 A 
ATOM      5  C   LIG    1       22.646 -19.812   5.625  0.00  0.00    +0.045 A 
ATOM      6  C   LIG    1       23.799 -20.503   6.005  0.00  0.00    +0.007 A 
ENDROOT
BRANCH   4   7
ATOM      7  O   LIG    1       21.546 -18.388   4.035  0.00  0.00    -0.507 OA
ATOM      8  H   LIG    1       21.603 -18.259   3.075  0.00  0.00    +0.292 HD
ENDBRANCH   4   7
BRANCH   1   9
ATOM      9  C   LIG    1       26.187 -21.240   5.603  0.00  0.00    +0.053 C 
BRANCH   9  11
ATOM     10  C   LIG    1       28.002 -19.437   5.519  0.00  0.00    +0.024 C 
ATOM     11  C   LIG    1       27.217 -20.410   6.401  0.00  0.00    +0.052 C 
BRANCH  11  12
ATOM     12  N   LIG    1       28.186 -21.297   7.062  0.00  0.00    -0.327 NA
ATOM     13  H   LIG    1       28.890 -20.739   7.545  0.00  0.00    +0.118 HD
ATOM     14  H   LIG    1       27.718 -21.850   7.779  0.00  0.00    +0.118 HD
ENDBRANCH  11  12
ENDBRANCH   9  11
ENDBRANCH   1   9
TORSDOF 4
ENDMDL
MODEL 4
REMARK VINA RESULT:      -5.0      3.320      5.070
REMARK  Name = *****
REMARK                            x       y       z     vdW  Elec       q    Type
REMARK                         _______ _______ _______ _____ _____    ______ ____
ROOT
ATOM      1  C   LIG    1       25.039 -20.708   6.005  0.00  0.00    -0.046 A 
ATOM      2  C   LIG    1       25.917 -20.987   7.062  0.00  0.00    +0.007 A 
ATOM      3  C   LIG    1       27.262 -20.626   6.975  0.00  0.00    +0.045 A 
ATOM      4  C   LIG    1       27.735 -19.994   5.832  0.00  0.00    +0.117 A 
ATOM      5  C   LIG    1       26.880 -19.703   4.774  0.00  0.00    +0.045 A 
ATOM      6  C   LIG    1       25.531 -20.056   4.866  0.00  0.00    +0.007 A 
ENDROOT
BRANCH   4   7
ATOM      7  O   LIG    1       29.059 -19.675   5.782  0.00  0.00    -0.507 OA
ATOM      8  H   LIG    1       29.153 -18.722   5.941  0.00  0.00    +0.292 HD
ENDBRANCH   4   7
BRANCH   1   9
ATOM      9  C   LIG    1       23.587 -21.120   6.089  0.00  0.00    +0.053 C 
BRANCH   9  11
ATOM     10  C   LIG    1       22.334 -19.277   4.831  0.00  0.00    +0.024 C 
ATOM     11  C   LIG    1       22.759 -20.746   4.839  0.00  0.00    +0.052 C 
BRANCH  11  12
ATOM     12  N   LIG    1       21.539 -21.565   4.770  0.00  0.00    -0.327 NA
ATOM     13  H   LIG    1       21.472 -22.007   3.854  0.00  0.00    +0.118 HD
ATOM     14  H   LIG    1       21.590 -22.323   5.451  0.00  0.00    +0.118 HD
ENDBRANCH  11  12
ENDBRANCH   9  11
ENDBRANCH   1   9
TORSDOF 4
ENDMDL
MODEL 5
REMARK VINA RESULT:      -5.0      3.307      4.846
REMARK  Name = *****
REMARK                            x       y       z     vdW  Elec       q    Type
REMARK                         _______ _______ _______ _____ _____    ______ ____
ROOT
ATOM      1  C   LIG    1       25.112 -20.812   6.047  0.00  0.00    -0.046 A 
ATOM      2  C   LIG    1       25.581 -20.093   4.939  0.00  0.00    +0.007 A 
ATOM      3  C   LIG    1       26.924 -19.724   4.853  0.00  0.00    +0.045 A 
ATOM      4  C   LIG    1       27.800 -20.067   5.876  0.00  0.00    +0.117 A 
ATOM      5  C   LIG    1       27.357 -20.785   6.981  0.00  0.00    +0.045 A 
ATOM      6  C   LIG    1       26.014 -21.161   7.062  0.00  0.00    +0.007 A 
ENDROOT
BRANCH   4   7
ATOM      7  O   LIG    1       29.099 -19.673   5.760  0.00  0.00    -0.507 OA
ATOM      8  H   LIG    1       29.534 -19.785   6.621  0.00  0.00    +0.292 HD
ENDBRANCH   4   7
BRANCH   1   9
ATOM      9  C   LIG    1       23.652 -21.190   6.151  0.00  0.00    +0.053 C 
BRANCH   9  11
ATOM     10  C   LIG    1       22.348 -19.278   5.059  0.00  0.00    +0.024 C 
ATOM     11  C   LIG    1       22.801 -20.735   4.945  0.00  0.00    +0.052 C 
BRANCH  11  12
ATOM     12  N   LIG    1       21.596 -21.570   4.825  0.00  0.00    -0.327 NA
ATOM     13  H   LIG    1       21.428 -22.061   5.704  0.00  0.00    +0.118 HD
ATOM     14  H   LIG    1       20.779 -20.981   4.666  0.00  0.00    +0.118 HD
ENDBRANCH  11  12
ENDBRANCH   9  11
ENDBRANCH   1   9
TORSDOF 4
ENDMDL
MODEL 6
REMARK VINA RESULT:      -4.7      3.612      5.048
REMARK  Name = *****
REMARK                            x       y       z     vdW  Elec       q    Type
REMARK                         _______ _______ _______ _____ _____    ______ ____
ROOT
ATOM      1  C   LIG    1       23.611 -20.179   5.395  0.00  0.00    -0.046 A 
ATOM      2  C   LIG    1       24.648 -19.987   4.472  0.00  0.00    +0.007 A 
ATOM      3  C   LIG    1       25.970 -20.257   4.830  0.00  0.00    +0.045 A 
ATOM      4  C   LIG    1       26.259 -20.711   6.110  0.00  0.00    +0.117 A 
ATOM      5  C   LIG    1       25.245 -20.914   7.040  0.00  0.00    +0.045 A 
ATOM      6  C   LIG    1       23.921 -20.653   6.678  0.00  0.00    +0.007 A 
ENDROOT
BRANCH   4   7
ATOM      7  O   LIG    1       27.565 -20.945   6.423  0.00  0.00    -0.507 OA
ATOM      8  H   LIG    1       27.871 -20.242   7.019  0.00  0.00    +0.292 HD
ENDBRANCH   4   7
BRANCH   1   9
ATOM      9  C   LIG    1       22.181 -19.865   5.016  0.00  0.00    +0.053 C 
BRANCH   9  11
ATOM     10  C   LIG    1       22.274 -17.320   4.769  0.00  0.00    +0.024 C 
ATOM     11  C   LIG    1       22.039 -18.657   4.065  0.00  0.00    +0.052 C 
BRANCH  11  12
ATOM     12  N   LIG    1       20.690 -18.623   3.479  0.00  0.00    -0.327 NA
ATOM     13  H   LIG    1       19.997 -18.507   4.218  0.00  0.00    +0.118 HD
ATOM     14  H   LIG    1       20.597 -17.812   2.868  0.00  0.00    +0.118 HD
ENDBRANCH  11  12
ENDBRANCH   9  11
ENDBRANCH   1   9
TORSDOF 4
ENDMDL
MODEL 7
REMARK VINA RESULT:      -4.2      2.698      3.269
REMARK  Name = *****
REMARK                            x       y       z     vdW  Elec       q    Type
REMARK                         _______ _______ _______ _____ _____    ______ ____
ROOT
ATOM      1  C   LIG    1       24.866 -18.911   3.701  0.00  0.00    -0.046 A 
ATOM      2  C   LIG    1       23.515 -18.606   3.921  0.00  0.00    +0.007 A 
ATOM      3  C   LIG    1       22.689 -19.505   4.597  0.00  0.00    +0.045 A 
ATOM      4  C   LIG    1       23.207 -20.712   5.048  0.00  0.00    +0.117 A 
ATOM      5  C   LIG    1       24.545 -21.034   4.846  0.00  0.00    +0.045 A 
ATOM      6  C   LIG    1       25.373 -20.129   4.177  0.00  0.00    +0.007 A 
ENDROOT
BRANCH   4   7
ATOM      7  O   LIG    1       22.361 -21.569   5.688  0.00  0.00    -0.507 OA
ATOM      8  H   LIG    1       22.284 -21.291   6.615  0.00  0.00    +0.292 HD
ENDBRANCH   4   7
BRANCH   1   9
ATOM      9  C   LIG    1       25.755 -17.949   2.947  0.00  0.00    +0.053 C 
BRANCH   9  11
ATOM     10  C   LIG    1       26.495 -15.523   3.287  0.00  0.00    +0.024 C 
ATOM     11  C   LIG    1       26.497 -16.943   3.855  0.00  0.00    +0.052 C 
BRANCH  11  12
ATOM     12  N   LIG    1       27.898 -17.352   4.033  0.00  0.00    -0.327 NA
ATOM     13  H   LIG    1       28.008 -17.823   4.931  0.00  0.00    +0.118 HD
ATOM     14  H   LIG    1       28.154 -18.034   3.319  0.00  0.00    +0.118 HD
ENDBRANCH  11  12
ENDBRANCH   9  11
ENDBRANCH   1   9
TORSDOF 4
ENDMDL
MODEL 8
REMARK VINA RESULT:      -4.2      2.733      3.365
REMARK  Name = *****
REMARK                            x       y       z     vdW  Elec       q    Type
REMARK                         _______ _______ _______ _____ _____    ______ ____
ROOT
ATOM      1  C   LIG    1       24.816 -18.951   3.678  0.00  0.00    -0.046 A 
ATOM      2  C   LIG    1       25.282 -20.209   4.085  0.00  0.00    +0.007 A 
ATOM      3  C   LIG    1       24.444 -21.080   4.782  0.00  0.00    +0.045 A 
ATOM      4  C   LIG    1       23.143 -20.697   5.078  0.00  0.00    +0.117 A 
ATOM      5  C   LIG    1       22.658 -19.456   4.679  0.00  0.00    +0.045 A 
ATOM      6  C   LIG    1       23.495 -18.587   3.974  0.00  0.00    +0.007 A 
ENDROOT
BRANCH   4   7
ATOM      7  O   LIG    1       22.363 -21.572   5.775  0.00  0.00    -0.507 OA
ATOM      8  H   LIG    1       22.381 -21.321   6.713  0.00  0.00    +0.292 HD
ENDBRANCH   4   7
BRANCH   1   9
ATOM      9  C   LIG    1       25.731 -17.996   2.945  0.00  0.00    +0.053 C 
BRANCH   9  11
ATOM     10  C   LIG    1       26.474 -15.576   3.315  0.00  0.00    +0.024 C 
ATOM     11  C   LIG    1       26.465 -17.001   3.870  0.00  0.00    +0.052 C 
BRANCH  11  12
ATOM     12  N   LIG    1       27.863 -17.416   4.061  0.00  0.00    -0.327 NA
ATOM     13  H   LIG    1       28.426 -16.612   4.339  0.00  0.00    +0.118 HD
ATOM     14  H   LIG    1       27.925 -18.087   4.826  0.00  0.00    +0.118 HD
ENDBRANCH  11  12
ENDBRANCH   9  11
ENDBRANCH   1   9
TORSDOF 4
ENDMDL
MODEL 9
REMARK VINA RESULT:      -4.1      6.374      7.606
REMARK  Name = *****
REMARK                            x       y       z     vdW  Elec       q    Type
REMARK                         _______ _______ _______ _____ _____    ______ ____
ROOT
ATOM      1  C   LIG    1       26.596 -14.522   3.914  0.00  0.00    -0.046 A 
ATOM      2  C   LIG    1       26.423 -14.012   5.208  0.00  0.00    +0.007 A 
ATOM      3  C   LIG    1       27.306 -13.055   5.713  0.00  0.00    +0.045 A 
ATOM      4  C   LIG    1       28.364 -12.612   4.931  0.00  0.00    +0.117 A 
ATOM      5  C   LIG    1       28.551 -13.101   3.643  0.00  0.00    +0.045 A 
ATOM      6  C   LIG    1       27.662 -14.052   3.134  0.00  0.00    +0.007 A 
ENDROOT
BRANCH   4   7
ATOM      7  O   LIG    1       29.212 -11.691   5.470  0.00  0.00    -0.507 OA
ATOM      8  H   LIG    1       29.882 -12.157   5.995  0.00  0.00    +0.292 HD
ENDBRANCH   4   7
BRANCH   1   9
ATOM      9  C   LIG    1       25.655 -15.576   3.376  0.00  0.00    +0.053 C 
BRANCH   9  11
ATOM     10  C   LIG    1       25.399 -18.121   3.436  0.00  0.00    +0.024 C 
ATOM     11  C   LIG    1       26.327 -16.945   3.128  0.00  0.00    +0.052 C 
BRANCH  11  12
ATOM     12  N   LIG    1       27.524 -17.087   3.971  0.00  0.00    -0.327 NA
ATOM     13  H   LIG    1       27.489 -17.975   4.471  0.00  0.00    +0.118 HD
ATOM     14  H   LIG    1       28.358 -17.120   3.386  0.00  0.00    +0.118 HD
ENDBRANCH  11  12
ENDBRANCH   9  11
ENDBRANCH   1   9
TORSDOF 4
ENDMDL
