MODEL 1
REMARK VINA RESULT:      -5.5      0.000      0.000
REMARK  Name = *****
REMARK                            x       y       z     vdW  Elec       q    Type
REMARK                         _______ _______ _______ _____ _____    ______ ____
ROOT
ATOM      1  C   LIG    1       24.666 -14.658   3.941  0.00  0.00    +0.124 A 
ATOM      2  C   LIG    1       25.653 -15.514   3.457  0.00  0.00    +0.091 A 
ATOM      3  C   LIG    1       25.416 -16.887   3.398  0.00  0.00    +0.131 A 
ATOM      4  C   LIG    1       24.183 -17.432   3.791  0.00  0.00    +0.064 A 
ATOM      5  C   LIG    1       23.209 -16.575   4.313  0.00  0.00    +0.019 A 
ATOM      6  C   LIG    1       23.451 -15.197   4.379  0.00  0.00    +0.046 A 
ENDROOT
BRANCH   1   8
ATOM      7  C   LIG    1       24.226 -12.535   2.971  0.00  0.00    +0.277 C 
ATOM      8  O   LIG    1       24.767 -13.298   4.045  0.00  0.00    -0.495 OA
ENDBRANCH   1   8
BRANCH   3   9
ATOM      9  O   LIG    1       26.458 -17.656   2.944  0.00  0.00    -0.506 OA
ATOM     10  H   LIG    1       27.286 -17.153   3.117  0.00  0.00    +0.292 HD
ENDBRANCH   3   9
BRANCH   4  11
ATOM     11  C   LIG    1       23.978 -18.899   3.691  0.00  0.00    +0.200 C 
ATOM     12  O   LIG    1       23.638 -19.351   2.592  0.00  0.00    -0.286 OA
BRANCH  11  13
ATOM     13  C   LIG    1       24.147 -19.853   4.815  0.00  0.00    +0.064 A 
ATOM     14  C   LIG    1       25.363 -20.454   5.159  0.00  0.00    +0.128 A 
ATOM     15  C   LIG    1       25.445 -21.300   6.269  0.00  0.00    +0.046 A 
ATOM     16  C   LIG    1       24.319 -21.525   7.062  0.00  0.00    +0.004 A 
ATOM     17  C   LIG    1       23.111 -20.906   6.750  0.00  0.00    +0.001 A 
ATOM     18  C   LIG    1       23.026 -20.073   5.633  0.00  0.00    +0.015 A 
BRANCH  14  19
ATOM     19  O   LIG    1       26.496 -20.192   4.441  0.00  0.00    -0.506 OA
ATOM     20  H   LIG    1       26.809 -19.294   4.642  0.00  0.00    +0.292 HD
ENDBRANCH  14  19
ENDBRANCH  11  13
ENDBRANCH   4  11
TORSDOF 5
ENDMDL
MODEL 2
REMARK VINA RESULT:      -4.8      1.529      6.005
REMARK  Name = *****
REMARK                            x       y       z     vdW  Elec       q    Type
REMARK                         _______ _______ _______ _____ _____    ______ ____
ROOT
ATOM      1  C   LIG    1       23.956 -20.195   4.276  0.00  0.00    +0.124 A 
ATOM      2  C   LIG    1       25.327 -20.110   4.508  0.00  0.00    +0.091 A 
ATOM      3  C   LIG    1       26.006 -18.924   4.232  0.00  0.00    +0.131 A 
ATOM      4  C   LIG    1       25.332 -17.791   3.748  0.00  0.00    +0.064 A 
ATOM      5  C   LIG    1       23.963 -17.893   3.479  0.00  0.00    +0.019 A 
ATOM      6  C   LIG    1       23.283 -19.087   3.750  0.00  0.00    +0.046 A 
ENDROOT
BRANCH   1   8
ATOM      7  C   LIG    1       22.736 -21.490   5.849  0.00  0.00    +0.277 C 
ATOM      8  O   LIG    1       23.172 -21.292   4.508  0.00  0.00    -0.495 OA
ENDBRANCH   1   8
BRANCH   3   9
ATOM      9  O   LIG    1       27.360 -18.944   4.454  0.00  0.00    -0.506 OA
ATOM     10  H   LIG    1       27.783 -18.444   3.719  0.00  0.00    +0.292 HD
ENDBRANCH   3   9
BRANCH   4  11
ATOM     11  C   LIG    1       26.102 -16.549   3.487  0.00  0.00    +0.200 C 
ATOM     12  O   LIG    1       27.318 -16.663   3.305  0.00  0.00    -0.286 OA
BRANCH  11  13
ATOM     13  C   LIG    1       25.513 -15.187   3.437  0.00  0.00    +0.064 A 
ATOM     14  C   LIG    1       25.992 -14.154   2.623  0.00  0.00    +0.128 A 
ATOM     15  C   LIG    1       25.343 -12.916   2.596  0.00  0.00    +0.046 A 
ATOM     16  C   LIG    1       24.192 -12.713   3.359  0.00  0.00    +0.004 A 
ATOM     17  C   LIG    1       23.687 -13.744   4.148  0.00  0.00    +0.001 A 
ATOM     18  C   LIG    1       24.344 -14.975   4.185  0.00  0.00    +0.015 A 
BRANCH  14  19
ATOM     19  O   LIG    1       27.073 -14.352   1.812  0.00  0.00    -0.506 OA
ATOM     20  H   LIG    1       26.812 -14.231   0.883  0.00  0.00    +0.292 HD
ENDBRANCH  14  19
ENDBRANCH  11  13
ENDBRANCH   4  11
TORSDOF 5
ENDMDL
MODEL 3
REMARK VINA RESULT:      -4.7      1.158      1.833
REMARK  Name = *****
REMARK                            x       y       z     vdW  Elec       q    Type
REMARK                         _______ _______ _______ _____ _____    ______ ____
ROOT
ATOM      1  C   LIG    1       25.555 -14.894   3.734  0.00  0.00    +0.124 A 
ATOM      2  C   LIG    1       24.240 -15.177   4.096  0.00  0.00    +0.091 A 
ATOM      3  C   LIG    1       23.777 -16.492   4.060  0.00  0.00    +0.131 A 
ATOM      4  C   LIG    1       24.619 -17.554   3.692  0.00  0.00    +0.064 A 
ATOM      5  C   LIG    1       25.927 -17.262   3.291  0.00  0.00    +0.019 A 
ATOM      6  C   LIG    1       26.389 -15.939   3.320  0.00  0.00    +0.046 A 
ENDROOT
BRANCH   1   8
ATOM      7  C   LIG    1       27.538 -13.608   3.969  0.00  0.00    +0.277 C 
ATOM      8  O   LIG    1       26.135 -13.655   3.731  0.00  0.00    -0.495 OA
ENDBRANCH   1   8
BRANCH   3   9
ATOM      9  O   LIG    1       22.458 -16.672   4.396  0.00  0.00    -0.506 OA
ATOM     10  H   LIG    1       21.942 -16.666   3.558  0.00  0.00    +0.292 HD
ENDBRANCH   3   9
BRANCH   4  11
ATOM     11  C   LIG    1       24.078 -18.937   3.688  0.00  0.00    +0.200 C 
ATOM     12  O   LIG    1       23.478 -19.308   2.674  0.00  0.00    -0.286 OA
BRANCH  11  13
ATOM     13  C   LIG    1       24.205 -19.895   4.814  0.00  0.00    +0.064 A 
ATOM     14  C   LIG    1       25.400 -20.523   5.181  0.00  0.00    +0.128 A 
ATOM     15  C   LIG    1       25.442 -21.372   6.292  0.00  0.00    +0.046 A 
ATOM     16  C   LIG    1       24.296 -21.572   7.062  0.00  0.00    +0.004 A 
ATOM     17  C   LIG    1       23.108 -20.926   6.727  0.00  0.00    +0.001 A 
ATOM     18  C   LIG    1       23.064 -20.090   5.609  0.00  0.00    +0.015 A 
BRANCH  14  19
ATOM     19  O   LIG    1       26.552 -20.285   4.486  0.00  0.00    -0.506 OA
ATOM     20  H   LIG    1       26.844 -19.371   4.640  0.00  0.00    +0.292 HD
ENDBRANCH  14  19
ENDBRANCH  11  13
ENDBRANCH   4  11
TORSDOF 5
ENDMDL
MODEL 4
REMARK VINA RESULT:      -4.6      2.016      5.968
REMARK  Name = *****
REMARK                            x       y       z     vdW  Elec       q    Type
REMARK                         _______ _______ _______ _____ _____    ______ ____
ROOT
ATOM      1  C   LIG    1       23.252 -18.600   4.236  0.00  0.00    +0.124 A 
ATOM      2  C   LIG    1       24.499 -18.306   3.689  0.00  0.00    +0.091 A 
ATOM      3  C   LIG    1       24.889 -16.977   3.521  0.00  0.00    +0.131 A 
ATOM      4  C   LIG    1       24.060 -15.917   3.921  0.00  0.00    +0.064 A 
ATOM      5  C   LIG    1       22.793 -16.215   4.433  0.00  0.00    +0.019 A 
ATOM      6  C   LIG    1       22.400 -17.550   4.594  0.00  0.00    +0.046 A 
ENDROOT
BRANCH   1   8
ATOM      7  C   LIG    1       22.894 -20.369   5.780  0.00  0.00    +0.277 C 
ATOM      8  O   LIG    1       22.753 -19.854   4.460  0.00  0.00    -0.495 OA
ENDBRANCH   1   8
BRANCH   3   9
ATOM      9  O   LIG    1       26.117 -16.782   2.939  0.00  0.00    -0.506 OA
ATOM     10  H   LIG    1       26.768 -17.316   3.450  0.00  0.00    +0.292 HD
ENDBRANCH   3   9
BRANCH   4  11
ATOM     11  C   LIG    1       24.532 -14.521   3.735  0.00  0.00    +0.200 C 
ATOM     12  O   LIG    1       23.731 -13.710   3.258  0.00  0.00    -0.286 OA
BRANCH  11  13
ATOM     13  C   LIG    1       25.894 -14.040   4.075  0.00  0.00    +0.064 A 
ATOM     14  C   LIG    1       26.913 -13.838   3.137  0.00  0.00    +0.128 A 
ATOM     15  C   LIG    1       28.153 -13.329   3.537  0.00  0.00    +0.046 A 
ATOM     16  C   LIG    1       28.370 -12.988   4.872  0.00  0.00    +0.004 A 
ATOM     17  C   LIG    1       27.353 -13.153   5.810  0.00  0.00    +0.001 A 
ATOM     18  C   LIG    1       26.121 -13.675   5.412  0.00  0.00    +0.015 A 
BRANCH  14  19
ATOM     19  O   LIG    1       26.700 -14.096   1.812  0.00  0.00    -0.506 OA
ATOM     20  H   LIG    1       26.923 -15.023   1.620  0.00  0.00    +0.292 HD
ENDBRANCH  14  19
ENDBRANCH  11  13
ENDBRANCH   4  11
TORSDOF 5
ENDMDL
MODEL 5
REMARK VINA RESULT:      -4.6      2.205      6.228
REMARK  Name = *****
REMARK                            x       y       z     vdW  Elec       q    Type
REMARK                         _______ _______ _______ _____ _____    ______ ____
ROOT
ATOM      1  C   LIG    1       23.906 -19.049   3.799  0.00  0.00    +0.124 A 
ATOM      2  C   LIG    1       22.966 -18.150   4.297  0.00  0.00    +0.091 A 
ATOM      3  C   LIG    1       23.244 -16.783   4.303  0.00  0.00    +0.131 A 
ATOM      4  C   LIG    1       24.450 -16.282   3.787  0.00  0.00    +0.064 A 
ATOM      5  C   LIG    1       25.408 -17.190   3.324  0.00  0.00    +0.019 A 
ATOM      6  C   LIG    1       25.130 -18.563   3.326  0.00  0.00    +0.046 A 
ENDROOT
BRANCH   1   8
ATOM      7  C   LIG    1       24.614 -21.184   4.559  0.00  0.00    +0.277 C 
ATOM      8  O   LIG    1       23.756 -20.407   3.730  0.00  0.00    -0.495 OA
ENDBRANCH   1   8
BRANCH   3   9
ATOM      9  O   LIG    1       22.276 -15.977   4.847  0.00  0.00    -0.506 OA
ATOM     10  H   LIG    1       22.222 -15.170   4.287  0.00  0.00    +0.292 HD
ENDBRANCH   3   9
BRANCH   4  11
ATOM     11  C   LIG    1       24.688 -14.816   3.802  0.00  0.00    +0.200 C 
ATOM     12  O   LIG    1       23.724 -14.083   3.559  0.00  0.00    -0.286 OA
BRANCH  11  13
ATOM     13  C   LIG    1       25.998 -14.177   4.082  0.00  0.00    +0.064 A 
ATOM     14  C   LIG    1       26.979 -13.939   3.113  0.00  0.00    +0.128 A 
ATOM     15  C   LIG    1       28.165 -13.281   3.453  0.00  0.00    +0.046 A 
ATOM     16  C   LIG    1       28.363 -12.829   4.759  0.00  0.00    +0.004 A 
ATOM     17  C   LIG    1       27.380 -13.031   5.724  0.00  0.00    +0.001 A 
ATOM     18  C   LIG    1       26.203 -13.700   5.387  0.00  0.00    +0.015 A 
BRANCH  14  19
ATOM     19  O   LIG    1       26.776 -14.308   1.813  0.00  0.00    -0.506 OA
ATOM     20  H   LIG    1       27.516 -14.862   1.512  0.00  0.00    +0.292 HD
ENDBRANCH  14  19
ENDBRANCH  11  13
ENDBRANCH   4  11
TORSDOF 5
ENDMDL
MODEL 6
REMARK VINA RESULT:      -4.5      1.098      2.212
REMARK  Name = *****
REMARK                            x       y       z     vdW  Elec       q    Type
REMARK                         _______ _______ _______ _____ _____    ______ ____
ROOT
ATOM      1  C   LIG    1       24.958 -14.660   3.809  0.00  0.00    +0.124 A 
ATOM      2  C   LIG    1       23.753 -15.248   4.188  0.00  0.00    +0.091 A 
ATOM      3  C   LIG    1       23.605 -16.634   4.126  0.00  0.00    +0.131 A 
ATOM      4  C   LIG    1       24.662 -17.463   3.714  0.00  0.00    +0.064 A 
ATOM      5  C   LIG    1       25.856 -16.867   3.297  0.00  0.00    +0.019 A 
ATOM      6  C   LIG    1       26.000 -15.474   3.353  0.00  0.00    +0.046 A 
ENDROOT
BRANCH   1   8
ATOM      7  C   LIG    1       24.218 -12.454   3.334  0.00  0.00    +0.277 C 
ATOM      8  O   LIG    1       25.234 -13.320   3.828  0.00  0.00    -0.495 OA
ENDBRANCH   1   8
BRANCH   3   9
ATOM      9  O   LIG    1       22.373 -17.121   4.482  0.00  0.00    -0.506 OA
ATOM     10  H   LIG    1       21.752 -16.902   3.750  0.00  0.00    +0.292 HD
ENDBRANCH   3   9
BRANCH   4  11
ATOM     11  C   LIG    1       24.456 -18.933   3.684  0.00  0.00    +0.200 C 
ATOM     12  O   LIG    1       24.274 -19.457   2.580  0.00  0.00    -0.286 OA
BRANCH  11  13
ATOM     13  C   LIG    1       24.448 -19.809   4.882  0.00  0.00    +0.064 A 
ATOM     14  C   LIG    1       23.287 -20.318   5.475  0.00  0.00    +0.128 A 
ATOM     15  C   LIG    1       23.373 -21.181   6.572  0.00  0.00    +0.046 A 
ATOM     16  C   LIG    1       24.622 -21.567   7.062  0.00  0.00    +0.004 A 
ATOM     17  C   LIG    1       25.785 -21.093   6.459  0.00  0.00    +0.001 A 
ATOM     18  C   LIG    1       25.698 -20.219   5.373  0.00  0.00    +0.015 A 
BRANCH  14  19
ATOM     19  O   LIG    1       22.055 -20.013   4.968  0.00  0.00    -0.506 OA
ATOM     20  H   LIG    1       21.446 -20.754   5.124  0.00  0.00    +0.292 HD
ENDBRANCH  14  19
ENDBRANCH  11  13
ENDBRANCH   4  11
TORSDOF 5
ENDMDL
MODEL 7
REMARK VINA RESULT:      -4.1      1.069      1.790
REMARK  Name = *****
REMARK                            x       y       z     vdW  Elec       q    Type
REMARK                         _______ _______ _______ _____ _____    ______ ____
ROOT
ATOM      1  C   LIG    1       25.257 -14.204   3.907  0.00  0.00    +0.124 A 
ATOM      2  C   LIG    1       26.377 -14.985   3.632  0.00  0.00    +0.091 A 
ATOM      3  C   LIG    1       26.249 -16.370   3.525  0.00  0.00    +0.131 A 
ATOM      4  C   LIG    1       25.002 -17.001   3.660  0.00  0.00    +0.064 A 
ATOM      5  C   LIG    1       23.887 -16.218   3.976  0.00  0.00    +0.019 A 
ATOM      6  C   LIG    1       24.019 -14.827   4.090  0.00  0.00    +0.046 A 
ENDROOT
BRANCH   1   8
ATOM      7  C   LIG    1       23.980 -12.237   4.284  0.00  0.00    +0.277 C 
ATOM      8  O   LIG    1       25.244 -12.841   4.031  0.00  0.00    -0.495 OA
ENDBRANCH   1   8
BRANCH   3   9
ATOM      9  O   LIG    1       27.411 -17.062   3.290  0.00  0.00    -0.506 OA
ATOM     10  H   LIG    1       27.780 -16.730   2.440  0.00  0.00    +0.292 HD
ENDBRANCH   3   9
BRANCH   4  11
ATOM     11  C   LIG    1       24.920 -18.477   3.519  0.00  0.00    +0.200 C 
ATOM     12  O   LIG    1       25.256 -18.962   2.433  0.00  0.00    -0.286 OA
BRANCH  11  13
ATOM     13  C   LIG    1       24.461 -19.402   4.586  0.00  0.00    +0.064 A 
ATOM     14  C   LIG    1       23.118 -19.632   4.900  0.00  0.00    +0.128 A 
ATOM     15  C   LIG    1       22.771 -20.563   5.885  0.00  0.00    +0.046 A 
ATOM     16  C   LIG    1       23.765 -21.292   6.538  0.00  0.00    +0.004 A 
ATOM     17  C   LIG    1       25.105 -21.095   6.210  0.00  0.00    +0.001 A 
ATOM     18  C   LIG    1       25.450 -20.156   5.237  0.00  0.00    +0.015 A 
BRANCH  14  19
ATOM     19  O   LIG    1       22.123 -18.983   4.223  0.00  0.00    -0.506 OA
ATOM     20  H   LIG    1       22.248 -19.103   3.266  0.00  0.00    +0.292 HD
ENDBRANCH  14  19
ENDBRANCH  11  13
ENDBRANCH   4  11
TORSDOF 5
ENDMDL
MODEL 8
REMARK VINA RESULT:      -3.4      2.184      6.384
REMARK  Name = *****
REMARK                            x       y       z     vdW  Elec       q    Type
REMARK                         _______ _______ _______ _____ _____    ______ ____
ROOT
ATOM      1  C   LIG    1       24.157 -18.960   3.692  0.00  0.00    +0.124 A 
ATOM      2  C   LIG    1       23.162 -18.112   4.171  0.00  0.00    +0.091 A 
ATOM      3  C   LIG    1       23.395 -16.739   4.244  0.00  0.00    +0.131 A 
ATOM      4  C   LIG    1       24.610 -16.180   3.817  0.00  0.00    +0.064 A 
ATOM      5  C   LIG    1       25.622 -17.039   3.374  0.00  0.00    +0.019 A 
ATOM      6  C   LIG    1       25.389 -18.419   3.308  0.00  0.00    +0.046 A 
ENDROOT
BRANCH   1   8
ATOM      7  C   LIG    1       24.374 -21.093   4.715  0.00  0.00    +0.277 C 
ATOM      8  O   LIG    1       24.056 -20.319   3.563  0.00  0.00    -0.495 OA
ENDBRANCH   1   8
BRANCH   3   9
ATOM      9  O   LIG    1       22.372 -15.985   4.764  0.00  0.00    -0.506 OA
ATOM     10  H   LIG    1       21.922 -16.536   5.444  0.00  0.00    +0.292 HD
ENDBRANCH   3   9
BRANCH   4  11
ATOM     11  C   LIG    1       24.798 -14.710   3.901  0.00  0.00    +0.200 C 
ATOM     12  O   LIG    1       23.781 -14.008   3.926  0.00  0.00    -0.286 OA
BRANCH  11  13
ATOM     13  C   LIG    1       26.117 -14.030   3.952  0.00  0.00    +0.064 A 
ATOM     14  C   LIG    1       26.669 -13.471   5.110  0.00  0.00    +0.128 A 
ATOM     15  C   LIG    1       27.943 -12.897   5.080  0.00  0.00    +0.046 A 
ATOM     16  C   LIG    1       28.687 -12.906   3.900  0.00  0.00    +0.004 A 
ATOM     17  C   LIG    1       28.162 -13.489   2.749  0.00  0.00    +0.001 A 
ATOM     18  C   LIG    1       26.884 -14.050   2.775  0.00  0.00    +0.015 A 
BRANCH  14  19
ATOM     19  O   LIG    1       25.989 -13.515   6.295  0.00  0.00    -0.506 OA
ATOM     20  H   LIG    1       26.520 -13.091   6.991  0.00  0.00    +0.292 HD
ENDBRANCH  14  19
ENDBRANCH  11  13
ENDBRANCH   4  11
TORSDOF 5
ENDMDL
MODEL 9
REMARK VINA RESULT:      -3.1      2.400      3.619
REMARK  Name = *****
REMARK                            x       y       z     vdW  Elec       q    Type
REMARK                         _______ _______ _______ _____ _____    ______ ____
ROOT
ATOM      1  C   LIG    1       27.051 -13.545   3.171  0.00  0.00    +0.124 A 
ATOM      2  C   LIG    1       25.722 -13.137   3.080  0.00  0.00    +0.091 A 
ATOM      3  C   LIG    1       24.696 -14.047   3.338  0.00  0.00    +0.131 A 
ATOM      4  C   LIG    1       24.973 -15.370   3.719  0.00  0.00    +0.064 A 
ATOM      5  C   LIG    1       26.307 -15.786   3.771  0.00  0.00    +0.019 A 
ATOM      6  C   LIG    1       27.336 -14.873   3.505  0.00  0.00    +0.046 A 
ENDROOT
BRANCH   1   8
ATOM      7  C   LIG    1       28.971 -12.483   4.080  0.00  0.00    +0.277 C 
ATOM      8  O   LIG    1       28.146 -12.754   2.952  0.00  0.00    -0.495 OA
ENDBRANCH   1   8
BRANCH   3   9
ATOM      9  O   LIG    1       23.419 -13.569   3.187  0.00  0.00    -0.506 OA
ATOM     10  H   LIG    1       22.858 -14.326   2.903  0.00  0.00    +0.292 HD
ENDBRANCH   3   9
BRANCH   4  11
ATOM     11  C   LIG    1       23.843 -16.292   3.998  0.00  0.00    +0.200 C 
ATOM     12  O   LIG    1       22.751 -15.784   4.276  0.00  0.00    -0.286 OA
BRANCH  11  13
ATOM     13  C   LIG    1       23.937 -17.773   3.971  0.00  0.00    +0.064 A 
ATOM     14  C   LIG    1       22.866 -18.633   4.240  0.00  0.00    +0.128 A 
ATOM     15  C   LIG    1       23.028 -20.018   4.139  0.00  0.00    +0.046 A 
ATOM     16  C   LIG    1       24.254 -20.551   3.736  0.00  0.00    +0.004 A 
ATOM     17  C   LIG    1       25.317 -19.704   3.434  0.00  0.00    +0.001 A 
ATOM     18  C   LIG    1       25.159 -18.322   3.549  0.00  0.00    +0.015 A 
BRANCH  14  19
ATOM     19  O   LIG    1       21.637 -18.133   4.565  0.00  0.00    -0.506 OA
ATOM     20  H   LIG    1       20.943 -18.695   4.180  0.00  0.00    +0.292 HD
ENDBRANCH  14  19
ENDBRANCH  11  13
ENDBRANCH   4  11
TORSDOF 5
ENDMDL
