MODEL 1
REMARK VINA RESULT:       1.1      0.000      0.000
REMARK  Name = *****
REMARK                            x       y       z     vdW  Elec       q    Type
REMARK                         _______ _______ _______ _____ _____    ______ ____
ROOT
ATOM      1  C   LIG    1       25.858 -18.204   3.426  0.00  0.00    +0.248 C 
ATOM      2  N   LIG    1       26.500 -17.264   4.232  0.00  0.00    -0.308 N 
ATOM      3  H   LIG    1       26.344 -17.225   5.224  0.00  0.00    +0.149 HD
ATOM      4  O   LIG    1       26.077 -18.271   2.219  0.00  0.00    -0.270 OA
ENDROOT
BRANCH   1   6
ATOM      5  C   LIG    1       25.030 -20.313   4.658  0.00  0.00    +0.135 A 
ATOM      6  C   LIG    1       24.804 -19.068   4.041  0.00  0.00    +0.085 A 
ATOM      7  C   LIG    1       23.472 -18.669   3.817  0.00  0.00    +0.103 A 
ATOM      8  C   LIG    1       22.381 -19.487   4.162  0.00  0.00    +0.294 A 
ATOM      9  C   LIG    1       22.586 -20.753   4.722  0.00  0.00    +0.106 A 
ATOM     10  C   LIG    1       23.916 -21.119   4.993  0.00  0.00    +0.076 A 
BRANCH   8  11
ATOM     11  N   LIG    1       21.034 -18.999   3.806  0.00  0.00    +0.082 N 
ATOM     12  O   LIG    1       20.941 -17.830   3.400  0.00  0.00    -0.576 OA
ATOM     13  O   LIG    1       20.077 -19.779   3.897  0.00  0.00    +0.042 OA
ENDBRANCH   8  11
BRANCH   9  14
ATOM     14  N   LIG    1       21.561 -21.572   5.219  0.00  0.00    -0.353 N 
ATOM     15  H   LIG    1       20.865 -21.841   4.518  0.00  0.00    +0.142 HD
ATOM     16  H   LIG    1       21.871 -22.370   5.767  0.00  0.00    +0.142 HD
ENDBRANCH   9  14
BRANCH   5  17
ATOM     17  O   LIG    1       26.205 -20.954   4.961  0.00  0.00    -0.491 OA
BRANCH  17  19
ATOM     18  C   LIG    1       28.032 -20.077   6.253  0.00  0.00    +0.048 C 
ATOM     19  C   LIG    1       26.736 -20.879   6.283  0.00  0.00    +0.226 C 
ENDBRANCH  17  19
ENDBRANCH   5  17
ENDBRANCH   1   6
BRANCH   2  20
ATOM     20  C   LIG    1       27.451 -16.303   3.659  0.00  0.00    +0.076 C 
ATOM     21  C   LIG    1       26.837 -15.479   2.519  0.00  0.00    +0.037 C 
ATOM     22  C   LIG    1       26.117 -14.203   2.965  0.00  0.00    +0.086 C 
ATOM     23  N   LIG    1       26.954 -13.402   3.865  0.00  0.00    -0.302 NA
ATOM     24  C   LIG    1       27.268 -14.183   5.074  0.00  0.00    +0.086 C 
ATOM     25  C   LIG    1       28.076 -15.433   4.747  0.00  0.00    +0.037 C 
BRANCH  23  26
ATOM     26  C   LIG    1       26.322 -12.124   4.268  0.00  0.00    +0.088 C 
BRANCH  26  27
ATOM     27  C   LIG    1       24.995 -12.203   5.072  0.00  0.00    +0.007 C 
ATOM     28  C   LIG    1       23.868 -11.447   4.335  0.00  0.00    +0.009 C 
ATOM     29  C   LIG    1       23.469 -12.114   3.013  0.00  0.00    +0.027 C 
ATOM     30  C   LIG    1       23.393 -13.609   3.113  0.00  0.00    -0.031 C 
ATOM     31  C   LIG    1       23.854 -14.297   4.170  0.00  0.00    -0.031 C 
ATOM     32  C   LIG    1       24.527 -13.646   5.347  0.00  0.00    +0.031 C 
ENDBRANCH  26  27
ENDBRANCH  23  26
ENDBRANCH   2  20
TORSDOF 8
ENDMDL
MODEL 2
REMARK VINA RESULT:       2.1      2.396      6.425
REMARK  Name = *****
REMARK                            x       y       z     vdW  Elec       q    Type
REMARK                         _______ _______ _______ _____ _____    ______ ____
ROOT
ATOM      1  C   LIG    1       25.805 -18.486   3.881  0.00  0.00    +0.248 C 
ATOM      2  N   LIG    1       26.281 -19.405   4.816  0.00  0.00    -0.308 N 
ATOM      3  H   LIG    1       27.020 -19.171   5.455  0.00  0.00    +0.149 HD
ATOM      4  O   LIG    1       24.878 -18.763   3.123  0.00  0.00    -0.270 OA
ENDROOT
BRANCH   1   6
ATOM      5  C   LIG    1       27.851 -16.935   4.125  0.00  0.00    +0.135 A 
ATOM      6  C   LIG    1       26.520 -17.181   3.736  0.00  0.00    +0.085 A 
ATOM      7  C   LIG    1       25.729 -16.085   3.342  0.00  0.00    +0.103 A 
ATOM      8  C   LIG    1       26.220 -14.768   3.358  0.00  0.00    +0.294 A 
ATOM      9  C   LIG    1       27.520 -14.494   3.799  0.00  0.00    +0.106 A 
ATOM     10  C   LIG    1       28.320 -15.600   4.137  0.00  0.00    +0.076 A 
BRANCH   8  11
ATOM     11  N   LIG    1       25.275 -13.691   3.001  0.00  0.00    +0.082 N 
ATOM     12  O   LIG    1       25.677 -12.817   2.216  0.00  0.00    -0.576 OA
ATOM     13  O   LIG    1       24.130 -13.727   3.470  0.00  0.00    +0.042 OA
ENDBRANCH   8  11
BRANCH   9  14
ATOM     14  N   LIG    1       28.133 -13.235   3.718  0.00  0.00    -0.353 N 
ATOM     15  H   LIG    1       27.503 -12.451   3.913  0.00  0.00    +0.142 HD
ATOM     16  H   LIG    1       29.010 -13.147   4.224  0.00  0.00    +0.142 HD
ENDBRANCH   9  14
BRANCH   5  17
ATOM     17  O   LIG    1       28.817 -17.796   4.580  0.00  0.00    -0.491 OA
BRANCH  17  19
ATOM     18  C   LIG    1       29.430 -19.267   6.380  0.00  0.00    +0.048 C 
ATOM     19  C   LIG    1       29.148 -17.827   5.967  0.00  0.00    +0.226 C 
ENDBRANCH  17  19
ENDBRANCH   5  17
ENDBRANCH   1   6
BRANCH   2  20
ATOM     20  C   LIG    1       25.700 -20.750   4.916  0.00  0.00    +0.076 C 
ATOM     21  C   LIG    1       24.656 -20.855   6.036  0.00  0.00    +0.037 C 
ATOM     22  C   LIG    1       23.230 -20.480   5.623  0.00  0.00    +0.086 C 
ATOM     23  N   LIG    1       22.827 -21.179   4.397  0.00  0.00    -0.302 NA
ATOM     24  C   LIG    1       23.727 -20.798   3.293  0.00  0.00    +0.086 C 
ATOM     25  C   LIG    1       25.166 -21.219   3.565  0.00  0.00    +0.037 C 
BRANCH  23  26
ATOM     26  C   LIG    1       21.429 -20.897   3.996  0.00  0.00    +0.088 C 
BRANCH  26  27
ATOM     27  C   LIG    1       20.715 -19.698   4.679  0.00  0.00    +0.007 C 
ATOM     28  C   LIG    1       21.611 -18.440   4.639  0.00  0.00    +0.009 C 
ATOM     29  C   LIG    1       21.823 -17.905   3.217  0.00  0.00    +0.027 C 
ATOM     30  C   LIG    1       20.571 -17.930   2.391  0.00  0.00    -0.031 C 
ATOM     31  C   LIG    1       19.454 -18.568   2.773  0.00  0.00    -0.031 C 
ATOM     32  C   LIG    1       19.350 -19.356   4.051  0.00  0.00    +0.031 C 
ENDBRANCH  26  27
ENDBRANCH  23  26
ENDBRANCH   2  20
TORSDOF 8
ENDMDL
MODEL 3
REMARK VINA RESULT:       2.5      2.220      4.113
REMARK  Name = *****
REMARK                            x       y       z     vdW  Elec       q    Type
REMARK                         _______ _______ _______ _____ _____    ______ ____
ROOT
ATOM      1  C   LIG    1       26.737 -16.770   3.383  0.00  0.00    +0.248 C 
ATOM      2  N   LIG    1       27.848 -15.980   3.674  0.00  0.00    -0.308 N 
ATOM      3  H   LIG    1       28.604 -16.320   4.242  0.00  0.00    +0.149 HD
ATOM      4  O   LIG    1       25.831 -16.363   2.660  0.00  0.00    -0.270 OA
ENDROOT
BRANCH   1   6
ATOM      5  C   LIG    1       25.433 -18.868   4.125  0.00  0.00    +0.135 A 
ATOM      6  C   LIG    1       26.609 -18.096   4.061  0.00  0.00    +0.085 A 
ATOM      7  C   LIG    1       27.713 -18.501   4.837  0.00  0.00    +0.103 A 
ATOM      8  C   LIG    1       27.657 -19.622   5.684  0.00  0.00    +0.294 A 
ATOM      9  C   LIG    1       26.479 -20.367   5.808  0.00  0.00    +0.106 A 
ATOM     10  C   LIG    1       25.401 -19.989   4.988  0.00  0.00    +0.076 A 
BRANCH   8  11
ATOM     11  N   LIG    1       28.848 -19.902   6.510  0.00  0.00    +0.082 N 
ATOM     12  O   LIG    1       29.183 -21.091   6.641  0.00  0.00    -0.576 OA
ATOM     13  O   LIG    1       29.468 -18.949   7.000  0.00  0.00    +0.042 OA
ENDBRANCH   8  11
BRANCH   9  14
ATOM     14  N   LIG    1       26.377 -21.572   6.520  0.00  0.00    -0.353 N 
ATOM     15  H   LIG    1       27.224 -22.147   6.488  0.00  0.00    +0.142 HD
ATOM     16  H   LIG    1       26.016 -21.487   7.466  0.00  0.00    +0.142 HD
ENDBRANCH   9  14
BRANCH   5  17
ATOM     17  O   LIG    1       24.219 -18.689   3.512  0.00  0.00    -0.491 OA
BRANCH  17  19
ATOM     18  C   LIG    1       22.148 -17.914   4.454  0.00  0.00    +0.048 C 
ATOM     19  C   LIG    1       23.025 -19.126   4.158  0.00  0.00    +0.226 C 
ENDBRANCH  17  19
ENDBRANCH   5  17
ENDBRANCH   1   6
BRANCH   2  20
ATOM     20  C   LIG    1       27.966 -14.617   3.138  0.00  0.00    +0.076 C 
ATOM     21  C   LIG    1       26.706 -14.174   2.383  0.00  0.00    +0.037 C 
ATOM     22  C   LIG    1       25.627 -13.529   3.256  0.00  0.00    +0.086 C 
ATOM     23  N   LIG    1       26.187 -12.471   4.106  0.00  0.00    -0.302 NA
ATOM     24  C   LIG    1       27.204 -13.046   5.004  0.00  0.00    +0.086 C 
ATOM     25  C   LIG    1       28.379 -13.632   4.229  0.00  0.00    +0.037 C 
BRANCH  23  26
ATOM     26  C   LIG    1       25.165 -11.773   4.921  0.00  0.00    +0.088 C 
BRANCH  26  27
ATOM     27  C   LIG    1       23.694 -11.829   4.427  0.00  0.00    +0.007 C 
ATOM     28  C   LIG    1       23.473 -13.059   3.518  0.00  0.00    +0.009 C 
ATOM     29  C   LIG    1       23.597 -14.388   4.274  0.00  0.00    +0.027 C 
ATOM     30  C   LIG    1       22.939 -14.356   5.622  0.00  0.00    -0.031 C 
ATOM     31  C   LIG    1       22.504 -13.224   6.198  0.00  0.00    -0.031 C 
ATOM     32  C   LIG    1       22.662 -11.866   5.571  0.00  0.00    +0.031 C 
ENDBRANCH  26  27
ENDBRANCH  23  26
ENDBRANCH   2  20
TORSDOF 8
ENDMDL
MODEL 4
REMARK VINA RESULT:       3.8      2.536      6.807
REMARK  Name = *****
REMARK                            x       y       z     vdW  Elec       q    Type
REMARK                         _______ _______ _______ _____ _____    ______ ____
ROOT
ATOM      1  C   LIG    1       27.229 -16.769   3.858  0.00  0.00    +0.248 C 
ATOM      2  N   LIG    1       28.236 -16.926   4.810  0.00  0.00    -0.308 N 
ATOM      3  H   LIG    1       28.575 -16.151   5.351  0.00  0.00    +0.149 HD
ATOM      4  O   LIG    1       26.792 -17.725   3.222  0.00  0.00    -0.270 OA
ENDROOT
BRANCH   1   6
ATOM      5  C   LIG    1       27.535 -14.217   3.650  0.00  0.00    +0.135 A 
ATOM      6  C   LIG    1       26.758 -15.386   3.540  0.00  0.00    +0.085 A 
ATOM      7  C   LIG    1       25.380 -15.247   3.284  0.00  0.00    +0.103 A 
ATOM      8  C   LIG    1       24.768 -13.987   3.169  0.00  0.00    +0.294 A 
ATOM      9  C   LIG    1       25.510 -12.812   3.334  0.00  0.00    +0.106 A 
ATOM     10  C   LIG    1       26.894 -12.960   3.534  0.00  0.00    +0.076 A 
BRANCH   8  11
ATOM     11  N   LIG    1       23.303 -13.964   2.980  0.00  0.00    +0.082 N 
ATOM     12  O   LIG    1       22.858 -13.255   2.063  0.00  0.00    -0.576 OA
ATOM     13  O   LIG    1       22.599 -14.668   3.716  0.00  0.00    +0.042 OA
ENDBRANCH   8  11
BRANCH   9  14
ATOM     14  N   LIG    1       25.010 -11.522   3.101  0.00  0.00    -0.353 N 
ATOM     15  H   LIG    1       25.616 -10.772   3.445  0.00  0.00    +0.142 HD
ATOM     16  H   LIG    1       24.695 -11.345   2.151  0.00  0.00    +0.142 HD
ENDBRANCH   9  14
BRANCH   5  17
ATOM     17  O   LIG    1       28.870 -14.060   3.924  0.00  0.00    -0.491 OA
BRANCH  17  19
ATOM     18  C   LIG    1       29.068 -11.920   4.999  0.00  0.00    +0.048 C 
ATOM     19  C   LIG    1       29.475 -12.774   3.804  0.00  0.00    +0.226 C 
ENDBRANCH  17  19
ENDBRANCH   5  17
ENDBRANCH   1   6
BRANCH   2  20
ATOM     20  C   LIG    1       28.827 -18.245   5.073  0.00  0.00    +0.076 C 
ATOM     21  C   LIG    1       28.798 -18.613   6.562  0.00  0.00    +0.037 C 
ATOM     22  C   LIG    1       27.516 -19.309   7.027  0.00  0.00    +0.086 C 
ATOM     23  N   LIG    1       27.171 -20.436   6.152  0.00  0.00    -0.302 NA
ATOM     24  C   LIG    1       26.940 -19.944   4.782  0.00  0.00    +0.086 C 
ATOM     25  C   LIG    1       28.195 -19.316   4.187  0.00  0.00    +0.037 C 
BRANCH  23  26
ATOM     26  C   LIG    1       25.973 -21.181   6.604  0.00  0.00    +0.088 C 
BRANCH  26  27
ATOM     27  C   LIG    1       24.923 -21.571   5.528  0.00  0.00    +0.007 C 
ATOM     28  C   LIG    1       23.501 -21.570   6.132  0.00  0.00    +0.009 C 
ATOM     29  C   LIG    1       23.025 -20.169   6.534  0.00  0.00    +0.027 C 
ATOM     30  C   LIG    1       23.385 -19.119   5.524  0.00  0.00    -0.031 C 
ATOM     31  C   LIG    1       24.231 -19.340   4.507  0.00  0.00    -0.031 C 
ATOM     32  C   LIG    1       24.938 -20.651   4.292  0.00  0.00    +0.031 C 
ENDBRANCH  26  27
ENDBRANCH  23  26
ENDBRANCH   2  20
TORSDOF 8
ENDMDL
MODEL 5
REMARK VINA RESULT:       4.0      1.835      2.464
REMARK  Name = *****
REMARK                            x       y       z     vdW  Elec       q    Type
REMARK                         _______ _______ _______ _____ _____    ______ ____
ROOT
ATOM      1  C   LIG    1       27.067 -16.442   3.519  0.00  0.00    +0.248 C 
ATOM      2  N   LIG    1       28.065 -15.630   4.060  0.00  0.00    -0.308 N 
ATOM      3  H   LIG    1       28.621 -15.929   4.841  0.00  0.00    +0.149 HD
ATOM      4  O   LIG    1       26.412 -16.088   2.542  0.00  0.00    -0.270 OA
ENDROOT
BRANCH   1   6
ATOM      5  C   LIG    1       27.639 -18.524   4.930  0.00  0.00    +0.135 A 
ATOM      6  C   LIG    1       26.728 -17.717   4.221  0.00  0.00    +0.085 A 
ATOM      7  C   LIG    1       25.432 -18.219   3.995  0.00  0.00    +0.103 A 
ATOM      8  C   LIG    1       25.043 -19.500   4.427  0.00  0.00    +0.294 A 
ATOM      9  C   LIG    1       25.952 -20.341   5.079  0.00  0.00    +0.106 A 
ATOM     10  C   LIG    1       27.225 -19.810   5.349  0.00  0.00    +0.076 A 
BRANCH   8  11
ATOM     11  N   LIG    1       23.685 -19.951   4.062  0.00  0.00    +0.082 N 
ATOM     12  O   LIG    1       22.781 -19.100   4.071  0.00  0.00    -0.576 OA
ATOM     13  O   LIG    1       23.520 -21.134   3.737  0.00  0.00    +0.042 OA
ENDBRANCH   8  11
BRANCH   9  14
ATOM     14  N   LIG    1       25.611 -21.572   5.660  0.00  0.00    -0.353 N 
ATOM     15  H   LIG    1       24.681 -21.588   6.088  0.00  0.00    +0.142 HD
ATOM     16  H   LIG    1       25.769 -22.387   5.074  0.00  0.00    +0.142 HD
ENDBRANCH   9  14
BRANCH   5  17
ATOM     17  O   LIG    1       28.953 -18.302   5.256  0.00  0.00    -0.491 OA
BRANCH  17  19
ATOM     18  C   LIG    1       29.412 -20.205   6.652  0.00  0.00    +0.048 C 
ATOM     19  C   LIG    1       29.440 -18.685   6.541  0.00  0.00    +0.226 C 
ENDBRANCH  17  19
ENDBRANCH   5  17
ENDBRANCH   1   6
BRANCH   2  20
ATOM     20  C   LIG    1       28.355 -14.309   3.488  0.00  0.00    +0.076 C 
ATOM     21  C   LIG    1       27.617 -14.069   2.164  0.00  0.00    +0.037 C 
ATOM     22  C   LIG    1       26.211 -13.481   2.310  0.00  0.00    +0.086 C 
ATOM     23  N   LIG    1       26.210 -12.305   3.188  0.00  0.00    -0.302 NA
ATOM     24  C   LIG    1       26.675 -12.692   4.532  0.00  0.00    +0.086 C 
ATOM     25  C   LIG    1       28.111 -13.202   4.510  0.00  0.00    +0.037 C 
BRANCH  23  26
ATOM     26  C   LIG    1       24.880 -11.664   3.305  0.00  0.00    +0.088 C 
BRANCH  26  27
ATOM     27  C   LIG    1       24.015 -12.027   4.542  0.00  0.00    +0.007 C 
ATOM     28  C   LIG    1       22.742 -12.788   4.111  0.00  0.00    +0.009 C 
ATOM     29  C   LIG    1       23.045 -14.174   3.528  0.00  0.00    +0.027 C 
ATOM     30  C   LIG    1       24.104 -14.910   4.294  0.00  0.00    -0.031 C 
ATOM     31  C   LIG    1       24.866 -14.329   5.233  0.00  0.00    -0.031 C 
ATOM     32  C   LIG    1       24.765 -12.871   5.591  0.00  0.00    +0.031 C 
ENDBRANCH  26  27
ENDBRANCH  23  26
ENDBRANCH   2  20
TORSDOF 8
ENDMDL
