MODEL 1
REMARK VINA RESULT:     -10.1      0.000      0.000
REMARK  Name = *****
REMARK                            x       y       z     vdW  Elec       q    Type
REMARK                         _______ _______ _______ _____ _____    ______ ____
ROOT
ATOM      1  N   LIG    1       24.690 -24.324   6.814  0.00  0.00    -0.302 NA
ATOM      2  C   LIG    1       23.664 -25.209   6.251  0.00  0.00    +0.085 C 
ATOM      3  C   LIG    1       24.169 -26.129   5.139  0.00  0.00    +0.025 C 
ATOM      4  C   LIG    1       25.346 -26.994   5.608  0.00  0.00    +0.044 C 
ATOM      5  C   LIG    1       26.416 -26.098   6.256  0.00  0.00    +0.025 C 
ATOM      6  C   LIG    1       25.848 -25.104   7.283  0.00  0.00    +0.085 C 
ENDROOT
BRANCH   4   7
ATOM      7  C   LIG    1       24.901 -28.153   6.469  0.00  0.00    +0.095 A 
ATOM      8  C   LIG    1       25.435 -28.575   7.722  0.00  0.00    +0.045 A 
ATOM      9  C   LIG    1       24.667 -29.678   8.056  0.00  0.00    +0.170 A 
ATOM     10  C   LIG    1       24.822 -30.434   9.212  0.00  0.00    +0.088 A 
ATOM     11  C   LIG    1       25.836 -30.017  10.069  0.00  0.00    +0.127 A 
ATOM     12  C   LIG    1       26.642 -28.914   9.783  0.00  0.00    +0.039 A 
ATOM     13  F   LIG    1       26.045 -30.696  11.204  0.00  0.00    -0.205 F 
ATOM     14  O   LIG    1       23.747 -29.898   7.083  0.00  0.00    -0.354 OA
ATOM     15  C   LIG    1       26.456 -28.174   8.603  0.00  0.00    +0.016 A 
ATOM     16  N   LIG    1       23.888 -28.948   6.092  0.00  0.00    -0.082 NA
ENDBRANCH   4   7
BRANCH   1  17
ATOM     17  C   LIG    1       25.091 -23.179   5.976  0.00  0.00    +0.089 C 
BRANCH  17  18
ATOM     18  C   LIG    1       25.046 -21.816   6.697  0.00  0.00    +0.058 C 
BRANCH  18  21
ATOM     19  C   LIG    1       25.667 -19.917   4.378  0.00  0.00    +0.066 C 
ATOM     20  C   LIG    1       26.610 -20.174   5.524  0.00  0.00    +0.049 C 
ATOM     21  C   LIG    1       26.304 -20.995   6.543  0.00  0.00    +0.039 C 
ATOM     22  C   LIG    1       27.342 -21.187   7.593  0.00  0.00    +0.258 C 
ATOM     23  O   LIG    1       27.083 -21.820   8.609  0.00  0.00    -0.267 OA
ATOM     24  N   LIG    1       28.576 -20.606   7.346  0.00  0.00    -0.296 N 
ATOM     25  C   LIG    1       29.579 -20.754   8.395  0.00  0.00    +0.126 C 
ATOM     26  C   LIG    1       30.982 -20.331   7.993  0.00  0.00    +0.022 C 
ATOM     27  C   LIG    1       30.918 -18.974   7.321  0.00  0.00    +0.009 C 
ATOM     28  C   LIG    1       30.079 -19.090   6.064  0.00  0.00    +0.074 C 
ATOM     29  C   LIG    1       28.731 -19.750   6.287  0.00  0.00    +0.113 C 
ATOM     30  N   LIG    1       27.808 -19.517   5.410  0.00  0.00    -0.238 NA
ENDBRANCH  18  21
ENDBRANCH  17  18
ENDBRANCH   1  17
TORSDOF 4
ENDMDL
MODEL 2
REMARK VINA RESULT:      -9.6      1.524      1.905
REMARK  Name = *****
REMARK                            x       y       z     vdW  Elec       q    Type
REMARK                         _______ _______ _______ _____ _____    ______ ____
ROOT
ATOM      1  N   LIG    1       24.485 -23.997   6.735  0.00  0.00    -0.302 NA
ATOM      2  C   LIG    1       23.618 -25.162   6.525  0.00  0.00    +0.085 C 
ATOM      3  C   LIG    1       24.114 -26.128   5.448  0.00  0.00    +0.025 C 
ATOM      4  C   LIG    1       25.532 -26.631   5.747  0.00  0.00    +0.044 C 
ATOM      5  C   LIG    1       26.454 -25.433   6.028  0.00  0.00    +0.025 C 
ATOM      6  C   LIG    1       25.865 -24.423   7.027  0.00  0.00    +0.085 C 
ENDROOT
BRANCH   4   7
ATOM      7  C   LIG    1       25.551 -27.697   6.818  0.00  0.00    +0.095 A 
ATOM      8  C   LIG    1       24.965 -28.996   6.777  0.00  0.00    +0.045 A 
ATOM      9  C   LIG    1       25.277 -29.540   8.012  0.00  0.00    +0.170 A 
ATOM     10  C   LIG    1       24.910 -30.812   8.436  0.00  0.00    +0.088 A 
ATOM     11  C   LIG    1       24.176 -31.560   7.520  0.00  0.00    +0.127 A 
ATOM     12  C   LIG    1       23.832 -31.062   6.262  0.00  0.00    +0.039 A 
ATOM     13  F   LIG    1       23.787 -32.796   7.857  0.00  0.00    -0.205 F 
ATOM     14  O   LIG    1       25.992 -28.641   8.733  0.00  0.00    -0.354 OA
ATOM     15  C   LIG    1       24.220 -29.771   5.869  0.00  0.00    +0.016 A 
ATOM     16  N   LIG    1       26.167 -27.490   7.991  0.00  0.00    -0.082 NA
ENDBRANCH   4   7
BRANCH   1  17
ATOM     17  C   LIG    1       24.432 -22.951   5.697  0.00  0.00    +0.089 C 
BRANCH  17  18
ATOM     18  C   LIG    1       24.359 -21.512   6.247  0.00  0.00    +0.058 C 
BRANCH  18  21
ATOM     19  C   LIG    1       25.100 -19.920   3.740  0.00  0.00    +0.066 C 
ATOM     20  C   LIG    1       25.985 -20.027   4.954  0.00  0.00    +0.049 C 
ATOM     21  C   LIG    1       25.626 -20.714   6.053  0.00  0.00    +0.039 C 
ATOM     22  C   LIG    1       26.610 -20.767   7.168  0.00  0.00    +0.258 C 
ATOM     23  O   LIG    1       26.299 -21.267   8.242  0.00  0.00    -0.267 OA
ATOM     24  N   LIG    1       27.857 -20.218   6.911  0.00  0.00    -0.296 N 
ATOM     25  C   LIG    1       28.806 -20.229   8.019  0.00  0.00    +0.126 C 
ATOM     26  C   LIG    1       30.228 -19.855   7.637  0.00  0.00    +0.022 C 
ATOM     27  C   LIG    1       30.202 -18.594   6.795  0.00  0.00    +0.009 C 
ATOM     28  C   LIG    1       29.426 -18.872   5.523  0.00  0.00    +0.074 C 
ATOM     29  C   LIG    1       28.066 -19.503   5.761  0.00  0.00    +0.113 C 
ATOM     30  N   LIG    1       27.189 -19.386   4.817  0.00  0.00    -0.238 NA
ENDBRANCH  18  21
ENDBRANCH  17  18
ENDBRANCH   1  17
TORSDOF 4
ENDMDL
MODEL 3
REMARK VINA RESULT:      -9.4      4.065      9.330
REMARK  Name = *****
REMARK                            x       y       z     vdW  Elec       q    Type
REMARK                         _______ _______ _______ _____ _____    ______ ____
ROOT
ATOM      1  N   LIG    1       25.616 -24.780   6.277  0.00  0.00    -0.302 NA
ATOM      2  C   LIG    1       24.242 -24.717   5.766  0.00  0.00    +0.085 C 
ATOM      3  C   LIG    1       23.243 -24.076   6.729  0.00  0.00    +0.025 C 
ATOM      4  C   LIG    1       23.671 -22.660   7.133  0.00  0.00    +0.044 C 
ATOM      5  C   LIG    1       25.130 -22.684   7.621  0.00  0.00    +0.025 C 
ATOM      6  C   LIG    1       26.082 -23.442   6.682  0.00  0.00    +0.085 C 
ENDROOT
BRANCH   4   7
ATOM      7  C   LIG    1       23.394 -21.644   6.050  0.00  0.00    +0.095 A 
ATOM      8  C   LIG    1       24.321 -20.780   5.395  0.00  0.00    +0.045 A 
ATOM      9  C   LIG    1       23.536 -20.062   4.507  0.00  0.00    +0.170 A 
ATOM     10  C   LIG    1       24.009 -19.086   3.639  0.00  0.00    +0.088 A 
ATOM     11  C   LIG    1       25.378 -18.843   3.699  0.00  0.00    +0.127 A 
ATOM     12  C   LIG    1       26.217 -19.535   4.574  0.00  0.00    +0.039 A 
ATOM     13  F   LIG    1       25.907 -17.915   2.890  0.00  0.00    -0.205 F 
ATOM     14  O   LIG    1       22.245 -20.464   4.621  0.00  0.00    -0.354 OA
ATOM     15  C   LIG    1       25.702 -20.515   5.438  0.00  0.00    +0.016 A 
ATOM     16  N   LIG    1       22.152 -21.451   5.580  0.00  0.00    -0.082 NA
ENDBRANCH   4   7
BRANCH   1  17
ATOM     17  C   LIG    1       25.880 -25.798   7.311  0.00  0.00    +0.089 C 
BRANCH  17  18
ATOM     18  C   LIG    1       26.330 -27.166   6.758  0.00  0.00    +0.058 C 
BRANCH  18  21
ATOM     19  C   LIG    1       23.994 -28.588   5.384  0.00  0.00    +0.066 C 
ATOM     20  C   LIG    1       24.518 -28.965   6.745  0.00  0.00    +0.049 C 
ATOM     21  C   LIG    1       25.561 -28.339   7.317  0.00  0.00    +0.039 C 
ATOM     22  C   LIG    1       25.954 -28.788   8.681  0.00  0.00    +0.258 C 
ATOM     23  O   LIG    1       26.969 -28.349   9.207  0.00  0.00    -0.267 OA
ATOM     24  N   LIG    1       25.119 -29.716   9.284  0.00  0.00    -0.296 N 
ATOM     25  C   LIG    1       25.529 -30.191  10.601  0.00  0.00    +0.126 C 
ATOM     26  C   LIG    1       24.477 -31.005  11.336  0.00  0.00    +0.022 C 
ATOM     27  C   LIG    1       23.915 -32.053  10.395  0.00  0.00    +0.009 C 
ATOM     28  C   LIG    1       23.245 -31.355   9.229  0.00  0.00    +0.074 C 
ATOM     29  C   LIG    1       24.117 -30.308   8.560  0.00  0.00    +0.113 C 
ATOM     30  N   LIG    1       23.816 -29.978   7.346  0.00  0.00    -0.238 NA
ENDBRANCH  18  21
ENDBRANCH  17  18
ENDBRANCH   1  17
TORSDOF 4
ENDMDL
MODEL 4
REMARK VINA RESULT:      -8.9      4.048      9.594
REMARK  Name = *****
REMARK                            x       y       z     vdW  Elec       q    Type
REMARK                         _______ _______ _______ _____ _____    ______ ____
ROOT
ATOM      1  N   LIG    1       25.427 -25.513   5.825  0.00  0.00    -0.302 NA
ATOM      2  C   LIG    1       23.997 -25.265   5.609  0.00  0.00    +0.085 C 
ATOM      3  C   LIG    1       23.306 -24.529   6.757  0.00  0.00    +0.025 C 
ATOM      4  C   LIG    1       23.985 -23.189   7.063  0.00  0.00    +0.044 C 
ATOM      5  C   LIG    1       25.497 -23.407   7.240  0.00  0.00    +0.025 C 
ATOM      6  C   LIG    1       26.132 -24.254   6.124  0.00  0.00    +0.085 C 
ENDROOT
BRANCH   4   7
ATOM      7  C   LIG    1       23.623 -22.118   6.060  0.00  0.00    +0.095 A 
ATOM      8  C   LIG    1       24.483 -21.157   5.451  0.00  0.00    +0.045 A 
ATOM      9  C   LIG    1       23.637 -20.427   4.631  0.00  0.00    +0.170 A 
ATOM     10  C   LIG    1       24.032 -19.366   3.826  0.00  0.00    +0.088 A 
ATOM     11  C   LIG    1       25.385 -19.045   3.878  0.00  0.00    +0.127 A 
ATOM     12  C   LIG    1       26.282 -19.744   4.687  0.00  0.00    +0.039 A 
ATOM     13  F   LIG    1       25.840 -18.033   3.128  0.00  0.00    -0.205 F 
ATOM     14  O   LIG    1       22.376 -20.914   4.740  0.00  0.00    -0.354 OA
ATOM     15  C   LIG    1       25.847 -20.812   5.488  0.00  0.00    +0.016 A 
ATOM     16  N   LIG    1       22.363 -21.969   5.628  0.00  0.00    -0.082 NA
ENDBRANCH   4   7
BRANCH   1  17
ATOM     17  C   LIG    1       25.764 -26.582   6.784  0.00  0.00    +0.089 C 
BRANCH  17  18
ATOM     18  C   LIG    1       24.634 -27.605   7.019  0.00  0.00    +0.058 C 
BRANCH  18  21
ATOM     19  C   LIG    1       25.635 -29.052   9.524  0.00  0.00    +0.066 C 
ATOM     20  C   LIG    1       25.571 -29.689   8.160  0.00  0.00    +0.049 C 
ATOM     21  C   LIG    1       25.105 -29.039   7.079  0.00  0.00    +0.039 C 
ATOM     22  C   LIG    1       25.130 -29.775   5.785  0.00  0.00    +0.258 C 
ATOM     23  O   LIG    1       24.607 -29.289   4.790  0.00  0.00    -0.267 OA
ATOM     24  N   LIG    1       25.759 -31.009   5.796  0.00  0.00    -0.296 N 
ATOM     25  C   LIG    1       25.742 -31.751   4.539  0.00  0.00    +0.126 C 
ATOM     26  C   LIG    1       26.646 -32.972   4.513  0.00  0.00    +0.022 C 
ATOM     27  C   LIG    1       26.415 -33.787   5.770  0.00  0.00    +0.009 C 
ATOM     28  C   LIG    1       26.788 -32.947   6.975  0.00  0.00    +0.074 C 
ATOM     29  C   LIG    1       26.143 -31.572   6.984  0.00  0.00    +0.113 C 
ATOM     30  N   LIG    1       26.056 -30.971   8.127  0.00  0.00    -0.238 NA
ENDBRANCH  18  21
ENDBRANCH  17  18
ENDBRANCH   1  17
TORSDOF 4
ENDMDL
MODEL 5
REMARK VINA RESULT:      -8.9      3.940      9.985
REMARK  Name = *****
REMARK                            x       y       z     vdW  Elec       q    Type
REMARK                         _______ _______ _______ _____ _____    ______ ____
ROOT
ATOM      1  N   LIG    1       24.687 -25.758   5.754  0.00  0.00    -0.302 NA
ATOM      2  C   LIG    1       23.615 -24.767   5.606  0.00  0.00    +0.085 C 
ATOM      3  C   LIG    1       23.404 -23.881   6.834  0.00  0.00    +0.025 C 
ATOM      4  C   LIG    1       24.690 -23.144   7.230  0.00  0.00    +0.044 C 
ATOM      5  C   LIG    1       25.848 -24.150   7.339  0.00  0.00    +0.025 C 
ATOM      6  C   LIG    1       25.951 -25.103   6.135  0.00  0.00    +0.085 C 
ENDROOT
BRANCH   4   7
ATOM      7  C   LIG    1       24.974 -21.961   6.333  0.00  0.00    +0.095 A 
ATOM      8  C   LIG    1       24.037 -21.104   5.683  0.00  0.00    +0.045 A 
ATOM      9  C   LIG    1       24.833 -20.206   4.991  0.00  0.00    +0.170 A 
ATOM     10  C   LIG    1       24.356 -19.167   4.200  0.00  0.00    +0.088 A 
ATOM     11  C   LIG    1       22.971 -19.059   4.126  0.00  0.00    +0.127 A 
ATOM     12  C   LIG    1       22.120 -19.936   4.800  0.00  0.00    +0.039 A 
ATOM     13  F   LIG    1       22.437 -18.080   3.382  0.00  0.00    -0.205 F 
ATOM     14  O   LIG    1       26.139 -20.501   5.210  0.00  0.00    -0.354 OA
ATOM     15  C   LIG    1       22.639 -20.975   5.590  0.00  0.00    +0.016 A 
ATOM     16  N   LIG    1       26.231 -21.593   6.047  0.00  0.00    -0.082 NA
ENDBRANCH   4   7
BRANCH   1  17
ATOM     17  C   LIG    1       24.384 -26.922   6.608  0.00  0.00    +0.089 C 
BRANCH  17  18
ATOM     18  C   LIG    1       25.418 -28.063   6.517  0.00  0.00    +0.058 C 
BRANCH  18  21
ATOM     19  C   LIG    1       26.610 -28.298   9.327  0.00  0.00    +0.066 C 
ATOM     20  C   LIG    1       25.702 -29.332   8.715  0.00  0.00    +0.049 C 
ATOM     21  C   LIG    1       25.172 -29.195   7.487  0.00  0.00    +0.039 C 
ATOM     22  C   LIG    1       24.318 -30.309   6.990  0.00  0.00    +0.258 C 
ATOM     23  O   LIG    1       23.705 -30.193   5.935  0.00  0.00    -0.267 OA
ATOM     24  N   LIG    1       24.265 -31.441   7.787  0.00  0.00    -0.296 N 
ATOM     25  C   LIG    1       23.392 -32.514   7.323  0.00  0.00    +0.126 C 
ATOM     26  C   LIG    1       23.547 -33.825   8.075  0.00  0.00    +0.022 C 
ATOM     27  C   LIG    1       23.526 -33.547   9.566  0.00  0.00    +0.009 C 
ATOM     28  C   LIG    1       24.703 -32.658   9.915  0.00  0.00    +0.074 C 
ATOM     29  C   LIG    1       24.815 -31.422   9.042  0.00  0.00    +0.113 C 
ATOM     30  N   LIG    1       25.494 -30.427   9.514  0.00  0.00    -0.238 NA
ENDBRANCH  18  21
ENDBRANCH  17  18
ENDBRANCH   1  17
TORSDOF 4
ENDMDL
MODEL 6
REMARK VINA RESULT:      -8.9      3.126      9.645
REMARK  Name = *****
REMARK                            x       y       z     vdW  Elec       q    Type
REMARK                         _______ _______ _______ _____ _____    ______ ____
ROOT
ATOM      1  N   LIG    1       24.906 -26.043   5.575  0.00  0.00    -0.302 NA
ATOM      2  C   LIG    1       23.947 -24.963   5.312  0.00  0.00    +0.085 C 
ATOM      3  C   LIG    1       23.593 -24.125   6.540  0.00  0.00    +0.025 C 
ATOM      4  C   LIG    1       24.841 -23.512   7.189  0.00  0.00    +0.044 C 
ATOM      5  C   LIG    1       25.890 -24.612   7.426  0.00  0.00    +0.025 C 
ATOM      6  C   LIG    1       26.129 -25.510   6.200  0.00  0.00    +0.085 C 
ENDROOT
BRANCH   4   7
ATOM      7  C   LIG    1       25.356 -22.314   6.427  0.00  0.00    +0.095 A 
ATOM      8  C   LIG    1       26.564 -21.587   6.642  0.00  0.00    +0.045 A 
ATOM      9  C   LIG    1       26.532 -20.595   5.676  0.00  0.00    +0.170 A 
ATOM     10  C   LIG    1       27.515 -19.629   5.496  0.00  0.00    +0.088 A 
ATOM     11  C   LIG    1       28.594 -19.701   6.372  0.00  0.00    +0.127 A 
ATOM     12  C   LIG    1       28.679 -20.678   7.365  0.00  0.00    +0.039 A 
ATOM     13  F   LIG    1       29.582 -18.804   6.259  0.00  0.00    -0.205 F 
ATOM     14  O   LIG    1       25.398 -20.718   4.942  0.00  0.00    -0.354 OA
ATOM     15  C   LIG    1       27.665 -21.638   7.518  0.00  0.00    +0.016 A 
ATOM     16  N   LIG    1       24.663 -21.790   5.405  0.00  0.00    -0.082 NA
ENDBRANCH   4   7
BRANCH   1  17
ATOM     17  C   LIG    1       24.381 -27.219   6.292  0.00  0.00    +0.089 C 
BRANCH  17  18
ATOM     18  C   LIG    1       25.345 -28.423   6.332  0.00  0.00    +0.058 C 
BRANCH  18  21
ATOM     19  C   LIG    1       26.558 -28.220   9.135  0.00  0.00    +0.066 C 
ATOM     20  C   LIG    1       25.629 -29.324   8.704  0.00  0.00    +0.049 C 
ATOM     21  C   LIG    1       25.090 -29.378   7.473  0.00  0.00    +0.039 C 
ATOM     22  C   LIG    1       24.215 -30.543   7.168  0.00  0.00    +0.258 C 
ATOM     23  O   LIG    1       23.595 -30.590   6.113  0.00  0.00    -0.267 OA
ATOM     24  N   LIG    1       24.151 -31.531   8.138  0.00  0.00    -0.296 N 
ATOM     25  C   LIG    1       23.258 -32.650   7.860  0.00  0.00    +0.126 C 
ATOM     26  C   LIG    1       23.399 -33.824   8.813  0.00  0.00    +0.022 C 
ATOM     27  C   LIG    1       23.396 -33.309  10.240  0.00  0.00    +0.009 C 
ATOM     28  C   LIG    1       24.589 -32.395  10.432  0.00  0.00    +0.074 C 
ATOM     29  C   LIG    1       24.713 -31.318   9.370  0.00  0.00    +0.113 C 
ATOM     30  N   LIG    1       25.412 -30.272   9.671  0.00  0.00    -0.238 NA
ENDBRANCH  18  21
ENDBRANCH  17  18
ENDBRANCH   1  17
TORSDOF 4
ENDMDL
MODEL 7
REMARK VINA RESULT:      -8.7      3.140      9.086
REMARK  Name = *****
REMARK                            x       y       z     vdW  Elec       q    Type
REMARK                         _______ _______ _______ _____ _____    ______ ____
ROOT
ATOM      1  N   LIG    1       24.899 -26.170   5.466  0.00  0.00    -0.302 NA
ATOM      2  C   LIG    1       23.918 -25.105   5.229  0.00  0.00    +0.085 C 
ATOM      3  C   LIG    1       23.553 -24.298   6.476  0.00  0.00    +0.025 C 
ATOM      4  C   LIG    1       24.792 -23.675   7.131  0.00  0.00    +0.044 C 
ATOM      5  C   LIG    1       25.863 -24.758   7.342  0.00  0.00    +0.025 C 
ATOM      6  C   LIG    1       26.114 -25.626   6.097  0.00  0.00    +0.085 C 
ENDROOT
BRANCH   4   7
ATOM      7  C   LIG    1       25.281 -22.451   6.391  0.00  0.00    +0.095 A 
ATOM      8  C   LIG    1       26.469 -21.698   6.624  0.00  0.00    +0.045 A 
ATOM      9  C   LIG    1       26.416 -20.691   5.674  0.00  0.00    +0.170 A 
ATOM     10  C   LIG    1       27.375 -19.698   5.515  0.00  0.00    +0.088 A 
ATOM     11  C   LIG    1       28.451 -19.757   6.396  0.00  0.00    +0.127 A 
ATOM     12  C   LIG    1       28.556 -20.747   7.373  0.00  0.00    +0.039 A 
ATOM     13  F   LIG    1       29.416 -18.833   6.302  0.00  0.00    -0.205 F 
ATOM     14  O   LIG    1       25.289 -20.831   4.932  0.00  0.00    -0.354 OA
ATOM     15  C   LIG    1       27.566 -21.735   7.505  0.00  0.00    +0.016 A 
ATOM     16  N   LIG    1       24.580 -21.929   5.374  0.00  0.00    -0.082 NA
ENDBRANCH   4   7
BRANCH   1  17
ATOM     17  C   LIG    1       24.400 -27.371   6.162  0.00  0.00    +0.089 C 
BRANCH  17  18
ATOM     18  C   LIG    1       25.422 -28.523   6.255  0.00  0.00    +0.058 C 
BRANCH  18  21
ATOM     19  C   LIG    1       23.893 -31.173   6.139  0.00  0.00    +0.066 C 
ATOM     20  C   LIG    1       24.503 -30.614   7.397  0.00  0.00    +0.049 C 
ATOM     21  C   LIG    1       25.190 -29.458   7.417  0.00  0.00    +0.039 C 
ATOM     22  C   LIG    1       25.711 -29.004   8.736  0.00  0.00    +0.258 C 
ATOM     23  O   LIG    1       26.449 -28.029   8.805  0.00  0.00    -0.267 OA
ATOM     24  N   LIG    1       25.318 -29.747   9.838  0.00  0.00    -0.296 N 
ATOM     25  C   LIG    1       25.866 -29.330  11.124  0.00  0.00    +0.126 C 
ATOM     26  C   LIG    1       25.226 -29.997  12.330  0.00  0.00    +0.022 C 
ATOM     27  C   LIG    1       25.156 -31.493  12.090  0.00  0.00    +0.009 C 
ATOM     28  C   LIG    1       24.279 -31.755  10.883  0.00  0.00    +0.074 C 
ATOM     29  C   LIG    1       24.657 -30.935   9.663  0.00  0.00    +0.113 C 
ATOM     30  N   LIG    1       24.267 -31.378   8.511  0.00  0.00    -0.238 NA
ENDBRANCH  18  21
ENDBRANCH  17  18
ENDBRANCH   1  17
TORSDOF 4
ENDMDL
MODEL 8
REMARK VINA RESULT:      -8.6      3.992      9.473
REMARK  Name = *****
REMARK                            x       y       z     vdW  Elec       q    Type
REMARK                         _______ _______ _______ _____ _____    ______ ____
ROOT
ATOM      1  N   LIG    1       24.754 -25.881   5.653  0.00  0.00    -0.302 NA
ATOM      2  C   LIG    1       23.673 -24.902   5.499  0.00  0.00    +0.085 C 
ATOM      3  C   LIG    1       23.403 -24.061   6.747  0.00  0.00    +0.025 C 
ATOM      4  C   LIG    1       24.661 -23.319   7.214  0.00  0.00    +0.044 C 
ATOM      5  C   LIG    1       25.830 -24.312   7.332  0.00  0.00    +0.025 C 
ATOM      6  C   LIG    1       25.993 -25.221   6.102  0.00  0.00    +0.085 C 
ENDROOT
BRANCH   4   7
ATOM      7  C   LIG    1       24.960 -22.103   6.369  0.00  0.00    +0.095 A 
ATOM      8  C   LIG    1       24.034 -21.235   5.718  0.00  0.00    +0.045 A 
ATOM      9  C   LIG    1       24.840 -20.303   5.085  0.00  0.00    +0.170 A 
ATOM     10  C   LIG    1       24.377 -19.244   4.314  0.00  0.00    +0.088 A 
ATOM     11  C   LIG    1       22.993 -19.149   4.198  0.00  0.00    +0.127 A 
ATOM     12  C   LIG    1       22.132 -20.059   4.812  0.00  0.00    +0.039 A 
ATOM     13  F   LIG    1       22.472 -18.151   3.471  0.00  0.00    -0.205 F 
ATOM     14  O   LIG    1       26.142 -20.590   5.336  0.00  0.00    -0.354 OA
ATOM     15  C   LIG    1       22.638 -21.119   5.583  0.00  0.00    +0.016 A 
ATOM     16  N   LIG    1       26.221 -21.710   6.138  0.00  0.00    -0.082 NA
ENDBRANCH   4   7
BRANCH   1  17
ATOM     17  C   LIG    1       24.439 -27.078   6.455  0.00  0.00    +0.089 C 
BRANCH  17  18
ATOM     18  C   LIG    1       25.593 -28.096   6.561  0.00  0.00    +0.058 C 
BRANCH  18  21
ATOM     19  C   LIG    1       24.050 -30.676   5.988  0.00  0.00    +0.066 C 
ATOM     20  C   LIG    1       24.648 -30.340   7.329  0.00  0.00    +0.049 C 
ATOM     21  C   LIG    1       25.342 -29.210   7.549  0.00  0.00    +0.039 C 
ATOM     22  C   LIG    1       25.850 -28.986   8.930  0.00  0.00    +0.258 C 
ATOM     23  O   LIG    1       26.593 -28.042   9.169  0.00  0.00    -0.267 OA
ATOM     24  N   LIG    1       25.440 -29.900   9.888  0.00  0.00    -0.296 N 
ATOM     25  C   LIG    1       25.974 -29.707  11.232  0.00  0.00    +0.126 C 
ATOM     26  C   LIG    1       25.317 -30.561  12.303  0.00  0.00    +0.022 C 
ATOM     27  C   LIG    1       25.240 -31.995  11.816  0.00  0.00    +0.009 C 
ATOM     28  C   LIG    1       24.375 -32.045  10.573  0.00  0.00    +0.074 C 
ATOM     29  C   LIG    1       24.773 -31.036   9.511  0.00  0.00    +0.113 C 
ATOM     30  N   LIG    1       24.394 -31.277   8.297  0.00  0.00    -0.238 NA
ENDBRANCH  18  21
ENDBRANCH  17  18
ENDBRANCH   1  17
TORSDOF 4
ENDMDL
MODEL 9
REMARK VINA RESULT:      -8.5      3.837     10.096
REMARK  Name = *****
REMARK                            x       y       z     vdW  Elec       q    Type
REMARK                         _______ _______ _______ _____ _____    ______ ____
ROOT
ATOM      1  N   LIG    1       24.730 -29.225   6.200  0.00  0.00    -0.302 NA
ATOM      2  C   LIG    1       24.964 -28.405   7.394  0.00  0.00    +0.085 C 
ATOM      3  C   LIG    1       26.120 -27.414   7.258  0.00  0.00    +0.025 C 
ATOM      4  C   LIG    1       25.927 -26.476   6.061  0.00  0.00    +0.044 C 
ATOM      5  C   LIG    1       25.623 -27.305   4.801  0.00  0.00    +0.025 C 
ATOM      6  C   LIG    1       24.536 -28.372   5.014  0.00  0.00    +0.085 C 
ENDROOT
BRANCH   4   7
ATOM      7  C   LIG    1       24.923 -25.381   6.343  0.00  0.00    +0.095 A 
ATOM      8  C   LIG    1       25.174 -24.055   6.803  0.00  0.00    +0.045 A 
ATOM      9  C   LIG    1       23.912 -23.492   6.896  0.00  0.00    +0.170 A 
ATOM     10  C   LIG    1       23.651 -22.191   7.310  0.00  0.00    +0.088 A 
ATOM     11  C   LIG    1       24.769 -21.433   7.644  0.00  0.00    +0.127 A 
ATOM     12  C   LIG    1       26.064 -21.948   7.570  0.00  0.00    +0.039 A 
ATOM     13  F   LIG    1       24.597 -20.168   8.051  0.00  0.00    -0.205 F 
ATOM     14  O   LIG    1       22.982 -24.406   6.522  0.00  0.00    -0.354 OA
ATOM     15  C   LIG    1       26.289 -23.269   7.148  0.00  0.00    +0.016 A 
ATOM     16  N   LIG    1       23.609 -25.585   6.175  0.00  0.00    -0.082 NA
ENDBRANCH   4   7
BRANCH   1  17
ATOM     17  C   LIG    1       25.700 -30.308   5.954  0.00  0.00    +0.089 C 
BRANCH  17  18
ATOM     18  C   LIG    1       25.943 -31.232   7.166  0.00  0.00    +0.058 C 
BRANCH  18  21
ATOM     19  C   LIG    1       24.645 -33.518   5.599  0.00  0.00    +0.066 C 
ATOM     20  C   LIG    1       24.124 -33.006   6.916  0.00  0.00    +0.049 C 
ATOM     21  C   LIG    1       24.726 -32.015   7.597  0.00  0.00    +0.039 C 
ATOM     22  C   LIG    1       24.085 -31.582   8.869  0.00  0.00    +0.258 C 
ATOM     23  O   LIG    1       24.647 -30.774   9.599  0.00  0.00    -0.267 OA
ATOM     24  N   LIG    1       22.854 -32.150   9.158  0.00  0.00    -0.296 N 
ATOM     25  C   LIG    1       22.248 -31.760  10.427  0.00  0.00    +0.126 C 
ATOM     26  C   LIG    1       20.803 -32.197  10.598  0.00  0.00    +0.022 C 
ATOM     27  C   LIG    1       20.679 -33.661  10.222  0.00  0.00    +0.009 C 
ATOM     28  C   LIG    1       21.055 -33.825   8.763  0.00  0.00    +0.074 C 
ATOM     29  C   LIG    1       22.384 -33.188   8.399  0.00  0.00    +0.113 C 
ATOM     30  N   LIG    1       22.973 -33.624   7.332  0.00  0.00    -0.238 NA
ENDBRANCH  18  21
ENDBRANCH  17  18
ENDBRANCH   1  17
TORSDOF 4
ENDMDL
