MODEL 1
REMARK VINA RESULT:       1.5      0.000      0.000
REMARK  Name = *****
REMARK                            x       y       z     vdW  Elec       q    Type
REMARK                         _______ _______ _______ _____ _____    ______ ____
ROOT
ATOM      1  C   LIG    1       23.845 -21.343   5.154  0.00  0.00    +0.058 C 
ATOM      2  C   LIG    1       22.832 -20.598   6.033  0.00  0.00    +0.026 C 
ATOM      3  C   LIG    1       22.346 -19.272   5.436  0.00  0.00    +0.085 C 
ATOM      4  N   LIG    1       21.840 -19.502   4.076  0.00  0.00    -0.302 NA
ATOM      5  C   LIG    1       22.962 -19.940   3.221  0.00  0.00    +0.085 C 
ATOM      6  C   LIG    1       23.458 -21.307   3.674  0.00  0.00    +0.026 C 
ENDROOT
BRANCH   1   8
ATOM      7  N   LIG    1       25.958 -20.032   4.511  0.00  0.00    -0.325 N 
ATOM      8  C   LIG    1       25.255 -20.850   5.380  0.00  0.00    +0.114 A 
ATOM      9  N   LIG    1       25.997 -21.141   6.434  0.00  0.00    -0.232 NA
ATOM     10  C   LIG    1       27.200 -20.507   6.249  0.00  0.00    +0.089 A 
ATOM     11  C   LIG    1       28.345 -20.498   7.061  0.00  0.00    +0.030 A 
ATOM     12  C   LIG    1       29.474 -19.785   6.636  0.00  0.00    +0.002 A 
ATOM     13  C   LIG    1       29.461 -19.081   5.434  0.00  0.00    +0.002 A 
ATOM     14  C   LIG    1       28.319 -19.058   4.627  0.00  0.00    +0.028 A 
ATOM     15  C   LIG    1       27.205 -19.796   5.056  0.00  0.00    +0.069 A 
BRANCH   7  16
ATOM     16  C   LIG    1       25.520 -19.505   3.235  0.00  0.00    +0.151 C 
BRANCH  16  17
ATOM     17  C   LIG    1       25.045 -18.061   3.323  0.00  0.00    +0.181 C 
BRANCH  17  18
ATOM     18  O   LIG    1       26.040 -17.210   2.753  0.00  0.00    -0.378 OA
BRANCH  18  20
ATOM     19  C   LIG    1       27.400 -15.607   3.881  0.00  0.00    +0.034 C 
ATOM     20  C   LIG    1       26.014 -15.919   3.362  0.00  0.00    +0.156 C 
ENDBRANCH  18  20
ENDBRANCH  17  18
ENDBRANCH  16  17
ENDBRANCH   7  16
ENDBRANCH   1   8
BRANCH   4  21
ATOM     21  C   LIG    1       21.186 -18.334   3.455  0.00  0.00    +0.089 C 
BRANCH  21  22
ATOM     22  C   LIG    1       20.810 -17.164   4.386  0.00  0.00    +0.050 C 
BRANCH  22  23
ATOM     23  C   LIG    1       21.882 -16.093   4.334  0.00  0.00    -0.046 A 
ATOM     24  C   LIG    1       22.069 -15.332   3.177  0.00  0.00    +0.004 A 
ATOM     25  C   LIG    1       22.981 -14.269   3.158  0.00  0.00    +0.005 A 
ATOM     26  C   LIG    1       23.730 -13.925   4.294  0.00  0.00    -0.031 A 
ATOM     27  C   LIG    1       23.574 -14.731   5.439  0.00  0.00    +0.005 A 
ATOM     28  C   LIG    1       22.656 -15.791   5.460  0.00  0.00    +0.004 A 
BRANCH  26  29
ATOM     29  C   LIG    1       24.751 -12.771   4.277  0.00  0.00    +0.087 C 
ATOM     30  C   LIG    1       25.976 -13.031   5.190  0.00  0.00    +0.027 C 
ATOM     31  C   LIG    1       24.060 -11.500   4.768  0.00  0.00    +0.027 C 
BRANCH  29  32
ATOM     32  C   LIG    1       25.320 -12.499   2.858  0.00  0.00    +0.315 C 
ATOM     33  O   LIG    1       26.508 -12.570   2.557  0.00  0.00    -0.250 OA
BRANCH  32  34
ATOM     34  O   LIG    1       24.372 -12.185   1.929  0.00  0.00    -0.480 OA
ATOM     35  H   LIG    1       23.509 -11.958   2.284  0.00  0.00    +0.295 HD
ENDBRANCH  32  34
ENDBRANCH  29  32
ENDBRANCH  26  29
ENDBRANCH  22  23
ENDBRANCH  21  22
ENDBRANCH   4  21
TORSDOF 11
ENDMDL
MODEL 2
REMARK VINA RESULT:       4.5      2.169      3.959
REMARK  Name = *****
REMARK                            x       y       z     vdW  Elec       q    Type
REMARK                         _______ _______ _______ _____ _____    ______ ____
ROOT
ATOM      1  C   LIG    1       24.270 -19.153   3.386  0.00  0.00    +0.058 C 
ATOM      2  C   LIG    1       22.995 -19.116   4.239  0.00  0.00    +0.026 C 
ATOM      3  C   LIG    1       22.727 -17.760   4.903  0.00  0.00    +0.085 C 
ATOM      4  N   LIG    1       22.745 -16.702   3.883  0.00  0.00    -0.302 NA
ATOM      5  C   LIG    1       24.107 -16.612   3.320  0.00  0.00    +0.085 C 
ATOM      6  C   LIG    1       24.437 -17.883   2.548  0.00  0.00    +0.026 C 
ENDROOT
BRANCH   1   8
ATOM      7  N   LIG    1       25.638 -20.525   5.071  0.00  0.00    -0.325 N 
ATOM      8  C   LIG    1       25.495 -19.442   4.221  0.00  0.00    +0.114 A 
ATOM      9  N   LIG    1       26.585 -18.693   4.248  0.00  0.00    -0.232 NA
ATOM     10  C   LIG    1       27.447 -19.295   5.129  0.00  0.00    +0.089 A 
ATOM     11  C   LIG    1       28.732 -18.905   5.536  0.00  0.00    +0.030 A 
ATOM     12  C   LIG    1       29.413 -19.685   6.481  0.00  0.00    +0.002 A 
ATOM     13  C   LIG    1       28.833 -20.840   7.000  0.00  0.00    +0.002 A 
ATOM     14  C   LIG    1       27.563 -21.256   6.586  0.00  0.00    +0.028 A 
ATOM     15  C   LIG    1       26.888 -20.452   5.657  0.00  0.00    +0.069 A 
BRANCH   7  16
ATOM     16  C   LIG    1       24.674 -21.570   5.350  0.00  0.00    +0.151 C 
BRANCH  16  17
ATOM     17  C   LIG    1       23.876 -21.313   6.622  0.00  0.00    +0.181 C 
BRANCH  17  18
ATOM     18  O   LIG    1       22.485 -21.464   6.337  0.00  0.00    -0.378 OA
BRANCH  18  20
ATOM     19  C   LIG    1       20.750 -21.259   4.713  0.00  0.00    +0.034 C 
ATOM     20  C   LIG    1       22.242 -21.374   4.933  0.00  0.00    +0.156 C 
ENDBRANCH  18  20
ENDBRANCH  17  18
ENDBRANCH  16  17
ENDBRANCH   7  16
ENDBRANCH   1   8
BRANCH   4  21
ATOM     21  C   LIG    1       22.332 -15.372   4.368  0.00  0.00    +0.089 C 
BRANCH  21  22
ATOM     22  C   LIG    1       22.632 -14.167   3.453  0.00  0.00    +0.050 C 
BRANCH  22  23
ATOM     23  C   LIG    1       24.075 -13.733   3.620  0.00  0.00    -0.046 A 
ATOM     24  C   LIG    1       24.714 -13.853   4.857  0.00  0.00    +0.004 A 
ATOM     25  C   LIG    1       26.076 -13.558   4.991  0.00  0.00    +0.005 A 
ATOM     26  C   LIG    1       26.848 -13.142   3.895  0.00  0.00    -0.031 A 
ATOM     27  C   LIG    1       26.184 -12.973   2.665  0.00  0.00    +0.005 A 
ATOM     28  C   LIG    1       24.821 -13.275   2.529  0.00  0.00    +0.004 A 
BRANCH  26  29
ATOM     29  C   LIG    1       28.343 -12.795   4.038  0.00  0.00    +0.087 C 
ATOM     30  C   LIG    1       28.780 -11.615   3.134  0.00  0.00    +0.027 C 
ATOM     31  C   LIG    1       29.168 -14.020   3.645  0.00  0.00    +0.027 C 
BRANCH  29  32
ATOM     32  C   LIG    1       28.727 -12.393   5.488  0.00  0.00    +0.315 C 
ATOM     33  O   LIG    1       29.471 -11.463   5.780  0.00  0.00    -0.250 OA
BRANCH  32  34
ATOM     34  O   LIG    1       28.140 -13.160   6.452  0.00  0.00    -0.480 OA
ATOM     35  H   LIG    1       27.251 -13.462   6.250  0.00  0.00    +0.295 HD
ENDBRANCH  32  34
ENDBRANCH  29  32
ENDBRANCH  26  29
ENDBRANCH  22  23
ENDBRANCH  21  22
ENDBRANCH   4  21
TORSDOF 11
ENDMDL
