MODEL 1
REMARK VINA RESULT:      30.1      0.000      0.000
REMARK  Name = *****
REMARK                            x       y       z     vdW  Elec       q    Type
REMARK                         _______ _______ _______ _____ _____    ______ ____
ROOT
ATOM      1  C   LIG    1       20.258 -19.310   2.590  0.00  0.00    +0.121 A 
ATOM      2  C   LIG    1       21.411 -19.567   3.323  0.00  0.00    +0.060 A 
ATOM      3  C   LIG    1       22.320 -18.536   3.622  0.00  0.00    +0.062 A 
ATOM      4  C   LIG    1       22.109 -17.221   3.141  0.00  0.00    +0.046 A 
ATOM      5  C   LIG    1       20.896 -16.963   2.484  0.00  0.00    +0.027 A 
ATOM      6  C   LIG    1       19.989 -17.999   2.206  0.00  0.00    +0.047 A 
ENDROOT
BRANCH   3   7
ATOM      7  C   LIG    1       23.474 -18.832   4.540  0.00  0.00    +0.251 C 
ATOM      8  N   LIG    1       24.610 -19.338   3.918  0.00  0.00    -0.266 N 
ATOM      9  H   LIG    1       24.642 -19.366   2.916  0.00  0.00    +0.157 HD
ATOM     10  O   LIG    1       23.332 -18.593   5.717  0.00  0.00    -0.270 OA
BRANCH   8  11
ATOM     11  C   LIG    1       25.798 -19.670   4.584  0.00  0.00    +0.125 A 
ATOM     12  N   LIG    1       25.817 -20.641   5.510  0.00  0.00    -0.239 NA
ATOM     13  C   LIG    1       26.952 -20.815   6.229  0.00  0.00    +0.133 A 
ATOM     14  C   LIG    1       28.100 -20.068   6.040  0.00  0.00    +0.059 A 
ATOM     15 CL   LIG    1       29.473 -20.286   7.044  0.00  0.00    -0.082 Cl
ATOM     16  C   LIG    1       28.097 -19.109   5.038  0.00  0.00    +0.025 A 
ATOM     17  C   LIG    1       26.930 -18.905   4.296  0.00  0.00    +0.045 A 
ENDBRANCH   8  11
ENDBRANCH   3   7
BRANCH   4  18
ATOM     18  N   LIG    1       23.135 -16.241   3.292  0.00  0.00    -0.281 N 
ATOM     19  H   LIG    1       23.882 -16.508   3.928  0.00  0.00    +0.155 HD
ATOM     20  C   LIG    1       23.252 -15.013   2.659  0.00  0.00    +0.248 C 
ATOM     21  O   LIG    1       22.472 -14.565   1.828  0.00  0.00    -0.270 OA
BRANCH  20  22
ATOM     22  C   LIG    1       24.465 -14.187   3.005  0.00  0.00    +0.037 A 
ATOM     23  C   LIG    1       25.176 -13.400   2.088  0.00  0.00    +0.014 A 
ATOM     24  C   LIG    1       26.342 -12.711   2.494  0.00  0.00    +0.016 A 
ATOM     25  C   LIG    1       26.808 -12.792   3.818  0.00  0.00    +0.065 A 
ATOM     26  C   LIG    1       26.090 -13.572   4.729  0.00  0.00    +0.016 A 
ATOM     27  C   LIG    1       24.939 -14.264   4.325  0.00  0.00    +0.014 A 
BRANCH  25  28
ATOM     28  C   LIG    1       28.013 -12.013   4.304  0.00  0.00    +0.312 C 
ATOM     29  N   LIG    1       28.852 -11.503   3.451  0.00  0.00    -0.099 NA
ATOM     30  H   LIG    1       28.582 -11.687   2.485  0.00  0.00    +0.363 HD
BRANCH  28  31
ATOM     31  N   LIG    1       28.200 -11.765   5.666  0.00  0.00    -0.226 N 
ATOM     32  C   LIG    1       27.065 -11.891   6.581  0.00  0.00    +0.276 C 
ATOM     33  C   LIG    1       29.473 -12.189   6.261  0.00  0.00    +0.276 C 
ENDBRANCH  28  31
ENDBRANCH  25  28
ENDBRANCH  20  22
ENDBRANCH   4  18
BRANCH   1  35
ATOM     34  C   LIG    1       19.395 -21.512   2.836  0.00  0.00    +0.277 C 
ATOM     35  O   LIG    1       19.368 -20.255   2.167  0.00  0.00    -0.495 OA
ENDBRANCH   1  35
TORSDOF 7
ENDMDL
