MODEL 1
REMARK VINA RESULT:      -2.9      0.000      0.000
REMARK  Name = *****
REMARK                            x       y       z     vdW  Elec       q    Type
REMARK                         _______ _______ _______ _____ _____    ______ ____
ROOT
ATOM      1  N   LIG    1       26.797 -14.085   2.053  0.00  0.00    -0.130 NA
ATOM      2  H   LIG    1       26.886 -13.210   1.535  0.00  0.00    +0.306 HD
ATOM      3  C   LIG    1       27.585 -14.059   3.063  0.00  0.00    +0.374 C 
ENDROOT
BRANCH   3   4
ATOM      4  N   LIG    1       27.656 -15.091   3.903  0.00  0.00    -0.289 N 
ATOM      5  H   LIG    1       27.696 -16.054   3.615  0.00  0.00    +0.255 HD
ATOM      6  H   LIG    1       27.672 -14.876   4.892  0.00  0.00    +0.255 HD
ENDBRANCH   3   4
BRANCH   3   7
ATOM      7  N   LIG    1       28.386 -13.036   3.369  0.00  0.00    -0.289 N 
ATOM      8  H   LIG    1       28.853 -12.982   4.260  0.00  0.00    +0.255 HD
ATOM      9  H   LIG    1       28.548 -12.285   2.715  0.00  0.00    +0.255 HD
ENDBRANCH   3   7
TORSDOF 2
ENDMDL
MODEL 2
REMARK VINA RESULT:      -2.9      0.033      1.588
REMARK  Name = *****
REMARK                            x       y       z     vdW  Elec       q    Type
REMARK                         _______ _______ _______ _____ _____    ______ ____
ROOT
ATOM      1  N   LIG    1       26.785 -14.068   2.043  0.00  0.00    -0.130 NA
ATOM      2  H   LIG    1       26.269 -14.947   2.005  0.00  0.00    +0.306 HD
ATOM      3  C   LIG    1       27.565 -14.081   3.059  0.00  0.00    +0.374 C 
ENDROOT
BRANCH   3   4
ATOM      4  N   LIG    1       28.353 -13.041   3.333  0.00  0.00    -0.289 N 
ATOM      5  H   LIG    1       28.077 -12.080   3.228  0.00  0.00    +0.255 HD
ATOM      6  H   LIG    1       29.284 -13.248   3.669  0.00  0.00    +0.255 HD
ENDBRANCH   3   4
BRANCH   3   7
ATOM      7  N   LIG    1       27.670 -15.099   3.918  0.00  0.00    -0.289 N 
ATOM      8  H   LIG    1       27.378 -16.030   3.667  0.00  0.00    +0.255 HD
ATOM      9  H   LIG    1       28.045 -14.964   4.844  0.00  0.00    +0.255 HD
ENDBRANCH   3   7
TORSDOF 2
ENDMDL
MODEL 3
REMARK VINA RESULT:      -2.7      0.512      2.102
REMARK  Name = *****
REMARK                            x       y       z     vdW  Elec       q    Type
REMARK                         _______ _______ _______ _____ _____    ______ ____
ROOT
ATOM      1  N   LIG    1       28.836 -12.994   3.644  0.00  0.00    -0.130 NA
ATOM      2  H   LIG    1       29.447 -13.381   4.365  0.00  0.00    +0.306 HD
ATOM      3  C   LIG    1       27.899 -13.831   3.393  0.00  0.00    +0.374 C 
ENDROOT
BRANCH   3   4
ATOM      4  N   LIG    1       26.964 -13.562   2.481  0.00  0.00    -0.289 N 
ATOM      5  H   LIG    1       26.967 -13.924   1.544  0.00  0.00    +0.255 HD
ATOM      6  H   LIG    1       26.209 -12.953   2.767  0.00  0.00    +0.255 HD
ENDBRANCH   3   4
BRANCH   3   7
ATOM      7  N   LIG    1       27.763 -15.016   3.995  0.00  0.00    -0.289 N 
ATOM      8  H   LIG    1       28.489 -15.714   3.951  0.00  0.00    +0.255 HD
ATOM      9  H   LIG    1       26.929 -15.246   4.514  0.00  0.00    +0.255 HD
ENDBRANCH   3   7
TORSDOF 2
ENDMDL
MODEL 4
REMARK VINA RESULT:      -2.7      0.554      1.664
REMARK  Name = *****
REMARK                            x       y       z     vdW  Elec       q    Type
REMARK                         _______ _______ _______ _____ _____    ______ ____
ROOT
ATOM      1  N   LIG    1       27.755 -15.007   3.962  0.00  0.00    -0.130 NA
ATOM      2  H   LIG    1       28.549 -15.150   4.587  0.00  0.00    +0.306 HD
ATOM      3  C   LIG    1       27.860 -13.859   3.405  0.00  0.00    +0.374 C 
ENDROOT
BRANCH   3   4
ATOM      4  N   LIG    1       26.941 -13.430   2.539  0.00  0.00    -0.289 N 
ATOM      5  H   LIG    1       27.056 -13.442   1.540  0.00  0.00    +0.255 HD
ATOM      6  H   LIG    1       26.077 -13.075   2.927  0.00  0.00    +0.255 HD
ENDBRANCH   3   4
BRANCH   3   7
ATOM      7  N   LIG    1       28.861 -13.002   3.622  0.00  0.00    -0.289 N 
ATOM      8  H   LIG    1       29.708 -13.290   4.087  0.00  0.00    +0.255 HD
ATOM      9  H   LIG    1       28.799 -12.040   3.326  0.00  0.00    +0.255 HD
ENDBRANCH   3   7
TORSDOF 2
ENDMDL
MODEL 5
REMARK VINA RESULT:      -2.7      0.548      1.902
REMARK  Name = *****
REMARK                            x       y       z     vdW  Elec       q    Type
REMARK                         _______ _______ _______ _____ _____    ______ ____
ROOT
ATOM      1  N   LIG    1       27.770 -14.993   3.974  0.00  0.00    -0.130 NA
ATOM      2  H   LIG    1       26.923 -15.482   3.679  0.00  0.00    +0.306 HD
ATOM      3  C   LIG    1       27.825 -13.856   3.386  0.00  0.00    +0.374 C 
ENDROOT
BRANCH   3   4
ATOM      4  N   LIG    1       28.843 -13.022   3.602  0.00  0.00    -0.289 N 
ATOM      5  H   LIG    1       28.738 -12.045   3.814  0.00  0.00    +0.255 HD
ATOM      6  H   LIG    1       29.774 -13.413   3.548  0.00  0.00    +0.255 HD
ENDBRANCH   3   4
BRANCH   3   7
ATOM      7  N   LIG    1       26.906 -13.403   2.530  0.00  0.00    -0.289 N 
ATOM      8  H   LIG    1       26.249 -12.686   2.794  0.00  0.00    +0.255 HD
ATOM      9  H   LIG    1       26.843 -13.766   1.591  0.00  0.00    +0.255 HD
ENDBRANCH   3   7
TORSDOF 2
ENDMDL
MODEL 6
REMARK VINA RESULT:      -2.6      2.097      2.454
REMARK  Name = *****
REMARK                            x       y       z     vdW  Elec       q    Type
REMARK                         _______ _______ _______ _____ _____    ______ ____
ROOT
ATOM      1  N   LIG    1       28.703 -13.052   3.514  0.00  0.00    -0.130 NA
ATOM      2  H   LIG    1       29.563 -12.579   3.233  0.00  0.00    +0.306 HD
ATOM      3  C   LIG    1       28.392 -12.688   4.702  0.00  0.00    +0.374 C 
ENDROOT
BRANCH   3   4
ATOM      4  N   LIG    1       27.303 -13.168   5.303  0.00  0.00    -0.289 N 
ATOM      5  H   LIG    1       26.521 -12.606   5.589  0.00  0.00    +0.255 HD
ATOM      6  H   LIG    1       27.277 -14.165   5.475  0.00  0.00    +0.255 HD
ENDBRANCH   3   4
BRANCH   3   7
ATOM      7  N   LIG    1       29.098 -11.824   5.436  0.00  0.00    -0.289 N 
ATOM      8  H   LIG    1       28.895 -10.837   5.425  0.00  0.00    +0.255 HD
ATOM      9  H   LIG    1       29.856 -12.135   6.025  0.00  0.00    +0.255 HD
ENDBRANCH   3   7
TORSDOF 2
ENDMDL
MODEL 7
REMARK VINA RESULT:      -2.6      2.102      2.832
REMARK  Name = *****
REMARK                            x       y       z     vdW  Elec       q    Type
REMARK                         _______ _______ _______ _____ _____    ______ ____
ROOT
ATOM      1  N   LIG    1       27.243 -13.201   5.356  0.00  0.00    -0.130 NA
ATOM      2  H   LIG    1       26.785 -13.855   4.721  0.00  0.00    +0.306 HD
ATOM      3  C   LIG    1       28.292 -12.730   4.790  0.00  0.00    +0.374 C 
ENDROOT
BRANCH   3   4
ATOM      4  N   LIG    1       29.071 -11.849   5.417  0.00  0.00    -0.289 N 
ATOM      5  H   LIG    1       29.390 -10.986   5.011  0.00  0.00    +0.255 HD
ATOM      6  H   LIG    1       29.351 -12.076   6.362  0.00  0.00    +0.255 HD
ENDBRANCH   3   4
BRANCH   3   7
ATOM      7  N   LIG    1       28.699 -13.059   3.562  0.00  0.00    -0.289 N 
ATOM      8  H   LIG    1       29.555 -13.569   3.410  0.00  0.00    +0.255 HD
ATOM      9  H   LIG    1       28.160 -12.805   2.747  0.00  0.00    +0.255 HD
ENDBRANCH   3   7
TORSDOF 2
ENDMDL
MODEL 8
REMARK VINA RESULT:      -2.5      1.249      1.699
REMARK  Name = *****
REMARK                            x       y       z     vdW  Elec       q    Type
REMARK                         _______ _______ _______ _____ _____    ______ ____
ROOT
ATOM      1  N   LIG    1       27.630 -15.019   3.846  0.00  0.00    -0.130 NA
ATOM      2  H   LIG    1       28.177 -15.261   3.018  0.00  0.00    +0.306 HD
ATOM      3  C   LIG    1       27.858 -13.798   4.160  0.00  0.00    +0.374 C 
ENDROOT
BRANCH   3   4
ATOM      4  N   LIG    1       27.262 -13.237   5.212  0.00  0.00    -0.289 N 
ATOM      5  H   LIG    1       26.329 -12.865   5.201  0.00  0.00    +0.255 HD
ATOM      6  H   LIG    1       27.796 -13.192   6.070  0.00  0.00    +0.255 HD
ENDBRANCH   3   4
BRANCH   3   7
ATOM      7  N   LIG    1       28.685 -12.989   3.492  0.00  0.00    -0.289 N 
ATOM      8  H   LIG    1       29.602 -12.766   3.845  0.00  0.00    +0.255 HD
ATOM      9  H   LIG    1       28.415 -12.577   2.612  0.00  0.00    +0.255 HD
ENDBRANCH   3   7
TORSDOF 2
ENDMDL
MODEL 9
REMARK VINA RESULT:      -2.4      1.899      2.448
REMARK  Name = *****
REMARK                            x       y       z     vdW  Elec       q    Type
REMARK                         _______ _______ _______ _____ _____    ______ ____
ROOT
ATOM      1  N   LIG    1       26.812 -14.131   1.987  0.00  0.00    -0.130 NA
ATOM      2  H   LIG    1       26.696 -14.029   0.978  0.00  0.00    +0.306 HD
ATOM      3  C   LIG    1       25.849 -13.534   2.585  0.00  0.00    +0.374 C 
ENDROOT
BRANCH   3   4
ATOM      4  N   LIG    1       25.771 -13.521   3.915  0.00  0.00    -0.289 N 
ATOM      5  H   LIG    1       24.938 -13.736   4.435  0.00  0.00    +0.255 HD
ATOM      6  H   LIG    1       26.614 -13.280   4.421  0.00  0.00    +0.255 HD
ENDBRANCH   3   4
BRANCH   3   7
ATOM      7  N   LIG    1       24.859 -12.888   1.963  0.00  0.00    -0.289 N 
ATOM      8  H   LIG    1       23.895 -13.144   2.103  0.00  0.00    +0.255 HD
ATOM      9  H   LIG    1       25.049 -12.123   1.333  0.00  0.00    +0.255 HD
ENDBRANCH   3   7
TORSDOF 2
ENDMDL
