MODEL 1
REMARK VINA RESULT:      -6.4      0.000      0.000
REMARK  Name = *****
REMARK                            x       y       z     vdW  Elec       q    Type
REMARK                         _______ _______ _______ _____ _____    ______ ____
ROOT
ATOM      1  C   LIG    1       23.228 -21.517   7.079  0.00  0.00    +0.051 C 
ENDROOT
BRANCH   1   2
ATOM      2  C   LIG    1       23.495 -20.650   5.869  0.00  0.00    -0.046 A 
ATOM      3  C   LIG    1       22.530 -19.741   5.415  0.00  0.00    +0.003 A 
ATOM      4  C   LIG    1       22.790 -18.918   4.317  0.00  0.00    +0.000 A 
ATOM      5  C   LIG    1       24.017 -18.997   3.660  0.00  0.00    +0.000 A 
ATOM      6  C   LIG    1       24.982 -19.901   4.099  0.00  0.00    +0.000 A 
ATOM      7  C   LIG    1       24.724 -20.722   5.199  0.00  0.00    +0.003 A 
ENDBRANCH   1   2
BRANCH   1   8
ATOM      8  C   LIG    1       23.861 -22.910   6.941  0.00  0.00    +0.103 C 
BRANCH   8   9
ATOM      9  N   LIG    1       22.833 -23.915   6.625  0.00  0.00    -0.259 NA
ATOM     10  H   LIG    1       22.231 -24.063   7.440  0.00  0.00    +0.140 HD
BRANCH   9  11
ATOM     11  N   LIG    1       23.479 -25.126   6.181  0.00  0.00    -0.271 NA
ATOM     12  H   LIG    1       24.482 -25.004   6.021  0.00  0.00    +0.137 HD
ATOM     13  H   LIG    1       23.386 -25.873   6.876  0.00  0.00    +0.137 HD
ENDBRANCH   9  11
ENDBRANCH   8   9
ENDBRANCH   1   8
TORSDOF 4
ENDMDL
MODEL 2
REMARK VINA RESULT:      -6.3      2.238      2.857
REMARK  Name = *****
REMARK                            x       y       z     vdW  Elec       q    Type
REMARK                         _______ _______ _______ _____ _____    ______ ____
ROOT
ATOM      1  C   LIG    1       23.832 -21.526   7.347  0.00  0.00    +0.051 C 
ENDROOT
BRANCH   1   2
ATOM      2  C   LIG    1       23.854 -20.676   6.098  0.00  0.00    -0.046 A 
ATOM      3  C   LIG    1       25.009 -20.593   5.309  0.00  0.00    +0.003 A 
ATOM      4  C   LIG    1       25.017 -19.833   4.138  0.00  0.00    +0.000 A 
ATOM      5  C   LIG    1       23.870 -19.145   3.743  0.00  0.00    +0.000 A 
ATOM      6  C   LIG    1       22.717 -19.215   4.523  0.00  0.00    +0.000 A 
ATOM      7  C   LIG    1       22.707 -19.978   5.692  0.00  0.00    +0.003 A 
ENDBRANCH   1   2
BRANCH   1   8
ATOM      8  C   LIG    1       25.214 -22.115   7.669  0.00  0.00    +0.103 C 
BRANCH   8   9
ATOM      9  N   LIG    1       25.564 -21.873   9.079  0.00  0.00    -0.259 NA
ATOM     10  H   LIG    1       24.770 -22.116   9.679  0.00  0.00    +0.140 HD
BRANCH   9  11
ATOM     11  N   LIG    1       25.980 -20.501   9.233  0.00  0.00    -0.271 NA
ATOM     12  H   LIG    1       26.436 -20.129   8.395  0.00  0.00    +0.137 HD
ATOM     13  H   LIG    1       25.181 -19.890   9.423  0.00  0.00    +0.137 HD
ENDBRANCH   9  11
ENDBRANCH   8   9
ENDBRANCH   1   8
TORSDOF 4
ENDMDL
MODEL 3
REMARK VINA RESULT:      -6.3      2.230      2.414
REMARK  Name = *****
REMARK                            x       y       z     vdW  Elec       q    Type
REMARK                         _______ _______ _______ _____ _____    ______ ____
ROOT
ATOM      1  C   LIG    1       23.767 -21.509   7.253  0.00  0.00    +0.051 C 
ENDROOT
BRANCH   1   2
ATOM      2  C   LIG    1       23.783 -20.670   5.995  0.00  0.00    -0.046 A 
ATOM      3  C   LIG    1       22.665 -19.910   5.627  0.00  0.00    +0.003 A 
ATOM      4  C   LIG    1       22.694 -19.111   4.483  0.00  0.00    +0.000 A 
ATOM      5  C   LIG    1       23.841 -19.064   3.693  0.00  0.00    +0.000 A 
ATOM      6  C   LIG    1       24.958 -19.819   4.045  0.00  0.00    +0.000 A 
ATOM      7  C   LIG    1       24.931 -20.617   5.191  0.00  0.00    +0.003 A 
ENDBRANCH   1   2
BRANCH   1   8
ATOM      8  C   LIG    1       25.169 -22.011   7.631  0.00  0.00    +0.103 C 
BRANCH   8   9
ATOM      9  N   LIG    1       25.431 -21.783   9.062  0.00  0.00    -0.259 NA
ATOM     10  H   LIG    1       24.560 -21.882   9.593  0.00  0.00    +0.140 HD
BRANCH   9  11
ATOM     11  N   LIG    1       26.042 -20.488   9.229  0.00  0.00    -0.271 NA
ATOM     12  H   LIG    1       26.082 -20.191  10.208  0.00  0.00    +0.137 HD
ATOM     13  H   LIG    1       27.007 -20.486   8.887  0.00  0.00    +0.137 HD
ENDBRANCH   9  11
ENDBRANCH   8   9
ENDBRANCH   1   8
TORSDOF 4
ENDMDL
MODEL 4
REMARK VINA RESULT:      -6.0      5.461      6.218
REMARK  Name = *****
REMARK                            x       y       z     vdW  Elec       q    Type
REMARK                         _______ _______ _______ _____ _____    ______ ____
ROOT
ATOM      1  C   LIG    1       29.250 -19.971   6.562  0.00  0.00    +0.051 C 
ENDROOT
BRANCH   1   2
ATOM      2  C   LIG    1       27.794 -20.229   6.877  0.00  0.00    -0.046 A 
ATOM      3  C   LIG    1       26.851 -20.350   5.847  0.00  0.00    +0.003 A 
ATOM      4  C   LIG    1       25.513 -20.621   6.138  0.00  0.00    +0.000 A 
ATOM      5  C   LIG    1       25.102 -20.772   7.462  0.00  0.00    +0.000 A 
ATOM      6  C   LIG    1       26.030 -20.650   8.494  0.00  0.00    +0.000 A 
ATOM      7  C   LIG    1       27.369 -20.382   8.204  0.00  0.00    +0.003 A 
ENDBRANCH   1   2
BRANCH   1   8
ATOM      8  C   LIG    1       30.072 -19.688   7.829  0.00  0.00    +0.103 C 
BRANCH   8   9
ATOM      9  N   LIG    1       31.396 -20.328   7.739  0.00  0.00    -0.259 NA
ATOM     10  H   LIG    1       31.312 -21.233   7.266  0.00  0.00    +0.140 HD
BRANCH   9  11
ATOM     11  N   LIG    1       31.956 -20.440   9.063  0.00  0.00    -0.271 NA
ATOM     12  H   LIG    1       31.535 -19.786   9.728  0.00  0.00    +0.137 HD
ATOM     13  H   LIG    1       31.811 -21.377   9.449  0.00  0.00    +0.137 HD
ENDBRANCH   9  11
ENDBRANCH   8   9
ENDBRANCH   1   8
TORSDOF 4
ENDMDL
MODEL 5
REMARK VINA RESULT:      -5.9      3.627      4.598
REMARK  Name = *****
REMARK                            x       y       z     vdW  Elec       q    Type
REMARK                         _______ _______ _______ _____ _____    ______ ____
ROOT
ATOM      1  C   LIG    1       24.326 -26.208   6.041  0.00  0.00    +0.051 C 
ENDROOT
BRANCH   1   2
ATOM      2  C   LIG    1       24.401 -24.773   6.514  0.00  0.00    -0.046 A 
ATOM      3  C   LIG    1       23.241 -23.994   6.620  0.00  0.00    +0.003 A 
ATOM      4  C   LIG    1       23.308 -22.681   7.088  0.00  0.00    +0.000 A 
ATOM      5  C   LIG    1       24.536 -22.131   7.453  0.00  0.00    +0.000 A 
ATOM      6  C   LIG    1       25.697 -22.894   7.347  0.00  0.00    +0.000 A 
ATOM      7  C   LIG    1       25.631 -24.209   6.883  0.00  0.00    +0.003 A 
ENDBRANCH   1   2
BRANCH   1   8
ATOM      8  C   LIG    1       25.444 -27.072   6.643  0.00  0.00    +0.103 C 
BRANCH   8   9
ATOM      9  N   LIG    1       26.136 -27.831   5.587  0.00  0.00    -0.259 NA
ATOM     10  H   LIG    1       26.402 -28.754   5.942  0.00  0.00    +0.140 HD
BRANCH   9  11
ATOM     11  N   LIG    1       27.266 -27.065   5.120  0.00  0.00    -0.271 NA
ATOM     12  H   LIG    1       27.242 -26.092   5.434  0.00  0.00    +0.137 HD
ATOM     13  H   LIG    1       28.147 -27.458   5.462  0.00  0.00    +0.137 HD
ENDBRANCH   9  11
ENDBRANCH   8   9
ENDBRANCH   1   8
TORSDOF 4
ENDMDL
MODEL 6
REMARK VINA RESULT:      -5.9      3.530      4.682
REMARK  Name = *****
REMARK                            x       y       z     vdW  Elec       q    Type
REMARK                         _______ _______ _______ _____ _____    ______ ____
ROOT
ATOM      1  C   LIG    1       25.952 -25.553   6.500  0.00  0.00    +0.051 C 
ENDROOT
BRANCH   1   2
ATOM      2  C   LIG    1       25.038 -24.384   6.788  0.00  0.00    -0.046 A 
ATOM      3  C   LIG    1       25.554 -23.178   7.283  0.00  0.00    +0.003 A 
ATOM      4  C   LIG    1       24.713 -22.089   7.518  0.00  0.00    +0.000 A 
ATOM      5  C   LIG    1       23.347 -22.193   7.262  0.00  0.00    +0.000 A 
ATOM      6  C   LIG    1       22.821 -23.389   6.775  0.00  0.00    +0.000 A 
ATOM      7  C   LIG    1       23.662 -24.478   6.537  0.00  0.00    +0.003 A 
ENDBRANCH   1   2
BRANCH   1   8
ATOM      8  C   LIG    1       25.176 -26.784   6.006  0.00  0.00    +0.103 C 
BRANCH   8   9
ATOM      9  N   LIG    1       26.102 -27.803   5.484  0.00  0.00    -0.259 NA
ATOM     10  H   LIG    1       26.272 -28.516   6.201  0.00  0.00    +0.140 HD
BRANCH   9  11
ATOM     11  N   LIG    1       27.313 -27.158   5.041  0.00  0.00    -0.271 NA
ATOM     12  H   LIG    1       27.150 -26.212   4.685  0.00  0.00    +0.137 HD
ATOM     13  H   LIG    1       27.987 -27.066   5.807  0.00  0.00    +0.137 HD
ENDBRANCH   9  11
ENDBRANCH   8   9
ENDBRANCH   1   8
TORSDOF 4
ENDMDL
MODEL 7
REMARK VINA RESULT:      -5.8      3.765      4.900
REMARK  Name = *****
REMARK                            x       y       z     vdW  Elec       q    Type
REMARK                         _______ _______ _______ _____ _____    ______ ____
ROOT
ATOM      1  C   LIG    1       26.993 -21.847   7.256  0.00  0.00    +0.051 C 
ENDROOT
BRANCH   1   2
ATOM      2  C   LIG    1       25.684 -22.572   7.043  0.00  0.00    -0.046 A 
ATOM      3  C   LIG    1       25.666 -23.935   6.719  0.00  0.00    +0.003 A 
ATOM      4  C   LIG    1       24.456 -24.611   6.554  0.00  0.00    +0.000 A 
ATOM      5  C   LIG    1       23.249 -23.930   6.711  0.00  0.00    +0.000 A 
ATOM      6  C   LIG    1       23.254 -22.573   7.028  0.00  0.00    +0.000 A 
ATOM      7  C   LIG    1       24.464 -21.897   7.196  0.00  0.00    +0.003 A 
ENDBRANCH   1   2
BRANCH   1   8
ATOM      8  C   LIG    1       26.943 -20.401   6.739  0.00  0.00    +0.103 C 
BRANCH   8   9
ATOM      9  N   LIG    1       27.457 -20.326   5.361  0.00  0.00    -0.259 NA
ATOM     10  H   LIG    1       28.180 -19.603   5.300  0.00  0.00    +0.140 HD
BRANCH   9  11
ATOM     11  N   LIG    1       26.356 -20.093   4.460  0.00  0.00    -0.271 NA
ATOM     12  H   LIG    1       26.540 -20.434   3.513  0.00  0.00    +0.137 HD
ATOM     13  H   LIG    1       25.507 -20.569   4.779  0.00  0.00    +0.137 HD
ENDBRANCH   9  11
ENDBRANCH   8   9
ENDBRANCH   1   8
TORSDOF 4
ENDMDL
MODEL 8
REMARK VINA RESULT:      -5.8      1.299      2.071
REMARK  Name = *****
REMARK                            x       y       z     vdW  Elec       q    Type
REMARK                         _______ _______ _______ _____ _____    ______ ____
ROOT
ATOM      1  C   LIG    1       25.396 -21.780   6.112  0.00  0.00    +0.051 C 
ENDROOT
BRANCH   1   2
ATOM      2  C   LIG    1       24.549 -20.732   5.424  0.00  0.00    -0.046 A 
ATOM      3  C   LIG    1       25.026 -20.058   4.292  0.00  0.00    +0.003 A 
ATOM      4  C   LIG    1       24.231 -19.114   3.640  0.00  0.00    +0.000 A 
ATOM      5  C   LIG    1       22.950 -18.833   4.113  0.00  0.00    +0.000 A 
ATOM      6  C   LIG    1       22.467 -19.493   5.241  0.00  0.00    +0.000 A 
ATOM      7  C   LIG    1       23.261 -20.439   5.893  0.00  0.00    +0.003 A 
ENDBRANCH   1   2
BRANCH   1   8
ATOM      8  C   LIG    1       24.703 -23.150   6.144  0.00  0.00    +0.103 C 
BRANCH   8   9
ATOM      9  N   LIG    1       24.883 -23.851   4.861  0.00  0.00    -0.259 NA
ATOM     10  H   LIG    1       23.985 -23.912   4.372  0.00  0.00    +0.140 HD
BRANCH   9  11
ATOM     11  N   LIG    1       25.472 -25.143   5.109  0.00  0.00    -0.271 NA
ATOM     12  H   LIG    1       25.476 -25.742   4.279  0.00  0.00    +0.137 HD
ATOM     13  H   LIG    1       26.448 -25.056   5.407  0.00  0.00    +0.137 HD
ENDBRANCH   9  11
ENDBRANCH   8   9
ENDBRANCH   1   8
TORSDOF 4
ENDMDL
MODEL 9
REMARK VINA RESULT:      -5.7      2.108      3.081
REMARK  Name = *****
REMARK                            x       y       z     vdW  Elec       q    Type
REMARK                         _______ _______ _______ _____ _____    ______ ____
ROOT
ATOM      1  C   LIG    1       23.283 -21.299   7.234  0.00  0.00    +0.051 C 
ENDROOT
BRANCH   1   2
ATOM      2  C   LIG    1       24.755 -20.953   7.212  0.00  0.00    -0.046 A 
ATOM      3  C   LIG    1       25.412 -20.699   6.000  0.00  0.00    +0.003 A 
ATOM      4  C   LIG    1       26.762 -20.347   5.985  0.00  0.00    +0.000 A 
ATOM      5  C   LIG    1       27.472 -20.247   7.181  0.00  0.00    +0.000 A 
ATOM      6  C   LIG    1       26.831 -20.502   8.391  0.00  0.00    +0.000 A 
ATOM      7  C   LIG    1       25.479 -20.851   8.408  0.00  0.00    +0.003 A 
ENDBRANCH   1   2
BRANCH   1   8
ATOM      8  C   LIG    1       22.922 -22.350   6.172  0.00  0.00    +0.103 C 
BRANCH   8   9
ATOM      9  N   LIG    1       22.561 -23.627   6.811  0.00  0.00    -0.259 NA
ATOM     10  H   LIG    1       22.657 -23.545   7.827  0.00  0.00    +0.140 HD
BRANCH   9  11
ATOM     11  N   LIG    1       23.377 -24.678   6.256  0.00  0.00    -0.271 NA
ATOM     12  H   LIG    1       23.807 -24.418   5.365  0.00  0.00    +0.137 HD
ATOM     13  H   LIG    1       24.146 -24.923   6.887  0.00  0.00    +0.137 HD
ENDBRANCH   9  11
ENDBRANCH   8   9
ENDBRANCH   1   8
TORSDOF 4
ENDMDL
