MODEL 1
REMARK VINA RESULT:      10.7      0.000      0.000
REMARK  Name = *****
REMARK                            x       y       z     vdW  Elec       q    Type
REMARK                         _______ _______ _______ _____ _____    ______ ____
ROOT
ATOM      1  C   LIG    1       22.732 -19.890   4.353  0.00  0.00    +0.166 A 
ATOM      2  C   LIG    1       23.771 -19.863   3.403  0.00  0.00    +0.204 A 
ATOM      3  C   LIG    1       24.546 -18.687   3.268  0.00  0.00    +0.173 A 
ATOM      4  C   LIG    1       24.322 -17.571   4.122  0.00  0.00    +0.031 A 
ATOM      5  C   LIG    1       25.265 -16.398   4.187  0.00  0.00    -0.009 A 
ATOM      6  C   LIG    1       24.766 -15.010   4.105  0.00  0.00    -0.016 A 
ATOM      7  C   LIG    1       23.356 -14.871   3.516  0.00  0.00    +0.104 C 
ATOM      8  C   LIG    1       22.256 -15.263   4.534  0.00  0.00    +0.032 C 
ATOM      9  C   LIG    1       22.680 -16.293   5.597  0.00  0.00    +0.038 C 
ATOM     10  C   LIG    1       25.403 -13.946   4.627  0.00  0.00    +0.060 A 
ATOM     11  C   LIG    1       26.797 -13.822   5.105  0.00  0.00    +0.221 A 
ATOM     12  O   LIG    1       27.069 -12.963   5.937  0.00  0.00    -0.284 OA
ATOM     13  C   LIG    1       27.861 -14.598   4.400  0.00  0.00    +0.167 A 
ATOM     14  C   LIG    1       27.709 -15.897   4.128  0.00  0.00    +0.050 A 
ATOM     15  C   LIG    1       26.561 -16.734   4.348  0.00  0.00    +0.012 A 
ATOM     16  C   LIG    1       23.174 -17.561   4.941  0.00  0.00    -0.032 A 
ATOM     17  C   LIG    1       22.423 -18.733   5.078  0.00  0.00    +0.053 A 
ENDROOT
BRANCH   7  18
ATOM     18  N   LIG    1       23.123 -13.515   2.999  0.00  0.00    -0.309 N 
ATOM     19  H   LIG    1       22.161 -13.204   2.923  0.00  0.00    +0.149 HD
ATOM     20  C   LIG    1       24.055 -12.822   2.261  0.00  0.00    +0.210 C 
ATOM     21  O   LIG    1       25.184 -13.251   1.990  0.00  0.00    -0.276 OA
ATOM     22  C   LIG    1       23.593 -11.461   1.812  0.00  0.00    +0.109 C 
ENDBRANCH   7  18
BRANCH   1  24
ATOM     23  C   LIG    1       21.988 -21.510   5.969  0.00  0.00    +0.277 C 
ATOM     24  O   LIG    1       21.895 -20.930   4.677  0.00  0.00    -0.491 OA
ENDBRANCH   1  24
BRANCH   2  25
ATOM     25  O   LIG    1       24.008 -21.026   2.723  0.00  0.00    -0.488 OA
ATOM     26  C   LIG    1       23.033 -21.539   1.831  0.00  0.00    +0.277 C 
ENDBRANCH   2  25
BRANCH   3  27
ATOM     27  O   LIG    1       25.574 -18.703   2.348  0.00  0.00    -0.491 OA
ATOM     28  C   LIG    1       26.361 -19.900   2.332  0.00  0.00    +0.277 C 
ENDBRANCH   3  27
BRANCH  13  29
ATOM     29  O   LIG    1       29.068 -13.996   4.055  0.00  0.00    -0.491 OA
ATOM     30  C   LIG    1       28.908 -12.703   3.473  0.00  0.00    +0.277 C 
ENDBRANCH  13  29
TORSDOF 5
ENDMDL
