MODEL 1
REMARK VINA RESULT:       4.3      0.000      0.000
REMARK  Name = *****
REMARK                            x       y       z     vdW  Elec       q    Type
REMARK                         _______ _______ _______ _____ _____    ______ ____
ROOT
ATOM      1  C   LIG    1       28.890 -16.365   3.950  0.00  0.00    +0.045 C 
ATOM      2  C   LIG    1       27.600 -15.619   3.848  0.00  0.00    -0.038 C 
ATOM      3  C   LIG    1       26.291 -16.290   3.848  0.00  0.00    -0.014 C 
ATOM      4  C   LIG    1       26.137 -17.625   3.863  0.00  0.00    +0.016 C 
ATOM      5  C   LIG    1       25.266 -15.235   3.768  0.00  0.00    -0.010 A 
ATOM      6  C   LIG    1       25.975 -14.022   3.657  0.00  0.00    -0.011 A 
ATOM      7  C   LIG    1       25.300 -12.815   3.536  0.00  0.00    +0.047 A 
ATOM      8  C   LIG    1       23.907 -12.839   3.570  0.00  0.00    +0.124 A 
ATOM      9  C   LIG    1       23.197 -14.033   3.706  0.00  0.00    +0.039 A 
ATOM     10  F   LIG    1       23.230 -11.685   3.482  0.00  0.00    -0.205 F 
ATOM     11  C   LIG    1       23.878 -15.248   3.797  0.00  0.00    +0.012 A 
ATOM     12  C   LIG    1       27.424 -14.287   3.701  0.00  0.00    -0.025 C 
ENDROOT
BRANCH   4  13
ATOM     13  C   LIG    1       24.877 -18.360   3.801  0.00  0.00    -0.024 A 
ATOM     14  C   LIG    1       24.860 -19.686   3.358  0.00  0.00    +0.009 A 
ATOM     15  C   LIG    1       23.656 -20.392   3.313  0.00  0.00    +0.017 A 
ATOM     16  C   LIG    1       22.461 -19.778   3.706  0.00  0.00    +0.039 A 
ATOM     17  C   LIG    1       22.482 -18.451   4.150  0.00  0.00    +0.017 A 
ATOM     18  C   LIG    1       23.686 -17.744   4.198  0.00  0.00    +0.009 A 
BRANCH  16  19
ATOM     19  S   LIG    1       20.905 -20.696   3.691  0.00  0.00    +0.051 S 
ATOM     20  O   LIG    1       19.830 -19.673   3.912  0.00  0.00    -0.252 OA
ATOM     21  C   LIG    1       21.132 -21.570   5.262  0.00  0.00    +0.127 C 
ENDBRANCH  16  19
ENDBRANCH   4  13
BRANCH  12  22
ATOM     22  C   LIG    1       28.462 -13.222   3.571  0.00  0.00    +0.156 C 
BRANCH  22  23
ATOM     23  C   LIG    1       28.680 -12.385   4.825  0.00  0.00    +0.309 C 
ATOM     24  O   LIG    1       29.474 -11.449   4.851  0.00  0.00    -0.251 OA
BRANCH  23  25
ATOM     25  O   LIG    1       27.968 -12.719   5.922  0.00  0.00    -0.480 OA
ATOM     26  H   LIG    1       27.049 -12.389   5.939  0.00  0.00    +0.295 HD
ENDBRANCH  23  25
ENDBRANCH  22  23
ENDBRANCH  12  22
TORSDOF 5
ENDMDL
MODEL 2
REMARK VINA RESULT:       5.3      3.420      8.021
REMARK  Name = *****
REMARK                            x       y       z     vdW  Elec       q    Type
REMARK                         _______ _______ _______ _____ _____    ______ ____
ROOT
ATOM      1  C   LIG    1       20.682 -16.283   4.880  0.00  0.00    +0.045 C 
ATOM      2  C   LIG    1       21.915 -17.006   4.447  0.00  0.00    -0.038 C 
ATOM      3  C   LIG    1       23.215 -16.336   4.288  0.00  0.00    -0.014 C 
ATOM      4  C   LIG    1       23.397 -15.013   4.444  0.00  0.00    +0.016 C 
ATOM      5  C   LIG    1       24.186 -17.368   3.886  0.00  0.00    -0.010 A 
ATOM      6  C   LIG    1       23.444 -18.560   3.755  0.00  0.00    -0.011 A 
ATOM      7  C   LIG    1       24.060 -19.738   3.359  0.00  0.00    +0.047 A 
ATOM      8  C   LIG    1       25.435 -19.714   3.136  0.00  0.00    +0.124 A 
ATOM      9  C   LIG    1       26.183 -18.545   3.287  0.00  0.00    +0.039 A 
ATOM     10  F   LIG    1       26.060 -20.845   2.777  0.00  0.00    -0.205 F 
ATOM     11  C   LIG    1       25.555 -17.354   3.657  0.00  0.00    +0.012 A 
ATOM     12  C   LIG    1       22.034 -18.307   4.101  0.00  0.00    -0.025 C 
ENDROOT
BRANCH   4  13
ATOM     13  C   LIG    1       24.639 -14.272   4.242  0.00  0.00    -0.024 A 
ATOM     14  C   LIG    1       24.907 -13.676   3.006  0.00  0.00    +0.009 A 
ATOM     15  C   LIG    1       26.088 -12.956   2.820  0.00  0.00    +0.017 A 
ATOM     16  C   LIG    1       27.011 -12.828   3.865  0.00  0.00    +0.039 A 
ATOM     17  C   LIG    1       26.739 -13.424   5.101  0.00  0.00    +0.017 A 
ATOM     18  C   LIG    1       25.556 -14.144   5.290  0.00  0.00    +0.009 A 
BRANCH  16  19
ATOM     19  S   LIG    1       28.523 -11.863   3.646  0.00  0.00    +0.051 S 
ATOM     20  O   LIG    1       29.475 -12.763   2.915  0.00  0.00    -0.252 OA
ATOM     21  C   LIG    1       29.043 -11.845   5.382  0.00  0.00    +0.127 C 
ENDBRANCH  16  19
ENDBRANCH   4  13
BRANCH  12  22
ATOM     22  C   LIG    1       20.968 -19.350   4.032  0.00  0.00    +0.156 C 
BRANCH  22  23
ATOM     23  C   LIG    1       21.273 -20.628   4.804  0.00  0.00    +0.309 C 
ATOM     24  O   LIG    1       20.487 -21.571   4.835  0.00  0.00    -0.251 OA
BRANCH  23  25
ATOM     25  O   LIG    1       22.447 -20.684   5.466  0.00  0.00    -0.480 OA
ATOM     26  H   LIG    1       22.867 -21.566   5.497  0.00  0.00    +0.295 HD
ENDBRANCH  23  25
ENDBRANCH  22  23
ENDBRANCH  12  22
TORSDOF 5
ENDMDL
MODEL 3
REMARK VINA RESULT:       5.5      3.015      7.397
REMARK  Name = *****
REMARK                            x       y       z     vdW  Elec       q    Type
REMARK                         _______ _______ _______ _____ _____    ______ ____
ROOT
ATOM      1  C   LIG    1       25.826 -20.348   2.818  0.00  0.00    +0.045 C 
ATOM      2  C   LIG    1       24.889 -19.318   3.357  0.00  0.00    -0.038 C 
ATOM      3  C   LIG    1       25.258 -17.901   3.494  0.00  0.00    -0.014 C 
ATOM      4  C   LIG    1       26.483 -17.419   3.221  0.00  0.00    +0.016 C 
ATOM      5  C   LIG    1       24.077 -17.197   4.022  0.00  0.00    -0.010 A 
ATOM      6  C   LIG    1       23.104 -18.193   4.239  0.00  0.00    -0.011 A 
ATOM      7  C   LIG    1       21.861 -17.868   4.764  0.00  0.00    +0.047 A 
ATOM      8  C   LIG    1       21.593 -16.527   5.028  0.00  0.00    +0.124 A 
ATOM      9  C   LIG    1       22.541 -15.530   4.792  0.00  0.00    +0.039 A 
ATOM     10  F   LIG    1       20.391 -16.181   5.510  0.00  0.00    -0.205 F 
ATOM     11  C   LIG    1       23.802 -15.864   4.292  0.00  0.00    +0.012 A 
ATOM     12  C   LIG    1       23.635 -19.505   3.826  0.00  0.00    -0.025 C 
ENDROOT
BRANCH   4  13
ATOM     13  C   LIG    1       26.939 -16.042   3.393  0.00  0.00    -0.024 A 
ATOM     14  C   LIG    1       26.466 -15.037   2.545  0.00  0.00    +0.009 A 
ATOM     15  C   LIG    1       26.892 -13.719   2.719  0.00  0.00    +0.017 A 
ATOM     16  C   LIG    1       27.795 -13.396   3.739  0.00  0.00    +0.039 A 
ATOM     17  C   LIG    1       28.266 -14.405   4.587  0.00  0.00    +0.017 A 
ATOM     18  C   LIG    1       27.839 -15.725   4.414  0.00  0.00    +0.009 A 
BRANCH  16  19
ATOM     19  S   LIG    1       28.320 -11.687   3.999  0.00  0.00    +0.051 S 
ATOM     20  O   LIG    1       29.475 -11.472   3.064  0.00  0.00    -0.252 OA
ATOM     21  C   LIG    1       29.018 -11.905   5.657  0.00  0.00    +0.127 C 
ENDBRANCH  16  19
ENDBRANCH   4  13
BRANCH  12  22
ATOM     22  C   LIG    1       22.873 -20.782   3.957  0.00  0.00    +0.156 C 
BRANCH  22  23
ATOM     23  C   LIG    1       22.466 -21.140   5.380  0.00  0.00    +0.309 C 
ATOM     24  O   LIG    1       21.348 -21.572   5.647  0.00  0.00    -0.251 OA
BRANCH  23  25
ATOM     25  O   LIG    1       23.386 -20.958   6.351  0.00  0.00    -0.480 OA
ATOM     26  H   LIG    1       23.399 -21.641   7.048  0.00  0.00    +0.295 HD
ENDBRANCH  23  25
ENDBRANCH  22  23
ENDBRANCH  12  22
TORSDOF 5
ENDMDL
