MODEL 1
REMARK VINA RESULT:      -6.2      0.000      0.000
REMARK  Name = *****
REMARK                            x       y       z     vdW  Elec       q    Type
REMARK                         _______ _______ _______ _____ _____    ______ ____
ROOT
ATOM      1  C   LIG    1       23.864 -29.154  12.592  0.00  0.00    +0.166 A 
ATOM      2  C   LIG    1       22.738 -29.609  11.880  0.00  0.00    +0.204 A 
ATOM      3  C   LIG    1       22.906 -30.078  10.557  0.00  0.00    +0.173 A 
ATOM      4  C   LIG    1       24.203 -30.150   9.974  0.00  0.00    +0.031 A 
ATOM      5  C   LIG    1       24.468 -30.861   8.673  0.00  0.00    -0.009 A 
ATOM      6  C   LIG    1       25.247 -30.217   7.595  0.00  0.00    -0.016 A 
ATOM      7  C   LIG    1       25.358 -28.691   7.710  0.00  0.00    +0.104 C 
ATOM      8  C   LIG    1       26.388 -28.260   8.784  0.00  0.00    +0.032 C 
ATOM      9  C   LIG    1       26.591 -29.258   9.939  0.00  0.00    +0.038 C 
ATOM     10  C   LIG    1       25.938 -30.890   6.656  0.00  0.00    +0.060 A 
ATOM     11  C   LIG    1       25.869 -32.318   6.276  0.00  0.00    +0.221 A 
ATOM     12  O   LIG    1       26.844 -32.844   5.750  0.00  0.00    -0.284 OA
ATOM     13  C   LIG    1       24.545 -33.007   6.347  0.00  0.00    +0.167 A 
ATOM     14  C   LIG    1       23.765 -32.905   7.426  0.00  0.00    +0.050 A 
ATOM     15  C   LIG    1       23.962 -32.109   8.607  0.00  0.00    +0.012 A 
ATOM     16  C   LIG    1       25.282 -29.534  10.640  0.00  0.00    -0.032 A 
ATOM     17  C   LIG    1       25.108 -29.086  11.953  0.00  0.00    +0.053 A 
ENDROOT
BRANCH   7  18
ATOM     18  N   LIG    1       25.676 -28.078   6.412  0.00  0.00    -0.309 N 
ATOM     19  H   LIG    1       26.592 -28.267   6.019  0.00  0.00    +0.149 HD
ATOM     20  C   LIG    1       25.004 -26.988   5.911  0.00  0.00    +0.210 C 
ATOM     21  O   LIG    1       24.052 -26.439   6.479  0.00  0.00    -0.276 OA
ATOM     22  C   LIG    1       25.516 -26.511   4.578  0.00  0.00    +0.109 C 
ENDBRANCH   7  18
BRANCH   1  24
ATOM     23  C   LIG    1       24.234 -27.337  14.126  0.00  0.00    +0.277 C 
ATOM     24  O   LIG    1       23.934 -28.704  13.887  0.00  0.00    -0.491 OA
ENDBRANCH   1  24
BRANCH   2  25
ATOM     25  O   LIG    1       21.552 -29.637  12.563  0.00  0.00    -0.488 OA
ATOM     26  C   LIG    1       20.793 -28.450  12.716  0.00  0.00    +0.277 C 
ENDBRANCH   2  25
BRANCH   3  27
ATOM     27  O   LIG    1       21.787 -30.543   9.897  0.00  0.00    -0.491 OA
ATOM     28  C   LIG    1       21.216 -31.743  10.433  0.00  0.00    +0.277 C 
ENDBRANCH   3  27
BRANCH  13  29
ATOM     29  O   LIG    1       24.115 -33.825   5.305  0.00  0.00    -0.491 OA
ATOM     30  C   LIG    1       22.750 -33.615   4.950  0.00  0.00    +0.277 C 
ENDBRANCH  13  29
TORSDOF 5
ENDMDL
MODEL 2
REMARK VINA RESULT:      -6.0      2.897      7.291
REMARK  Name = *****
REMARK                            x       y       z     vdW  Elec       q    Type
REMARK                         _______ _______ _______ _____ _____    ______ ____
ROOT
ATOM      1  C   LIG    1       24.742 -31.487   8.969  0.00  0.00    +0.166 A 
ATOM      2  C   LIG    1       24.004 -31.814  10.123  0.00  0.00    +0.204 A 
ATOM      3  C   LIG    1       24.034 -30.933  11.229  0.00  0.00    +0.173 A 
ATOM      4  C   LIG    1       24.745 -29.702  11.155  0.00  0.00    +0.031 A 
ATOM      5  C   LIG    1       24.613 -28.626  12.200  0.00  0.00    -0.009 A 
ATOM      6  C   LIG    1       25.805 -27.986  12.794  0.00  0.00    -0.016 A 
ATOM      7  C   LIG    1       27.108 -28.776  12.621  0.00  0.00    +0.104 C 
ATOM      8  C   LIG    1       27.685 -28.644  11.190  0.00  0.00    +0.032 C 
ATOM      9  C   LIG    1       26.647 -28.385  10.082  0.00  0.00    +0.038 C 
ATOM     10  C   LIG    1       25.813 -26.748  13.321  0.00  0.00    +0.060 A 
ATOM     11  C   LIG    1       24.681 -25.879  13.709  0.00  0.00    +0.221 A 
ATOM     12  O   LIG    1       24.843 -24.664  13.738  0.00  0.00    -0.284 OA
ATOM     13  C   LIG    1       23.450 -26.522  14.260  0.00  0.00    +0.167 A 
ATOM     14  C   LIG    1       22.883 -27.569  13.656  0.00  0.00    +0.050 A 
ATOM     15  C   LIG    1       23.340 -28.301  12.506  0.00  0.00    +0.012 A 
ATOM     16  C   LIG    1       25.607 -29.481  10.061  0.00  0.00    -0.032 A 
ATOM     17  C   LIG    1       25.560 -30.350   8.967  0.00  0.00    +0.053 A 
ENDROOT
BRANCH   7  18
ATOM     18  N   LIG    1       28.110 -28.382  13.622  0.00  0.00    -0.309 N 
ATOM     19  H   LIG    1       28.404 -27.411  13.629  0.00  0.00    +0.149 HD
ATOM     20  C   LIG    1       28.939 -29.281  14.250  0.00  0.00    +0.210 C 
ATOM     21  O   LIG    1       28.903 -30.504  14.065  0.00  0.00    -0.276 OA
ATOM     22  C   LIG    1       29.906 -28.652  15.218  0.00  0.00    +0.109 C 
ENDBRANCH   7  18
BRANCH   1  24
ATOM     23  C   LIG    1       24.090 -31.683   6.661  0.00  0.00    +0.277 C 
ATOM     24  O   LIG    1       24.818 -32.168   7.779  0.00  0.00    -0.491 OA
ENDBRANCH   1  24
BRANCH   2  25
ATOM     25  O   LIG    1       23.237 -32.945  10.057  0.00  0.00    -0.488 OA
ATOM     26  C   LIG    1       21.912 -32.876   9.560  0.00  0.00    +0.277 C 
ENDBRANCH   2  25
BRANCH   3  27
ATOM     27  O   LIG    1       23.279 -31.270  12.333  0.00  0.00    -0.491 OA
ATOM     28  C   LIG    1       23.972 -32.014  13.343  0.00  0.00    +0.277 C 
ENDBRANCH   3  27
BRANCH  13  29
ATOM     29  O   LIG    1       22.828 -26.006  15.394  0.00  0.00    -0.491 OA
ATOM     30  C   LIG    1       21.453 -26.373  15.499  0.00  0.00    +0.277 C 
ENDBRANCH  13  29
TORSDOF 5
ENDMDL
MODEL 3
REMARK VINA RESULT:      -5.8      2.603      7.007
REMARK  Name = *****
REMARK                            x       y       z     vdW  Elec       q    Type
REMARK                         _______ _______ _______ _____ _____    ______ ____
ROOT
ATOM      1  C   LIG    1       25.363 -31.701   7.667  0.00  0.00    +0.166 A 
ATOM      2  C   LIG    1       24.546 -32.387   8.587  0.00  0.00    +0.204 A 
ATOM      3  C   LIG    1       24.233 -31.770   9.820  0.00  0.00    +0.173 A 
ATOM      4  C   LIG    1       24.683 -30.449  10.103  0.00  0.00    +0.031 A 
ATOM      5  C   LIG    1       24.183 -29.658  11.283  0.00  0.00    -0.009 A 
ATOM      6  C   LIG    1       25.120 -28.967  12.193  0.00  0.00    -0.016 A 
ATOM      7  C   LIG    1       26.568 -29.470  12.123  0.00  0.00    +0.104 C 
ATOM      8  C   LIG    1       27.310 -28.940  10.870  0.00  0.00    +0.032 C 
ATOM      9  C   LIG    1       26.414 -28.631   9.656  0.00  0.00    +0.038 C 
ATOM     10  C   LIG    1       24.800 -27.887  12.928  0.00  0.00    +0.060 A 
ATOM     11  C   LIG    1       23.471 -27.325  13.252  0.00  0.00    +0.221 A 
ATOM     12  O   LIG    1       23.376 -26.134  13.530  0.00  0.00    -0.284 OA
ATOM     13  C   LIG    1       22.329 -28.270  13.441  0.00  0.00    +0.167 A 
ATOM     14  C   LIG    1       22.081 -29.245  12.563  0.00  0.00    +0.050 A 
ATOM     15  C   LIG    1       22.840 -29.626  11.403  0.00  0.00    +0.012 A 
ATOM     16  C   LIG    1       25.633 -29.857   9.246  0.00  0.00    -0.032 A 
ATOM     17  C   LIG    1       25.924 -30.469   8.022  0.00  0.00    +0.053 A 
ENDROOT
BRANCH   7  18
ATOM     18  N   LIG    1       27.311 -29.133  13.346  0.00  0.00    -0.309 N 
ATOM     19  H   LIG    1       27.748 -28.219  13.389  0.00  0.00    +0.149 HD
ATOM     20  C   LIG    1       27.777 -30.081  14.226  0.00  0.00    +0.210 C 
ATOM     21  O   LIG    1       27.591 -31.298  14.098  0.00  0.00    -0.276 OA
ATOM     22  C   LIG    1       28.535 -29.512  15.396  0.00  0.00    +0.109 C 
ENDBRANCH   7  18
BRANCH   1  24
ATOM     23  C   LIG    1       25.575 -31.189   5.326  0.00  0.00    +0.277 C 
ATOM     24  O   LIG    1       25.749 -32.090   6.408  0.00  0.00    -0.491 OA
ENDBRANCH   1  24
BRANCH   2  25
ATOM     25  O   LIG    1       24.042 -33.591   8.177  0.00  0.00    -0.488 OA
ATOM     26  C   LIG    1       22.829 -33.642   7.446  0.00  0.00    +0.277 C 
ENDBRANCH   2  25
BRANCH   3  27
ATOM     27  O   LIG    1       23.409 -32.457  10.687  0.00  0.00    -0.491 OA
ATOM     28  C   LIG    1       24.082 -33.287  11.642  0.00  0.00    +0.277 C 
ENDBRANCH   3  27
BRANCH  13  29
ATOM     29  O   LIG    1       21.455 -28.120  14.515  0.00  0.00    -0.491 OA
ATOM     30  C   LIG    1       20.168 -27.639  14.133  0.00  0.00    +0.277 C 
ENDBRANCH  13  29
TORSDOF 5
ENDMDL
MODEL 4
REMARK VINA RESULT:      -5.4      2.289      3.954
REMARK  Name = *****
REMARK                            x       y       z     vdW  Elec       q    Type
REMARK                         _______ _______ _______ _____ _____    ______ ____
ROOT
ATOM      1  C   LIG    1       26.956 -27.623  13.840  0.00  0.00    +0.166 A 
ATOM      2  C   LIG    1       25.613 -27.202  13.792  0.00  0.00    +0.204 A 
ATOM      3  C   LIG    1       24.738 -27.802  12.856  0.00  0.00    +0.173 A 
ATOM      4  C   LIG    1       25.190 -28.861  12.019  0.00  0.00    +0.031 A 
ATOM      5  C   LIG    1       24.251 -29.692  11.186  0.00  0.00    -0.009 A 
ATOM      6  C   LIG    1       24.521 -29.950   9.756  0.00  0.00    -0.016 A 
ATOM      7  C   LIG    1       25.520 -28.982   9.109  0.00  0.00    +0.104 C 
ATOM      8  C   LIG    1       26.984 -29.306   9.499  0.00  0.00    +0.032 C 
ATOM      9  C   LIG    1       27.165 -29.990  10.866  0.00  0.00    +0.038 C 
ATOM     10  C   LIG    1       24.063 -31.021   9.082  0.00  0.00    +0.060 A 
ATOM     11  C   LIG    1       23.004 -31.985   9.449  0.00  0.00    +0.221 A 
ATOM     12  O   LIG    1       23.028 -33.112   8.966  0.00  0.00    -0.284 OA
ATOM     13  C   LIG    1       21.827 -31.486  10.222  0.00  0.00    +0.167 A 
ATOM     14  C   LIG    1       21.980 -30.721  11.305  0.00  0.00    +0.050 A 
ATOM     15  C   LIG    1       23.191 -30.181  11.862  0.00  0.00    +0.012 A 
ATOM     16  C   LIG    1       26.571 -29.144  11.968  0.00  0.00    -0.032 A 
ATOM     17  C   LIG    1       27.424 -28.556  12.907  0.00  0.00    +0.053 A 
ENDROOT
BRANCH   7  18
ATOM     18  N   LIG    1       25.368 -28.953   7.648  0.00  0.00    -0.309 N 
ATOM     19  H   LIG    1       25.380 -29.843   7.160  0.00  0.00    +0.149 HD
ATOM     20  C   LIG    1       25.608 -27.832   6.889  0.00  0.00    +0.210 C 
ATOM     21  O   LIG    1       25.940 -26.735   7.357  0.00  0.00    -0.276 OA
ATOM     22  C   LIG    1       25.415 -28.038   5.410  0.00  0.00    +0.109 C 
ENDBRANCH   7  18
BRANCH   1  24
ATOM     23  C   LIG    1       28.801 -28.187  15.277  0.00  0.00    +0.277 C 
ATOM     24  O   LIG    1       27.952 -27.212  14.690  0.00  0.00    -0.491 OA
ENDBRANCH   1  24
BRANCH   2  25
ATOM     25  O   LIG    1       25.228 -26.279  14.726  0.00  0.00    -0.488 OA
ATOM     26  C   LIG    1       25.294 -24.896  14.427  0.00  0.00    +0.277 C 
ENDBRANCH   2  25
BRANCH   3  27
ATOM     27  O   LIG    1       23.423 -27.386  12.854  0.00  0.00    -0.491 OA
ATOM     28  C   LIG    1       22.673 -27.725  14.027  0.00  0.00    +0.277 C 
ENDBRANCH   3  27
BRANCH  13  29
ATOM     29  O   LIG    1       20.534 -31.854   9.861  0.00  0.00    -0.491 OA
ATOM     30  C   LIG    1       19.524 -31.154  10.586  0.00  0.00    +0.277 C 
ENDBRANCH  13  29
TORSDOF 5
ENDMDL
MODEL 5
REMARK VINA RESULT:      -5.4      3.309      6.240
REMARK  Name = *****
REMARK                            x       y       z     vdW  Elec       q    Type
REMARK                         _______ _______ _______ _____ _____    ______ ____
ROOT
ATOM      1  C   LIG    1       25.149 -25.572  14.764  0.00  0.00    +0.166 A 
ATOM      2  C   LIG    1       26.272 -26.408  14.610  0.00  0.00    +0.204 A 
ATOM      3  C   LIG    1       26.180 -27.531  13.755  0.00  0.00    +0.173 A 
ATOM      4  C   LIG    1       24.992 -27.778  13.011  0.00  0.00    +0.031 A 
ATOM      5  C   LIG    1       24.922 -28.807  11.913  0.00  0.00    -0.009 A 
ATOM      6  C   LIG    1       23.822 -29.792  11.857  0.00  0.00    -0.016 A 
ATOM      7  C   LIG    1       23.062 -29.977  13.176  0.00  0.00    +0.104 C 
ATOM      8  C   LIG    1       22.076 -28.814  13.451  0.00  0.00    +0.032 C 
ATOM      9  C   LIG    1       22.468 -27.460  12.831  0.00  0.00    +0.038 C 
ATOM     10  C   LIG    1       23.399 -30.387  10.727  0.00  0.00    +0.060 A 
ATOM     11  C   LIG    1       24.049 -30.465   9.400  0.00  0.00    +0.221 A 
ATOM     12  O   LIG    1       23.355 -30.636   8.404  0.00  0.00    -0.284 OA
ATOM     13  C   LIG    1       25.539 -30.551   9.345  0.00  0.00    +0.167 A 
ATOM     14  C   LIG    1       26.310 -29.722  10.053  0.00  0.00    +0.050 A 
ATOM     15  C   LIG    1       25.917 -28.721  11.007  0.00  0.00    +0.012 A 
ATOM     16  C   LIG    1       23.835 -27.030  13.311  0.00  0.00    -0.032 A 
ATOM     17  C   LIG    1       23.940 -25.914  14.146  0.00  0.00    +0.053 A 
ENDROOT
BRANCH   7  18
ATOM     18  N   LIG    1       22.361 -31.269  13.212  0.00  0.00    -0.309 N 
ATOM     19  H   LIG    1       21.355 -31.257  13.085  0.00  0.00    +0.149 HD
ATOM     20  C   LIG    1       22.896 -32.398  13.787  0.00  0.00    +0.210 C 
ATOM     21  O   LIG    1       24.023 -32.451  14.295  0.00  0.00    -0.276 OA
ATOM     22  C   LIG    1       21.991 -33.601  13.733  0.00  0.00    +0.109 C 
ENDBRANCH   7  18
BRANCH   1  24
ATOM     23  C   LIG    1       25.527 -23.204  14.955  0.00  0.00    +0.277 C 
ATOM     24  O   LIG    1       25.035 -24.419  15.500  0.00  0.00    -0.491 OA
ENDBRANCH   1  24
BRANCH   2  25
ATOM     25  O   LIG    1       27.416 -26.020  15.253  0.00  0.00    -0.488 OA
ATOM     26  C   LIG    1       28.345 -25.173  14.599  0.00  0.00    +0.277 C 
ENDBRANCH   2  25
BRANCH   3  27
ATOM     27  O   LIG    1       27.306 -28.314  13.606  0.00  0.00    -0.491 OA
ATOM     28  C   LIG    1       27.513 -29.289  14.635  0.00  0.00    +0.277 C 
ENDBRANCH   3  27
BRANCH  13  29
ATOM     29  O   LIG    1       26.166 -31.468   8.504  0.00  0.00    -0.491 OA
ATOM     30  C   LIG    1       26.490 -32.698   9.151  0.00  0.00    +0.277 C 
ENDBRANCH  13  29
TORSDOF 5
ENDMDL
MODEL 6
REMARK VINA RESULT:      -5.4      4.135      6.723
REMARK  Name = *****
REMARK                            x       y       z     vdW  Elec       q    Type
REMARK                         _______ _______ _______ _____ _____    ______ ____
ROOT
ATOM      1  C   LIG    1       24.890 -25.946  13.777  0.00  0.00    +0.166 A 
ATOM      2  C   LIG    1       25.538 -27.185  13.612  0.00  0.00    +0.204 A 
ATOM      3  C   LIG    1       24.781 -28.306  13.196  0.00  0.00    +0.173 A 
ATOM      4  C   LIG    1       23.398 -28.170  12.887  0.00  0.00    +0.031 A 
ATOM      5  C   LIG    1       22.607 -29.261  12.215  0.00  0.00    -0.009 A 
ATOM      6  C   LIG    1       21.296 -29.692  12.743  0.00  0.00    -0.016 A 
ATOM      7  C   LIG    1       21.032 -29.297  14.202  0.00  0.00    +0.104 C 
ATOM      8  C   LIG    1       20.657 -27.800  14.343  0.00  0.00    +0.032 C 
ATOM      9  C   LIG    1       21.234 -26.872  13.258  0.00  0.00    +0.038 C 
ATOM     10  C   LIG    1       20.329 -30.257  11.996  0.00  0.00    +0.060 A 
ATOM     11  C   LIG    1       20.405 -30.842  10.640  0.00  0.00    +0.221 A 
ATOM     12  O   LIG    1       19.391 -30.890   9.953  0.00  0.00    -0.284 OA
ATOM     13  C   LIG    1       21.660 -31.548  10.241  0.00  0.00    +0.167 A 
ATOM     14  C   LIG    1       22.860 -30.999  10.442  0.00  0.00    +0.050 A 
ATOM     15  C   LIG    1       23.187 -29.767  11.108  0.00  0.00    +0.012 A 
ATOM     16  C   LIG    1       22.742 -26.968  13.223  0.00  0.00    -0.032 A 
ATOM     17  C   LIG    1       23.501 -25.863  13.619  0.00  0.00    +0.053 A 
ENDROOT
BRANCH   7  18
ATOM     18  N   LIG    1       20.000 -30.149  14.809  0.00  0.00    -0.309 N 
ATOM     19  H   LIG    1       20.235 -31.122  14.971  0.00  0.00    +0.149 HD
ATOM     20  C   LIG    1       18.662 -29.832  14.798  0.00  0.00    +0.210 C 
ATOM     21  O   LIG    1       18.200 -28.792  14.311  0.00  0.00    -0.276 OA
ATOM     22  C   LIG    1       17.782 -30.862  15.455  0.00  0.00    +0.109 C 
ENDBRANCH   7  18
BRANCH   1  24
ATOM     23  C   LIG    1       25.231 -24.242  15.440  0.00  0.00    +0.277 C 
ATOM     24  O   LIG    1       25.434 -24.735  14.125  0.00  0.00    -0.491 OA
ENDBRANCH   1  24
BRANCH   2  25
ATOM     25  O   LIG    1       26.894 -27.195  13.794  0.00  0.00    -0.488 OA
ATOM     26  C   LIG    1       27.435 -27.407  15.086  0.00  0.00    +0.277 C 
ENDBRANCH   2  25
BRANCH   3  27
ATOM     27  O   LIG    1       25.451 -29.498  13.018  0.00  0.00    -0.491 OA
ATOM     28  C   LIG    1       25.411 -30.395  14.136  0.00  0.00    +0.277 C 
ENDBRANCH   3  27
BRANCH  13  29
ATOM     29  O   LIG    1       21.605 -32.780   9.596  0.00  0.00    -0.491 OA
ATOM     30  C   LIG    1       22.715 -33.015   8.731  0.00  0.00    +0.277 C 
ENDBRANCH  13  29
TORSDOF 5
ENDMDL
MODEL 7
REMARK VINA RESULT:      -5.4      2.560      4.558
REMARK  Name = *****
REMARK                            x       y       z     vdW  Elec       q    Type
REMARK                         _______ _______ _______ _____ _____    ______ ____
ROOT
ATOM      1  C   LIG    1       26.034 -27.897  14.202  0.00  0.00    +0.166 A 
ATOM      2  C   LIG    1       24.846 -27.182  13.958  0.00  0.00    +0.204 A 
ATOM      3  C   LIG    1       23.903 -27.708  13.044  0.00  0.00    +0.173 A 
ATOM      4  C   LIG    1       24.120 -28.973  12.428  0.00  0.00    +0.031 A 
ATOM      5  C   LIG    1       23.051 -29.687  11.644  0.00  0.00    -0.009 A 
ATOM      6  C   LIG    1       23.328 -30.245  10.305  0.00  0.00    -0.016 A 
ATOM      7  C   LIG    1       24.574 -29.671   9.618  0.00  0.00    +0.104 C 
ATOM      8  C   LIG    1       25.884 -30.263  10.195  0.00  0.00    +0.032 C 
ATOM      9  C   LIG    1       25.808 -30.724  11.662  0.00  0.00    +0.038 C 
ATOM     10  C   LIG    1       22.654 -31.275   9.761  0.00  0.00    +0.060 A 
ATOM     11  C   LIG    1       21.367 -31.879  10.167  0.00  0.00    +0.221 A 
ATOM     12  O   LIG    1       21.133 -33.045   9.867  0.00  0.00    -0.284 OA
ATOM     13  C   LIG    1       20.311 -30.986  10.734  0.00  0.00    +0.167 A 
ATOM     14  C   LIG    1       20.591 -30.105  11.696  0.00  0.00    +0.050 A 
ATOM     15  C   LIG    1       21.865 -29.782  12.280  0.00  0.00    +0.012 A 
ATOM     16  C   LIG    1       25.385 -29.582  12.557  0.00  0.00    -0.032 A 
ATOM     17  C   LIG    1       26.304 -29.062  13.474  0.00  0.00    +0.053 A 
ENDROOT
BRANCH   7  18
ATOM     18  N   LIG    1       24.518 -29.860   8.162  0.00  0.00    -0.309 N 
ATOM     19  H   LIG    1       24.338 -30.798   7.820  0.00  0.00    +0.149 HD
ATOM     20  C   LIG    1       25.071 -28.974   7.267  0.00  0.00    +0.210 C 
ATOM     21  O   LIG    1       25.636 -27.922   7.591  0.00  0.00    -0.276 OA
ATOM     22  C   LIG    1       24.918 -29.382   5.825  0.00  0.00    +0.109 C 
ENDBRANCH   7  18
BRANCH   1  24
ATOM     23  C   LIG    1       28.244 -28.365  15.029  0.00  0.00    +0.277 C 
ATOM     24  O   LIG    1       27.052 -27.596  15.073  0.00  0.00    -0.491 OA
ENDBRANCH   1  24
BRANCH   2  25
ATOM     25  O   LIG    1       24.654 -26.047  14.697  0.00  0.00    -0.488 OA
ATOM     26  C   LIG    1       25.143 -24.802  14.228  0.00  0.00    +0.277 C 
ENDBRANCH   2  25
BRANCH   3  27
ATOM     27  O   LIG    1       22.738 -26.996  12.849  0.00  0.00    -0.491 OA
ATOM     28  C   LIG    1       21.879 -26.905  13.993  0.00  0.00    +0.277 C 
ENDBRANCH   3  27
BRANCH  13  29
ATOM     29  O   LIG    1       18.990 -31.091  10.308  0.00  0.00    -0.491 OA
ATOM     30  C   LIG    1       18.120 -31.639  11.298  0.00  0.00    +0.277 C 
ENDBRANCH  13  29
TORSDOF 5
ENDMDL
MODEL 8
REMARK VINA RESULT:      -5.3      2.614      5.104
REMARK  Name = *****
REMARK                            x       y       z     vdW  Elec       q    Type
REMARK                         _______ _______ _______ _____ _____    ______ ____
ROOT
ATOM      1  C   LIG    1       24.972 -31.688  12.096  0.00  0.00    +0.166 A 
ATOM      2  C   LIG    1       26.092 -30.860  11.892  0.00  0.00    +0.204 A 
ATOM      3  C   LIG    1       26.326 -30.326  10.604  0.00  0.00    +0.173 A 
ATOM      4  C   LIG    1       25.408 -30.568   9.543  0.00  0.00    +0.031 A 
ATOM      5  C   LIG    1       25.476 -29.834   8.230  0.00  0.00    -0.009 A 
ATOM      6  C   LIG    1       25.420 -30.559   6.944  0.00  0.00    -0.016 A 
ATOM      7  C   LIG    1       25.739 -32.057   7.040  0.00  0.00    +0.104 C 
ATOM      8  C   LIG    1       24.552 -32.872   7.612  0.00  0.00    +0.032 C 
ATOM      9  C   LIG    1       23.619 -32.097   8.561  0.00  0.00    +0.038 C 
ATOM     10  C   LIG    1       24.987 -30.019   5.790  0.00  0.00    +0.060 A 
ATOM     11  C   LIG    1       24.765 -28.600   5.437  0.00  0.00    +0.221 A 
ATOM     12  O   LIG    1       23.967 -28.324   4.547  0.00  0.00    -0.284 OA
ATOM     13  C   LIG    1       25.677 -27.573   6.023  0.00  0.00    +0.167 A 
ATOM     14  C   LIG    1       25.960 -27.558   7.328  0.00  0.00    +0.050 A 
ATOM     15  C   LIG    1       25.564 -28.493   8.346  0.00  0.00    +0.012 A 
ATOM     16  C   LIG    1       24.396 -31.532   9.727  0.00  0.00    -0.032 A 
ATOM     17  C   LIG    1       24.164 -32.043  11.008  0.00  0.00    +0.053 A 
ENDROOT
BRANCH   7  18
ATOM     18  N   LIG    1       26.160 -32.599   5.740  0.00  0.00    -0.309 N 
ATOM     19  H   LIG    1       25.430 -32.852   5.083  0.00  0.00    +0.149 HD
ATOM     20  C   LIG    1       27.404 -33.143   5.520  0.00  0.00    +0.210 C 
ATOM     21  O   LIG    1       28.297 -33.199   6.374  0.00  0.00    -0.276 OA
ATOM     22  C   LIG    1       27.608 -33.661   4.120  0.00  0.00    +0.109 C 
ENDBRANCH   7  18
BRANCH   1  24
ATOM     23  C   LIG    1       25.022 -33.556  13.611  0.00  0.00    +0.277 C 
ATOM     24  O   LIG    1       24.536 -32.270  13.261  0.00  0.00    -0.491 OA
ENDBRANCH   1  24
BRANCH   2  25
ATOM     25  O   LIG    1       26.843 -30.566  12.997  0.00  0.00    -0.488 OA
ATOM     26  C   LIG    1       26.315 -29.731  14.014  0.00  0.00    +0.277 C 
ENDBRANCH   2  25
BRANCH   3  27
ATOM     27  O   LIG    1       27.417 -29.497  10.445  0.00  0.00    -0.491 OA
ATOM     28  C   LIG    1       27.299 -28.208  11.062  0.00  0.00    +0.277 C 
ENDBRANCH   3  27
BRANCH  13  29
ATOM     29  O   LIG    1       26.214 -26.564   5.227  0.00  0.00    -0.491 OA
ATOM     30  C   LIG    1       25.540 -25.314   5.368  0.00  0.00    +0.277 C 
ENDBRANCH  13  29
TORSDOF 5
ENDMDL
MODEL 9
REMARK VINA RESULT:      -5.1      2.621      7.157
REMARK  Name = *****
REMARK                            x       y       z     vdW  Elec       q    Type
REMARK                         _______ _______ _______ _____ _____    ______ ____
ROOT
ATOM      1  C   LIG    1       24.969 -30.222   7.420  0.00  0.00    +0.166 A 
ATOM      2  C   LIG    1       23.884 -31.030   7.811  0.00  0.00    +0.204 A 
ATOM      3  C   LIG    1       23.444 -30.985   9.155  0.00  0.00    +0.173 A 
ATOM      4  C   LIG    1       24.045 -30.089  10.083  0.00  0.00    +0.031 A 
ATOM      5  C   LIG    1       23.464 -29.825  11.447  0.00  0.00    -0.009 A 
ATOM      6  C   LIG    1       24.307 -29.871  12.660  0.00  0.00    -0.016 A 
ATOM      7  C   LIG    1       25.635 -30.621  12.488  0.00  0.00    +0.104 C 
ATOM      8  C   LIG    1       26.687 -29.778  11.725  0.00  0.00    +0.032 C 
ATOM      9  C   LIG    1       26.112 -28.745  10.737  0.00  0.00    +0.038 C 
ATOM     10  C   LIG    1       24.036 -29.201  13.795  0.00  0.00    +0.060 A 
ATOM     11  C   LIG    1       22.783 -28.545  14.226  0.00  0.00    +0.221 A 
ATOM     12  O   LIG    1       22.838 -27.627  15.038  0.00  0.00    -0.284 OA
ATOM     13  C   LIG    1       21.483 -29.165  13.827  0.00  0.00    +0.167 A 
ATOM     14  C   LIG    1       21.252 -29.543  12.568  0.00  0.00    +0.050 A 
ATOM     15  C   LIG    1       22.149 -29.528  11.444  0.00  0.00    +0.012 A 
ATOM     16  C   LIG    1       25.231 -29.422   9.713  0.00  0.00    -0.032 A 
ATOM     17  C   LIG    1       25.649 -29.462   8.379  0.00  0.00    +0.053 A 
ENDROOT
BRANCH   7  18
ATOM     18  N   LIG    1       26.169 -31.066  13.783  0.00  0.00    -0.309 N 
ATOM     19  H   LIG    1       26.747 -30.411  14.299  0.00  0.00    +0.149 HD
ATOM     20  C   LIG    1       26.274 -32.391  14.136  0.00  0.00    +0.210 C 
ATOM     21  O   LIG    1       25.901 -33.331  13.423  0.00  0.00    -0.276 OA
ATOM     22  C   LIG    1       26.875 -32.617  15.499  0.00  0.00    +0.109 C 
ENDBRANCH   7  18
BRANCH   1  24
ATOM     23  C   LIG    1       25.148 -28.965   5.377  0.00  0.00    +0.277 C 
ATOM     24  O   LIG    1       25.524 -30.078   6.172  0.00  0.00    -0.491 OA
ENDBRANCH   1  24
BRANCH   2  25
ATOM     25  O   LIG    1       23.275 -31.756   6.824  0.00  0.00    -0.488 OA
ATOM     26  C   LIG    1       23.809 -33.008   6.431  0.00  0.00    +0.277 C 
ENDBRANCH   2  25
BRANCH   3  27
ATOM     27  O   LIG    1       22.362 -31.768   9.499  0.00  0.00    -0.491 OA
ATOM     28  C   LIG    1       22.686 -33.060  10.028  0.00  0.00    +0.277 C 
ENDBRANCH   3  27
BRANCH  13  29
ATOM     29  O   LIG    1       20.454 -29.312  14.753  0.00  0.00    -0.491 OA
ATOM     30  C   LIG    1       19.247 -28.658  14.365  0.00  0.00    +0.277 C 
ENDBRANCH  13  29
TORSDOF 5
ENDMDL
