MODEL 1
REMARK VINA RESULT:      -5.2      0.000      0.000
REMARK  Name = *****
REMARK                            x       y       z     vdW  Elec       q    Type
REMARK                         _______ _______ _______ _____ _____    ______ ____
ROOT
ATOM      1  C   LIG    1       25.641 -30.408   8.559  0.00  0.00    +0.059 C 
ENDROOT
BRANCH   1   2
ATOM      2  C   LIG    1       24.469 -30.923   9.479  0.00  0.00    -0.033 A 
ATOM      3  C   LIG    1       24.623 -32.050  10.319  0.00  0.00    +0.005 A 
ATOM      4  C   LIG    1       23.603 -32.493  11.173  0.00  0.00    +0.000 A 
ATOM      5  C   LIG    1       22.406 -31.797  11.249  0.00  0.00    +0.000 A 
ATOM      6  C   LIG    1       22.221 -30.676  10.451  0.00  0.00    +0.000 A 
ATOM      7  C   LIG    1       23.228 -30.262   9.565  0.00  0.00    +0.005 A 
ENDBRANCH   1   2
BRANCH   1   8
ATOM      8  C   LIG    1       25.333 -29.117   7.701  0.00  0.00    -0.033 A 
ATOM      9  C   LIG    1       24.410 -29.133   6.634  0.00  0.00    +0.005 A 
ATOM     10  C   LIG    1       24.208 -28.021   5.803  0.00  0.00    +0.000 A 
ATOM     11  C   LIG    1       24.954 -26.864   5.979  0.00  0.00    +0.000 A 
ATOM     12  C   LIG    1       25.871 -26.805   7.020  0.00  0.00    +0.000 A 
ATOM     13  C   LIG    1       26.046 -27.907   7.874  0.00  0.00    +0.005 A 
ENDBRANCH   1   8
BRANCH   1  14
ATOM     14  C   LIG    1       26.013 -31.604   7.498  0.00  0.00    +0.191 C 
BRANCH  14  16
ATOM     15  C   LIG    1       27.945 -33.178   6.697  0.00  0.00    +0.007 C 
ATOM     16  C   LIG    1       27.308 -32.394   7.847  0.00  0.00    +0.042 C 
ENDBRANCH  14  16
BRANCH  14  17
ATOM     17  O   LIG    1       24.923 -32.554   7.375  0.00  0.00    -0.460 OA
BRANCH  17  18
ATOM     18  C   LIG    1       24.343 -32.673   6.146  0.00  0.00    +0.304 C 
ATOM     19  O   LIG    1       24.817 -32.406   5.049  0.00  0.00    -0.251 OA
ATOM     20  C   LIG    1       22.970 -33.310   6.361  0.00  0.00    +0.136 C 
ENDBRANCH  17  18
ENDBRANCH  14  17
ENDBRANCH   1  14
BRANCH   1  21
ATOM     21  C   LIG    1       26.950 -30.190   9.471  0.00  0.00    +0.038 C 
BRANCH  21  22
ATOM     22  C   LIG    1       26.852 -29.836  11.013  0.00  0.00    +0.054 C 
ATOM     23  C   LIG    1       28.242 -29.647  11.639  0.00  0.00    +0.024 C 
BRANCH  22  24
ATOM     24  N   LIG    1       26.048 -28.583  11.249  0.00  0.00    -0.306 NA
ATOM     25  C   LIG    1       26.881 -27.419  11.610  0.00  0.00    +0.105 C 
ATOM     26  C   LIG    1       25.039 -28.736  12.303  0.00  0.00    +0.105 C 
ENDBRANCH  22  24
ENDBRANCH  21  22
ENDBRANCH   1  21
TORSDOF 9
ENDMDL
MODEL 2
REMARK VINA RESULT:      -5.1      1.531      4.756
REMARK  Name = *****
REMARK                            x       y       z     vdW  Elec       q    Type
REMARK                         _______ _______ _______ _____ _____    ______ ____
ROOT
ATOM      1  C   LIG    1       25.107 -29.755   8.393  0.00  0.00    +0.059 C 
ENDROOT
BRANCH   1   2
ATOM      2  C   LIG    1       25.070 -28.681   7.240  0.00  0.00    -0.033 A 
ATOM      3  C   LIG    1       25.935 -27.562   7.238  0.00  0.00    +0.005 A 
ATOM      4  C   LIG    1       25.942 -26.622   6.198  0.00  0.00    +0.000 A 
ATOM      5  C   LIG    1       25.113 -26.791   5.099  0.00  0.00    +0.000 A 
ATOM      6  C   LIG    1       24.259 -27.885   5.057  0.00  0.00    +0.000 A 
ATOM      7  C   LIG    1       24.223 -28.799   6.120  0.00  0.00    +0.005 A 
ENDBRANCH   1   2
BRANCH   1   8
ATOM      8  C   LIG    1       26.209 -29.538   9.506  0.00  0.00    -0.033 A 
ATOM      9  C   LIG    1       27.055 -30.583   9.931  0.00  0.00    +0.005 A 
ATOM     10  C   LIG    1       27.963 -30.428  10.990  0.00  0.00    +0.000 A 
ATOM     11  C   LIG    1       28.026 -29.233  11.694  0.00  0.00    +0.000 A 
ATOM     12  C   LIG    1       27.213 -28.177  11.305  0.00  0.00    +0.000 A 
ATOM     13  C   LIG    1       26.331 -28.323  10.221  0.00  0.00    +0.005 A 
ENDBRANCH   1   8
BRANCH   1  14
ATOM     14  C   LIG    1       25.405 -31.217   7.711  0.00  0.00    +0.191 C 
BRANCH  14  16
ATOM     15  C   LIG    1       24.040 -33.434   7.989  0.00  0.00    +0.007 C 
ATOM     16  C   LIG    1       24.128 -32.038   7.366  0.00  0.00    +0.042 C 
ENDBRANCH  14  16
BRANCH  14  17
ATOM     17  O   LIG    1       26.196 -31.082   6.502  0.00  0.00    -0.460 OA
BRANCH  17  18
ATOM     18  C   LIG    1       26.653 -32.233   5.929  0.00  0.00    +0.304 C 
ATOM     19  O   LIG    1       26.399 -32.687   4.821  0.00  0.00    -0.251 OA
ATOM     20  C   LIG    1       27.653 -32.850   6.907  0.00  0.00    +0.136 C 
ENDBRANCH  17  18
ENDBRANCH  14  17
ENDBRANCH   1  14
BRANCH   1  21
ATOM     21  C   LIG    1       23.641 -29.852   9.050  0.00  0.00    +0.038 C 
BRANCH  21  22
ATOM     22  C   LIG    1       23.386 -30.581  10.435  0.00  0.00    +0.054 C 
ATOM     23  C   LIG    1       23.213 -29.572  11.580  0.00  0.00    +0.024 C 
BRANCH  22  24
ATOM     24  N   LIG    1       22.163 -31.461  10.385  0.00  0.00    -0.306 NA
ATOM     25  C   LIG    1       20.924 -30.755  10.768  0.00  0.00    +0.105 C 
ATOM     26  C   LIG    1       22.269 -32.645  11.246  0.00  0.00    +0.105 C 
ENDBRANCH  22  24
ENDBRANCH  21  22
ENDBRANCH   1  21
TORSDOF 9
ENDMDL
MODEL 3
REMARK VINA RESULT:      -5.1      1.787      4.751
REMARK  Name = *****
REMARK                            x       y       z     vdW  Elec       q    Type
REMARK                         _______ _______ _______ _____ _____    ______ ____
ROOT
ATOM      1  C   LIG    1       24.989 -30.678   8.708  0.00  0.00    +0.059 C 
ENDROOT
BRANCH   1   2
ATOM      2  C   LIG    1       24.887 -29.503   7.663  0.00  0.00    -0.033 A 
ATOM      3  C   LIG    1       25.642 -28.315   7.802  0.00  0.00    +0.005 A 
ATOM      4  C   LIG    1       25.592 -27.280   6.858  0.00  0.00    +0.000 A 
ATOM      5  C   LIG    1       24.817 -27.415   5.716  0.00  0.00    +0.000 A 
ATOM      6  C   LIG    1       24.072 -28.572   5.535  0.00  0.00    +0.000 A 
ATOM      7  C   LIG    1       24.090 -29.586   6.503  0.00  0.00    +0.005 A 
ENDBRANCH   1   2
BRANCH   1   8
ATOM      8  C   LIG    1       25.994 -31.843   8.344  0.00  0.00    -0.033 A 
ATOM      9  C   LIG    1       26.409 -32.795   9.298  0.00  0.00    +0.005 A 
ATOM     10  C   LIG    1       27.379 -33.768   9.011  0.00  0.00    +0.000 A 
ATOM     11  C   LIG    1       28.004 -33.797   7.772  0.00  0.00    +0.000 A 
ATOM     12  C   LIG    1       27.621 -32.880   6.802  0.00  0.00    +0.000 A 
ATOM     13  C   LIG    1       26.624 -31.929   7.079  0.00  0.00    +0.005 A 
ENDBRANCH   1   8
BRANCH   1  14
ATOM     14  C   LIG    1       23.504 -31.361   8.848  0.00  0.00    +0.191 C 
BRANCH  14  16
ATOM     15  C   LIG    1       23.032 -32.976   6.842  0.00  0.00    +0.007 C 
ATOM     16  C   LIG    1       23.415 -32.822   8.316  0.00  0.00    +0.042 C 
ENDBRANCH  14  16
BRANCH  14  17
ATOM     17  O   LIG    1       23.050 -31.352  10.226  0.00  0.00    -0.460 OA
BRANCH  17  18
ATOM     18  C   LIG    1       21.831 -30.791  10.472  0.00  0.00    +0.304 C 
ATOM     19  O   LIG    1       20.750 -31.059   9.962  0.00  0.00    -0.251 OA
ATOM     20  C   LIG    1       22.025 -29.785  11.607  0.00  0.00    +0.136 C 
ENDBRANCH  17  18
ENDBRANCH  14  17
ENDBRANCH   1  14
BRANCH   1  21
ATOM     21  C   LIG    1       25.337 -30.053  10.149  0.00  0.00    +0.038 C 
BRANCH  21  22
ATOM     22  C   LIG    1       26.829 -29.903  10.665  0.00  0.00    +0.054 C 
ATOM     23  C   LIG    1       27.254 -28.429  10.745  0.00  0.00    +0.024 C 
BRANCH  22  24
ATOM     24  N   LIG    1       27.015 -30.528  12.024  0.00  0.00    -0.306 NA
ATOM     25  C   LIG    1       25.741 -30.898  12.671  0.00  0.00    +0.105 C 
ATOM     26  C   LIG    1       27.740 -29.663  12.962  0.00  0.00    +0.105 C 
ENDBRANCH  22  24
ENDBRANCH  21  22
ENDBRANCH   1  21
TORSDOF 9
ENDMDL
MODEL 4
REMARK VINA RESULT:      -4.9      3.092      5.992
REMARK  Name = *****
REMARK                            x       y       z     vdW  Elec       q    Type
REMARK                         _______ _______ _______ _____ _____    ______ ____
ROOT
ATOM      1  C   LIG    1       24.190 -30.305  12.190  0.00  0.00    +0.059 C 
ENDROOT
BRANCH   1   2
ATOM      2  C   LIG    1       24.214 -30.764  10.683  0.00  0.00    -0.033 A 
ATOM      3  C   LIG    1       24.303 -32.129  10.323  0.00  0.00    +0.005 A 
ATOM      4  C   LIG    1       24.284 -32.554   8.987  0.00  0.00    +0.000 A 
ATOM      5  C   LIG    1       24.129 -31.632   7.964  0.00  0.00    +0.000 A 
ATOM      6  C   LIG    1       24.023 -30.284   8.276  0.00  0.00    +0.000 A 
ATOM      7  C   LIG    1       24.088 -29.858   9.611  0.00  0.00    +0.005 A 
ENDBRANCH   1   2
BRANCH   1   8
ATOM      8  C   LIG    1       23.382 -28.981  12.498  0.00  0.00    -0.033 A 
ATOM      9  C   LIG    1       24.001 -27.842  13.053  0.00  0.00    +0.005 A 
ATOM     10  C   LIG    1       23.273 -26.701  13.425  0.00  0.00    +0.000 A 
ATOM     11  C   LIG    1       21.890 -26.675  13.298  0.00  0.00    +0.000 A 
ATOM     12  C   LIG    1       21.242 -27.775  12.752  0.00  0.00    +0.000 A 
ATOM     13  C   LIG    1       21.977 -28.901  12.347  0.00  0.00    +0.005 A 
ENDBRANCH   1   8
BRANCH   1  14
ATOM     14  C   LIG    1       25.738 -30.034  12.661  0.00  0.00    +0.191 C 
BRANCH  14  16
ATOM     15  C   LIG    1       26.273 -29.940  15.221  0.00  0.00    +0.007 C 
ATOM     16  C   LIG    1       26.159 -30.791  13.954  0.00  0.00    +0.042 C 
ENDBRANCH  14  16
BRANCH  14  17
ATOM     17  O   LIG    1       26.675 -30.381  11.608  0.00  0.00    -0.460 OA
BRANCH  17  18
ATOM     18  C   LIG    1       27.691 -29.502  11.370  0.00  0.00    +0.304 C 
ATOM     19  O   LIG    1       28.898 -29.711  11.374  0.00  0.00    -0.251 OA
ATOM     20  C   LIG    1       27.047 -28.168  10.992  0.00  0.00    +0.136 C 
ENDBRANCH  17  18
ENDBRANCH  14  17
ENDBRANCH   1  14
BRANCH   1  21
ATOM     21  C   LIG    1       23.651 -31.526  13.090  0.00  0.00    +0.038 C 
BRANCH  21  22
ATOM     22  C   LIG    1       22.105 -31.849  13.232  0.00  0.00    +0.054 C 
ATOM     23  C   LIG    1       21.774 -33.260  12.724  0.00  0.00    +0.024 C 
BRANCH  22  24
ATOM     24  N   LIG    1       21.640 -31.735  14.662  0.00  0.00    -0.306 NA
ATOM     25  C   LIG    1       20.289 -31.155  14.787  0.00  0.00    +0.105 C 
ATOM     26  C   LIG    1       22.537 -30.926  15.496  0.00  0.00    +0.105 C 
ENDBRANCH  22  24
ENDBRANCH  21  22
ENDBRANCH   1  21
TORSDOF 9
ENDMDL
MODEL 5
REMARK VINA RESULT:      -4.8      2.081      4.631
REMARK  Name = *****
REMARK                            x       y       z     vdW  Elec       q    Type
REMARK                         _______ _______ _______ _____ _____    ______ ____
ROOT
ATOM      1  C   LIG    1       24.800 -30.548   8.322  0.00  0.00    +0.059 C 
ENDROOT
BRANCH   1   2
ATOM      2  C   LIG    1       23.532 -31.132   9.054  0.00  0.00    -0.033 A 
ATOM      3  C   LIG    1       22.711 -30.326   9.876  0.00  0.00    +0.005 A 
ATOM      4  C   LIG    1       21.557 -30.822  10.499  0.00  0.00    +0.000 A 
ATOM      5  C   LIG    1       21.159 -32.133  10.287  0.00  0.00    +0.000 A 
ATOM      6  C   LIG    1       21.931 -32.953   9.475  0.00  0.00    +0.000 A 
ATOM      7  C   LIG    1       23.108 -32.466   8.889  0.00  0.00    +0.005 A 
ENDBRANCH   1   2
BRANCH   1   8
ATOM      8  C   LIG    1       25.406 -31.443   7.167  0.00  0.00    -0.033 A 
ATOM      9  C   LIG    1       24.622 -31.898   6.087  0.00  0.00    +0.005 A 
ATOM     10  C   LIG    1       25.125 -32.776   5.115  0.00  0.00    +0.000 A 
ATOM     11  C   LIG    1       26.420 -33.269   5.213  0.00  0.00    +0.000 A 
ATOM     12  C   LIG    1       27.227 -32.842   6.259  0.00  0.00    +0.000 A 
ATOM     13  C   LIG    1       26.732 -31.934   7.211  0.00  0.00    +0.005 A 
ENDBRANCH   1   8
BRANCH   1  14
ATOM     14  C   LIG    1       25.984 -30.353   9.440  0.00  0.00    +0.191 C 
BRANCH  14  16
ATOM     15  C   LIG    1       26.673 -28.276  10.878  0.00  0.00    +0.007 C 
ATOM     16  C   LIG    1       26.591 -28.920   9.491  0.00  0.00    +0.042 C 
ENDBRANCH  14  16
BRANCH  14  17
ATOM     17  O   LIG    1       25.512 -30.692  10.770  0.00  0.00    -0.460 OA
BRANCH  17  18
ATOM     18  C   LIG    1       25.735 -31.967  11.199  0.00  0.00    +0.304 C 
ATOM     19  O   LIG    1       26.300 -32.882  10.613  0.00  0.00    -0.251 OA
ATOM     20  C   LIG    1       25.219 -32.050  12.636  0.00  0.00    +0.136 C 
ENDBRANCH  17  18
ENDBRANCH  14  17
ENDBRANCH   1  14
BRANCH   1  21
ATOM     21  C   LIG    1       24.445 -29.076   7.778  0.00  0.00    +0.038 C 
BRANCH  21  22
ATOM     22  C   LIG    1       25.128 -28.469   6.482  0.00  0.00    +0.054 C 
ATOM     23  C   LIG    1       24.250 -28.660   5.237  0.00  0.00    +0.024 C 
BRANCH  22  24
ATOM     24  N   LIG    1       25.417 -26.998   6.641  0.00  0.00    -0.306 NA
ATOM     25  C   LIG    1       24.315 -26.136   6.171  0.00  0.00    +0.105 C 
ATOM     26  C   LIG    1       26.631 -26.569   5.937  0.00  0.00    +0.105 C 
ENDBRANCH  22  24
ENDBRANCH  21  22
ENDBRANCH   1  21
TORSDOF 9
ENDMDL
MODEL 6
REMARK VINA RESULT:      -4.7      3.023      6.764
REMARK  Name = *****
REMARK                            x       y       z     vdW  Elec       q    Type
REMARK                         _______ _______ _______ _____ _____    ______ ____
ROOT
ATOM      1  C   LIG    1       23.850 -29.991  12.299  0.00  0.00    +0.059 C 
ENDROOT
BRANCH   1   2
ATOM      2  C   LIG    1       23.004 -28.728  12.713  0.00  0.00    -0.033 A 
ATOM      3  C   LIG    1       23.618 -27.540  13.174  0.00  0.00    +0.005 A 
ATOM      4  C   LIG    1       22.880 -26.395  13.506  0.00  0.00    +0.000 A 
ATOM      5  C   LIG    1       21.502 -26.383  13.346  0.00  0.00    +0.000 A 
ATOM      6  C   LIG    1       20.863 -27.525  12.883  0.00  0.00    +0.000 A 
ATOM      7  C   LIG    1       21.601 -28.682  12.594  0.00  0.00    +0.005 A 
ENDBRANCH   1   2
BRANCH   1   8
ATOM      8  C   LIG    1       23.504 -31.335  13.056  0.00  0.00    -0.033 A 
ATOM      9  C   LIG    1       22.671 -31.357  14.194  0.00  0.00    +0.005 A 
ATOM     10  C   LIG    1       22.443 -32.529  14.932  0.00  0.00    +0.000 A 
ATOM     11  C   LIG    1       23.077 -33.714  14.586  0.00  0.00    +0.000 A 
ATOM     12  C   LIG    1       23.902 -33.737  13.470  0.00  0.00    +0.000 A 
ATOM     13  C   LIG    1       24.100 -32.571  12.711  0.00  0.00    +0.005 A 
ENDBRANCH   1   8
BRANCH   1  14
ATOM     14  C   LIG    1       25.428 -29.666  12.610  0.00  0.00    +0.191 C 
BRANCH  14  16
ATOM     15  C   LIG    1       26.341 -29.206  15.020  0.00  0.00    +0.007 C 
ATOM     16  C   LIG    1       25.949 -30.240  13.961  0.00  0.00    +0.042 C 
ENDBRANCH  14  16
BRANCH  14  17
ATOM     17  O   LIG    1       26.285 -30.160  11.548  0.00  0.00    -0.460 OA
BRANCH  17  18
ATOM     18  C   LIG    1       27.393 -29.421  11.253  0.00  0.00    +0.304 C 
ATOM     19  O   LIG    1       28.536 -29.809  11.044  0.00  0.00    -0.251 OA
ATOM     20  C   LIG    1       26.939 -27.966  11.132  0.00  0.00    +0.136 C 
ENDBRANCH  17  18
ENDBRANCH  14  17
ENDBRANCH   1  14
BRANCH   1  21
ATOM     21  C   LIG    1       23.734 -30.186  10.706  0.00  0.00    +0.038 C 
BRANCH  21  22
ATOM     22  C   LIG    1       22.879 -31.355  10.060  0.00  0.00    +0.054 C 
ATOM     23  C   LIG    1       21.375 -31.151  10.294  0.00  0.00    +0.024 C 
BRANCH  22  24
ATOM     24  N   LIG    1       23.121 -31.468   8.576  0.00  0.00    -0.306 NA
ATOM     25  C   LIG    1       23.214 -32.865   8.109  0.00  0.00    +0.105 C 
ATOM     26  C   LIG    1       24.342 -30.783   8.137  0.00  0.00    +0.105 C 
ENDBRANCH  22  24
ENDBRANCH  21  22
ENDBRANCH   1  21
TORSDOF 9
ENDMDL
MODEL 7
REMARK VINA RESULT:      -4.7      1.369      2.343
REMARK  Name = *****
REMARK                            x       y       z     vdW  Elec       q    Type
REMARK                         _______ _______ _______ _____ _____    ______ ____
ROOT
ATOM      1  C   LIG    1       25.096 -30.491   8.719  0.00  0.00    +0.059 C 
ENDROOT
BRANCH   1   2
ATOM      2  C   LIG    1       23.719 -30.992   9.299  0.00  0.00    -0.033 A 
ATOM      3  C   LIG    1       22.848 -30.126  10.000  0.00  0.00    +0.005 A 
ATOM      4  C   LIG    1       21.602 -30.548  10.485  0.00  0.00    +0.000 A 
ATOM      5  C   LIG    1       21.163 -31.842  10.247  0.00  0.00    +0.000 A 
ATOM      6  C   LIG    1       21.983 -32.719   9.550  0.00  0.00    +0.000 A 
ATOM      7  C   LIG    1       23.248 -32.306   9.106  0.00  0.00    +0.005 A 
ENDBRANCH   1   2
BRANCH   1   8
ATOM      8  C   LIG    1       25.036 -29.197   7.812  0.00  0.00    -0.033 A 
ATOM      9  C   LIG    1       24.152 -29.095   6.718  0.00  0.00    +0.005 A 
ATOM     10  C   LIG    1       24.165 -27.995   5.846  0.00  0.00    +0.000 A 
ATOM     11  C   LIG    1       25.094 -26.976   6.010  0.00  0.00    +0.000 A 
ATOM     12  C   LIG    1       25.979 -27.036   7.078  0.00  0.00    +0.000 A 
ATOM     13  C   LIG    1       25.941 -28.121   7.971  0.00  0.00    +0.005 A 
ENDBRANCH   1   8
BRANCH   1  14
ATOM     14  C   LIG    1       25.720 -31.691   7.791  0.00  0.00    +0.191 C 
BRANCH  14  16
ATOM     15  C   LIG    1       24.738 -32.456   5.488  0.00  0.00    +0.007 C 
ATOM     16  C   LIG    1       25.596 -31.449   6.257  0.00  0.00    +0.042 C 
ENDBRANCH  14  16
BRANCH  14  17
ATOM     17  O   LIG    1       27.119 -31.921   8.100  0.00  0.00    -0.460 OA
BRANCH  17  18
ATOM     18  C   LIG    1       27.477 -33.195   8.434  0.00  0.00    +0.304 C 
ATOM     19  O   LIG    1       27.215 -33.819   9.455  0.00  0.00    -0.251 OA
ATOM     20  C   LIG    1       28.218 -33.778   7.231  0.00  0.00    +0.136 C 
ENDBRANCH  17  18
ENDBRANCH  14  17
ENDBRANCH   1  14
BRANCH   1  21
ATOM     21  C   LIG    1       26.123 -30.285   9.942  0.00  0.00    +0.038 C 
BRANCH  21  22
ATOM     22  C   LIG    1       25.652 -29.742  11.355  0.00  0.00    +0.054 C 
ATOM     23  C   LIG    1       25.623 -30.859  12.408  0.00  0.00    +0.024 C 
BRANCH  22  24
ATOM     24  N   LIG    1       26.548 -28.637  11.855  0.00  0.00    -0.306 NA
ATOM     25  C   LIG    1       27.671 -29.128  12.676  0.00  0.00    +0.105 C 
ATOM     26  C   LIG    1       25.834 -27.634  12.654  0.00  0.00    +0.105 C 
ENDBRANCH  22  24
ENDBRANCH  21  22
ENDBRANCH   1  21
TORSDOF 9
ENDMDL
MODEL 8
REMARK VINA RESULT:      -4.7      2.714      6.081
REMARK  Name = *****
REMARK                            x       y       z     vdW  Elec       q    Type
REMARK                         _______ _______ _______ _____ _____    ______ ____
ROOT
ATOM      1  C   LIG    1       23.943 -29.973  11.611  0.00  0.00    +0.059 C 
ENDROOT
BRANCH   1   2
ATOM      2  C   LIG    1       23.407 -28.718  12.399  0.00  0.00    -0.033 A 
ATOM      3  C   LIG    1       24.284 -27.755  12.950  0.00  0.00    +0.005 A 
ATOM      4  C   LIG    1       23.819 -26.613  13.617  0.00  0.00    +0.000 A 
ATOM      5  C   LIG    1       22.458 -26.369  13.717  0.00  0.00    +0.000 A 
ATOM      6  C   LIG    1       21.564 -27.283  13.176  0.00  0.00    +0.000 A 
ATOM      7  C   LIG    1       22.032 -28.447  12.549  0.00  0.00    +0.005 A 
ENDBRANCH   1   2
BRANCH   1   8
ATOM      8  C   LIG    1       24.387 -31.207  12.494  0.00  0.00    -0.033 A 
ATOM      9  C   LIG    1       24.885 -32.395  11.919  0.00  0.00    +0.005 A 
ATOM     10  C   LIG    1       25.182 -33.531  12.687  0.00  0.00    +0.000 A 
ATOM     11  C   LIG    1       24.950 -33.537  14.056  0.00  0.00    +0.000 A 
ATOM     12  C   LIG    1       24.465 -32.386  14.663  0.00  0.00    +0.000 A 
ATOM     13  C   LIG    1       24.201 -31.238  13.897  0.00  0.00    +0.005 A 
ENDBRANCH   1   8
BRANCH   1  14
ATOM     14  C   LIG    1       25.262 -29.506  10.754  0.00  0.00    +0.191 C 
BRANCH  14  16
ATOM     15  C   LIG    1       27.668 -28.826  11.530  0.00  0.00    +0.007 C 
ATOM     16  C   LIG    1       26.621 -29.933  11.382  0.00  0.00    +0.042 C 
ENDBRANCH  14  16
BRANCH  14  17
ATOM     17  O   LIG    1       25.212 -30.012   9.395  0.00  0.00    -0.460 OA
BRANCH  17  18
ATOM     18  C   LIG    1       25.432 -29.115   8.392  0.00  0.00    +0.304 C 
ATOM     19  O   LIG    1       26.211 -28.170   8.370  0.00  0.00    -0.251 OA
ATOM     20  C   LIG    1       24.573 -29.553   7.205  0.00  0.00    +0.136 C 
ENDBRANCH  17  18
ENDBRANCH  14  17
ENDBRANCH   1  14
BRANCH   1  21
ATOM     21  C   LIG    1       22.834 -30.412  10.531  0.00  0.00    +0.038 C 
BRANCH  21  22
ATOM     22  C   LIG    1       21.724 -31.497  10.856  0.00  0.00    +0.054 C 
ATOM     23  C   LIG    1       20.314 -30.972  10.551  0.00  0.00    +0.024 C 
BRANCH  22  24
ATOM     24  N   LIG    1       21.940 -32.768  10.074  0.00  0.00    -0.306 NA
ATOM     25  C   LIG    1       22.771 -32.573   8.869  0.00  0.00    +0.105 C 
ATOM     26  C   LIG    1       20.688 -33.396   9.638  0.00  0.00    +0.105 C 
ENDBRANCH  22  24
ENDBRANCH  21  22
ENDBRANCH   1  21
TORSDOF 9
ENDMDL
MODEL 9
REMARK VINA RESULT:      -4.6      2.068      4.519
REMARK  Name = *****
REMARK                            x       y       z     vdW  Elec       q    Type
REMARK                         _______ _______ _______ _____ _____    ______ ____
ROOT
ATOM      1  C   LIG    1       24.817 -30.798   8.185  0.00  0.00    +0.059 C 
ENDROOT
BRANCH   1   2
ATOM      2  C   LIG    1       23.528 -31.167   9.013  0.00  0.00    -0.033 A 
ATOM      3  C   LIG    1       22.968 -32.466   8.979  0.00  0.00    +0.005 A 
ATOM      4  C   LIG    1       21.847 -32.819   9.742  0.00  0.00    +0.000 A 
ATOM      5  C   LIG    1       21.270 -31.896  10.602  0.00  0.00    +0.000 A 
ATOM      6  C   LIG    1       21.798 -30.615  10.675  0.00  0.00    +0.000 A 
ATOM      7  C   LIG    1       22.893 -30.252   9.876  0.00  0.00    +0.005 A 
ENDBRANCH   1   2
BRANCH   1   8
ATOM      8  C   LIG    1       25.019 -31.586   6.829  0.00  0.00    -0.033 A 
ATOM      9  C   LIG    1       23.995 -32.376   6.266  0.00  0.00    +0.005 A 
ATOM     10  C   LIG    1       24.200 -33.160   5.121  0.00  0.00    +0.000 A 
ATOM     11  C   LIG    1       25.450 -33.220   4.521  0.00  0.00    +0.000 A 
ATOM     12  C   LIG    1       26.485 -32.454   5.041  0.00  0.00    +0.000 A 
ATOM     13  C   LIG    1       26.268 -31.641   6.167  0.00  0.00    +0.005 A 
ENDBRANCH   1   8
BRANCH   1  14
ATOM     14  C   LIG    1       26.127 -31.121   9.120  0.00  0.00    +0.191 C 
BRANCH  14  16
ATOM     15  C   LIG    1       26.503 -33.697   9.394  0.00  0.00    +0.007 C 
ATOM     16  C   LIG    1       26.916 -32.396   8.701  0.00  0.00    +0.042 C 
ENDBRANCH  14  16
BRANCH  14  17
ATOM     17  O   LIG    1       27.050 -30.001   9.135  0.00  0.00    -0.460 OA
BRANCH  17  18
ATOM     18  C   LIG    1       27.493 -29.582  10.355  0.00  0.00    +0.304 C 
ATOM     19  O   LIG    1       28.401 -30.040  11.036  0.00  0.00    -0.251 OA
ATOM     20  C   LIG    1       26.692 -28.329  10.713  0.00  0.00    +0.136 C 
ENDBRANCH  17  18
ENDBRANCH  14  17
ENDBRANCH   1  14
BRANCH   1  21
ATOM     21  C   LIG    1       24.825 -29.209   7.929  0.00  0.00    +0.038 C 
BRANCH  21  22
ATOM     22  C   LIG    1       25.140 -28.586   6.506  0.00  0.00    +0.054 C 
ATOM     23  C   LIG    1       23.969 -28.783   5.531  0.00  0.00    +0.024 C 
BRANCH  22  24
ATOM     24  N   LIG    1       25.444 -27.113   6.596  0.00  0.00    -0.306 NA
ATOM     25  C   LIG    1       24.310 -26.261   6.189  0.00  0.00    +0.105 C 
ATOM     26  C   LIG    1       26.599 -26.711   5.785  0.00  0.00    +0.105 C 
ENDBRANCH  22  24
ENDBRANCH  21  22
ENDBRANCH   1  21
TORSDOF 9
ENDMDL
