MODEL 1
REMARK VINA RESULT:      -7.4      0.000      0.000
REMARK  Name = *****
REMARK                            x       y       z     vdW  Elec       q    Type
REMARK                         _______ _______ _______ _____ _____    ______ ____
ROOT
ATOM      1  C   LIG    1       25.186 -19.292   4.109  0.00  0.00    +0.162 A 
ATOM      2  C   LIG    1       23.908 -19.632   4.569  0.00  0.00    +0.162 A 
ATOM      3  C   LIG    1       23.794 -20.380   5.746  0.00  0.00    +0.054 A 
ATOM      4  C   LIG    1       24.912 -20.851   6.451  0.00  0.00    -0.023 A 
ATOM      5  C   LIG    1       24.740 -21.691   7.715  0.00  0.00    +0.094 C 
ATOM      6  N   LIG    1       25.942 -22.487   8.059  0.00  0.00    -0.294 NA
ATOM      7  C   LIG    1       27.112 -21.588   8.099  0.00  0.00    +0.089 C 
ATOM      8  C   LIG    1       27.429 -20.908   6.755  0.00  0.00    +0.051 C 
ATOM      9  C   LIG    1       26.174 -23.622   7.145  0.00  0.00    +0.096 C 
ATOM     10  C   LIG    1       24.975 -24.569   6.985  0.00  0.00    +0.070 C 
ATOM     11  C   LIG    1       23.738 -23.730   6.741  0.00  0.00    +0.139 C 
ATOM     12  O   LIG    1       22.903 -23.977   5.859  0.00  0.00    -0.297 OA
ATOM     13  C   LIG    1       23.518 -22.618   7.730  0.00  0.00    +0.098 C 
ATOM     14  C   LIG    1       26.190 -20.475   6.004  0.00  0.00    -0.038 A 
ATOM     15  C   LIG    1       26.314 -19.724   4.824  0.00  0.00    +0.053 A 
ENDROOT
BRANCH   1  17
ATOM     16  C   LIG    1       25.957 -17.260   3.146  0.00  0.00    +0.277 C 
ATOM     17  O   LIG    1       25.498 -18.594   2.969  0.00  0.00    -0.491 OA
ENDBRANCH   1  17
BRANCH   2  18
ATOM     18  O   LIG    1       22.799 -19.186   3.900  0.00  0.00    -0.491 OA
ATOM     19  C   LIG    1       22.113 -18.076   4.474  0.00  0.00    +0.277 C 
ENDBRANCH   2  18
BRANCH  10  20
ATOM     20  C   LIG    1       25.207 -25.593   5.856  0.00  0.00    +0.015 C 
BRANCH  20  21
ATOM     21  C   LIG    1       24.925 -27.059   6.242  0.00  0.00    -0.016 C 
ATOM     22  C   LIG    1       25.876 -27.510   7.352  0.00  0.00    +0.007 C 
ATOM     23  C   LIG    1       25.041 -27.996   5.040  0.00  0.00    +0.007 C 
ENDBRANCH  20  21
ENDBRANCH  10  20
TORSDOF 4
ENDMDL
MODEL 2
REMARK VINA RESULT:      -7.1      2.857      6.773
REMARK  Name = *****
REMARK                            x       y       z     vdW  Elec       q    Type
REMARK                         _______ _______ _______ _____ _____    ______ ____
ROOT
ATOM      1  C   LIG    1       25.617 -25.967   5.438  0.00  0.00    +0.162 A 
ATOM      2  C   LIG    1       25.938 -25.811   6.793  0.00  0.00    +0.162 A 
ATOM      3  C   LIG    1       25.683 -24.580   7.407  0.00  0.00    +0.054 A 
ATOM      4  C   LIG    1       25.173 -23.478   6.704  0.00  0.00    -0.023 A 
ATOM      5  C   LIG    1       24.941 -22.143   7.409  0.00  0.00    +0.094 C 
ATOM      6  N   LIG    1       24.866 -20.992   6.476  0.00  0.00    -0.294 NA
ATOM      7  C   LIG    1       23.868 -21.293   5.431  0.00  0.00    +0.089 C 
ATOM      8  C   LIG    1       24.217 -22.515   4.561  0.00  0.00    +0.051 C 
ATOM      9  C   LIG    1       26.168 -20.633   5.884  0.00  0.00    +0.096 C 
ATOM     10  C   LIG    1       27.286 -20.378   6.906  0.00  0.00    +0.070 C 
ATOM     11  C   LIG    1       27.277 -21.511   7.911  0.00  0.00    +0.139 C 
ATOM     12  O   LIG    1       28.297 -22.103   8.288  0.00  0.00    -0.297 OA
ATOM     13  C   LIG    1       25.936 -21.805   8.525  0.00  0.00    +0.098 C 
ATOM     14  C   LIG    1       24.821 -23.652   5.355  0.00  0.00    -0.038 A 
ATOM     15  C   LIG    1       25.072 -24.884   4.730  0.00  0.00    +0.053 A 
ENDROOT
BRANCH   1  17
ATOM     16  C   LIG    1       24.786 -28.058   4.673  0.00  0.00    +0.277 C 
ATOM     17  O   LIG    1       25.818 -27.080   4.662  0.00  0.00    -0.491 OA
ENDBRANCH   1  17
BRANCH   2  18
ATOM     18  O   LIG    1       26.437 -26.871   7.503  0.00  0.00    -0.491 OA
ATOM     19  C   LIG    1       25.525 -27.928   7.795  0.00  0.00    +0.277 C 
ENDBRANCH   2  18
BRANCH  10  20
ATOM     20  C   LIG    1       28.659 -20.231   6.219  0.00  0.00    +0.015 C 
BRANCH  20  21
ATOM     21  C   LIG    1       29.393 -18.908   6.514  0.00  0.00    -0.016 C 
ATOM     22  C   LIG    1       29.348 -17.989   5.291  0.00  0.00    +0.007 C 
ATOM     23  C   LIG    1       30.844 -19.144   6.937  0.00  0.00    +0.007 C 
ENDBRANCH  20  21
ENDBRANCH  10  20
TORSDOF 4
ENDMDL
MODEL 3
REMARK VINA RESULT:      -6.2      5.552      9.776
REMARK  Name = *****
REMARK                            x       y       z     vdW  Elec       q    Type
REMARK                         _______ _______ _______ _____ _____    ______ ____
ROOT
ATOM      1  C   LIG    1       22.039 -29.755  11.748  0.00  0.00    +0.162 A 
ATOM      2  C   LIG    1       21.881 -30.489  10.566  0.00  0.00    +0.162 A 
ATOM      3  C   LIG    1       23.009 -30.748   9.779  0.00  0.00    +0.054 A 
ATOM      4  C   LIG    1       24.282 -30.250  10.099  0.00  0.00    -0.023 A 
ATOM      5  C   LIG    1       25.479 -30.531   9.193  0.00  0.00    +0.094 C 
ATOM      6  N   LIG    1       26.600 -29.581   9.391  0.00  0.00    -0.294 NA
ATOM      7  C   LIG    1       26.939 -29.540  10.827  0.00  0.00    +0.089 C 
ATOM      8  C   LIG    1       25.798 -29.034  11.729  0.00  0.00    +0.051 C 
ATOM      9  C   LIG    1       26.321 -28.230   8.869  0.00  0.00    +0.096 C 
ATOM     10  C   LIG    1       25.885 -28.191   7.397  0.00  0.00    +0.070 C 
ATOM     11  C   LIG    1       24.814 -29.243   7.192  0.00  0.00    +0.139 C 
ATOM     12  O   LIG    1       23.759 -29.038   6.576  0.00  0.00    -0.297 OA
ATOM     13  C   LIG    1       25.167 -30.616   7.695  0.00  0.00    +0.098 C 
ATOM     14  C   LIG    1       24.440 -29.546  11.305  0.00  0.00    -0.038 A 
ATOM     15  C   LIG    1       23.313 -29.282  12.101  0.00  0.00    +0.053 A 
ENDROOT
BRANCH   1  17
ATOM     16  C   LIG    1       20.953 -27.991  12.913  0.00  0.00    +0.277 C 
ATOM     17  O   LIG    1       21.056 -29.380  12.629  0.00  0.00    -0.491 OA
ENDBRANCH   1  17
BRANCH   2  18
ATOM     18  O   LIG    1       20.650 -30.985  10.229  0.00  0.00    -0.491 OA
ATOM     19  C   LIG    1       20.528 -32.405  10.176  0.00  0.00    +0.277 C 
ENDBRANCH   2  18
BRANCH  10  20
ATOM     20  C   LIG    1       25.397 -26.788   6.987  0.00  0.00    +0.015 C 
BRANCH  20  21
ATOM     21  C   LIG    1       26.092 -26.197   5.744  0.00  0.00    -0.016 C 
ATOM     22  C   LIG    1       25.215 -25.118   5.105  0.00  0.00    +0.007 C 
ATOM     23  C   LIG    1       26.430 -27.275   4.713  0.00  0.00    +0.007 C 
ENDBRANCH  20  21
ENDBRANCH  10  20
TORSDOF 4
ENDMDL
MODEL 4
REMARK VINA RESULT:      -6.1      5.831      9.600
REMARK  Name = *****
REMARK                            x       y       z     vdW  Elec       q    Type
REMARK                         _______ _______ _______ _____ _____    ______ ____
ROOT
ATOM      1  C   LIG    1       22.851 -28.693  12.941  0.00  0.00    +0.162 A 
ATOM      2  C   LIG    1       22.585 -29.821  12.155  0.00  0.00    +0.162 A 
ATOM      3  C   LIG    1       23.595 -30.314  11.322  0.00  0.00    +0.054 A 
ATOM      4  C   LIG    1       24.844 -29.686  11.199  0.00  0.00    -0.023 A 
ATOM      5  C   LIG    1       25.905 -30.242  10.252  0.00  0.00    +0.094 C 
ATOM      6  N   LIG    1       26.940 -29.246   9.882  0.00  0.00    -0.294 NA
ATOM      7  C   LIG    1       27.495 -28.657  11.116  0.00  0.00    +0.089 C 
ATOM      8  C   LIG    1       26.464 -27.894  11.968  0.00  0.00    +0.051 C 
ATOM      9  C   LIG    1       26.445 -28.200   8.967  0.00  0.00    +0.096 C 
ATOM     10  C   LIG    1       25.780 -28.731   7.689  0.00  0.00    +0.070 C 
ATOM     11  C   LIG    1       24.804 -29.822   8.080  0.00  0.00    +0.139 C 
ATOM     12  O   LIG    1       23.650 -29.902   7.638  0.00  0.00    -0.297 OA
ATOM     13  C   LIG    1       25.371 -30.893   8.971  0.00  0.00    +0.098 C 
ATOM     14  C   LIG    1       25.117 -28.577  12.017  0.00  0.00    -0.038 A 
ATOM     15  C   LIG    1       24.109 -28.076  12.857  0.00  0.00    +0.053 A 
ENDROOT
BRANCH   1  17
ATOM     16  C   LIG    1       21.264 -26.951  13.254  0.00  0.00    +0.277 C 
ATOM     17  O   LIG    1       21.985 -28.052  13.792  0.00  0.00    -0.491 OA
ENDBRANCH   1  17
BRANCH   2  18
ATOM     18  O   LIG    1       21.373 -30.453  12.255  0.00  0.00    -0.491 OA
ATOM     19  C   LIG    1       20.556 -30.451  11.086  0.00  0.00    +0.277 C 
ENDBRANCH   2  18
BRANCH  10  20
ATOM     20  C   LIG    1       25.092 -27.602   6.896  0.00  0.00    +0.015 C 
BRANCH  20  21
ATOM     21  C   LIG    1       26.051 -26.672   6.127  0.00  0.00    -0.016 C 
ATOM     22  C   LIG    1       25.819 -25.214   6.533  0.00  0.00    +0.007 C 
ATOM     23  C   LIG    1       25.901 -26.823   4.613  0.00  0.00    +0.007 C 
ENDBRANCH  20  21
ENDBRANCH  10  20
TORSDOF 4
ENDMDL
MODEL 5
REMARK VINA RESULT:      -6.0      3.206      6.454
REMARK  Name = *****
REMARK                            x       y       z     vdW  Elec       q    Type
REMARK                         _______ _______ _______ _____ _____    ______ ____
ROOT
ATOM      1  C   LIG    1       24.447 -20.025   5.623  0.00  0.00    +0.162 A 
ATOM      2  C   LIG    1       25.436 -19.769   4.664  0.00  0.00    +0.162 A 
ATOM      3  C   LIG    1       26.759 -20.120   4.953  0.00  0.00    +0.054 A 
ATOM      4  C   LIG    1       27.142 -20.666   6.188  0.00  0.00    -0.023 A 
ATOM      5  C   LIG    1       28.604 -21.005   6.471  0.00  0.00    +0.094 C 
ATOM      6  N   LIG    1       28.912 -21.111   7.917  0.00  0.00    -0.294 NA
ATOM      7  C   LIG    1       27.955 -22.047   8.539  0.00  0.00    +0.089 C 
ATOM      8  C   LIG    1       26.486 -21.592   8.456  0.00  0.00    +0.051 C 
ATOM      9  C   LIG    1       28.915 -19.810   8.612  0.00  0.00    +0.096 C 
ATOM     10  C   LIG    1       29.831 -18.750   7.981  0.00  0.00    +0.070 C 
ATOM     11  C   LIG    1       29.576 -18.732   6.488  0.00  0.00    +0.139 C 
ATOM     12  O   LIG    1       29.422 -17.695   5.830  0.00  0.00    -0.297 OA
ATOM     13  C   LIG    1       29.635 -20.077   5.817  0.00  0.00    +0.098 C 
ATOM     14  C   LIG    1       26.140 -20.954   7.130  0.00  0.00    -0.038 A 
ATOM     15  C   LIG    1       24.809 -20.605   6.849  0.00  0.00    +0.053 A 
ENDROOT
BRANCH   1  17
ATOM     16  C   LIG    1       22.264 -20.749   5.022  0.00  0.00    +0.277 C 
ATOM     17  O   LIG    1       23.110 -19.728   5.534  0.00  0.00    -0.491 OA
ENDBRANCH   1  17
BRANCH   2  18
ATOM     18  O   LIG    1       25.090 -19.236   3.450  0.00  0.00    -0.491 OA
ATOM     19  C   LIG    1       25.502 -17.894   3.203  0.00  0.00    +0.277 C 
ENDBRANCH   2  18
BRANCH  10  20
ATOM     20  C   LIG    1       29.614 -17.363   8.617  0.00  0.00    +0.015 C 
BRANCH  20  21
ATOM     21  C   LIG    1       30.722 -16.917   9.593  0.00  0.00    -0.016 C 
ATOM     22  C   LIG    1       32.082 -17.447   9.133  0.00  0.00    +0.007 C 
ATOM     23  C   LIG    1       30.439 -17.374  11.024  0.00  0.00    +0.007 C 
ENDBRANCH  20  21
ENDBRANCH  10  20
TORSDOF 4
ENDMDL
MODEL 6
REMARK VINA RESULT:      -5.9      1.453      2.202
REMARK  Name = *****
REMARK                            x       y       z     vdW  Elec       q    Type
REMARK                         _______ _______ _______ _____ _____    ______ ____
ROOT
ATOM      1  C   LIG    1       27.462 -19.305   5.182  0.00  0.00    +0.162 A 
ATOM      2  C   LIG    1       26.268 -19.595   4.511  0.00  0.00    +0.162 A 
ATOM      3  C   LIG    1       25.315 -20.397   5.148  0.00  0.00    +0.054 A 
ATOM      4  C   LIG    1       25.535 -20.970   6.411  0.00  0.00    -0.023 A 
ATOM      5  C   LIG    1       24.478 -21.865   7.055  0.00  0.00    +0.094 C 
ATOM      6  N   LIG    1       25.024 -22.747   8.115  0.00  0.00    -0.294 NA
ATOM      7  C   LIG    1       25.771 -21.920   9.082  0.00  0.00    +0.089 C 
ATOM      8  C   LIG    1       26.985 -21.188   8.479  0.00  0.00    +0.051 C 
ATOM      9  C   LIG    1       25.861 -23.843   7.590  0.00  0.00    +0.096 C 
ATOM     10  C   LIG    1       25.183 -24.708   6.518  0.00  0.00    +0.070 C 
ATOM     11  C   LIG    1       24.540 -23.787   5.502  0.00  0.00    +0.139 C 
ATOM     12  O   LIG    1       24.642 -23.937   4.277  0.00  0.00    -0.297 OA
ATOM     13  C   LIG    1       23.655 -22.718   6.083  0.00  0.00    +0.098 C 
ATOM     14  C   LIG    1       26.719 -20.645   7.094  0.00  0.00    -0.038 A 
ATOM     15  C   LIG    1       27.681 -19.841   6.462  0.00  0.00    +0.053 A 
ENDROOT
BRANCH   1  17
ATOM     16  C   LIG    1       29.610 -18.379   5.605  0.00  0.00    +0.277 C 
ATOM     17  O   LIG    1       28.519 -18.567   4.713  0.00  0.00    -0.491 OA
ENDBRANCH   1  17
BRANCH   2  18
ATOM     18  O   LIG    1       26.028 -19.050   3.277  0.00  0.00    -0.491 OA
ATOM     19  C   LIG    1       25.587 -17.694   3.255  0.00  0.00    +0.277 C 
ENDBRANCH   2  18
BRANCH  10  20
ATOM     20  C   LIG    1       26.181 -25.682   5.860  0.00  0.00    +0.015 C 
BRANCH  20  21
ATOM     21  C   LIG    1       25.873 -27.176   6.083  0.00  0.00    -0.016 C 
ATOM     22  C   LIG    1       24.484 -27.520   5.539  0.00  0.00    +0.007 C 
ATOM     23  C   LIG    1       25.967 -27.563   7.559  0.00  0.00    +0.007 C 
ENDBRANCH  20  21
ENDBRANCH  10  20
TORSDOF 4
ENDMDL
MODEL 7
REMARK VINA RESULT:      -5.5      2.892      5.085
REMARK  Name = *****
REMARK                            x       y       z     vdW  Elec       q    Type
REMARK                         _______ _______ _______ _____ _____    ______ ____
ROOT
ATOM      1  C   LIG    1       24.454 -15.405   3.870  0.00  0.00    +0.162 A 
ATOM      2  C   LIG    1       25.512 -16.163   3.352  0.00  0.00    +0.162 A 
ATOM      3  C   LIG    1       25.362 -17.550   3.254  0.00  0.00    +0.054 A 
ATOM      4  C   LIG    1       24.214 -18.218   3.709  0.00  0.00    -0.023 A 
ATOM      5  C   LIG    1       24.107 -19.738   3.611  0.00  0.00    +0.094 C 
ATOM      6  N   LIG    1       23.096 -20.315   4.531  0.00  0.00    -0.294 NA
ATOM      7  C   LIG    1       21.813 -19.615   4.326  0.00  0.00    +0.089 C 
ATOM      8  C   LIG    1       21.860 -18.109   4.647  0.00  0.00    +0.051 C 
ATOM      9  C   LIG    1       23.505 -20.277   5.947  0.00  0.00    +0.096 C 
ATOM     10  C   LIG    1       24.871 -20.919   6.236  0.00  0.00    +0.070 C 
ATOM     11  C   LIG    1       25.864 -20.397   5.219  0.00  0.00    +0.139 C 
ATOM     12  O   LIG    1       26.999 -19.995   5.511  0.00  0.00    -0.297 OA
ATOM     13  C   LIG    1       25.422 -20.505   3.785  0.00  0.00    +0.098 C 
ATOM     14  C   LIG    1       23.142 -17.449   4.194  0.00  0.00    -0.038 A 
ATOM     15  C   LIG    1       23.285 -16.055   4.295  0.00  0.00    +0.053 A 
ENDROOT
BRANCH   1  17
ATOM     16  C   LIG    1       24.938 -13.575   5.308  0.00  0.00    +0.277 C 
ATOM     17  O   LIG    1       24.426 -14.048   4.069  0.00  0.00    -0.491 OA
ENDBRANCH   1  17
BRANCH   2  18
ATOM     18  O   LIG    1       26.645 -15.536   2.901  0.00  0.00    -0.491 OA
ATOM     19  C   LIG    1       27.616 -15.190   3.886  0.00  0.00    +0.277 C 
ENDBRANCH   2  18
BRANCH  10  20
ATOM     20  C   LIG    1       25.332 -20.645   7.682  0.00  0.00    +0.015 C 
BRANCH  20  21
ATOM     21  C   LIG    1       26.106 -21.802   8.345  0.00  0.00    -0.016 C 
ATOM     22  C   LIG    1       27.608 -21.505   8.349  0.00  0.00    +0.007 C 
ATOM     23  C   LIG    1       25.839 -23.138   7.652  0.00  0.00    +0.007 C 
ENDBRANCH  20  21
ENDBRANCH  10  20
TORSDOF 4
ENDMDL
MODEL 8
REMARK VINA RESULT:      -5.4      7.998      9.490
REMARK  Name = *****
REMARK                            x       y       z     vdW  Elec       q    Type
REMARK                         _______ _______ _______ _____ _____    ______ ____
ROOT
ATOM      1  C   LIG    1       24.222 -27.028  13.575  0.00  0.00    +0.162 A 
ATOM      2  C   LIG    1       23.381 -28.123  13.340  0.00  0.00    +0.162 A 
ATOM      3  C   LIG    1       23.901 -29.239  12.674  0.00  0.00    +0.054 A 
ATOM      4  C   LIG    1       25.215 -29.278  12.182  0.00  0.00    -0.023 A 
ATOM      5  C   LIG    1       25.729 -30.505  11.432  0.00  0.00    +0.094 C 
ATOM      6  N   LIG    1       26.916 -30.223  10.589  0.00  0.00    -0.294 NA
ATOM      7  C   LIG    1       27.942 -29.561  11.419  0.00  0.00    +0.089 C 
ATOM      8  C   LIG    1       27.503 -28.202  11.995  0.00  0.00    +0.051 C 
ATOM      9  C   LIG    1       26.604 -29.425   9.389  0.00  0.00    +0.096 C 
ATOM     10  C   LIG    1       25.489 -30.006   8.506  0.00  0.00    +0.070 C 
ATOM     11  C   LIG    1       24.327 -30.387   9.400  0.00  0.00    +0.139 C 
ATOM     12  O   LIG    1       23.147 -30.107   9.150  0.00  0.00    -0.297 OA
ATOM     13  C   LIG    1       24.689 -31.244  10.582  0.00  0.00    +0.098 C 
ATOM     14  C   LIG    1       26.063 -28.191  12.453  0.00  0.00    -0.038 A 
ATOM     15  C   LIG    1       25.550 -27.067  13.121  0.00  0.00    +0.053 A 
ENDROOT
BRANCH   1  17
ATOM     16  C   LIG    1       24.927 -24.881  14.313  0.00  0.00    +0.277 C 
ATOM     17  O   LIG    1       23.888 -25.843  14.182  0.00  0.00    -0.491 OA
ENDBRANCH   1  17
BRANCH   2  18
ATOM     18  O   LIG    1       22.094 -28.110  13.809  0.00  0.00    -0.491 OA
ATOM     19  C   LIG    1       21.068 -27.873  12.848  0.00  0.00    +0.277 C 
ENDBRANCH   2  18
BRANCH  10  20
ATOM     20  C   LIG    1       25.065 -29.016   7.403  0.00  0.00    +0.015 C 
BRANCH  20  21
ATOM     21  C   LIG    1       24.591 -29.672   6.091  0.00  0.00    -0.016 C 
ATOM     22  C   LIG    1       25.512 -30.834   5.713  0.00  0.00    +0.007 C 
ATOM     23  C   LIG    1       24.523 -28.664   4.943  0.00  0.00    +0.007 C 
ENDBRANCH  20  21
ENDBRANCH  10  20
TORSDOF 4
ENDMDL
MODEL 9
REMARK VINA RESULT:      -5.3      4.818      8.138
REMARK  Name = *****
REMARK                            x       y       z     vdW  Elec       q    Type
REMARK                         _______ _______ _______ _____ _____    ______ ____
ROOT
ATOM      1  C   LIG    1       27.125 -21.075   6.954  0.00  0.00    +0.162 A 
ATOM      2  C   LIG    1       27.684 -20.023   6.217  0.00  0.00    +0.162 A 
ATOM      3  C   LIG    1       29.031 -19.701   6.420  0.00  0.00    +0.054 A 
ATOM      4  C   LIG    1       29.826 -20.353   7.375  0.00  0.00    -0.023 A 
ATOM      5  C   LIG    1       31.283 -19.946   7.585  0.00  0.00    +0.094 C 
ATOM      6  N   LIG    1       31.827 -20.369   8.898  0.00  0.00    -0.294 NA
ATOM      7  C   LIG    1       31.584 -21.815   9.069  0.00  0.00    +0.089 C 
ATOM      8  C   LIG    1       30.094 -22.205   9.087  0.00  0.00    +0.051 C 
ATOM      9  C   LIG    1       31.283 -19.599  10.032  0.00  0.00    +0.096 C 
ATOM     10  C   LIG    1       31.426 -18.075   9.898  0.00  0.00    +0.070 C 
ATOM     11  C   LIG    1       30.965 -17.676   8.511  0.00  0.00    +0.139 C 
ATOM     12  O   LIG    1       30.208 -16.723   8.287  0.00  0.00    -0.297 OA
ATOM     13  C   LIG    1       31.587 -18.457   7.385  0.00  0.00    +0.098 C 
ATOM     14  C   LIG    1       29.269 -21.430   8.085  0.00  0.00    -0.038 A 
ATOM     15  C   LIG    1       27.918 -21.761   7.887  0.00  0.00    +0.053 A 
ENDROOT
BRANCH   1  17
ATOM     16  C   LIG    1       25.610 -22.887   7.221  0.00  0.00    +0.277 C 
ATOM     17  O   LIG    1       25.826 -21.516   6.914  0.00  0.00    -0.491 OA
ENDBRANCH   1  17
BRANCH   2  18
ATOM     18  O   LIG    1       26.930 -19.370   5.278  0.00  0.00    -0.491 OA
ATOM     19  C   LIG    1       25.933 -20.142   4.612  0.00  0.00    +0.277 C 
ENDBRANCH   2  18
BRANCH  10  20
ATOM     20  C   LIG    1       30.644 -17.333  10.999  0.00  0.00    +0.015 C 
BRANCH  20  21
ATOM     21  C   LIG    1       31.470 -16.310  11.805  0.00  0.00    -0.016 C 
ATOM     22  C   LIG    1       32.664 -15.822  10.981  0.00  0.00    +0.007 C 
ATOM     23  C   LIG    1       31.954 -16.890  13.134  0.00  0.00    +0.007 C 
ENDBRANCH  20  21
ENDBRANCH  10  20
TORSDOF 4
ENDMDL
