MODEL 1
REMARK VINA RESULT:      -5.9      0.000      0.000
REMARK  Name = *****
REMARK                            x       y       z     vdW  Elec       q    Type
REMARK                         _______ _______ _______ _____ _____    ______ ____
ROOT
ATOM      1  C   LIG    1       22.367 -20.098   4.912  0.00  0.00    +0.001 A 
ATOM      2  C   LIG    1       23.236 -20.615   5.870  0.00  0.00    +0.010 A 
ATOM      3  C   LIG    1       24.640 -20.446   5.782  0.00  0.00    -0.002 A 
ATOM      4  C   LIG    1       25.399 -21.054   6.876  0.00  0.00    +0.011 C 
ATOM      5  C   LIG    1       26.717 -21.060   7.062  0.00  0.00    +0.022 C 
ATOM      6  C   LIG    1       27.722 -20.446   6.189  0.00  0.00    +0.130 C 
ATOM      7  N   LIG    1       27.658 -19.778   5.094  0.00  0.00    -0.191 NA
ATOM      8  N   LIG    1       26.530 -19.466   4.439  0.00  0.00    -0.237 N 
ATOM      9  H   LIG    1       26.684 -18.933   3.586  0.00  0.00    +0.174 HD
ATOM     10  C   LIG    1       25.175 -19.738   4.698  0.00  0.00    +0.055 A 
ATOM     11  C   LIG    1       24.264 -19.224   3.739  0.00  0.00    +0.025 A 
ATOM     12  C   LIG    1       22.884 -19.398   3.839  0.00  0.00    +0.002 A 
ENDROOT
TORSDOF 0
ENDMDL
MODEL 2
REMARK VINA RESULT:      -5.5      1.885      4.361
REMARK  Name = *****
REMARK                            x       y       z     vdW  Elec       q    Type
REMARK                         _______ _______ _______ _____ _____    ______ ____
ROOT
ATOM      1  C   LIG    1       28.006 -20.124   5.872  0.00  0.00    +0.001 A 
ATOM      2  C   LIG    1       27.029 -19.694   4.976  0.00  0.00    +0.010 A 
ATOM      3  C   LIG    1       25.669 -20.072   5.106  0.00  0.00    -0.002 A 
ATOM      4  C   LIG    1       24.782 -19.527   4.077  0.00  0.00    +0.011 C 
ATOM      5  C   LIG    1       23.470 -19.706   3.940  0.00  0.00    +0.022 C 
ATOM      6  C   LIG    1       22.606 -20.509   4.809  0.00  0.00    +0.130 C 
ATOM      7  N   LIG    1       22.815 -21.213   5.863  0.00  0.00    -0.191 NA
ATOM      8  N   LIG    1       24.003 -21.385   6.461  0.00  0.00    -0.237 N 
ATOM      9  H   LIG    1       23.966 -21.980   7.285  0.00  0.00    +0.174 HD
ATOM     10  C   LIG    1       25.292 -20.906   6.167  0.00  0.00    +0.055 A 
ATOM     11  C   LIG    1       26.309 -21.327   7.062  0.00  0.00    +0.025 A 
ATOM     12  C   LIG    1       27.644 -20.947   6.922  0.00  0.00    +0.002 A 
ENDROOT
TORSDOF 0
ENDMDL
MODEL 3
REMARK VINA RESULT:      -5.5      1.424      3.747
REMARK  Name = *****
REMARK                            x       y       z     vdW  Elec       q    Type
REMARK                         _______ _______ _______ _____ _____    ______ ____
ROOT
ATOM      1  C   LIG    1       27.886 -20.788   6.782  0.00  0.00    +0.001 A 
ATOM      2  C   LIG    1       26.579 -21.181   7.062  0.00  0.00    +0.010 A 
ATOM      3  C   LIG    1       25.491 -20.827   6.225  0.00  0.00    -0.002 A 
ATOM      4  C   LIG    1       24.190 -21.326   6.671  0.00  0.00    +0.011 C 
ATOM      5  C   LIG    1       23.000 -21.156   6.097  0.00  0.00    +0.022 C 
ATOM      6  C   LIG    1       22.728 -20.413   4.864  0.00  0.00    +0.130 C 
ATOM      7  N   LIG    1       23.465 -19.764   4.036  0.00  0.00    -0.191 NA
ATOM      8  N   LIG    1       24.794 -19.611   4.135  0.00  0.00    -0.237 N 
ATOM      9  H   LIG    1       25.201 -19.062   3.381  0.00  0.00    +0.174 HD
ATOM     10  C   LIG    1       25.735 -20.057   5.080  0.00  0.00    +0.055 A 
ATOM     11  C   LIG    1       27.076 -19.673   4.822  0.00  0.00    +0.025 A 
ATOM     12  C   LIG    1       28.137 -20.029   5.655  0.00  0.00    +0.002 A 
ENDROOT
TORSDOF 0
ENDMDL
MODEL 4
REMARK VINA RESULT:      -5.2      1.544      2.290
REMARK  Name = *****
REMARK                            x       y       z     vdW  Elec       q    Type
REMARK                         _______ _______ _______ _____ _____    ______ ____
ROOT
ATOM      1  C   LIG    1       22.647 -19.098   3.881  0.00  0.00    +0.001 A 
ATOM      2  C   LIG    1       24.038 -19.019   3.883  0.00  0.00    +0.010 A 
ATOM      3  C   LIG    1       24.832 -19.747   4.803  0.00  0.00    -0.002 A 
ATOM      4  C   LIG    1       26.275 -19.544   4.660  0.00  0.00    +0.011 C 
ATOM      5  C   LIG    1       27.259 -20.086   5.373  0.00  0.00    +0.022 C 
ATOM      6  C   LIG    1       27.110 -21.027   6.487  0.00  0.00    +0.130 C 
ATOM      7  N   LIG    1       26.097 -21.569   7.062  0.00  0.00    -0.191 NA
ATOM      8  N   LIG    1       24.814 -21.367   6.729  0.00  0.00    -0.237 N 
ATOM      9  H   LIG    1       24.154 -21.886   7.304  0.00  0.00    +0.174 HD
ATOM     10  C   LIG    1       24.202 -20.572   5.743  0.00  0.00    +0.055 A 
ATOM     11  C   LIG    1       22.785 -20.632   5.716  0.00  0.00    +0.025 A 
ATOM     12  C   LIG    1       22.016 -19.910   4.804  0.00  0.00    +0.002 A 
ENDROOT
TORSDOF 0
ENDMDL
MODEL 5
REMARK VINA RESULT:      -5.1      1.519      2.344
REMARK  Name = *****
REMARK                            x       y       z     vdW  Elec       q    Type
REMARK                         _______ _______ _______ _____ _____    ______ ____
ROOT
ATOM      1  C   LIG    1       23.760 -19.418   3.653  0.00  0.00    +0.001 A 
ATOM      2  C   LIG    1       25.110 -19.118   3.828  0.00  0.00    +0.010 A 
ATOM      3  C   LIG    1       25.911 -19.785   4.788  0.00  0.00    -0.002 A 
ATOM      4  C   LIG    1       27.305 -19.343   4.834  0.00  0.00    +0.011 C 
ATOM      5  C   LIG    1       28.284 -19.780   5.623  0.00  0.00    +0.022 C 
ATOM      6  C   LIG    1       28.176 -20.824   6.647  0.00  0.00    +0.130 C 
ATOM      7  N   LIG    1       27.213 -21.568   7.058  0.00  0.00    -0.191 NA
ATOM      8  N   LIG    1       25.958 -21.545   6.587  0.00  0.00    -0.237 N 
ATOM      9  H   LIG    1       25.336 -22.210   7.042  0.00  0.00    +0.174 HD
ATOM     10  C   LIG    1       25.331 -20.778   5.589  0.00  0.00    +0.055 A 
ATOM     11  C   LIG    1       23.955 -21.061   5.387  0.00  0.00    +0.025 A 
ATOM     12  C   LIG    1       23.179 -20.396   4.438  0.00  0.00    +0.002 A 
ENDROOT
TORSDOF 0
ENDMDL
MODEL 6
REMARK VINA RESULT:      -4.9      1.435      2.464
REMARK  Name = *****
REMARK                            x       y       z     vdW  Elec       q    Type
REMARK                         _______ _______ _______ _____ _____    ______ ____
ROOT
ATOM      1  C   LIG    1       22.517 -20.958   5.280  0.00  0.00    +0.001 A 
ATOM      2  C   LIG    1       23.568 -20.328   4.618  0.00  0.00    +0.010 A 
ATOM      3  C   LIG    1       24.882 -20.295   5.148  0.00  0.00    -0.002 A 
ATOM      4  C   LIG    1       25.859 -19.591   4.318  0.00  0.00    +0.011 C 
ATOM      5  C   LIG    1       27.156 -19.399   4.553  0.00  0.00    +0.022 C 
ATOM      6  C   LIG    1       27.905 -19.860   5.725  0.00  0.00    +0.130 C 
ATOM      7  N   LIG    1       27.587 -20.523   6.777  0.00  0.00    -0.191 NA
ATOM      8  N   LIG    1       26.362 -20.989   7.062  0.00  0.00    -0.237 N 
ATOM      9  H   LIG    1       26.308 -21.491   7.946  0.00  0.00    +0.174 HD
ATOM     10  C   LIG    1       25.135 -20.915   6.379  0.00  0.00    +0.055 A 
ATOM     11  C   LIG    1       24.044 -21.548   7.030  0.00  0.00    +0.025 A 
ATOM     12  C   LIG    1       22.756 -21.572   6.495  0.00  0.00    +0.002 A 
ENDROOT
TORSDOF 0
ENDMDL
MODEL 7
REMARK VINA RESULT:      -4.6      1.451      4.093
REMARK  Name = *****
REMARK                            x       y       z     vdW  Elec       q    Type
REMARK                         _______ _______ _______ _____ _____    ______ ____
ROOT
ATOM      1  C   LIG    1       28.504 -20.809   7.062  0.00  0.00    +0.001 A 
ATOM      2  C   LIG    1       27.206 -21.036   6.610  0.00  0.00    +0.010 A 
ATOM      3  C   LIG    1       26.605 -20.234   5.608  0.00  0.00    -0.002 A 
ATOM      4  C   LIG    1       25.238 -20.617   5.256  0.00  0.00    +0.011 C 
ATOM      5  C   LIG    1       24.428 -20.056   4.360  0.00  0.00    +0.022 C 
ATOM      6  C   LIG    1       24.737 -18.901   3.511  0.00  0.00    +0.130 C 
ATOM      7  N   LIG    1       25.770 -18.151   3.374  0.00  0.00    -0.191 NA
ATOM      8  N   LIG    1       26.918 -18.276   4.057  0.00  0.00    -0.237 N 
ATOM      9  H   LIG    1       27.621 -17.584   3.808  0.00  0.00    +0.174 HD
ATOM     10  C   LIG    1       27.337 -19.176   5.053  0.00  0.00    +0.055 A 
ATOM     11  C   LIG    1       28.656 -18.969   5.534  0.00  0.00    +0.025 A 
ATOM     12  C   LIG    1       29.234 -19.768   6.521  0.00  0.00    +0.002 A 
ENDROOT
TORSDOF 0
ENDMDL
MODEL 8
REMARK VINA RESULT:      -4.6      2.786      4.210
REMARK  Name = *****
REMARK                            x       y       z     vdW  Elec       q    Type
REMARK                         _______ _______ _______ _____ _____    ______ ____
ROOT
ATOM      1  C   LIG    1       22.407 -19.461   4.547  0.00  0.00    +0.001 A 
ATOM      2  C   LIG    1       22.344 -18.071   4.620  0.00  0.00    +0.010 A 
ATOM      3  C   LIG    1       23.424 -17.246   4.220  0.00  0.00    -0.002 A 
ATOM      4  C   LIG    1       23.183 -15.810   4.364  0.00  0.00    +0.011 C 
ATOM      5  C   LIG    1       24.002 -14.802   4.074  0.00  0.00    +0.022 C 
ATOM      6  C   LIG    1       25.360 -14.913   3.533  0.00  0.00    +0.130 C 
ATOM      7  N   LIG    1       26.106 -15.905   3.203  0.00  0.00    -0.191 NA
ATOM      8  N   LIG    1       25.763 -17.198   3.292  0.00  0.00    -0.237 N 
ATOM      9  H   LIG    1       26.491 -17.838   2.982  0.00  0.00    +0.174 HD
ATOM     10  C   LIG    1       24.595 -17.844   3.735  0.00  0.00    +0.055 A 
ATOM     11  C   LIG    1       24.629 -19.261   3.672  0.00  0.00    +0.025 A 
ATOM     12  C   LIG    1       23.558 -20.060   4.070  0.00  0.00    +0.002 A 
ENDROOT
TORSDOF 0
ENDMDL
MODEL 9
REMARK VINA RESULT:      -4.0      3.304      4.485
REMARK  Name = *****
REMARK                            x       y       z     vdW  Elec       q    Type
REMARK                         _______ _______ _______ _____ _____    ______ ____
ROOT
ATOM      1  C   LIG    1       23.670 -20.084   4.007  0.00  0.00    +0.001 A 
ATOM      2  C   LIG    1       24.711 -19.229   3.652  0.00  0.00    +0.010 A 
ATOM      3  C   LIG    1       24.592 -17.820   3.740  0.00  0.00    -0.002 A 
ATOM      4  C   LIG    1       25.785 -17.078   3.328  0.00  0.00    +0.011 C 
ATOM      5  C   LIG    1       25.969 -15.760   3.301  0.00  0.00    +0.022 C 
ATOM      6  C   LIG    1       24.993 -14.738   3.688  0.00  0.00    +0.130 C 
ATOM      7  N   LIG    1       23.787 -14.782   4.128  0.00  0.00    -0.191 NA
ATOM      8  N   LIG    1       23.083 -15.901   4.354  0.00  0.00    -0.237 N 
ATOM      9  H   LIG    1       22.142 -15.731   4.702  0.00  0.00    +0.174 HD
ATOM     10  C   LIG    1       23.390 -17.265   4.197  0.00  0.00    +0.055 A 
ATOM     11  C   LIG    1       22.348 -18.161   4.551  0.00  0.00    +0.025 A 
ATOM     12  C   LIG    1       22.480 -19.546   4.459  0.00  0.00    +0.002 A 
ENDROOT
TORSDOF 0
ENDMDL
