MODEL 1
REMARK VINA RESULT:      -5.5      0.000      0.000
REMARK  Name = *****
REMARK                            x       y       z     vdW  Elec       q    Type
REMARK                         _______ _______ _______ _____ _____    ______ ____
ROOT
ATOM      1  C   LIG    1       25.921 -19.681   4.099  0.00  0.00    +0.234 C 
ENDROOT
BRANCH   1   2
ATOM      2  C   LIG    1       24.571 -19.898   4.850  0.00  0.00    +0.177 C 
ATOM      3  O   LIG    1       24.827 -20.298   6.220  0.00  0.00    -0.370 OA
ATOM      4  C   LIG    1       23.596 -20.445   6.934  0.00  0.00    +0.175 C 
ATOM      5  C   LIG    1       22.763 -21.568   6.312  0.00  0.00    +0.109 C 
ATOM      6  N   LIG    1       22.471 -21.302   4.894  0.00  0.00    -0.311 NA
ATOM      7  H   LIG    1       22.029 -22.124   4.482  0.00  0.00    +0.122 HD
ATOM      8  C   LIG    1       23.726 -21.006   4.168  0.00  0.00    +0.116 C 
ENDBRANCH   1   2
BRANCH   1   9
ATOM      9  C   LIG    1       27.068 -19.563   5.102  0.00  0.00    -0.005 A 
ATOM     10  C   LIG    1       28.080 -18.610   4.877  0.00  0.00    +0.007 A 
ATOM     11  C   LIG    1       29.201 -18.546   5.704  0.00  0.00    +0.000 A 
ATOM     12  C   LIG    1       29.322 -19.425   6.776  0.00  0.00    +0.000 A 
ATOM     13  C   LIG    1       28.319 -20.362   7.025  0.00  0.00    +0.000 A 
ATOM     14  C   LIG    1       27.199 -20.434   6.192  0.00  0.00    +0.007 A 
ENDBRANCH   1   9
BRANCH   1  15
ATOM     15  O   LIG    1       25.818 -18.502   3.280  0.00  0.00    -0.478 OA
BRANCH  15  17
ATOM     16  C   LIG    1       25.286 -16.197   3.605  0.00  0.00    +0.162 A 
ATOM     17  C   LIG    1       24.883 -17.551   3.610  0.00  0.00    +0.163 A 
ATOM     18  C   LIG    1       23.586 -17.871   4.025  0.00  0.00    +0.049 A 
ATOM     19  C   LIG    1       22.683 -16.870   4.391  0.00  0.00    +0.004 A 
ATOM     20  C   LIG    1       23.083 -15.538   4.393  0.00  0.00    +0.004 A 
ATOM     21  C   LIG    1       24.385 -15.206   4.022  0.00  0.00    +0.049 A 
BRANCH  16  22
ATOM     22  O   LIG    1       26.570 -15.923   3.197  0.00  0.00    -0.489 OA
BRANCH  22  24
ATOM     23  C   LIG    1       27.894 -14.049   3.882  0.00  0.00    +0.048 C 
ATOM     24  C   LIG    1       26.855 -14.553   2.899  0.00  0.00    +0.226 C 
ENDBRANCH  22  24
ENDBRANCH  16  22
ENDBRANCH  15  17
ENDBRANCH   1  15
TORSDOF 6
ENDMDL
MODEL 2
REMARK VINA RESULT:      -4.0      2.122      4.194
REMARK  Name = *****
REMARK                            x       y       z     vdW  Elec       q    Type
REMARK                         _______ _______ _______ _____ _____    ______ ____
ROOT
ATOM      1  C   LIG    1       25.644 -17.919   4.293  0.00  0.00    +0.234 C 
ENDROOT
BRANCH   1   2
ATOM      2  C   LIG    1       27.078 -18.519   4.425  0.00  0.00    +0.177 C 
ATOM      3  O   LIG    1       27.099 -19.519   5.475  0.00  0.00    -0.370 OA
ATOM      4  C   LIG    1       28.396 -20.117   5.568  0.00  0.00    +0.175 C 
ATOM      5  C   LIG    1       29.431 -19.061   5.964  0.00  0.00    +0.109 C 
ATOM      6  N   LIG    1       29.475 -17.956   4.992  0.00  0.00    -0.311 NA
ATOM      7  H   LIG    1       30.076 -17.215   5.352  0.00  0.00    +0.122 HD
ATOM      8  C   LIG    1       28.112 -17.419   4.778  0.00  0.00    +0.116 C 
ENDBRANCH   1   2
BRANCH   1   9
ATOM      9  C   LIG    1       24.627 -19.032   4.043  0.00  0.00    -0.005 A 
ATOM     10  C   LIG    1       23.455 -19.076   4.820  0.00  0.00    +0.007 A 
ATOM     11  C   LIG    1       22.556 -20.137   4.703  0.00  0.00    +0.000 A 
ATOM     12  C   LIG    1       22.811 -21.163   3.799  0.00  0.00    +0.000 A 
ATOM     13  C   LIG    1       23.958 -21.124   3.006  0.00  0.00    +0.000 A 
ATOM     14  C   LIG    1       24.863 -20.067   3.129  0.00  0.00    +0.007 A 
ENDBRANCH   1   9
BRANCH   1  15
ATOM     15  O   LIG    1       25.637 -16.953   3.225  0.00  0.00    -0.478 OA
BRANCH  15  17
ATOM     16  C   LIG    1       25.739 -14.575   3.048  0.00  0.00    +0.162 A 
ATOM     17  C   LIG    1       25.038 -15.736   3.442  0.00  0.00    +0.163 A 
ATOM     18  C   LIG    1       23.814 -15.597   4.106  0.00  0.00    +0.049 A 
ATOM     19  C   LIG    1       23.265 -14.335   4.340  0.00  0.00    +0.004 A 
ATOM     20  C   LIG    1       23.959 -13.192   3.958  0.00  0.00    +0.004 A 
ATOM     21  C   LIG    1       25.200 -13.312   3.334  0.00  0.00    +0.049 A 
BRANCH  16  22
ATOM     22  O   LIG    1       26.941 -14.751   2.405  0.00  0.00    -0.489 OA
BRANCH  22  24
ATOM     23  C   LIG    1       28.225 -13.750   4.162  0.00  0.00    +0.048 C 
ATOM     24  C   LIG    1       27.946 -13.768   2.671  0.00  0.00    +0.226 C 
ENDBRANCH  22  24
ENDBRANCH  16  22
ENDBRANCH  15  17
ENDBRANCH   1  15
TORSDOF 6
ENDMDL
MODEL 3
REMARK VINA RESULT:      -3.9      2.464      5.030
REMARK  Name = *****
REMARK                            x       y       z     vdW  Elec       q    Type
REMARK                         _______ _______ _______ _____ _____    ______ ____
ROOT
ATOM      1  C   LIG    1       26.943 -15.771   3.172  0.00  0.00    +0.234 C 
ENDROOT
BRANCH   1   2
ATOM      2  C   LIG    1       26.873 -17.011   4.116  0.00  0.00    +0.177 C 
ATOM      3  O   LIG    1       28.208 -17.519   4.363  0.00  0.00    -0.370 OA
ATOM      4  C   LIG    1       28.161 -18.623   5.272  0.00  0.00    +0.175 C 
ATOM      5  C   LIG    1       27.375 -19.780   4.648  0.00  0.00    +0.109 C 
ATOM      6  N   LIG    1       26.001 -19.376   4.305  0.00  0.00    -0.311 NA
ATOM      7  H   LIG    1       25.552 -20.125   3.779  0.00  0.00    +0.122 HD
ATOM      8  C   LIG    1       26.029 -18.147   3.480  0.00  0.00    +0.116 C 
ENDBRANCH   1   2
BRANCH   1   9
ATOM      9  C   LIG    1       27.530 -14.574   3.919  0.00  0.00    -0.005 A 
ATOM     10  C   LIG    1       27.060 -14.275   5.212  0.00  0.00    +0.007 A 
ATOM     11  C   LIG    1       27.486 -13.128   5.882  0.00  0.00    +0.000 A 
ATOM     12  C   LIG    1       28.397 -12.269   5.275  0.00  0.00    +0.000 A 
ATOM     13  C   LIG    1       28.889 -12.562   4.003  0.00  0.00    +0.000 A 
ATOM     14  C   LIG    1       28.456 -13.706   3.326  0.00  0.00    +0.007 A 
ENDBRANCH   1   9
BRANCH   1  15
ATOM     15  O   LIG    1       25.622 -15.483   2.677  0.00  0.00    -0.478 OA
BRANCH  15  17
ATOM     16  C   LIG    1       24.195 -14.020   3.912  0.00  0.00    +0.162 A 
ATOM     17  C   LIG    1       25.113 -14.219   2.857  0.00  0.00    +0.163 A 
ATOM     18  C   LIG    1       25.399 -13.154   1.997  0.00  0.00    +0.049 A 
ATOM     19  C   LIG    1       24.824 -11.898   2.196  0.00  0.00    +0.004 A 
ATOM     20  C   LIG    1       23.915 -11.704   3.231  0.00  0.00    +0.004 A 
ATOM     21  C   LIG    1       23.587 -12.766   4.072  0.00  0.00    +0.049 A 
BRANCH  16  22
ATOM     22  O   LIG    1       23.934 -15.093   4.732  0.00  0.00    -0.489 OA
BRANCH  22  24
ATOM     23  C   LIG    1       22.562 -17.043   4.508  0.00  0.00    +0.048 C 
ATOM     24  C   LIG    1       22.578 -15.547   4.760  0.00  0.00    +0.226 C 
ENDBRANCH  22  24
ENDBRANCH  16  22
ENDBRANCH  15  17
ENDBRANCH   1  15
TORSDOF 6
ENDMDL
MODEL 4
REMARK VINA RESULT:      -3.8      2.196      4.692
REMARK  Name = *****
REMARK                            x       y       z     vdW  Elec       q    Type
REMARK                         _______ _______ _______ _____ _____    ______ ____
ROOT
ATOM      1  C   LIG    1       26.123 -17.646   4.206  0.00  0.00    +0.234 C 
ENDROOT
BRANCH   1   2
ATOM      2  C   LIG    1       26.779 -16.428   3.485  0.00  0.00    +0.177 C 
ATOM      3  O   LIG    1       27.403 -15.555   4.460  0.00  0.00    -0.370 OA
ATOM      4  C   LIG    1       28.056 -14.463   3.806  0.00  0.00    +0.175 C 
ATOM      5  C   LIG    1       27.025 -13.606   3.066  0.00  0.00    +0.109 C 
ATOM      6  N   LIG    1       26.283 -14.395   2.068  0.00  0.00    -0.311 NA
ATOM      7  H   LIG    1       25.524 -13.829   1.690  0.00  0.00    +0.122 HD
ATOM      8  C   LIG    1       25.719 -15.607   2.703  0.00  0.00    +0.116 C 
ENDBRANCH   1   2
BRANCH   1   9
ATOM      9  C   LIG    1       27.200 -18.519   4.849  0.00  0.00    -0.005 A 
ATOM     10  C   LIG    1       26.824 -19.725   5.471  0.00  0.00    +0.007 A 
ATOM     11  C   LIG    1       27.756 -20.494   6.167  0.00  0.00    +0.000 A 
ATOM     12  C   LIG    1       29.081 -20.075   6.243  0.00  0.00    +0.000 A 
ATOM     13  C   LIG    1       29.474 -18.893   5.615  0.00  0.00    +0.000 A 
ATOM     14  C   LIG    1       28.540 -18.117   4.924  0.00  0.00    +0.007 A 
ENDBRANCH   1   9
BRANCH   1  15
ATOM     15  O   LIG    1       25.345 -18.392   3.251  0.00  0.00    -0.478 OA
BRANCH  15  17
ATOM     16  C   LIG    1       23.100 -18.620   4.033  0.00  0.00    +0.162 A 
ATOM     17  C   LIG    1       24.344 -19.211   3.715  0.00  0.00    +0.163 A 
ATOM     18  C   LIG    1       24.529 -20.576   3.961  0.00  0.00    +0.049 A 
ATOM     19  C   LIG    1       23.492 -21.359   4.472  0.00  0.00    +0.004 A 
ATOM     20  C   LIG    1       22.271 -20.775   4.791  0.00  0.00    +0.004 A 
ATOM     21  C   LIG    1       22.084 -19.409   4.592  0.00  0.00    +0.049 A 
BRANCH  16  22
ATOM     22  O   LIG    1       22.959 -17.276   3.783  0.00  0.00    -0.489 OA
BRANCH  22  24
ATOM     23  C   LIG    1       23.095 -15.148   4.873  0.00  0.00    +0.048 C 
ATOM     24  C   LIG    1       22.400 -16.496   4.844  0.00  0.00    +0.226 C 
ENDBRANCH  22  24
ENDBRANCH  16  22
ENDBRANCH  15  17
ENDBRANCH   1  15
TORSDOF 6
ENDMDL
MODEL 5
REMARK VINA RESULT:      -3.7      2.091      4.704
REMARK  Name = *****
REMARK                            x       y       z     vdW  Elec       q    Type
REMARK                         _______ _______ _______ _____ _____    ______ ____
ROOT
ATOM      1  C   LIG    1       25.722 -18.062   4.228  0.00  0.00    +0.234 C 
ENDROOT
BRANCH   1   2
ATOM      2  C   LIG    1       27.110 -18.725   4.492  0.00  0.00    +0.177 C 
ATOM      3  O   LIG    1       26.995 -19.700   5.559  0.00  0.00    -0.370 OA
ATOM      4  C   LIG    1       28.249 -20.355   5.772  0.00  0.00    +0.175 C 
ATOM      5  C   LIG    1       29.297 -19.339   6.235  0.00  0.00    +0.109 C 
ATOM      6  N   LIG    1       29.475 -18.260   5.249  0.00  0.00    -0.311 NA
ATOM      7  H   LIG    1       30.078 -17.540   5.645  0.00  0.00    +0.122 HD
ATOM      8  C   LIG    1       28.162 -17.665   4.911  0.00  0.00    +0.116 C 
ENDBRANCH   1   2
BRANCH   1   9
ATOM      9  C   LIG    1       24.652 -19.137   4.043  0.00  0.00    -0.005 A 
ATOM     10  C   LIG    1       23.417 -18.996   4.704  0.00  0.00    +0.007 A 
ATOM     11  C   LIG    1       22.457 -20.006   4.654  0.00  0.00    +0.000 A 
ATOM     12  C   LIG    1       22.711 -21.168   3.931  0.00  0.00    +0.000 A 
ATOM     13  C   LIG    1       23.922 -21.315   3.252  0.00  0.00    +0.000 A 
ATOM     14  C   LIG    1       24.888 -20.307   3.309  0.00  0.00    +0.007 A 
ENDBRANCH   1   9
BRANCH   1  15
ATOM     15  O   LIG    1       25.820 -17.215   3.068  0.00  0.00    -0.478 OA
BRANCH  15  17
ATOM     16  C   LIG    1       24.945 -15.090   3.714  0.00  0.00    +0.162 A 
ATOM     17  C   LIG    1       26.028 -15.869   3.251  0.00  0.00    +0.163 A 
ATOM     18  C   LIG    1       27.231 -15.234   2.922  0.00  0.00    +0.049 A 
ATOM     19  C   LIG    1       27.380 -13.855   3.087  0.00  0.00    +0.004 A 
ATOM     20  C   LIG    1       26.312 -13.088   3.537  0.00  0.00    +0.004 A 
ATOM     21  C   LIG    1       25.094 -13.700   3.829  0.00  0.00    +0.049 A 
BRANCH  16  22
ATOM     22  O   LIG    1       23.779 -15.750   4.021  0.00  0.00    -0.489 OA
BRANCH  22  24
ATOM     23  C   LIG    1       21.993 -15.969   5.601  0.00  0.00    +0.048 C 
ATOM     24  C   LIG    1       22.813 -15.004   4.767  0.00  0.00    +0.226 C 
ENDBRANCH  22  24
ENDBRANCH  16  22
ENDBRANCH  15  17
ENDBRANCH   1  15
TORSDOF 6
ENDMDL
MODEL 6
REMARK VINA RESULT:      -3.6      1.328      5.304
REMARK  Name = *****
REMARK                            x       y       z     vdW  Elec       q    Type
REMARK                         _______ _______ _______ _____ _____    ______ ____
ROOT
ATOM      1  C   LIG    1       25.466 -17.691   4.245  0.00  0.00    +0.234 C 
ENDROOT
BRANCH   1   2
ATOM      2  C   LIG    1       24.160 -18.356   3.711  0.00  0.00    +0.177 C 
ATOM      3  O   LIG    1       23.120 -18.280   4.719  0.00  0.00    -0.370 OA
ATOM      4  C   LIG    1       21.900 -18.838   4.220  0.00  0.00    +0.175 C 
ATOM      5  C   LIG    1       22.092 -20.326   3.917  0.00  0.00    +0.109 C 
ATOM      6  N   LIG    1       23.163 -20.544   2.931  0.00  0.00    -0.311 NA
ATOM      7  H   LIG    1       23.349 -21.543   2.852  0.00  0.00    +0.122 HD
ATOM      8  C   LIG    1       24.396 -19.850   3.366  0.00  0.00    +0.116 C 
ENDBRANCH   1   2
BRANCH   1   9
ATOM      9  C   LIG    1       25.608 -16.279   3.677  0.00  0.00    -0.005 A 
ATOM     10  C   LIG    1       26.873 -15.839   3.245  0.00  0.00    +0.007 A 
ATOM     11  C   LIG    1       27.070 -14.523   2.826  0.00  0.00    +0.000 A 
ATOM     12  C   LIG    1       26.002 -13.631   2.822  0.00  0.00    +0.000 A 
ATOM     13  C   LIG    1       24.737 -14.057   3.227  0.00  0.00    +0.000 A 
ATOM     14  C   LIG    1       24.540 -15.373   3.655  0.00  0.00    +0.007 A 
ENDBRANCH   1   9
BRANCH   1  15
ATOM     15  O   LIG    1       26.591 -18.515   3.888  0.00  0.00    -0.478 OA
BRANCH  15  17
ATOM     16  C   LIG    1       27.066 -20.001   5.696  0.00  0.00    +0.162 A 
ATOM     17  C   LIG    1       27.454 -18.916   4.880  0.00  0.00    +0.163 A 
ATOM     18  C   LIG    1       28.650 -18.247   5.163  0.00  0.00    +0.049 A 
ATOM     19  C   LIG    1       29.475 -18.668   6.209  0.00  0.00    +0.004 A 
ATOM     20  C   LIG    1       29.088 -19.732   7.016  0.00  0.00    +0.004 A 
ATOM     21  C   LIG    1       27.879 -20.382   6.773  0.00  0.00    +0.049 A 
BRANCH  16  22
ATOM     22  O   LIG    1       25.881 -20.628   5.389  0.00  0.00    -0.489 OA
BRANCH  22  24
ATOM     23  C   LIG    1       24.096 -20.825   6.974  0.00  0.00    +0.048 C 
ATOM     24  C   LIG    1       25.340 -21.479   6.404  0.00  0.00    +0.226 C 
ENDBRANCH  22  24
ENDBRANCH  16  22
ENDBRANCH  15  17
ENDBRANCH   1  15
TORSDOF 6
ENDMDL
MODEL 7
REMARK VINA RESULT:      -3.4      1.507      3.090
REMARK  Name = *****
REMARK                            x       y       z     vdW  Elec       q    Type
REMARK                         _______ _______ _______ _____ _____    ______ ____
ROOT
ATOM      1  C   LIG    1       25.620 -17.942   3.532  0.00  0.00    +0.234 C 
ENDROOT
BRANCH   1   2
ATOM      2  C   LIG    1       24.438 -18.955   3.446  0.00  0.00    +0.177 C 
ATOM      3  O   LIG    1       23.578 -18.810   4.604  0.00  0.00    -0.370 OA
ATOM      4  C   LIG    1       22.459 -19.696   4.508  0.00  0.00    +0.175 C 
ATOM      5  C   LIG    1       22.941 -21.149   4.515  0.00  0.00    +0.109 C 
ATOM      6  N   LIG    1       23.867 -21.417   3.403  0.00  0.00    -0.311 NA
ATOM      7  H   LIG    1       24.266 -22.349   3.514  0.00  0.00    +0.122 HD
ATOM      8  C   LIG    1       24.958 -20.416   3.404  0.00  0.00    +0.116 C 
ENDBRANCH   1   2
BRANCH   1   9
ATOM      9  C   LIG    1       26.762 -18.534   4.357  0.00  0.00    -0.005 A 
ATOM     10  C   LIG    1       26.533 -19.704   5.106  0.00  0.00    +0.007 A 
ATOM     11  C   LIG    1       27.511 -20.214   5.959  0.00  0.00    +0.000 A 
ATOM     12  C   LIG    1       28.739 -19.568   6.068  0.00  0.00    +0.000 A 
ATOM     13  C   LIG    1       28.991 -18.419   5.317  0.00  0.00    +0.000 A 
ATOM     14  C   LIG    1       28.008 -17.903   4.469  0.00  0.00    +0.007 A 
ENDBRANCH   1   9
BRANCH   1  15
ATOM     15  O   LIG    1       25.142 -16.712   4.108  0.00  0.00    -0.478 OA
BRANCH  15  17
ATOM     16  C   LIG    1       24.688 -14.485   3.376  0.00  0.00    +0.162 A 
ATOM     17  C   LIG    1       25.617 -15.523   3.609  0.00  0.00    +0.163 A 
ATOM     18  C   LIG    1       26.955 -15.330   3.248  0.00  0.00    +0.049 A 
ATOM     19  C   LIG    1       27.383 -14.116   2.705  0.00  0.00    +0.004 A 
ATOM     20  C   LIG    1       26.466 -13.097   2.470  0.00  0.00    +0.004 A 
ATOM     21  C   LIG    1       25.122 -13.289   2.784  0.00  0.00    +0.049 A 
BRANCH  16  22
ATOM     22  O   LIG    1       23.382 -14.715   3.737  0.00  0.00    -0.489 OA
BRANCH  22  24
ATOM     23  C   LIG    1       22.128 -15.825   5.449  0.00  0.00    +0.048 C 
ATOM     24  C   LIG    1       23.109 -14.710   5.141  0.00  0.00    +0.226 C 
ENDBRANCH  22  24
ENDBRANCH  16  22
ENDBRANCH  15  17
ENDBRANCH   1  15
TORSDOF 6
ENDMDL
MODEL 8
REMARK VINA RESULT:      -3.2      1.608      2.715
REMARK  Name = *****
REMARK                            x       y       z     vdW  Elec       q    Type
REMARK                         _______ _______ _______ _____ _____    ______ ____
ROOT
ATOM      1  C   LIG    1       26.353 -17.212   3.650  0.00  0.00    +0.234 C 
ENDROOT
BRANCH   1   2
ATOM      2  C   LIG    1       25.082 -18.063   3.346  0.00  0.00    +0.177 C 
ATOM      3  O   LIG    1       24.084 -17.843   4.375  0.00  0.00    -0.370 OA
ATOM      4  C   LIG    1       22.891 -18.575   4.078  0.00  0.00    +0.175 C 
ATOM      5  C   LIG    1       23.186 -20.078   4.086  0.00  0.00    +0.109 C 
ATOM      6  N   LIG    1       24.227 -20.429   3.106  0.00  0.00    -0.311 NA
ATOM      7  H   LIG    1       24.487 -21.407   3.228  0.00  0.00    +0.122 HD
ATOM      8  C   LIG    1       25.420 -19.577   3.311  0.00  0.00    +0.116 C 
ENDBRANCH   1   2
BRANCH   1   9
ATOM      9  C   LIG    1       27.361 -18.038   4.448  0.00  0.00    -0.005 A 
ATOM     10  C   LIG    1       26.982 -19.305   4.929  0.00  0.00    +0.007 A 
ATOM     11  C   LIG    1       27.830 -20.042   5.756  0.00  0.00    +0.000 A 
ATOM     12  C   LIG    1       29.075 -19.527   6.105  0.00  0.00    +0.000 A 
ATOM     13  C   LIG    1       29.475 -18.282   5.621  0.00  0.00    +0.000 A 
ATOM     14  C   LIG    1       28.623 -17.539   4.799  0.00  0.00    +0.007 A 
ENDBRANCH   1   9
BRANCH   1  15
ATOM     15  O   LIG    1       25.963 -16.025   4.366  0.00  0.00    -0.478 OA
BRANCH  15  17
ATOM     16  C   LIG    1       26.494 -14.062   3.116  0.00  0.00    +0.162 A 
ATOM     17  C   LIG    1       25.524 -14.939   3.649  0.00  0.00    +0.163 A 
ATOM     18  C   LIG    1       24.168 -14.624   3.499  0.00  0.00    +0.049 A 
ATOM     19  C   LIG    1       23.771 -13.485   2.797  0.00  0.00    +0.004 A 
ATOM     20  C   LIG    1       24.727 -12.618   2.278  0.00  0.00    +0.004 A 
ATOM     21  C   LIG    1       26.081 -12.895   2.455  0.00  0.00    +0.049 A 
BRANCH  16  22
ATOM     22  O   LIG    1       27.814 -14.401   3.289  0.00  0.00    -0.489 OA
BRANCH  22  24
ATOM     23  C   LIG    1       28.332 -12.779   4.973  0.00  0.00    +0.048 C 
ATOM     24  C   LIG    1       28.703 -13.326   3.608  0.00  0.00    +0.226 C 
ENDBRANCH  22  24
ENDBRANCH  16  22
ENDBRANCH  15  17
ENDBRANCH   1  15
TORSDOF 6
ENDMDL
MODEL 9
REMARK VINA RESULT:      -2.8      2.379      6.108
REMARK  Name = *****
REMARK                            x       y       z     vdW  Elec       q    Type
REMARK                         _______ _______ _______ _____ _____    ______ ____
ROOT
ATOM      1  C   LIG    1       25.746 -16.841   3.086  0.00  0.00    +0.234 C 
ENDROOT
BRANCH   1   2
ATOM      2  C   LIG    1       26.701 -15.609   3.030  0.00  0.00    +0.177 C 
ATOM      3  O   LIG    1       27.199 -15.309   4.358  0.00  0.00    -0.370 OA
ATOM      4  C   LIG    1       28.120 -14.215   4.310  0.00  0.00    +0.175 C 
ATOM      5  C   LIG    1       27.404 -12.951   3.829  0.00  0.00    +0.109 C 
ATOM      6  N   LIG    1       26.808 -13.141   2.496  0.00  0.00    -0.311 NA
ATOM      7  H   LIG    1       26.234 -12.331   2.265  0.00  0.00    +0.122 HD
ATOM      8  C   LIG    1       25.962 -14.356   2.491  0.00  0.00    +0.116 C 
ENDBRANCH   1   2
BRANCH   1   9
ATOM      9  C   LIG    1       24.485 -16.494   3.878  0.00  0.00    -0.005 A 
ATOM     10  C   LIG    1       23.500 -17.482   4.064  0.00  0.00    +0.007 A 
ATOM     11  C   LIG    1       22.287 -17.177   4.681  0.00  0.00    +0.000 A 
ATOM     12  C   LIG    1       22.045 -15.883   5.132  0.00  0.00    +0.000 A 
ATOM     13  C   LIG    1       23.020 -14.897   4.973  0.00  0.00    +0.000 A 
ATOM     14  C   LIG    1       24.232 -15.199   4.348  0.00  0.00    +0.007 A 
ENDBRANCH   1   9
BRANCH   1  15
ATOM     15  O   LIG    1       26.447 -17.951   3.678  0.00  0.00    -0.478 OA
BRANCH  15  17
ATOM     16  C   LIG    1       26.116 -19.875   5.052  0.00  0.00    +0.162 A 
ATOM     17  C   LIG    1       25.756 -19.114   3.918  0.00  0.00    +0.163 A 
ATOM     18  C   LIG    1       24.777 -19.611   3.049  0.00  0.00    +0.049 A 
ATOM     19  C   LIG    1       24.131 -20.819   3.315  0.00  0.00    +0.004 A 
ATOM     20  C   LIG    1       24.491 -21.572   4.427  0.00  0.00    +0.004 A 
ATOM     21  C   LIG    1       25.493 -21.111   5.280  0.00  0.00    +0.049 A 
BRANCH  16  22
ATOM     22  O   LIG    1       27.085 -19.357   5.877  0.00  0.00    -0.489 OA
BRANCH  22  24
ATOM     23  C   LIG    1       29.438 -19.144   6.270  0.00  0.00    +0.048 C 
ATOM     24  C   LIG    1       28.304 -20.102   5.959  0.00  0.00    +0.226 C 
ENDBRANCH  22  24
ENDBRANCH  16  22
ENDBRANCH  15  17
ENDBRANCH   1  15
TORSDOF 6
ENDMDL
