MODEL 1
REMARK VINA RESULT:      -8.4      0.000      0.000
REMARK  Name = *****
REMARK                            x       y       z     vdW  Elec       q    Type
REMARK                         _______ _______ _______ _____ _____    ______ ____
ROOT
ATOM      1  C   LIG    1       28.112 -20.684   6.287  0.00  0.00    +0.086 C 
ENDROOT
BRANCH   1   2
ATOM      2  N   LIG    1       28.737 -19.445   6.791  0.00  0.00    -0.302 NA
ATOM      3  C   LIG    1       28.568 -19.219   8.227  0.00  0.00    +0.086 C 
ATOM      4  C   LIG    1       29.356 -20.192   9.099  0.00  0.00    +0.047 C 
ATOM      5  C   LIG    1       30.886 -20.258   8.804  0.00  0.00    +0.101 C 
ATOM      6  C   LIG    1       31.045 -20.322   7.244  0.00  0.00    +0.047 C 
ATOM      7  C   LIG    1       30.166 -19.352   6.461  0.00  0.00    +0.086 C 
BRANCH   5   8
ATOM      8  N   LIG    1       31.686 -19.105   9.348  0.00  0.00    -0.289 NA
ATOM      9  C   LIG    1       31.872 -17.887   8.553  0.00  0.00    +0.085 C 
ATOM     10  C   LIG    1       30.756 -16.849   8.674  0.00  0.00    +0.015 C 
ATOM     11  C   LIG    1       30.447 -16.498  10.125  0.00  0.00    +0.002 C 
ATOM     12  C   LIG    1       30.323 -17.737  11.000  0.00  0.00    +0.015 C 
ATOM     13  C   LIG    1       31.458 -18.737  10.759  0.00  0.00    +0.085 C 
ENDBRANCH   5   8
BRANCH   5  14
ATOM     14  C   LIG    1       31.414 -21.641   9.313  0.00  0.00    +0.231 C 
ATOM     15  O   LIG    1       31.125 -22.116  10.412  0.00  0.00    -0.274 OA
ATOM     16  N   LIG    1       32.216 -22.378   8.491  0.00  0.00    -0.328 N 
ATOM     17  H   LIG    1       32.603 -23.226   8.884  0.00  0.00    +0.145 HD
ATOM     18  H   LIG    1       32.592 -22.041   7.618  0.00  0.00    +0.145 HD
ENDBRANCH   5  14
ENDBRANCH   1   2
BRANCH   1  19
ATOM     19  C   LIG    1       26.784 -20.389   5.534  0.00  0.00    +0.046 C 
BRANCH  19  20
ATOM     20  C   LIG    1       25.468 -20.988   6.132  0.00  0.00    +0.108 C 
BRANCH  20  21
ATOM     21  C   LIG    1       24.283 -20.253   5.406  0.00  0.00    -0.023 A 
ATOM     22  C   LIG    1       24.496 -19.507   4.219  0.00  0.00    +0.005 A 
ATOM     23  C   LIG    1       23.455 -18.816   3.586  0.00  0.00    +0.000 A 
ATOM     24  C   LIG    1       22.172 -18.857   4.115  0.00  0.00    +0.000 A 
ATOM     25  C   LIG    1       21.922 -19.630   5.245  0.00  0.00    +0.000 A 
ATOM     26  C   LIG    1       22.958 -20.338   5.870  0.00  0.00    +0.005 A 
ENDBRANCH  20  21
BRANCH  20  27
ATOM     27  C   LIG    1       25.390 -22.536   6.010  0.00  0.00    -0.023 A 
ATOM     28  C   LIG    1       24.809 -23.185   4.902  0.00  0.00    +0.005 A 
ATOM     29  C   LIG    1       24.866 -24.569   4.740  0.00  0.00    +0.000 A 
ATOM     30  C   LIG    1       25.431 -25.356   5.731  0.00  0.00    +0.000 A 
ATOM     31  C   LIG    1       25.944 -24.755   6.878  0.00  0.00    +0.000 A 
ATOM     32  C   LIG    1       25.933 -23.361   7.015  0.00  0.00    +0.005 A 
ENDBRANCH  20  27
BRANCH  20  34
ATOM     33  N   LIG    1       25.443 -20.406   8.728  0.00  0.00    -0.195 NA
ATOM     34  C   LIG    1       25.457 -20.617   7.595  0.00  0.00    +0.079 C 
ENDBRANCH  20  34
ENDBRANCH  19  20
ENDBRANCH   1  19
TORSDOF 8
ENDMDL
MODEL 2
REMARK VINA RESULT:      -8.3      4.010      8.690
REMARK  Name = *****
REMARK                            x       y       z     vdW  Elec       q    Type
REMARK                         _______ _______ _______ _____ _____    ______ ____
ROOT
ATOM      1  C   LIG    1       25.461 -24.340   6.822  0.00  0.00    +0.086 C 
ENDROOT
BRANCH   1   2
ATOM      2  N   LIG    1       25.271 -25.211   5.646  0.00  0.00    -0.302 NA
ATOM      3  C   LIG    1       26.397 -26.101   5.360  0.00  0.00    +0.086 C 
ATOM      4  C   LIG    1       26.577 -27.214   6.388  0.00  0.00    +0.047 C 
ATOM      5  C   LIG    1       25.318 -28.102   6.633  0.00  0.00    +0.101 C 
ATOM      6  C   LIG    1       24.094 -27.129   6.761  0.00  0.00    +0.047 C 
ATOM      7  C   LIG    1       24.041 -26.012   5.722  0.00  0.00    +0.086 C 
BRANCH   5   8
ATOM      8  N   LIG    1       25.045 -29.122   5.560  0.00  0.00    -0.289 NA
ATOM      9  C   LIG    1       26.067 -30.105   5.189  0.00  0.00    +0.085 C 
ATOM     10  C   LIG    1       26.098 -31.373   6.043  0.00  0.00    +0.015 C 
ATOM     11  C   LIG    1       24.729 -32.037   6.142  0.00  0.00    +0.002 C 
ATOM     12  C   LIG    1       23.628 -31.035   6.450  0.00  0.00    +0.015 C 
ATOM     13  C   LIG    1       23.722 -29.778   5.580  0.00  0.00    +0.085 C 
ENDBRANCH   5   8
BRANCH   5  14
ATOM     14  C   LIG    1       25.457 -28.752   8.050  0.00  0.00    +0.231 C 
ATOM     15  O   LIG    1       24.531 -29.318   8.632  0.00  0.00    -0.274 OA
ATOM     16  N   LIG    1       26.673 -28.717   8.669  0.00  0.00    -0.328 N 
ATOM     17  H   LIG    1       26.705 -29.073   9.615  0.00  0.00    +0.145 HD
ATOM     18  H   LIG    1       27.466 -28.196   8.328  0.00  0.00    +0.145 HD
ENDBRANCH   5  14
ENDBRANCH   1   2
BRANCH   1  19
ATOM     19  C   LIG    1       26.502 -23.219   6.541  0.00  0.00    +0.046 C 
BRANCH  19  20
ATOM     20  C   LIG    1       26.102 -21.754   6.920  0.00  0.00    +0.108 C 
BRANCH  20  21
ATOM     21  C   LIG    1       27.404 -20.889   6.752  0.00  0.00    -0.023 A 
ATOM     22  C   LIG    1       28.539 -21.097   7.576  0.00  0.00    +0.005 A 
ATOM     23  C   LIG    1       29.689 -20.306   7.461  0.00  0.00    +0.000 A 
ATOM     24  C   LIG    1       29.743 -19.291   6.515  0.00  0.00    +0.000 A 
ATOM     25  C   LIG    1       28.667 -19.104   5.652  0.00  0.00    +0.000 A 
ATOM     26  C   LIG    1       27.521 -19.907   5.752  0.00  0.00    +0.005 A 
ENDBRANCH  20  21
BRANCH  20  27
ATOM     27  C   LIG    1       24.902 -21.214   6.093  0.00  0.00    -0.023 A 
ATOM     28  C   LIG    1       23.722 -20.726   6.691  0.00  0.00    +0.005 A 
ATOM     29  C   LIG    1       22.710 -20.121   5.946  0.00  0.00    +0.000 A 
ATOM     30  C   LIG    1       22.810 -20.065   4.564  0.00  0.00    +0.000 A 
ATOM     31  C   LIG    1       23.925 -20.609   3.933  0.00  0.00    +0.000 A 
ATOM     32  C   LIG    1       24.965 -21.171   4.686  0.00  0.00    +0.005 A 
ENDBRANCH  20  27
BRANCH  20  34
ATOM     33  N   LIG    1       25.479 -21.768   9.506  0.00  0.00    -0.195 NA
ATOM     34  C   LIG    1       25.713 -21.782   8.377  0.00  0.00    +0.079 C 
ENDBRANCH  20  34
ENDBRANCH  19  20
ENDBRANCH   1  19
TORSDOF 8
ENDMDL
MODEL 3
REMARK VINA RESULT:      -7.7      3.654      8.250
REMARK  Name = *****
REMARK                            x       y       z     vdW  Elec       q    Type
REMARK                         _______ _______ _______ _____ _____    ______ ____
ROOT
ATOM      1  C   LIG    1       25.510 -23.441   5.961  0.00  0.00    +0.086 C 
ENDROOT
BRANCH   1   2
ATOM      2  N   LIG    1       24.781 -24.280   6.931  0.00  0.00    -0.302 NA
ATOM      3  C   LIG    1       23.663 -25.035   6.363  0.00  0.00    +0.086 C 
ATOM      4  C   LIG    1       24.095 -26.163   5.430  0.00  0.00    +0.047 C 
ATOM      5  C   LIG    1       25.097 -27.186   6.045  0.00  0.00    +0.101 C 
ATOM      6  C   LIG    1       26.192 -26.353   6.801  0.00  0.00    +0.047 C 
ATOM      7  C   LIG    1       25.659 -25.208   7.658  0.00  0.00    +0.086 C 
BRANCH   5   8
ATOM      8  N   LIG    1       24.483 -28.186   6.987  0.00  0.00    -0.289 NA
ATOM      9  C   LIG    1       23.811 -29.382   6.470  0.00  0.00    +0.085 C 
ATOM     10  C   LIG    1       24.724 -30.577   6.189  0.00  0.00    +0.015 C 
ATOM     11  C   LIG    1       25.598 -30.931   7.388  0.00  0.00    +0.002 C 
ATOM     12  C   LIG    1       26.252 -29.703   8.002  0.00  0.00    +0.015 C 
ATOM     13  C   LIG    1       25.265 -28.547   8.187  0.00  0.00    +0.085 C 
ENDBRANCH   5   8
BRANCH   5  14
ATOM     14  C   LIG    1       25.866 -27.873   4.868  0.00  0.00    +0.231 C 
ATOM     15  O   LIG    1       25.320 -28.586   4.023  0.00  0.00    -0.274 OA
ATOM     16  N   LIG    1       27.207 -27.656   4.747  0.00  0.00    -0.328 N 
ATOM     17  H   LIG    1       27.684 -28.179   4.024  0.00  0.00    +0.145 HD
ATOM     18  H   LIG    1       27.766 -27.174   5.435  0.00  0.00    +0.145 HD
ENDBRANCH   5  14
ENDBRANCH   1   2
BRANCH   1  19
ATOM     19  C   LIG    1       26.634 -22.615   6.651  0.00  0.00    +0.046 C 
BRANCH  19  20
ATOM     20  C   LIG    1       26.359 -21.095   6.901  0.00  0.00    +0.108 C 
BRANCH  20  21
ATOM     21  C   LIG    1       27.734 -20.362   6.687  0.00  0.00    -0.023 A 
ATOM     22  C   LIG    1       28.847 -20.624   7.526  0.00  0.00    +0.005 A 
ATOM     23  C   LIG    1       30.064 -19.948   7.369  0.00  0.00    +0.000 A 
ATOM     24  C   LIG    1       30.206 -18.999   6.366  0.00  0.00    +0.000 A 
ATOM     25  C   LIG    1       29.150 -18.765   5.490  0.00  0.00    +0.000 A 
ATOM     26  C   LIG    1       27.937 -19.454   5.633  0.00  0.00    +0.005 A 
ENDBRANCH  20  21
BRANCH  20  27
ATOM     27  C   LIG    1       25.220 -20.524   6.010  0.00  0.00    -0.023 A 
ATOM     28  C   LIG    1       25.434 -20.086   4.688  0.00  0.00    +0.005 A 
ATOM     29  C   LIG    1       24.382 -19.703   3.855  0.00  0.00    +0.000 A 
ATOM     30  C   LIG    1       23.089 -19.663   4.352  0.00  0.00    +0.000 A 
ATOM     31  C   LIG    1       22.851 -20.013   5.679  0.00  0.00    +0.000 A 
ATOM     32  C   LIG    1       23.901 -20.446   6.499  0.00  0.00    +0.005 A 
ENDBRANCH  20  27
BRANCH  20  34
ATOM     33  N   LIG    1       25.701 -20.909   9.472  0.00  0.00    -0.195 NA
ATOM     34  C   LIG    1       25.952 -20.968   8.348  0.00  0.00    +0.079 C 
ENDBRANCH  20  34
ENDBRANCH  19  20
ENDBRANCH   1  19
TORSDOF 8
ENDMDL
MODEL 4
REMARK VINA RESULT:      -7.1      1.615      2.176
REMARK  Name = *****
REMARK                            x       y       z     vdW  Elec       q    Type
REMARK                         _______ _______ _______ _____ _____    ______ ____
ROOT
ATOM      1  C   LIG    1       27.334 -22.075   7.008  0.00  0.00    +0.086 C 
ENDROOT
BRANCH   1   2
ATOM      2  N   LIG    1       27.736 -21.615   8.351  0.00  0.00    -0.302 NA
ATOM      3  C   LIG    1       29.108 -21.959   8.726  0.00  0.00    +0.086 C 
ATOM      4  C   LIG    1       30.170 -21.195   7.942  0.00  0.00    +0.047 C 
ATOM      5  C   LIG    1       30.039 -19.641   7.988  0.00  0.00    +0.101 C 
ATOM      6  C   LIG    1       28.524 -19.306   7.757  0.00  0.00    +0.047 C 
ATOM      7  C   LIG    1       27.541 -20.171   8.541  0.00  0.00    +0.086 C 
BRANCH   5   8
ATOM      8  N   LIG    1       30.510 -19.004   9.268  0.00  0.00    -0.289 NA
ATOM      9  C   LIG    1       31.941 -18.807   9.520  0.00  0.00    +0.085 C 
ATOM     10  C   LIG    1       32.536 -17.520   8.949  0.00  0.00    +0.015 C 
ATOM     11  C   LIG    1       31.746 -16.283   9.363  0.00  0.00    +0.002 C 
ATOM     12  C   LIG    1       30.247 -16.477   9.189  0.00  0.00    +0.015 C 
ATOM     13  C   LIG    1       29.764 -17.821   9.742  0.00  0.00    +0.085 C 
ENDBRANCH   5   8
BRANCH   5  14
ATOM     14  C   LIG    1       30.769 -19.060   6.731  0.00  0.00    +0.231 C 
ATOM     15  O   LIG    1       31.958 -19.266   6.480  0.00  0.00    -0.274 OA
ATOM     16  N   LIG    1       30.052 -18.307   5.848  0.00  0.00    -0.328 N 
ATOM     17  H   LIG    1       30.574 -17.882   5.093  0.00  0.00    +0.145 HD
ATOM     18  H   LIG    1       29.106 -17.998   6.008  0.00  0.00    +0.145 HD
ENDBRANCH   5  14
ENDBRANCH   1   2
BRANCH   1  19
ATOM     19  C   LIG    1       26.350 -21.078   6.332  0.00  0.00    +0.046 C 
BRANCH  19  20
ATOM     20  C   LIG    1       24.829 -21.446   6.348  0.00  0.00    +0.108 C 
BRANCH  20  21
ATOM     21  C   LIG    1       24.126 -20.439   5.366  0.00  0.00    -0.023 A 
ATOM     22  C   LIG    1       24.812 -19.895   4.251  0.00  0.00    +0.005 A 
ATOM     23  C   LIG    1       24.208 -18.967   3.394  0.00  0.00    +0.000 A 
ATOM     24  C   LIG    1       22.899 -18.562   3.620  0.00  0.00    +0.000 A 
ATOM     25  C   LIG    1       22.181 -19.124   4.672  0.00  0.00    +0.000 A 
ATOM     26  C   LIG    1       22.778 -20.068   5.520  0.00  0.00    +0.005 A 
ENDBRANCH  20  21
BRANCH  20  27
ATOM     27  C   LIG    1       24.556 -22.934   5.991  0.00  0.00    -0.023 A 
ATOM     28  C   LIG    1       25.138 -23.570   4.875  0.00  0.00    +0.005 A 
ATOM     29  C   LIG    1       24.993 -24.938   4.643  0.00  0.00    +0.000 A 
ATOM     30  C   LIG    1       24.184 -25.696   5.475  0.00  0.00    +0.000 A 
ATOM     31  C   LIG    1       23.528 -25.085   6.540  0.00  0.00    +0.000 A 
ATOM     32  C   LIG    1       23.715 -23.722   6.803  0.00  0.00    +0.005 A 
ENDBRANCH  20  27
BRANCH  20  34
ATOM     33  N   LIG    1       23.965 -20.919   8.809  0.00  0.00    -0.195 NA
ATOM     34  C   LIG    1       24.341 -21.188   7.752  0.00  0.00    +0.079 C 
ENDBRANCH  20  34
ENDBRANCH  19  20
ENDBRANCH   1  19
TORSDOF 8
ENDMDL
MODEL 5
REMARK VINA RESULT:      -7.1      0.885      1.345
REMARK  Name = *****
REMARK                            x       y       z     vdW  Elec       q    Type
REMARK                         _______ _______ _______ _____ _____    ______ ____
ROOT
ATOM      1  C   LIG    1       27.441 -20.993   6.634  0.00  0.00    +0.086 C 
ENDROOT
BRANCH   1   2
ATOM      2  N   LIG    1       28.169 -19.736   6.896  0.00  0.00    -0.302 NA
ATOM      3  C   LIG    1       28.250 -19.363   8.309  0.00  0.00    +0.086 C 
ATOM      4  C   LIG    1       29.153 -20.275   9.134  0.00  0.00    +0.047 C 
ATOM      5  C   LIG    1       30.609 -20.430   8.597  0.00  0.00    +0.101 C 
ATOM      6  C   LIG    1       30.501 -20.654   7.047  0.00  0.00    +0.047 C 
ATOM      7  C   LIG    1       29.523 -19.732   6.325  0.00  0.00    +0.086 C 
BRANCH   5   8
ATOM      8  N   LIG    1       31.515 -19.261   8.877  0.00  0.00    -0.289 NA
ATOM      9  C   LIG    1       31.447 -18.051   8.053  0.00  0.00    +0.085 C 
ATOM     10  C   LIG    1       30.397 -17.024   8.481  0.00  0.00    +0.015 C 
ATOM     11  C   LIG    1       30.514 -16.659   9.957  0.00  0.00    +0.002 C 
ATOM     12  C   LIG    1       30.664 -17.888  10.840  0.00  0.00    +0.015 C 
ATOM     13  C   LIG    1       31.697 -18.878  10.292  0.00  0.00    +0.085 C 
ENDBRANCH   5   8
BRANCH   5  14
ATOM     14  C   LIG    1       31.185 -21.775   9.152  0.00  0.00    +0.231 C 
ATOM     15  O   LIG    1       30.798 -22.301  10.197  0.00  0.00    -0.274 OA
ATOM     16  N   LIG    1       32.148 -22.421   8.432  0.00  0.00    -0.328 N 
ATOM     17  H   LIG    1       32.554 -23.242   8.861  0.00  0.00    +0.145 HD
ATOM     18  H   LIG    1       32.604 -22.031   7.621  0.00  0.00    +0.145 HD
ENDBRANCH   5  14
ENDBRANCH   1   2
BRANCH   1  19
ATOM     19  C   LIG    1       26.089 -21.041   7.402  0.00  0.00    +0.046 C 
BRANCH  19  20
ATOM     20  C   LIG    1       24.871 -21.701   6.674  0.00  0.00    +0.108 C 
BRANCH  20  21
ATOM     21  C   LIG    1       24.474 -20.719   5.511  0.00  0.00    -0.023 A 
ATOM     22  C   LIG    1       25.408 -20.344   4.511  0.00  0.00    +0.005 A 
ATOM     23  C   LIG    1       25.076 -19.441   3.494  0.00  0.00    +0.000 A 
ATOM     24  C   LIG    1       23.801 -18.892   3.440  0.00  0.00    +0.000 A 
ATOM     25  C   LIG    1       22.846 -19.288   4.373  0.00  0.00    +0.000 A 
ATOM     26  C   LIG    1       23.170 -20.208   5.381  0.00  0.00    +0.005 A 
ENDBRANCH  20  21
BRANCH  20  27
ATOM     27  C   LIG    1       25.164 -23.145   6.178  0.00  0.00    -0.023 A 
ATOM     28  C   LIG    1       25.852 -24.094   6.960  0.00  0.00    +0.005 A 
ATOM     29  C   LIG    1       25.989 -25.424   6.559  0.00  0.00    +0.000 A 
ATOM     30  C   LIG    1       25.517 -25.823   5.319  0.00  0.00    +0.000 A 
ATOM     31  C   LIG    1       24.902 -24.892   4.485  0.00  0.00    +0.000 A 
ATOM     32  C   LIG    1       24.719 -23.569   4.910  0.00  0.00    +0.005 A 
ENDBRANCH  20  27
BRANCH  20  34
ATOM     33  N   LIG    1       22.845 -21.811   8.394  0.00  0.00    -0.195 NA
ATOM     34  C   LIG    1       23.749 -21.752   7.680  0.00  0.00    +0.079 C 
ENDBRANCH  20  34
ENDBRANCH  19  20
ENDBRANCH   1  19
TORSDOF 8
ENDMDL
MODEL 6
REMARK VINA RESULT:      -7.0      8.767     11.843
REMARK  Name = *****
REMARK                            x       y       z     vdW  Elec       q    Type
REMARK                         _______ _______ _______ _____ _____    ______ ____
ROOT
ATOM      1  C   LIG    1       25.757 -31.789  10.061  0.00  0.00    +0.086 C 
ENDROOT
BRANCH   1   2
ATOM      2  N   LIG    1       25.685 -30.956  11.277  0.00  0.00    -0.302 NA
ATOM      3  C   LIG    1       25.021 -29.665  11.092  0.00  0.00    +0.086 C 
ATOM      4  C   LIG    1       23.518 -29.775  10.855  0.00  0.00    +0.047 C 
ATOM      5  C   LIG    1       22.730 -30.565  11.945  0.00  0.00    +0.101 C 
ATOM      6  C   LIG    1       23.557 -31.863  12.253  0.00  0.00    +0.047 C 
ATOM      7  C   LIG    1       25.060 -31.652  12.410  0.00  0.00    +0.086 C 
BRANCH   5   8
ATOM      8  N   LIG    1       22.484 -29.806  13.221  0.00  0.00    -0.289 NA
ATOM      9  C   LIG    1       23.489 -28.873  13.739  0.00  0.00    +0.085 C 
ATOM     10  C   LIG    1       23.420 -27.454  13.172  0.00  0.00    +0.015 C 
ATOM     11  C   LIG    1       22.024 -26.853  13.286  0.00  0.00    +0.002 C 
ATOM     12  C   LIG    1       20.944 -27.822  12.830  0.00  0.00    +0.015 C 
ATOM     13  C   LIG    1       21.138 -29.227  13.409  0.00  0.00    +0.085 C 
ENDBRANCH   5   8
BRANCH   5  14
ATOM     14  C   LIG    1       21.404 -31.085  11.297  0.00  0.00    +0.231 C 
ATOM     15  O   LIG    1       20.890 -30.578  10.298  0.00  0.00    -0.274 OA
ATOM     16  N   LIG    1       20.791 -32.174  11.846  0.00  0.00    -0.328 N 
ATOM     17  H   LIG    1       19.896 -32.431  11.451  0.00  0.00    +0.145 HD
ATOM     18  H   LIG    1       21.070 -32.601  12.716  0.00  0.00    +0.145 HD
ENDBRANCH   5  14
ENDBRANCH   1   2
BRANCH   1  19
ATOM     19  C   LIG    1       26.273 -30.975   8.840  0.00  0.00    +0.046 C 
BRANCH  19  20
ATOM     20  C   LIG    1       25.453 -31.074   7.511  0.00  0.00    +0.108 C 
BRANCH  20  21
ATOM     21  C   LIG    1       25.233 -29.596   7.023  0.00  0.00    -0.023 A 
ATOM     22  C   LIG    1       24.356 -29.297   5.949  0.00  0.00    +0.005 A 
ATOM     23  C   LIG    1       24.183 -27.989   5.481  0.00  0.00    +0.000 A 
ATOM     24  C   LIG    1       24.872 -26.940   6.077  0.00  0.00    +0.000 A 
ATOM     25  C   LIG    1       25.693 -27.196   7.172  0.00  0.00    +0.000 A 
ATOM     26  C   LIG    1       25.854 -28.503   7.655  0.00  0.00    +0.005 A 
ENDBRANCH  20  21
BRANCH  20  27
ATOM     27  C   LIG    1       26.132 -31.974   6.439  0.00  0.00    -0.023 A 
ATOM     28  C   LIG    1       25.623 -32.119   5.133  0.00  0.00    +0.005 A 
ATOM     29  C   LIG    1       26.313 -32.819   4.143  0.00  0.00    +0.000 A 
ATOM     30  C   LIG    1       27.494 -33.472   4.457  0.00  0.00    +0.000 A 
ATOM     31  C   LIG    1       27.986 -33.418   5.759  0.00  0.00    +0.000 A 
ATOM     32  C   LIG    1       27.319 -32.671   6.739  0.00  0.00    +0.005 A 
ENDBRANCH  20  27
BRANCH  20  34
ATOM     33  N   LIG    1       23.076 -32.119   8.088  0.00  0.00    -0.195 NA
ATOM     34  C   LIG    1       24.120 -31.678   7.876  0.00  0.00    +0.079 C 
ENDBRANCH  20  34
ENDBRANCH  19  20
ENDBRANCH   1  19
TORSDOF 8
ENDMDL
MODEL 7
REMARK VINA RESULT:      -6.9      9.367     13.893
REMARK  Name = *****
REMARK                            x       y       z     vdW  Elec       q    Type
REMARK                         _______ _______ _______ _____ _____    ______ ____
ROOT
ATOM      1  C   LIG    1       22.944 -31.651   9.504  0.00  0.00    +0.086 C 
ENDROOT
BRANCH   1   2
ATOM      2  N   LIG    1       22.516 -31.773  10.911  0.00  0.00    -0.302 NA
ATOM      3  C   LIG    1       21.738 -30.638  11.411  0.00  0.00    +0.086 C 
ATOM      4  C   LIG    1       20.344 -30.532  10.801  0.00  0.00    +0.047 C 
ATOM      5  C   LIG    1       19.461 -31.810  10.936  0.00  0.00    +0.101 C 
ATOM      6  C   LIG    1       20.372 -33.033  10.563  0.00  0.00    +0.047 C 
ATOM      7  C   LIG    1       21.770 -33.012  11.175  0.00  0.00    +0.086 C 
BRANCH   5   8
ATOM      8  N   LIG    1       18.861 -32.024  12.299  0.00  0.00    -0.289 NA
ATOM      9  C   LIG    1       18.052 -30.975  12.929  0.00  0.00    +0.085 C 
ATOM     10  C   LIG    1       16.570 -30.972  12.548  0.00  0.00    +0.015 C 
ATOM     11  C   LIG    1       15.920 -32.337  12.742  0.00  0.00    +0.002 C 
ATOM     12  C   LIG    1       16.769 -33.462  12.168  0.00  0.00    +0.015 C 
ATOM     13  C   LIG    1       18.244 -33.339  12.563  0.00  0.00    +0.085 C 
ENDBRANCH   5   8
BRANCH   5  14
ATOM     14  C   LIG    1       18.377 -31.766   9.808  0.00  0.00    +0.231 C 
ATOM     15  O   LIG    1       17.968 -32.768   9.219  0.00  0.00    -0.274 OA
ATOM     16  N   LIG    1       17.830 -30.561   9.474  0.00  0.00    -0.328 N 
ATOM     17  H   LIG    1       17.194 -30.560   8.687  0.00  0.00    +0.145 HD
ATOM     18  H   LIG    1       18.162 -29.675   9.821  0.00  0.00    +0.145 HD
ENDBRANCH   5  14
ENDBRANCH   1   2
BRANCH   1  19
ATOM     19  C   LIG    1       23.455 -30.217   9.185  0.00  0.00    +0.046 C 
BRANCH  19  20
ATOM     20  C   LIG    1       24.979 -30.050   8.869  0.00  0.00    +0.108 C 
BRANCH  20  21
ATOM     21  C   LIG    1       25.071 -28.981   7.719  0.00  0.00    -0.023 A 
ATOM     22  C   LIG    1       25.925 -27.854   7.827  0.00  0.00    +0.005 A 
ATOM     23  C   LIG    1       25.986 -26.876   6.826  0.00  0.00    +0.000 A 
ATOM     24  C   LIG    1       25.201 -26.999   5.687  0.00  0.00    +0.000 A 
ATOM     25  C   LIG    1       24.398 -28.124   5.527  0.00  0.00    +0.000 A 
ATOM     26  C   LIG    1       24.350 -29.115   6.519  0.00  0.00    +0.005 A 
ENDBRANCH  20  21
BRANCH  20  27
ATOM     27  C   LIG    1       25.825 -29.675  10.117  0.00  0.00    -0.023 A 
ATOM     28  C   LIG    1       27.211 -29.918  10.199  0.00  0.00    +0.005 A 
ATOM     29  C   LIG    1       27.982 -29.455  11.267  0.00  0.00    +0.000 A 
ATOM     30  C   LIG    1       27.371 -28.811  12.331  0.00  0.00    +0.000 A 
ATOM     31  C   LIG    1       25.991 -28.625  12.321  0.00  0.00    +0.000 A 
ATOM     32  C   LIG    1       25.225 -29.043  11.225  0.00  0.00    +0.005 A 
ENDBRANCH  20  27
BRANCH  20  34
ATOM     33  N   LIG    1       25.797 -32.377   7.874  0.00  0.00    -0.195 NA
ATOM     34  C   LIG    1       25.454 -31.382   8.343  0.00  0.00    +0.079 C 
ENDBRANCH  20  34
ENDBRANCH  19  20
ENDBRANCH   1  19
TORSDOF 8
ENDMDL
MODEL 8
REMARK VINA RESULT:      -6.9      9.181     12.482
REMARK  Name = *****
REMARK                            x       y       z     vdW  Elec       q    Type
REMARK                         _______ _______ _______ _____ _____    ______ ____
ROOT
ATOM      1  C   LIG    1       23.067 -30.695  12.332  0.00  0.00    +0.086 C 
ENDROOT
BRANCH   1   2
ATOM      2  N   LIG    1       22.629 -31.416  11.122  0.00  0.00    -0.302 NA
ATOM      3  C   LIG    1       22.630 -30.609   9.900  0.00  0.00    +0.086 C 
ATOM      4  C   LIG    1       24.026 -30.245   9.404  0.00  0.00    +0.047 C 
ATOM      5  C   LIG    1       24.986 -31.453   9.179  0.00  0.00    +0.101 C 
ATOM      6  C   LIG    1       24.835 -32.394  10.426  0.00  0.00    +0.047 C 
ATOM      7  C   LIG    1       23.399 -32.644  10.879  0.00  0.00    +0.086 C 
BRANCH   5   8
ATOM      8  N   LIG    1       24.732 -32.237   7.919  0.00  0.00    -0.289 NA
ATOM      9  C   LIG    1       24.128 -31.592   6.749  0.00  0.00    +0.085 C 
ATOM     10  C   LIG    1       25.107 -30.879   5.815  0.00  0.00    +0.015 C 
ATOM     11  C   LIG    1       26.262 -31.780   5.391  0.00  0.00    +0.002 C 
ATOM     12  C   LIG    1       26.867 -32.528   6.570  0.00  0.00    +0.015 C 
ATOM     13  C   LIG    1       25.800 -33.154   7.473  0.00  0.00    +0.085 C 
ENDBRANCH   5   8
BRANCH   5  14
ATOM     14  C   LIG    1       26.456 -30.920   9.261  0.00  0.00    +0.231 C 
ATOM     15  O   LIG    1       27.388 -31.567   9.742  0.00  0.00    -0.274 OA
ATOM     16  N   LIG    1       26.733 -29.685   8.751  0.00  0.00    -0.328 N 
ATOM     17  H   LIG    1       27.674 -29.341   8.895  0.00  0.00    +0.145 HD
ATOM     18  H   LIG    1       26.032 -29.037   8.428  0.00  0.00    +0.145 HD
ENDBRANCH   5  14
ENDBRANCH   1   2
BRANCH   1  19
ATOM     19  C   LIG    1       22.756 -29.174  12.235  0.00  0.00    +0.046 C 
BRANCH  19  20
ATOM     20  C   LIG    1       22.846 -28.335  13.554  0.00  0.00    +0.108 C 
BRANCH  20  21
ATOM     21  C   LIG    1       24.087 -27.385  13.383  0.00  0.00    -0.023 A 
ATOM     22  C   LIG    1       24.058 -26.045  13.846  0.00  0.00    +0.005 A 
ATOM     23  C   LIG    1       25.143 -25.178  13.664  0.00  0.00    +0.000 A 
ATOM     24  C   LIG    1       26.291 -25.627  13.023  0.00  0.00    +0.000 A 
ATOM     25  C   LIG    1       26.370 -26.955  12.612  0.00  0.00    +0.000 A 
ATOM     26  C   LIG    1       25.292 -27.830  12.810  0.00  0.00    +0.005 A 
ENDBRANCH  20  21
BRANCH  20  27
ATOM     27  C   LIG    1       21.534 -27.570  13.883  0.00  0.00    -0.023 A 
ATOM     28  C   LIG    1       20.766 -26.915  12.898  0.00  0.00    +0.005 A 
ATOM     29  C   LIG    1       19.523 -26.348  13.183  0.00  0.00    +0.000 A 
ATOM     30  C   LIG    1       19.051 -26.342  14.487  0.00  0.00    +0.000 A 
ATOM     31  C   LIG    1       19.821 -26.909  15.500  0.00  0.00    +0.000 A 
ATOM     32  C   LIG    1       21.045 -27.523  15.203  0.00  0.00    +0.005 A 
ENDBRANCH  20  27
BRANCH  20  34
ATOM     33  N   LIG    1       23.343 -30.120  15.463  0.00  0.00    -0.195 NA
ATOM     34  C   LIG    1       23.125 -29.317  14.665  0.00  0.00    +0.079 C 
ENDBRANCH  20  34
ENDBRANCH  19  20
ENDBRANCH   1  19
TORSDOF 8
ENDMDL
MODEL 9
REMARK VINA RESULT:      -6.8      9.053     12.384
REMARK  Name = *****
REMARK                            x       y       z     vdW  Elec       q    Type
REMARK                         _______ _______ _______ _____ _____    ______ ____
ROOT
ATOM      1  C   LIG    1       26.558 -29.889  10.760  0.00  0.00    +0.086 C 
ENDROOT
BRANCH   1   2
ATOM      2  N   LIG    1       26.496 -29.926   9.286  0.00  0.00    -0.302 NA
ATOM      3  C   LIG    1       26.542 -31.271   8.709  0.00  0.00    +0.086 C 
ATOM      4  C   LIG    1       25.283 -32.094   8.967  0.00  0.00    +0.047 C 
ATOM      5  C   LIG    1       23.949 -31.426   8.515  0.00  0.00    +0.101 C 
ATOM      6  C   LIG    1       24.002 -29.933   8.994  0.00  0.00    +0.047 C 
ATOM      7  C   LIG    1       25.327 -29.218   8.746  0.00  0.00    +0.086 C 
BRANCH   5   8
ATOM      8  N   LIG    1       23.688 -31.473   7.033  0.00  0.00    -0.289 NA
ATOM      9  C   LIG    1       24.178 -30.405   6.156  0.00  0.00    +0.085 C 
ATOM     10  C   LIG    1       25.615 -30.572   5.659  0.00  0.00    +0.015 C 
ATOM     11  C   LIG    1       25.851 -31.937   5.022  0.00  0.00    +0.002 C 
ATOM     12  C   LIG    1       25.287 -33.069   5.867  0.00  0.00    +0.015 C 
ATOM     13  C   LIG    1       23.867 -32.776   6.361  0.00  0.00    +0.085 C 
ENDBRANCH   5   8
BRANCH   5  14
ATOM     14  C   LIG    1       22.786 -32.067   9.344  0.00  0.00    +0.231 C 
ATOM     15  O   LIG    1       21.774 -31.452   9.683  0.00  0.00    -0.274 OA
ATOM     16  N   LIG    1       22.878 -33.383   9.690  0.00  0.00    -0.328 N 
ATOM     17  H   LIG    1       22.149 -33.741  10.294  0.00  0.00    +0.145 HD
ATOM     18  H   LIG    1       23.702 -33.948   9.551  0.00  0.00    +0.145 HD
ENDBRANCH   5  14
ENDBRANCH   1   2
BRANCH   1  19
ATOM     19  C   LIG    1       26.217 -28.475  11.311  0.00  0.00    +0.046 C 
BRANCH  19  20
ATOM     20  C   LIG    1       25.702 -28.383  12.786  0.00  0.00    +0.108 C 
BRANCH  20  21
ATOM     21  C   LIG    1       26.579 -27.282  13.486  0.00  0.00    -0.023 A 
ATOM     22  C   LIG    1       27.175 -27.509  14.752  0.00  0.00    +0.005 A 
ATOM     23  C   LIG    1       27.925 -26.521  15.403  0.00  0.00    +0.000 A 
ATOM     24  C   LIG    1       28.108 -25.281  14.804  0.00  0.00    +0.000 A 
ATOM     25  C   LIG    1       27.585 -25.051  13.535  0.00  0.00    +0.000 A 
ATOM     26  C   LIG    1       26.849 -26.045  12.873  0.00  0.00    +0.005 A 
ENDBRANCH  20  21
BRANCH  20  27
ATOM     27  C   LIG    1       24.176 -28.100  12.884  0.00  0.00    -0.023 A 
ATOM     28  C   LIG    1       23.656 -26.907  13.425  0.00  0.00    +0.005 A 
ATOM     29  C   LIG    1       22.294 -26.607  13.384  0.00  0.00    +0.000 A 
ATOM     30  C   LIG    1       21.398 -27.537  12.878  0.00  0.00    +0.000 A 
ATOM     31  C   LIG    1       21.869 -28.761  12.409  0.00  0.00    +0.000 A 
ATOM     32  C   LIG    1       23.243 -29.039  12.403  0.00  0.00    +0.005 A 
ENDBRANCH  20  27
BRANCH  20  34
ATOM     33  N   LIG    1       26.198 -30.710  13.975  0.00  0.00    -0.195 NA
ATOM     34  C   LIG    1       25.988 -29.720  13.422  0.00  0.00    +0.079 C 
ENDBRANCH  20  34
ENDBRANCH  19  20
ENDBRANCH   1  19
TORSDOF 8
ENDMDL
