MODEL 1
REMARK VINA RESULT:      -8.6      0.000      0.000
REMARK  Name = *****
REMARK                            x       y       z     vdW  Elec       q    Type
REMARK                         _______ _______ _______ _____ _____    ______ ____
ROOT
ATOM      1  N   LIG    1       25.423 -21.053   6.666  0.00  0.00    -0.298 N 
ATOM      2  C   LIG    1       26.820 -20.740   6.668  0.00  0.00    +0.049 A 
ATOM      3  C   LIG    1       27.405 -19.939   5.663  0.00  0.00    +0.034 A 
ATOM      4  C   LIG    1       28.793 -19.673   5.642  0.00  0.00    +0.018 A 
ATOM      5  C   LIG    1       29.634 -20.182   6.618  0.00  0.00    +0.021 A 
ATOM      6  C   LIG    1       29.081 -20.945   7.633  0.00  0.00    +0.043 A 
ATOM      7 CL   LIG    1       30.104 -21.586   8.863  0.00  0.00    -0.084 Cl
ATOM      8  S   LIG    1       26.507 -19.206   4.323  0.00  0.00    -0.086 S 
ATOM      9  C   LIG    1       24.832 -19.644   4.703  0.00  0.00    +0.034 A 
ATOM     10  C   LIG    1       23.872 -19.084   3.832  0.00  0.00    +0.017 A 
ATOM     11  C   LIG    1       22.519 -19.344   4.000  0.00  0.00    +0.001 A 
ATOM     12  C   LIG    1       22.122 -20.177   5.026  0.00  0.00    +0.002 A 
ATOM     13  C   LIG    1       23.074 -20.753   5.883  0.00  0.00    +0.024 A 
ATOM     14  C   LIG    1       27.701 -21.207   7.669  0.00  0.00    +0.044 A 
ATOM     15  C   LIG    1       24.461 -20.498   5.762  0.00  0.00    +0.048 A 
ENDROOT
BRANCH   1  16
ATOM     16  C   LIG    1       24.953 -22.137   7.581  0.00  0.00    +0.112 C 
BRANCH  16  17
ATOM     17  C   LIG    1       24.782 -23.480   6.847  0.00  0.00    +0.035 C 
BRANCH  17  18
ATOM     18  C   LIG    1       26.013 -24.402   6.989  0.00  0.00    +0.086 C 
BRANCH  18  23
ATOM     19  C   LIG    1       24.616 -28.630   4.985  0.00  0.00    +0.105 C 
ATOM     20  N   LIG    1       24.418 -27.717   6.110  0.00  0.00    -0.303 NA
ATOM     21  C   LIG    1       25.662 -27.546   6.888  0.00  0.00    +0.099 C 
ATOM     22  C   LIG    1       26.720 -26.624   6.231  0.00  0.00    +0.100 C 
ATOM     23  N   LIG    1       26.219 -25.287   5.823  0.00  0.00    -0.300 NA
ATOM     24  C   LIG    1       24.998 -25.485   5.012  0.00  0.00    +0.100 C 
ATOM     25  C   LIG    1       23.927 -26.401   5.654  0.00  0.00    +0.099 C 
ENDBRANCH  18  23
ENDBRANCH  17  18
ENDBRANCH  16  17
ENDBRANCH   1  16
TORSDOF 4
ENDMDL
MODEL 2
REMARK VINA RESULT:      -7.5      2.166      4.512
REMARK  Name = *****
REMARK                            x       y       z     vdW  Elec       q    Type
REMARK                         _______ _______ _______ _____ _____    ______ ____
ROOT
ATOM      1  N   LIG    1       26.416 -20.763   6.847  0.00  0.00    -0.298 N 
ATOM      2  C   LIG    1       25.516 -20.431   5.783  0.00  0.00    +0.049 A 
ATOM      3  C   LIG    1       25.894 -19.570   4.729  0.00  0.00    +0.034 A 
ATOM      4  C   LIG    1       24.988 -19.207   3.708  0.00  0.00    +0.018 A 
ATOM      5  C   LIG    1       23.690 -19.693   3.696  0.00  0.00    +0.021 A 
ATOM      6  C   LIG    1       23.303 -20.565   4.702  0.00  0.00    +0.043 A 
ATOM      7 CL   LIG    1       21.696 -21.188   4.708  0.00  0.00    -0.084 Cl
ATOM      8  S   LIG    1       27.498 -18.835   4.569  0.00  0.00    -0.086 S 
ATOM      9  C   LIG    1       28.387 -19.562   5.920  0.00  0.00    +0.034 A 
ATOM     10  C   LIG    1       29.757 -19.222   5.965  0.00  0.00    +0.017 A 
ATOM     11  C   LIG    1       30.579 -19.710   6.971  0.00  0.00    +0.001 A 
ATOM     12  C   LIG    1       30.034 -20.523   7.944  0.00  0.00    +0.002 A 
ATOM     13  C   LIG    1       28.668 -20.848   7.914  0.00  0.00    +0.024 A 
ATOM     14  C   LIG    1       24.199 -20.940   5.716  0.00  0.00    +0.044 A 
ATOM     15  C   LIG    1       27.798 -20.391   6.896  0.00  0.00    +0.048 A 
ENDROOT
BRANCH   1  16
ATOM     16  C   LIG    1       25.844 -21.425   8.058  0.00  0.00    +0.112 C 
BRANCH  16  17
ATOM     17  C   LIG    1       26.226 -22.915   8.139  0.00  0.00    +0.035 C 
BRANCH  17  18
ATOM     18  C   LIG    1       25.939 -23.680   6.828  0.00  0.00    +0.086 C 
BRANCH  18  23
ATOM     19  C   LIG    1       25.024 -28.086   4.933  0.00  0.00    +0.105 C 
ATOM     20  N   LIG    1       25.797 -26.854   4.777  0.00  0.00    -0.303 NA
ATOM     21  C   LIG    1       24.914 -25.684   4.603  0.00  0.00    +0.099 C 
ATOM     22  C   LIG    1       24.235 -25.180   5.903  0.00  0.00    +0.100 C 
ATOM     23  N   LIG    1       25.163 -24.921   7.032  0.00  0.00    -0.300 NA
ATOM     24  C   LIG    1       26.008 -26.122   7.214  0.00  0.00    +0.100 C 
ATOM     25  C   LIG    1       26.698 -26.637   5.927  0.00  0.00    +0.099 C 
ENDBRANCH  18  23
ENDBRANCH  17  18
ENDBRANCH  16  17
ENDBRANCH   1  16
TORSDOF 4
ENDMDL
MODEL 3
REMARK VINA RESULT:      -7.0      2.736      6.363
REMARK  Name = *****
REMARK                            x       y       z     vdW  Elec       q    Type
REMARK                         _______ _______ _______ _____ _____    ______ ____
ROOT
ATOM      1  N   LIG    1       25.300 -21.223   5.249  0.00  0.00    -0.298 N 
ATOM      2  C   LIG    1       24.790 -22.468   5.739  0.00  0.00    +0.049 A 
ATOM      3  C   LIG    1       23.411 -22.667   5.974  0.00  0.00    +0.034 A 
ATOM      4  C   LIG    1       22.918 -23.881   6.501  0.00  0.00    +0.018 A 
ATOM      5  C   LIG    1       23.771 -24.931   6.801  0.00  0.00    +0.021 A 
ATOM      6  C   LIG    1       25.125 -24.773   6.549  0.00  0.00    +0.043 A 
ATOM      7 CL   LIG    1       26.207 -26.066   6.907  0.00  0.00    -0.084 Cl
ATOM      8  S   LIG    1       22.162 -21.448   5.670  0.00  0.00    -0.086 S 
ATOM      9  C   LIG    1       23.089 -20.127   4.938  0.00  0.00    +0.034 A 
ATOM     10  C   LIG    1       22.303 -19.043   4.491  0.00  0.00    +0.017 A 
ATOM     11  C   LIG    1       22.890 -17.931   3.903  0.00  0.00    +0.001 A 
ATOM     12  C   LIG    1       24.264 -17.890   3.776  0.00  0.00    +0.002 A 
ATOM     13  C   LIG    1       25.052 -18.958   4.237  0.00  0.00    +0.024 A 
ATOM     14  C   LIG    1       25.624 -23.575   6.016  0.00  0.00    +0.044 A 
ATOM     15  C   LIG    1       24.494 -20.119   4.822  0.00  0.00    +0.048 A 
ENDROOT
BRANCH   1  16
ATOM     16  C   LIG    1       26.776 -21.003   5.317  0.00  0.00    +0.112 C 
BRANCH  16  17
ATOM     17  C   LIG    1       27.246 -20.652   6.741  0.00  0.00    +0.035 C 
BRANCH  17  18
ATOM     18  C   LIG    1       28.721 -21.032   6.998  0.00  0.00    +0.086 C 
BRANCH  18  23
ATOM     19  C   LIG    1       31.872 -17.862   8.964  0.00  0.00    +0.105 C 
ATOM     20  N   LIG    1       31.313 -18.373   7.712  0.00  0.00    -0.303 NA
ATOM     21  C   LIG    1       31.590 -19.814   7.549  0.00  0.00    +0.099 C 
ATOM     22  C   LIG    1       30.704 -20.749   8.412  0.00  0.00    +0.100 C 
ATOM     23  N   LIG    1       29.243 -20.521   8.282  0.00  0.00    -0.300 NA
ATOM     24  C   LIG    1       28.986 -19.079   8.490  0.00  0.00    +0.100 C 
ATOM     25  C   LIG    1       29.859 -18.128   7.635  0.00  0.00    +0.099 C 
ENDBRANCH  18  23
ENDBRANCH  17  18
ENDBRANCH  16  17
ENDBRANCH   1  16
TORSDOF 4
ENDMDL
MODEL 4
REMARK VINA RESULT:      -6.0      3.468      7.346
REMARK  Name = *****
REMARK                            x       y       z     vdW  Elec       q    Type
REMARK                         _______ _______ _______ _____ _____    ______ ____
ROOT
ATOM      1  N   LIG    1       26.700 -20.963   5.888  0.00  0.00    -0.298 N 
ATOM      2  C   LIG    1       26.285 -19.913   5.007  0.00  0.00    +0.049 A 
ATOM      3  C   LIG    1       25.118 -20.018   4.220  0.00  0.00    +0.034 A 
ATOM      4  C   LIG    1       24.738 -19.000   3.317  0.00  0.00    +0.018 A 
ATOM      5  C   LIG    1       25.496 -17.849   3.177  0.00  0.00    +0.021 A 
ATOM      6  C   LIG    1       26.630 -17.706   3.961  0.00  0.00    +0.043 A 
ATOM      7 CL   LIG    1       27.587 -16.280   3.811  0.00  0.00    -0.084 Cl
ATOM      8  S   LIG    1       24.023 -21.411   4.242  0.00  0.00    -0.086 S 
ATOM      9  C   LIG    1       24.721 -22.424   5.518  0.00  0.00    +0.034 A 
ATOM     10  C   LIG    1       23.966 -23.577   5.825  0.00  0.00    +0.017 A 
ATOM     11  C   LIG    1       24.392 -24.471   6.798  0.00  0.00    +0.001 A 
ATOM     12  C   LIG    1       25.580 -24.225   7.456  0.00  0.00    +0.002 A 
ATOM     13  C   LIG    1       26.345 -23.089   7.141  0.00  0.00    +0.024 A 
ATOM     14  C   LIG    1       27.010 -18.707   4.869  0.00  0.00    +0.044 A 
ATOM     15  C   LIG    1       25.938 -22.142   6.172  0.00  0.00    +0.048 A 
ENDROOT
BRANCH   1  16
ATOM     16  C   LIG    1       28.085 -20.896   6.444  0.00  0.00    +0.112 C 
BRANCH  16  17
ATOM     17  C   LIG    1       28.135 -20.140   7.786  0.00  0.00    +0.035 C 
BRANCH  17  18
ATOM     18  C   LIG    1       29.265 -19.089   7.841  0.00  0.00    +0.086 C 
BRANCH  18  23
ATOM     19  C   LIG    1       32.803 -16.829  10.334  0.00  0.00    +0.105 C 
ATOM     20  N   LIG    1       32.001 -16.807   9.111  0.00  0.00    -0.303 NA
ATOM     21  C   LIG    1       32.211 -18.030   8.311  0.00  0.00    +0.099 C 
ATOM     22  C   LIG    1       31.491 -19.294   8.849  0.00  0.00    +0.100 C 
ATOM     23  N   LIG    1       30.038 -19.126   9.100  0.00  0.00    -0.300 NA
ATOM     24  C   LIG    1       29.856 -17.920   9.938  0.00  0.00    +0.100 C 
ATOM     25  C   LIG    1       30.565 -16.646   9.414  0.00  0.00    +0.099 C 
ENDBRANCH  18  23
ENDBRANCH  17  18
ENDBRANCH  16  17
ENDBRANCH   1  16
TORSDOF 4
ENDMDL
MODEL 5
REMARK VINA RESULT:      -5.9      4.340      9.036
REMARK  Name = *****
REMARK                            x       y       z     vdW  Elec       q    Type
REMARK                         _______ _______ _______ _____ _____    ______ ____
ROOT
ATOM      1  N   LIG    1       25.689 -29.686   7.651  0.00  0.00    -0.298 N 
ATOM      2  C   LIG    1       26.303 -29.610   8.943  0.00  0.00    +0.049 A 
ATOM      3  C   LIG    1       26.929 -30.727   9.538  0.00  0.00    +0.034 A 
ATOM      4  C   LIG    1       27.491 -30.659  10.832  0.00  0.00    +0.018 A 
ATOM      5  C   LIG    1       27.459 -29.484  11.566  0.00  0.00    +0.021 A 
ATOM      6  C   LIG    1       26.879 -28.364  10.992  0.00  0.00    +0.043 A 
ATOM      7 CL   LIG    1       26.831 -26.889  11.882  0.00  0.00    -0.084 Cl
ATOM      8  S   LIG    1       27.063 -32.319   8.772  0.00  0.00    -0.086 S 
ATOM      9  C   LIG    1       26.366 -32.031   7.168  0.00  0.00    +0.034 A 
ATOM     10  C   LIG    1       26.447 -33.135   6.291  0.00  0.00    +0.017 A 
ATOM     11  C   LIG    1       25.936 -33.061   5.003  0.00  0.00    +0.001 A 
ATOM     12  C   LIG    1       25.328 -31.892   4.592  0.00  0.00    +0.002 A 
ATOM     13  C   LIG    1       25.229 -30.797   5.467  0.00  0.00    +0.024 A 
ATOM     14  C   LIG    1       26.326 -28.418   9.703  0.00  0.00    +0.044 A 
ATOM     15  C   LIG    1       25.754 -30.821   6.780  0.00  0.00    +0.048 A 
ENDROOT
BRANCH   1  16
ATOM     16  C   LIG    1       24.801 -28.559   7.237  0.00  0.00    +0.112 C 
BRANCH  16  17
ATOM     17  C   LIG    1       25.492 -27.613   6.237  0.00  0.00    +0.035 C 
BRANCH  17  18
ATOM     18  C   LIG    1       25.869 -26.252   6.862  0.00  0.00    +0.086 C 
BRANCH  18  23
ATOM     19  C   LIG    1       23.657 -21.942   6.249  0.00  0.00    +0.105 C 
ATOM     20  N   LIG    1       23.848 -23.069   7.161  0.00  0.00    -0.303 NA
ATOM     21  C   LIG    1       23.371 -24.331   6.563  0.00  0.00    +0.099 C 
ATOM     22  C   LIG    1       24.312 -24.943   5.493  0.00  0.00    +0.100 C 
ATOM     23  N   LIG    1       25.721 -25.117   5.927  0.00  0.00    -0.300 NA
ATOM     24  C   LIG    1       26.190 -23.829   6.484  0.00  0.00    +0.100 C 
ATOM     25  C   LIG    1       25.264 -23.205   7.557  0.00  0.00    +0.099 C 
ENDBRANCH  18  23
ENDBRANCH  17  18
ENDBRANCH  16  17
ENDBRANCH   1  16
TORSDOF 4
ENDMDL
MODEL 6
REMARK VINA RESULT:      -5.8      8.155      9.117
REMARK  Name = *****
REMARK                            x       y       z     vdW  Elec       q    Type
REMARK                         _______ _______ _______ _____ _____    ______ ____
ROOT
ATOM      1  N   LIG    1       24.838 -28.409  12.609  0.00  0.00    -0.298 N 
ATOM      2  C   LIG    1       25.125 -27.167  13.262  0.00  0.00    +0.049 A 
ATOM      3  C   LIG    1       24.102 -26.274  13.648  0.00  0.00    +0.034 A 
ATOM      4  C   LIG    1       24.393 -25.029  14.249  0.00  0.00    +0.018 A 
ATOM      5  C   LIG    1       25.700 -24.640  14.493  0.00  0.00    +0.021 A 
ATOM      6  C   LIG    1       26.722 -25.512  14.152  0.00  0.00    +0.043 A 
ATOM      7 CL   LIG    1       28.357 -25.055  14.450  0.00  0.00    -0.084 Cl
ATOM      8  S   LIG    1       22.372 -26.578  13.413  0.00  0.00    -0.086 S 
ATOM      9  C   LIG    1       22.361 -28.222  12.749  0.00  0.00    +0.034 A 
ATOM     10  C   LIG    1       21.072 -28.766  12.563  0.00  0.00    +0.017 A 
ATOM     11  C   LIG    1       20.904 -30.042  12.043  0.00  0.00    +0.001 A 
ATOM     12  C   LIG    1       22.022 -30.771  11.691  0.00  0.00    +0.002 A 
ATOM     13  C   LIG    1       23.306 -30.227  11.856  0.00  0.00    +0.024 A 
ATOM     14  C   LIG    1       26.444 -26.756  13.564  0.00  0.00    +0.044 A 
ATOM     15  C   LIG    1       23.524 -28.940  12.402  0.00  0.00    +0.048 A 
ENDROOT
BRANCH   1  16
ATOM     16  C   LIG    1       25.976 -29.139  11.974  0.00  0.00    +0.112 C 
BRANCH  16  17
ATOM     17  C   LIG    1       26.316 -28.583  10.578  0.00  0.00    +0.035 C 
BRANCH  17  18
ATOM     18  C   LIG    1       26.584 -29.693   9.539  0.00  0.00    +0.086 C 
BRANCH  18  23
ATOM     19  C   LIG    1       24.036 -31.890   6.000  0.00  0.00    +0.105 C 
ATOM     20  N   LIG    1       25.207 -31.065   6.294  0.00  0.00    -0.303 NA
ATOM     21  C   LIG    1       24.819 -29.782   6.913  0.00  0.00    +0.099 C 
ATOM     22  C   LIG    1       24.416 -29.874   8.407  0.00  0.00    +0.100 C 
ATOM     23  N   LIG    1       25.408 -30.550   9.281  0.00  0.00    -0.300 NA
ATOM     24  C   LIG    1       25.750 -31.850   8.663  0.00  0.00    +0.100 C 
ATOM     25  C   LIG    1       26.158 -31.778   7.171  0.00  0.00    +0.099 C 
ENDBRANCH  18  23
ENDBRANCH  17  18
ENDBRANCH  16  17
ENDBRANCH   1  16
TORSDOF 4
ENDMDL
MODEL 7
REMARK VINA RESULT:      -5.7      8.652      9.936
REMARK  Name = *****
REMARK                            x       y       z     vdW  Elec       q    Type
REMARK                         _______ _______ _______ _____ _____    ______ ____
ROOT
ATOM      1  N   LIG    1       24.878 -28.468  12.227  0.00  0.00    -0.298 N 
ATOM      2  C   LIG    1       23.523 -28.914  12.105  0.00  0.00    +0.049 A 
ATOM      3  C   LIG    1       22.461 -28.258  12.765  0.00  0.00    +0.034 A 
ATOM      4  C   LIG    1       21.132 -28.730  12.680  0.00  0.00    +0.018 A 
ATOM      5  C   LIG    1       20.817 -29.855  11.934  0.00  0.00    +0.021 A 
ATOM      6  C   LIG    1       21.837 -30.499  11.250  0.00  0.00    +0.043 A 
ATOM      7 CL   LIG    1       21.472 -31.897  10.310  0.00  0.00    -0.084 Cl
ATOM      8  S   LIG    1       22.654 -26.816  13.775  0.00  0.00    -0.086 S 
ATOM      9  C   LIG    1       24.377 -26.446  13.586  0.00  0.00    +0.034 A 
ATOM     10  C   LIG    1       24.788 -25.252  14.216  0.00  0.00    +0.017 A 
ATOM     11  C   LIG    1       26.112 -24.835  14.161  0.00  0.00    +0.001 A 
ATOM     12  C   LIG    1       27.030 -25.618  13.492  0.00  0.00    +0.002 A 
ATOM     13  C   LIG    1       26.629 -26.817  12.879  0.00  0.00    +0.024 A 
ATOM     14  C   LIG    1       23.159 -30.032  11.320  0.00  0.00    +0.044 A 
ATOM     15  C   LIG    1       25.288 -27.268  12.892  0.00  0.00    +0.048 A 
ENDROOT
BRANCH   1  16
ATOM     16  C   LIG    1       25.956 -29.385  11.749  0.00  0.00    +0.112 C 
BRANCH  16  17
ATOM     17  C   LIG    1       26.384 -29.074  10.303  0.00  0.00    +0.035 C 
BRANCH  17  18
ATOM     18  C   LIG    1       26.951 -30.308   9.566  0.00  0.00    +0.086 C 
BRANCH  18  23
ATOM     19  C   LIG    1       24.974 -32.700   5.796  0.00  0.00    +0.105 C 
ATOM     20  N   LIG    1       26.006 -31.744   6.197  0.00  0.00    -0.303 NA
ATOM     21  C   LIG    1       25.411 -30.539   6.810  0.00  0.00    +0.099 C 
ATOM     22  C   LIG    1       24.914 -30.726   8.266  0.00  0.00    +0.100 C 
ATOM     23  N   LIG    1       25.916 -31.298   9.201  0.00  0.00    -0.300 NA
ATOM     24  C   LIG    1       26.466 -32.526   8.584  0.00  0.00    +0.100 C 
ATOM     25  C   LIG    1       26.972 -32.357   7.130  0.00  0.00    +0.099 C 
ENDBRANCH  18  23
ENDBRANCH  17  18
ENDBRANCH  16  17
ENDBRANCH   1  16
TORSDOF 4
ENDMDL
