MODEL 1
REMARK VINA RESULT:      13.3      0.000      0.000
REMARK  Name = *****
REMARK                            x       y       z     vdW  Elec       q    Type
REMARK                         _______ _______ _______ _____ _____    ______ ____
ROOT
ATOM      1  C   LIG    1       25.314 -18.327   3.582  0.00  0.00    +0.113 C 
ENDROOT
BRANCH   1   3
ATOM      2  C   LIG    1       27.032 -16.414   3.440  0.00  0.00    +0.245 C 
ATOM      3  N   LIG    1       25.735 -16.916   3.462  0.00  0.00    -0.305 N 
ATOM      4  H   LIG    1       24.995 -16.277   3.697  0.00  0.00    +0.149 HD
ATOM      5  O   LIG    1       27.998 -17.141   3.461  0.00  0.00    -0.270 OA
BRANCH   2   8
ATOM      6  C   LIG    1       28.210 -14.790   5.700  0.00  0.00    +0.048 C 
ATOM      7  C   LIG    1       27.753 -14.135   4.421  0.00  0.00    +0.003 A 
ATOM      8  C   LIG    1       27.164 -14.894   3.368  0.00  0.00    +0.043 A 
ATOM      9  C   LIG    1       26.667 -14.215   2.237  0.00  0.00    +0.013 A 
ATOM     10  C   LIG    1       26.762 -12.828   2.116  0.00  0.00    +0.004 A 
ATOM     11  C   LIG    1       27.359 -12.092   3.125  0.00  0.00    +0.045 A 
ATOM     12  C   LIG    1       27.854 -12.736   4.256  0.00  0.00    +0.120 A 
BRANCH  12  13
ATOM     13  O   LIG    1       28.420 -11.894   5.176  0.00  0.00    -0.506 OA
ATOM     14  H   LIG    1       29.375 -12.047   5.217  0.00  0.00    +0.292 HD
ENDBRANCH  12  13
ENDBRANCH   2   8
ENDBRANCH   1   3
BRANCH   1  15
ATOM     15  C   LIG    1       23.845 -18.701   3.182  0.00  0.00    +0.149 C 
BRANCH  15  16
ATOM     16  O   LIG    1       23.818 -19.641   2.108  0.00  0.00    -0.389 OA
ATOM     17  H   LIG    1       24.191 -19.187   1.319  0.00  0.00    +0.210 HD
ENDBRANCH  15  16
BRANCH  15  18
ATOM     18  C   LIG    1       22.867 -17.485   2.958  0.00  0.00    +0.118 C 
BRANCH  18  19
ATOM     19  N   LIG    1       21.700 -17.408   3.887  0.00  0.00    -0.289 NA
ATOM     20  C   LIG    1       21.978 -17.085   5.320  0.00  0.00    +0.143 C 
ATOM     21  C   LIG    1       22.882 -18.131   5.973  0.00  0.00    +0.032 C 
ATOM     22  C   LIG    1       22.117 -19.461   6.071  0.00  0.00    -0.005 C 
ATOM     23  C   LIG    1       21.337 -19.834   4.783  0.00  0.00    +0.006 C 
ATOM     24  C   LIG    1       21.959 -21.001   3.992  0.00  0.00    +0.005 C 
ATOM     25  C   LIG    1       23.473 -21.128   4.094  0.00  0.00    +0.000 C 
ATOM     26  C   LIG    1       24.014 -21.083   5.520  0.00  0.00    +0.000 C 
ATOM     27  C   LIG    1       23.001 -20.614   6.558  0.00  0.00    +0.004 C 
ATOM     28  C   LIG    1       20.870 -18.633   3.901  0.00  0.00    +0.089 C 
BRANCH  20  29
ATOM     29  C   LIG    1       22.320 -15.620   5.732  0.00  0.00    +0.231 C 
ATOM     30  N   LIG    1       23.093 -14.972   4.745  0.00  0.00    -0.309 N 
ATOM     31  H   LIG    1       23.336 -15.522   3.931  0.00  0.00    +0.149 HD
ATOM     32  O   LIG    1       21.905 -15.065   6.741  0.00  0.00    -0.274 OA
BRANCH  30  33
ATOM     33  C   LIG    1       23.565 -13.567   4.718  0.00  0.00    +0.026 C 
ATOM     34  C   LIG    1       22.612 -12.616   5.453  0.00  0.00    +0.031 C 
ATOM     35  C   LIG    1       23.758 -13.069   3.279  0.00  0.00    +0.031 C 
ATOM     36  C   LIG    1       24.945 -13.491   5.424  0.00  0.00    +0.031 C 
ENDBRANCH  30  33
ENDBRANCH  20  29
ENDBRANCH  18  19
ENDBRANCH  15  18
ENDBRANCH   1  15
BRANCH   1  37
ATOM     37  C   LIG    1       26.321 -19.296   2.908  0.00  0.00    +0.099 C 
BRANCH  37  38
ATOM     38  S   LIG    1       26.567 -20.825   3.907  0.00  0.00    -0.123 S 
BRANCH  38  39
ATOM     39  C   LIG    1       27.703 -20.185   5.129  0.00  0.00    +0.008 A 
ATOM     40  C   LIG    1       28.279 -21.031   6.082  0.00  0.00    +0.015 A 
ATOM     41  C   LIG    1       29.165 -20.520   7.036  0.00  0.00    +0.001 A 
ATOM     42  C   LIG    1       29.472 -19.160   7.045  0.00  0.00    +0.000 A 
ATOM     43  C   LIG    1       28.893 -18.311   6.106  0.00  0.00    +0.001 A 
ATOM     44  C   LIG    1       28.007 -18.821   5.152  0.00  0.00    +0.015 A 
ENDBRANCH  38  39
ENDBRANCH  37  38
ENDBRANCH   1  37
TORSDOF 12
ENDMDL
