MODEL 1
REMARK VINA RESULT:      -9.9      0.000      0.000
REMARK  Name = *****
REMARK                            x       y       z     vdW  Elec       q    Type
REMARK                         _______ _______ _______ _____ _____    ______ ____
ROOT
ATOM      1  N   LIG    1       24.144 -25.263   5.604  0.00  0.00    -0.302 NA
ATOM      2  C   LIG    1       23.224 -24.206   6.022  0.00  0.00    +0.085 C 
ATOM      3  C   LIG    1       23.663 -23.450   7.276  0.00  0.00    +0.022 C 
ATOM      4  C   LIG    1       25.160 -23.021   7.336  0.00  0.00    +0.032 C 
ATOM      5  C   LIG    1       26.081 -23.939   6.494  0.00  0.00    +0.022 C 
ATOM      6  C   LIG    1       25.434 -24.636   5.300  0.00  0.00    +0.085 C 
ENDROOT
BRANCH   1   7
ATOM      7  C   LIG    1       24.268 -26.395   6.536  0.00  0.00    +0.084 C 
BRANCH   7   8
ATOM      8  C   LIG    1       24.821 -27.680   5.893  0.00  0.00    +0.018 C 
BRANCH   8   9
ATOM      9  C   LIG    1       24.004 -28.901   6.337  0.00  0.00    +0.037 C 
BRANCH   9  10
ATOM     10  C   LIG    1       24.835 -29.996   7.032  0.00  0.00    +0.144 C 
BRANCH  10  14
ATOM     11  C   LIG    1       25.912 -28.825  11.123  0.00  0.00    -0.042 A 
ATOM     12  C   LIG    1       26.649 -28.402  10.004  0.00  0.00    +0.004 A 
ATOM     13  C   LIG    1       26.294 -28.766   8.699  0.00  0.00    +0.006 A 
ATOM     14  C   LIG    1       25.192 -29.592   8.455  0.00  0.00    -0.019 A 
ATOM     15  C   LIG    1       24.449 -30.019   9.562  0.00  0.00    +0.006 A 
ATOM     16  C   LIG    1       24.801 -29.646  10.870  0.00  0.00    +0.004 A 
BRANCH  11  18
ATOM     17  C   LIG    1       26.692 -26.912  12.595  0.00  0.00    +0.015 C 
ATOM     18  C   LIG    1       26.277 -28.401  12.557  0.00  0.00    -0.013 C 
ATOM     19  C   LIG    1       25.084 -28.581  13.519  0.00  0.00    +0.015 C 
ATOM     20  C   LIG    1       27.454 -29.228  13.125  0.00  0.00    +0.015 C 
ENDBRANCH  11  18
ENDBRANCH  10  14
BRANCH  10  21
ATOM     21  O   LIG    1       26.024 -30.239   6.282  0.00  0.00    -0.387 OA
ATOM     22  H   LIG    1       26.143 -31.201   6.222  0.00  0.00    +0.210 HD
ENDBRANCH  10  21
ENDBRANCH   9  10
ENDBRANCH   8   9
ENDBRANCH   7   8
ENDBRANCH   1   7
BRANCH   4  23
ATOM     23  C   LIG    1       25.417 -21.467   7.173  0.00  0.00    +0.119 C 
BRANCH  23  24
ATOM     24  C   LIG    1       24.522 -20.883   6.063  0.00  0.00    -0.011 A 
ATOM     25  C   LIG    1       23.343 -20.192   6.388  0.00  0.00    +0.007 A 
ATOM     26  C   LIG    1       22.533 -19.630   5.403  0.00  0.00    +0.000 A 
ATOM     27  C   LIG    1       22.894 -19.745   4.062  0.00  0.00    +0.000 A 
ATOM     28  C   LIG    1       24.050 -20.437   3.714  0.00  0.00    +0.000 A 
ATOM     29  C   LIG    1       24.854 -21.013   4.702  0.00  0.00    +0.007 A 
ENDBRANCH  23  24
BRANCH  23  30
ATOM     30  C   LIG    1       26.902 -21.029   7.016  0.00  0.00    -0.011 A 
ATOM     31  C   LIG    1       27.341 -20.102   6.046  0.00  0.00    +0.007 A 
ATOM     32  C   LIG    1       28.681 -19.700   5.975  0.00  0.00    +0.000 A 
ATOM     33  C   LIG    1       29.614 -20.205   6.858  0.00  0.00    +0.000 A 
ATOM     34  C   LIG    1       29.217 -21.132   7.825  0.00  0.00    +0.000 A 
ATOM     35  C   LIG    1       27.880 -21.545   7.888  0.00  0.00    +0.007 A 
ENDBRANCH  23  30
BRANCH  23  36
ATOM     36  O   LIG    1       25.013 -20.871   8.430  0.00  0.00    -0.379 OA
ATOM     37  H   LIG    1       24.515 -21.548   8.916  0.00  0.00    +0.211 HD
ENDBRANCH  23  36
ENDBRANCH   4  23
TORSDOF 11
ENDMDL
MODEL 2
REMARK VINA RESULT:      -9.9      1.136      1.739
REMARK  Name = *****
REMARK                            x       y       z     vdW  Elec       q    Type
REMARK                         _______ _______ _______ _____ _____    ______ ____
ROOT
ATOM      1  N   LIG    1       24.344 -25.548   6.600  0.00  0.00    -0.302 NA
ATOM      2  C   LIG    1       25.562 -24.886   7.064  0.00  0.00    +0.085 C 
ATOM      3  C   LIG    1       26.036 -23.742   6.167  0.00  0.00    +0.022 C 
ATOM      4  C   LIG    1       24.942 -22.746   5.680  0.00  0.00    +0.032 C 
ATOM      5  C   LIG    1       23.532 -23.386   5.619  0.00  0.00    +0.022 C 
ATOM      6  C   LIG    1       23.274 -24.547   6.576  0.00  0.00    +0.085 C 
ENDROOT
BRANCH   1   7
ATOM      7  C   LIG    1       24.469 -26.277   5.329  0.00  0.00    +0.084 C 
BRANCH   7   8
ATOM      8  C   LIG    1       25.722 -27.167   5.235  0.00  0.00    +0.018 C 
BRANCH   8   9
ATOM      9  C   LIG    1       25.337 -28.652   5.303  0.00  0.00    +0.037 C 
BRANCH   9  10
ATOM     10  C   LIG    1       24.159 -28.953   6.249  0.00  0.00    +0.144 C 
BRANCH  10  14
ATOM     11  C   LIG    1       25.594 -29.506  10.360  0.00  0.00    -0.042 A 
ATOM     12  C   LIG    1       26.285 -28.717   9.426  0.00  0.00    +0.004 A 
ATOM     13  C   LIG    1       25.816 -28.530   8.119  0.00  0.00    +0.006 A 
ATOM     14  C   LIG    1       24.641 -29.148   7.679  0.00  0.00    -0.019 A 
ATOM     15  C   LIG    1       23.943 -29.937   8.602  0.00  0.00    +0.006 A 
ATOM     16  C   LIG    1       24.409 -30.116   9.915  0.00  0.00    +0.004 A 
BRANCH  11  18
ATOM     17  C   LIG    1       25.449 -28.627  12.735  0.00  0.00    +0.015 C 
ATOM     18  C   LIG    1       26.086 -29.688  11.808  0.00  0.00    -0.013 C 
ATOM     19  C   LIG    1       25.713 -31.080  12.359  0.00  0.00    +0.015 C 
ATOM     20  C   LIG    1       27.622 -29.545  11.920  0.00  0.00    +0.015 C 
ENDBRANCH  11  18
ENDBRANCH  10  14
BRANCH  10  21
ATOM     21  O   LIG    1       23.475 -30.123   5.801  0.00  0.00    -0.387 OA
ATOM     22  H   LIG    1       23.052 -29.910   4.954  0.00  0.00    +0.210 HD
ENDBRANCH  10  21
ENDBRANCH   9  10
ENDBRANCH   8   9
ENDBRANCH   7   8
ENDBRANCH   1   7
BRANCH   4  23
ATOM     23  C   LIG    1       25.007 -21.307   6.339  0.00  0.00    +0.119 C 
BRANCH  23  24
ATOM     24  C   LIG    1       24.185 -20.296   5.516  0.00  0.00    -0.011 A 
ATOM     25  C   LIG    1       24.711 -19.744   4.337  0.00  0.00    +0.007 A 
ATOM     26  C   LIG    1       23.975 -18.851   3.560  0.00  0.00    +0.000 A 
ATOM     27  C   LIG    1       22.686 -18.495   3.950  0.00  0.00    +0.000 A 
ATOM     28  C   LIG    1       22.148 -19.018   5.122  0.00  0.00    +0.000 A 
ATOM     29  C   LIG    1       22.892 -19.902   5.908  0.00  0.00    +0.007 A 
ENDBRANCH  23  24
BRANCH  23  30
ATOM     30  C   LIG    1       26.428 -20.769   6.673  0.00  0.00    -0.011 A 
ATOM     31  C   LIG    1       27.338 -20.314   5.693  0.00  0.00    +0.007 A 
ATOM     32  C   LIG    1       28.588 -19.791   6.046  0.00  0.00    +0.000 A 
ATOM     33  C   LIG    1       28.967 -19.706   7.371  0.00  0.00    +0.000 A 
ATOM     34  C   LIG    1       28.096 -20.155   8.367  0.00  0.00    +0.000 A 
ATOM     35  C   LIG    1       26.851 -20.692   8.014  0.00  0.00    +0.007 A 
ENDBRANCH  23  30
BRANCH  23  36
ATOM     36  O   LIG    1       24.377 -21.444   7.636  0.00  0.00    -0.379 OA
ATOM     37  H   LIG    1       24.292 -22.395   7.810  0.00  0.00    +0.211 HD
ENDBRANCH  23  36
ENDBRANCH   4  23
TORSDOF 11
ENDMDL
MODEL 3
REMARK VINA RESULT:      -9.3      2.314      9.601
REMARK  Name = *****
REMARK                            x       y       z     vdW  Elec       q    Type
REMARK                         _______ _______ _______ _____ _____    ______ ____
ROOT
ATOM      1  N   LIG    1       25.443 -26.892   5.185  0.00  0.00    -0.302 NA
ATOM      2  C   LIG    1       26.382 -27.165   6.272  0.00  0.00    +0.085 C 
ATOM      3  C   LIG    1       25.728 -27.702   7.546  0.00  0.00    +0.022 C 
ATOM      4  C   LIG    1       24.663 -28.823   7.357  0.00  0.00    +0.032 C 
ATOM      5  C   LIG    1       23.974 -28.768   5.970  0.00  0.00    +0.022 C 
ATOM      6  C   LIG    1       24.788 -28.155   4.834  0.00  0.00    +0.085 C 
ENDROOT
BRANCH   1   7
ATOM      7  C   LIG    1       24.485 -25.805   5.438  0.00  0.00    +0.084 C 
BRANCH   7   8
ATOM      8  C   LIG    1       25.140 -24.435   5.691  0.00  0.00    +0.018 C 
BRANCH   8   9
ATOM      9  C   LIG    1       24.469 -23.726   6.875  0.00  0.00    +0.037 C 
BRANCH   9  10
ATOM     10  C   LIG    1       24.400 -22.193   6.734  0.00  0.00    +0.144 C 
BRANCH  10  14
ATOM     11  C   LIG    1       28.332 -20.353   7.379  0.00  0.00    -0.042 A 
ATOM     12  C   LIG    1       27.528 -20.033   6.273  0.00  0.00    +0.004 A 
ATOM     13  C   LIG    1       26.267 -20.611   6.077  0.00  0.00    +0.006 A 
ATOM     14  C   LIG    1       25.762 -21.559   6.974  0.00  0.00    -0.019 A 
ATOM     15  C   LIG    1       26.555 -21.885   8.081  0.00  0.00    +0.006 A 
ATOM     16  C   LIG    1       27.815 -21.298   8.281  0.00  0.00    +0.004 A 
BRANCH  11  18
ATOM     17  C   LIG    1       30.700 -20.717   8.213  0.00  0.00    +0.015 C 
ATOM     18  C   LIG    1       29.705 -19.696   7.616  0.00  0.00    -0.013 C 
ATOM     19  C   LIG    1       30.309 -19.164   6.299  0.00  0.00    +0.015 C 
ATOM     20  C   LIG    1       29.615 -18.503   8.596  0.00  0.00    +0.015 C 
ENDBRANCH  11  18
ENDBRANCH  10  14
BRANCH  10  21
ATOM     21  O   LIG    1       23.450 -21.672   7.662  0.00  0.00    -0.387 OA
ATOM     22  H   LIG    1       22.691 -22.278   7.679  0.00  0.00    +0.210 HD
ENDBRANCH  10  21
ENDBRANCH   9  10
ENDBRANCH   8   9
ENDBRANCH   7   8
ENDBRANCH   1   7
BRANCH   4  23
ATOM     23  C   LIG    1       25.117 -30.263   7.834  0.00  0.00    +0.119 C 
BRANCH  23  24
ATOM     24  C   LIG    1       24.980 -31.282   6.686  0.00  0.00    -0.011 A 
ATOM     25  C   LIG    1       26.064 -31.541   5.831  0.00  0.00    +0.007 A 
ATOM     26  C   LIG    1       25.974 -32.480   4.805  0.00  0.00    +0.000 A 
ATOM     27  C   LIG    1       24.788 -33.186   4.616  0.00  0.00    +0.000 A 
ATOM     28  C   LIG    1       23.695 -32.937   5.441  0.00  0.00    +0.000 A 
ATOM     29  C   LIG    1       23.783 -31.986   6.461  0.00  0.00    +0.007 A 
ENDBRANCH  23  24
BRANCH  23  30
ATOM     30  C   LIG    1       24.477 -30.783   9.154  0.00  0.00    -0.011 A 
ATOM     31  C   LIG    1       25.064 -31.780   9.963  0.00  0.00    +0.007 A 
ATOM     32  C   LIG    1       24.475 -32.180  11.169  0.00  0.00    +0.000 A 
ATOM     33  C   LIG    1       23.296 -31.606  11.601  0.00  0.00    +0.000 A 
ATOM     34  C   LIG    1       22.683 -30.622  10.822  0.00  0.00    +0.000 A 
ATOM     35  C   LIG    1       23.264 -30.232   9.609  0.00  0.00    +0.007 A 
ENDBRANCH  23  30
BRANCH  23  36
ATOM     36  O   LIG    1       26.523 -30.142   8.157  0.00  0.00    -0.379 OA
ATOM     37  H   LIG    1       26.797 -30.988   8.546  0.00  0.00    +0.211 HD
ENDBRANCH  23  36
ENDBRANCH   4  23
TORSDOF 11
ENDMDL
MODEL 4
REMARK VINA RESULT:      -9.2      1.843      2.528
REMARK  Name = *****
REMARK                            x       y       z     vdW  Elec       q    Type
REMARK                         _______ _______ _______ _____ _____    ______ ____
ROOT
ATOM      1  N   LIG    1       23.959 -25.088   5.665  0.00  0.00    -0.302 NA
ATOM      2  C   LIG    1       23.140 -24.044   6.281  0.00  0.00    +0.085 C 
ATOM      3  C   LIG    1       23.806 -23.337   7.461  0.00  0.00    +0.022 C 
ATOM      4  C   LIG    1       25.293 -22.916   7.265  0.00  0.00    +0.032 C 
ATOM      5  C   LIG    1       26.038 -23.805   6.238  0.00  0.00    +0.022 C 
ATOM      6  C   LIG    1       25.179 -24.454   5.156  0.00  0.00    +0.085 C 
ENDROOT
BRANCH   1   7
ATOM      7  C   LIG    1       24.238 -26.254   6.517  0.00  0.00    +0.084 C 
BRANCH   7   8
ATOM      8  C   LIG    1       24.986 -27.393   5.799  0.00  0.00    +0.018 C 
BRANCH   8   9
ATOM      9  C   LIG    1       24.031 -28.553   5.486  0.00  0.00    +0.037 C 
BRANCH   9  10
ATOM     10  C   LIG    1       24.645 -29.949   5.701  0.00  0.00    +0.144 C 
BRANCH  10  14
ATOM     11  C   LIG    1       23.368 -31.689   9.523  0.00  0.00    -0.042 A 
ATOM     12  C   LIG    1       23.434 -32.445   8.341  0.00  0.00    +0.004 A 
ATOM     13  C   LIG    1       23.856 -31.890   7.126  0.00  0.00    +0.006 A 
ATOM     14  C   LIG    1       24.210 -30.540   7.034  0.00  0.00    -0.019 A 
ATOM     15  C   LIG    1       24.149 -29.777   8.206  0.00  0.00    +0.006 A 
ATOM     16  C   LIG    1       23.734 -30.336   9.426  0.00  0.00    +0.004 A 
BRANCH  11  18
ATOM     17  C   LIG    1       21.429 -32.065  11.114  0.00  0.00    +0.015 C 
ATOM     18  C   LIG    1       22.936 -32.302  10.868  0.00  0.00    -0.013 C 
ATOM     19  C   LIG    1       23.185 -33.825  10.898  0.00  0.00    +0.015 C 
ATOM     20  C   LIG    1       23.706 -31.686  12.059  0.00  0.00    +0.015 C 
ENDBRANCH  11  18
ENDBRANCH  10  14
BRANCH  10  21
ATOM     21  O   LIG    1       26.068 -29.856   5.650  0.00  0.00    -0.387 OA
ATOM     22  H   LIG    1       26.388 -30.554   5.056  0.00  0.00    +0.210 HD
ENDBRANCH  10  21
ENDBRANCH   9  10
ENDBRANCH   8   9
ENDBRANCH   7   8
ENDBRANCH   1   7
BRANCH   4  23
ATOM     23  C   LIG    1       25.532 -21.357   7.115  0.00  0.00    +0.119 C 
BRANCH  23  24
ATOM     24  C   LIG    1       24.633 -20.776   6.007  0.00  0.00    -0.011 A 
ATOM     25  C   LIG    1       23.375 -20.234   6.322  0.00  0.00    +0.007 A 
ATOM     26  C   LIG    1       22.557 -19.676   5.341  0.00  0.00    +0.000 A 
ATOM     27  C   LIG    1       22.988 -19.644   4.017  0.00  0.00    +0.000 A 
ATOM     28  C   LIG    1       24.224 -20.187   3.678  0.00  0.00    +0.000 A 
ATOM     29  C   LIG    1       25.037 -20.759   4.660  0.00  0.00    +0.007 A 
ENDBRANCH  23  24
BRANCH  23  30
ATOM     30  C   LIG    1       27.012 -20.901   6.965  0.00  0.00    -0.011 A 
ATOM     31  C   LIG    1       27.444 -19.967   5.998  0.00  0.00    +0.007 A 
ATOM     32  C   LIG    1       28.779 -19.548   5.933  0.00  0.00    +0.000 A 
ATOM     33  C   LIG    1       29.714 -20.043   6.819  0.00  0.00    +0.000 A 
ATOM     34  C   LIG    1       29.325 -20.976   7.784  0.00  0.00    +0.000 A 
ATOM     35  C   LIG    1       27.993 -21.405   7.840  0.00  0.00    +0.007 A 
ENDBRANCH  23  30
BRANCH  23  36
ATOM     36  O   LIG    1       25.119 -20.777   8.376  0.00  0.00    -0.379 OA
ATOM     37  H   LIG    1       24.151 -20.843   8.413  0.00  0.00    +0.211 HD
ENDBRANCH  23  36
ENDBRANCH   4  23
TORSDOF 11
ENDMDL
MODEL 5
REMARK VINA RESULT:      -9.0      1.648      9.035
REMARK  Name = *****
REMARK                            x       y       z     vdW  Elec       q    Type
REMARK                         _______ _______ _______ _____ _____    ______ ____
ROOT
ATOM      1  N   LIG    1       25.511 -27.113   5.211  0.00  0.00    -0.302 NA
ATOM      2  C   LIG    1       26.501 -27.084   6.287  0.00  0.00    +0.085 C 
ATOM      3  C   LIG    1       25.919 -27.313   7.682  0.00  0.00    +0.022 C 
ATOM      4  C   LIG    1       24.894 -28.478   7.822  0.00  0.00    +0.032 C 
ATOM      5  C   LIG    1       24.150 -28.784   6.497  0.00  0.00    +0.022 C 
ATOM      6  C   LIG    1       24.895 -28.443   5.209  0.00  0.00    +0.085 C 
ENDROOT
BRANCH   1   7
ATOM      7  C   LIG    1       24.519 -26.028   5.238  0.00  0.00    +0.084 C 
BRANCH   7   8
ATOM      8  C   LIG    1       25.129 -24.624   5.415  0.00  0.00    +0.018 C 
BRANCH   8   9
ATOM      9  C   LIG    1       24.494 -23.908   6.615  0.00  0.00    +0.037 C 
BRANCH   9  10
ATOM     10  C   LIG    1       24.395 -22.379   6.454  0.00  0.00    +0.144 C 
BRANCH  10  14
ATOM     11  C   LIG    1       28.252 -20.434   7.234  0.00  0.00    -0.042 A 
ATOM     12  C   LIG    1       27.407 -20.029   6.188  0.00  0.00    +0.004 A 
ATOM     13  C   LIG    1       26.170 -20.642   5.951  0.00  0.00    +0.006 A 
ATOM     14  C   LIG    1       25.732 -21.710   6.741  0.00  0.00    -0.019 A 
ATOM     15  C   LIG    1       26.565 -22.122   7.788  0.00  0.00    +0.006 A 
ATOM     16  C   LIG    1       27.801 -21.500   8.030  0.00  0.00    +0.004 A 
BRANCH  11  18
ATOM     17  C   LIG    1       30.634 -20.764   8.042  0.00  0.00    +0.015 C 
ATOM     18  C   LIG    1       29.598 -19.742   7.521  0.00  0.00    -0.013 C 
ATOM     19  C   LIG    1       30.178 -19.092   6.247  0.00  0.00    +0.015 C 
ATOM     20  C   LIG    1       29.462 -18.629   8.584  0.00  0.00    +0.015 C 
ENDBRANCH  11  18
ENDBRANCH  10  14
BRANCH  10  21
ATOM     21  O   LIG    1       23.397 -21.870   7.338  0.00  0.00    -0.387 OA
ATOM     22  H   LIG    1       23.174 -22.575   7.967  0.00  0.00    +0.210 HD
ENDBRANCH  10  21
ENDBRANCH   9  10
ENDBRANCH   8   9
ENDBRANCH   7   8
ENDBRANCH   1   7
BRANCH   4  23
ATOM     23  C   LIG    1       25.424 -29.744   8.612  0.00  0.00    +0.119 C 
BRANCH  23  24
ATOM     24  C   LIG    1       24.270 -30.723   8.904  0.00  0.00    -0.011 A 
ATOM     25  C   LIG    1       23.226 -30.354   9.769  0.00  0.00    +0.007 A 
ATOM     26  C   LIG    1       22.157 -31.211  10.025  0.00  0.00    +0.000 A 
ATOM     27  C   LIG    1       22.110 -32.461   9.411  0.00  0.00    +0.000 A 
ATOM     28  C   LIG    1       23.140 -32.854   8.562  0.00  0.00    +0.000 A 
ATOM     29  C   LIG    1       24.218 -32.000   8.317  0.00  0.00    +0.007 A 
ENDBRANCH  23  24
BRANCH  23  30
ATOM     30  C   LIG    1       26.277 -29.453   9.881  0.00  0.00    -0.011 A 
ATOM     31  C   LIG    1       27.541 -30.037  10.119  0.00  0.00    +0.007 A 
ATOM     32  C   LIG    1       28.294 -29.706  11.252  0.00  0.00    +0.000 A 
ATOM     33  C   LIG    1       27.817 -28.795  12.173  0.00  0.00    +0.000 A 
ATOM     34  C   LIG    1       26.567 -28.205  11.975  0.00  0.00    +0.000 A 
ATOM     35  C   LIG    1       25.806 -28.545  10.849  0.00  0.00    +0.007 A 
ENDBRANCH  23  30
BRANCH  23  36
ATOM     36  O   LIG    1       26.352 -30.402   7.717  0.00  0.00    -0.379 OA
ATOM     37  H   LIG    1       26.250 -29.983   6.847  0.00  0.00    +0.211 HD
ENDBRANCH  23  36
ENDBRANCH   4  23
TORSDOF 11
ENDMDL
MODEL 6
REMARK VINA RESULT:      -9.0      2.590      8.731
REMARK  Name = *****
REMARK                            x       y       z     vdW  Elec       q    Type
REMARK                         _______ _______ _______ _____ _____    ______ ____
ROOT
ATOM      1  N   LIG    1       25.124 -31.302   7.907  0.00  0.00    -0.302 NA
ATOM      2  C   LIG    1       26.180 -31.501   8.899  0.00  0.00    +0.085 C 
ATOM      3  C   LIG    1       26.433 -30.291   9.798  0.00  0.00    +0.022 C 
ATOM      4  C   LIG    1       25.172 -29.582  10.376  0.00  0.00    +0.032 C 
ATOM      5  C   LIG    1       23.917 -29.770   9.485  0.00  0.00    +0.022 C 
ATOM      6  C   LIG    1       23.878 -31.033   8.630  0.00  0.00    +0.085 C 
ENDROOT
BRANCH   1   7
ATOM      7  C   LIG    1       25.412 -30.293   6.875  0.00  0.00    +0.084 C 
BRANCH   7   8
ATOM      8  C   LIG    1       24.195 -29.914   6.011  0.00  0.00    +0.018 C 
BRANCH   8   9
ATOM      9  C   LIG    1       24.145 -28.396   5.786  0.00  0.00    +0.037 C 
BRANCH   9  10
ATOM     10  C   LIG    1       25.448 -27.663   6.157  0.00  0.00    +0.144 C 
BRANCH  10  14
ATOM     11  C   LIG    1       24.766 -23.377   6.818  0.00  0.00    -0.042 A 
ATOM     12  C   LIG    1       26.038 -23.960   6.939  0.00  0.00    +0.004 A 
ATOM     13  C   LIG    1       26.255 -25.326   6.713  0.00  0.00    +0.006 A 
ATOM     14  C   LIG    1       25.197 -26.177   6.376  0.00  0.00    -0.019 A 
ATOM     15  C   LIG    1       23.925 -25.608   6.252  0.00  0.00    +0.006 A 
ATOM     16  C   LIG    1       23.710 -24.236   6.470  0.00  0.00    +0.004 A 
BRANCH  11  18
ATOM     17  C   LIG    1       23.075 -21.611   7.494  0.00  0.00    +0.015 C 
ATOM     18  C   LIG    1       24.528 -21.871   7.032  0.00  0.00    -0.013 C 
ATOM     19  C   LIG    1       25.473 -21.299   8.110  0.00  0.00    +0.015 C 
ATOM     20  C   LIG    1       24.759 -21.057   5.738  0.00  0.00    +0.015 C 
ENDBRANCH  11  18
ENDBRANCH  10  14
BRANCH  10  21
ATOM     21  O   LIG    1       26.410 -27.845   5.119  0.00  0.00    -0.387 OA
ATOM     22  H   LIG    1       26.936 -28.631   5.340  0.00  0.00    +0.210 HD
ENDBRANCH  10  21
ENDBRANCH   9  10
ENDBRANCH   8   9
ENDBRANCH   7   8
ENDBRANCH   1   7
BRANCH   4  23
ATOM     23  C   LIG    1       24.940 -29.792  11.929  0.00  0.00    +0.119 C 
BRANCH  23  24
ATOM     24  C   LIG    1       24.004 -28.703  12.489  0.00  0.00    -0.011 A 
ATOM     25  C   LIG    1       24.530 -27.504  12.997  0.00  0.00    +0.007 A 
ATOM     26  C   LIG    1       23.702 -26.493  13.481  0.00  0.00    +0.000 A 
ATOM     27  C   LIG    1       22.320 -26.663  13.461  0.00  0.00    +0.000 A 
ATOM     28  C   LIG    1       21.775 -27.848  12.976  0.00  0.00    +0.000 A 
ATOM     29  C   LIG    1       22.607 -28.867  12.504  0.00  0.00    +0.007 A 
ENDBRANCH  23  24
BRANCH  23  30
ATOM     30  C   LIG    1       26.220 -29.962  12.797  0.00  0.00    -0.011 A 
ATOM     31  C   LIG    1       27.435 -29.293  12.532  0.00  0.00    +0.007 A 
ATOM     32  C   LIG    1       28.547 -29.440  13.371  0.00  0.00    +0.000 A 
ATOM     33  C   LIG    1       28.483 -30.249  14.487  0.00  0.00    +0.000 A 
ATOM     34  C   LIG    1       27.300 -30.934  14.776  0.00  0.00    +0.000 A 
ATOM     35  C   LIG    1       26.193 -30.799  13.929  0.00  0.00    +0.007 A 
ENDBRANCH  23  30
BRANCH  23  36
ATOM     36  O   LIG    1       24.266 -31.067  12.054  0.00  0.00    -0.379 OA
ATOM     37  H   LIG    1       24.942 -31.721  12.298  0.00  0.00    +0.211 HD
ENDBRANCH  23  36
ENDBRANCH   4  23
TORSDOF 11
ENDMDL
MODEL 7
REMARK VINA RESULT:      -8.8      1.543      2.452
REMARK  Name = *****
REMARK                            x       y       z     vdW  Elec       q    Type
REMARK                         _______ _______ _______ _____ _____    ______ ____
ROOT
ATOM      1  N   LIG    1       24.493 -25.734   6.647  0.00  0.00    -0.302 NA
ATOM      2  C   LIG    1       25.726 -25.088   7.097  0.00  0.00    +0.085 C 
ATOM      3  C   LIG    1       26.215 -23.964   6.184  0.00  0.00    +0.022 C 
ATOM      4  C   LIG    1       25.136 -22.953   5.693  0.00  0.00    +0.032 C 
ATOM      5  C   LIG    1       23.715 -23.568   5.647  0.00  0.00    +0.022 C 
ATOM      6  C   LIG    1       23.441 -24.713   6.618  0.00  0.00    +0.085 C 
ENDROOT
BRANCH   1   7
ATOM      7  C   LIG    1       24.597 -26.479   5.383  0.00  0.00    +0.084 C 
BRANCH   7   8
ATOM      8  C   LIG    1       25.132 -27.914   5.541  0.00  0.00    +0.018 C 
BRANCH   8   9
ATOM      9  C   LIG    1       24.493 -28.597   6.758  0.00  0.00    +0.037 C 
BRANCH   9  10
ATOM     10  C   LIG    1       25.508 -29.115   7.795  0.00  0.00    +0.144 C 
BRANCH  10  14
ATOM     11  C   LIG    1       23.527 -30.505  11.457  0.00  0.00    -0.042 A 
ATOM     12  C   LIG    1       24.816 -29.947  11.468  0.00  0.00    +0.004 A 
ATOM     13  C   LIG    1       25.440 -29.490  10.300  0.00  0.00    +0.006 A 
ATOM     14  C   LIG    1       24.806 -29.595   9.057  0.00  0.00    -0.019 A 
ATOM     15  C   LIG    1       23.520 -30.149   9.033  0.00  0.00    +0.006 A 
ATOM     16  C   LIG    1       22.893 -30.597  10.207  0.00  0.00    +0.004 A 
BRANCH  11  18
ATOM     17  C   LIG    1       23.148 -32.462  13.025  0.00  0.00    +0.015 C 
ATOM     18  C   LIG    1       22.824 -30.977  12.743  0.00  0.00    -0.013 C 
ATOM     19  C   LIG    1       23.278 -30.155  13.967  0.00  0.00    +0.015 C 
ATOM     20  C   LIG    1       21.287 -30.845  12.645  0.00  0.00    +0.015 C 
ENDBRANCH  11  18
ENDBRANCH  10  14
BRANCH  10  21
ATOM     21  O   LIG    1       26.431 -28.076   8.117  0.00  0.00    -0.387 OA
ATOM     22  H   LIG    1       27.301 -28.486   8.248  0.00  0.00    +0.210 HD
ENDBRANCH  10  21
ENDBRANCH   9  10
ENDBRANCH   8   9
ENDBRANCH   7   8
ENDBRANCH   1   7
BRANCH   4  23
ATOM     23  C   LIG    1       25.231 -21.509   6.337  0.00  0.00    +0.119 C 
BRANCH  23  24
ATOM     24  C   LIG    1       24.361 -20.507   5.552  0.00  0.00    -0.011 A 
ATOM     25  C   LIG    1       24.829 -19.947   4.351  0.00  0.00    +0.007 A 
ATOM     26  C   LIG    1       24.048 -19.062   3.609  0.00  0.00    +0.000 A 
ATOM     27  C   LIG    1       22.773 -18.723   4.055  0.00  0.00    +0.000 A 
ATOM     28  C   LIG    1       22.294 -19.254   5.249  0.00  0.00    +0.000 A 
ATOM     29  C   LIG    1       23.082 -20.130   6.000  0.00  0.00    +0.007 A 
ENDBRANCH  23  24
BRANCH  23  30
ATOM     30  C   LIG    1       26.667 -20.962   6.588  0.00  0.00    -0.011 A 
ATOM     31  C   LIG    1       27.348 -20.120   5.681  0.00  0.00    +0.007 A 
ATOM     32  C   LIG    1       28.620 -19.612   5.974  0.00  0.00    +0.000 A 
ATOM     33  C   LIG    1       29.246 -19.925   7.164  0.00  0.00    +0.000 A 
ATOM     34  C   LIG    1       28.605 -20.762   8.081  0.00  0.00    +0.000 A 
ATOM     35  C   LIG    1       27.339 -21.282   7.783  0.00  0.00    +0.007 A 
ENDBRANCH  23  30
BRANCH  23  36
ATOM     36  O   LIG    1       24.674 -21.637   7.667  0.00  0.00    -0.379 OA
ATOM     37  H   LIG    1       23.981 -22.315   7.618  0.00  0.00    +0.211 HD
ENDBRANCH  23  36
ENDBRANCH   4  23
TORSDOF 11
ENDMDL
MODEL 8
REMARK VINA RESULT:      -8.7      2.222      9.463
REMARK  Name = *****
REMARK                            x       y       z     vdW  Elec       q    Type
REMARK                         _______ _______ _______ _____ _____    ______ ____
ROOT
ATOM      1  N   LIG    1       25.739 -26.480   5.053  0.00  0.00    -0.302 NA
ATOM      2  C   LIG    1       26.627 -27.607   5.336  0.00  0.00    +0.085 C 
ATOM      3  C   LIG    1       26.358 -28.298   6.673  0.00  0.00    +0.022 C 
ATOM      4  C   LIG    1       24.866 -28.592   7.012  0.00  0.00    +0.032 C 
ATOM      5  C   LIG    1       23.889 -27.610   6.316  0.00  0.00    +0.022 C 
ATOM      6  C   LIG    1       24.367 -26.996   5.004  0.00  0.00    +0.085 C 
ENDROOT
BRANCH   1   7
ATOM      7  C   LIG    1       25.880 -25.325   5.953  0.00  0.00    +0.084 C 
BRANCH   7   8
ATOM      8  C   LIG    1       25.032 -24.105   5.547  0.00  0.00    +0.018 C 
BRANCH   8   9
ATOM      9  C   LIG    1       24.274 -23.548   6.760  0.00  0.00    +0.037 C 
BRANCH   9  10
ATOM     10  C   LIG    1       24.216 -22.009   6.813  0.00  0.00    +0.144 C 
BRANCH  10  14
ATOM     11  C   LIG    1       28.213 -20.299   7.418  0.00  0.00    -0.042 A 
ATOM     12  C   LIG    1       27.610 -21.147   8.362  0.00  0.00    +0.004 A 
ATOM     13  C   LIG    1       26.341 -21.703   8.159  0.00  0.00    +0.006 A 
ATOM     14  C   LIG    1       25.604 -21.414   7.006  0.00  0.00    -0.019 A 
ATOM     15  C   LIG    1       26.194 -20.571   6.057  0.00  0.00    +0.006 A 
ATOM     16  C   LIG    1       27.471 -20.021   6.258  0.00  0.00    +0.004 A 
BRANCH  11  18
ATOM     17  C   LIG    1       30.183 -19.172   6.285  0.00  0.00    +0.015 C 
ATOM     18  C   LIG    1       29.622 -19.712   7.621  0.00  0.00    -0.013 C 
ATOM     19  C   LIG    1       29.606 -18.544   8.630  0.00  0.00    +0.015 C 
ATOM     20  C   LIG    1       30.619 -20.766   8.154  0.00  0.00    +0.015 C 
ENDBRANCH  11  18
ENDBRANCH  10  14
BRANCH  10  21
ATOM     21  O   LIG    1       23.359 -21.601   7.878  0.00  0.00    -0.387 OA
ATOM     22  H   LIG    1       23.577 -20.680   8.094  0.00  0.00    +0.210 HD
ENDBRANCH  10  21
ENDBRANCH   9  10
ENDBRANCH   8   9
ENDBRANCH   7   8
ENDBRANCH   1   7
BRANCH   4  23
ATOM     23  C   LIG    1       24.454 -30.120   6.950  0.00  0.00    +0.119 C 
BRANCH  23  24
ATOM     24  C   LIG    1       23.930 -30.596   8.319  0.00  0.00    -0.011 A 
ATOM     25  C   LIG    1       23.219 -31.803   8.428  0.00  0.00    +0.007 A 
ATOM     26  C   LIG    1       22.762 -32.269   9.659  0.00  0.00    +0.000 A 
ATOM     27  C   LIG    1       23.013 -31.532  10.814  0.00  0.00    +0.000 A 
ATOM     28  C   LIG    1       23.702 -30.326  10.729  0.00  0.00    +0.000 A 
ATOM     29  C   LIG    1       24.149 -29.852   9.493  0.00  0.00    +0.007 A 
ENDBRANCH  23  24
BRANCH  23  30
ATOM     30  C   LIG    1       25.516 -31.094   6.361  0.00  0.00    -0.011 A 
ATOM     31  C   LIG    1       26.471 -31.772   7.149  0.00  0.00    +0.007 A 
ATOM     32  C   LIG    1       27.375 -32.678   6.580  0.00  0.00    +0.000 A 
ATOM     33  C   LIG    1       27.356 -32.932   5.223  0.00  0.00    +0.000 A 
ATOM     34  C   LIG    1       26.430 -32.272   4.411  0.00  0.00    +0.000 A 
ATOM     35  C   LIG    1       25.535 -31.355   4.978  0.00  0.00    +0.007 A 
ENDBRANCH  23  30
BRANCH  23  36
ATOM     36  O   LIG    1       23.359 -30.190   6.004  0.00  0.00    -0.379 OA
ATOM     37  H   LIG    1       23.707 -30.610   5.201  0.00  0.00    +0.211 HD
ENDBRANCH  23  36
ENDBRANCH   4  23
TORSDOF 11
ENDMDL
MODEL 9
REMARK VINA RESULT:      -8.6      2.075      2.948
REMARK  Name = *****
REMARK                            x       y       z     vdW  Elec       q    Type
REMARK                         _______ _______ _______ _____ _____    ______ ____
ROOT
ATOM      1  N   LIG    1       25.325 -25.266   5.515  0.00  0.00    -0.302 NA
ATOM      2  C   LIG    1       24.677 -24.179   4.783  0.00  0.00    +0.085 C 
ATOM      3  C   LIG    1       23.871 -23.222   5.661  0.00  0.00    +0.022 C 
ATOM      4  C   LIG    1       24.554 -22.753   6.981  0.00  0.00    +0.032 C 
ATOM      5  C   LIG    1       25.594 -23.771   7.513  0.00  0.00    +0.022 C 
ATOM      6  C   LIG    1       26.261 -24.665   6.470  0.00  0.00    +0.085 C 
ENDROOT
BRANCH   1   7
ATOM      7  C   LIG    1       24.412 -26.232   6.146  0.00  0.00    +0.084 C 
BRANCH   7   8
ATOM      8  C   LIG    1       24.590 -27.680   5.652  0.00  0.00    +0.018 C 
BRANCH   8   9
ATOM      9  C   LIG    1       25.079 -28.583   6.793  0.00  0.00    +0.037 C 
BRANCH   9  10
ATOM     10  C   LIG    1       24.830 -30.085   6.558  0.00  0.00    +0.144 C 
BRANCH  10  14
ATOM     11  C   LIG    1       22.962 -31.987  10.044  0.00  0.00    -0.042 A 
ATOM     12  C   LIG    1       23.362 -32.721   8.916  0.00  0.00    +0.004 A 
ATOM     13  C   LIG    1       23.972 -32.113   7.811  0.00  0.00    +0.006 A 
ATOM     14  C   LIG    1       24.187 -30.731   7.777  0.00  0.00    -0.019 A 
ATOM     15  C   LIG    1       23.793 -29.989   8.896  0.00  0.00    +0.006 A 
ATOM     16  C   LIG    1       23.191 -30.602  10.008  0.00  0.00    +0.004 A 
BRANCH  11  18
ATOM     17  C   LIG    1       21.946 -31.595  12.335  0.00  0.00    +0.015 C 
ATOM     18  C   LIG    1       22.323 -32.656  11.276  0.00  0.00    -0.013 C 
ATOM     19  C   LIG    1       21.037 -33.420  10.897  0.00  0.00    +0.015 C 
ATOM     20  C   LIG    1       23.278 -33.668  11.948  0.00  0.00    +0.015 C 
ENDBRANCH  11  18
ENDBRANCH  10  14
BRANCH  10  21
ATOM     21  O   LIG    1       26.066 -30.732   6.259  0.00  0.00    -0.387 OA
ATOM     22  H   LIG    1       25.888 -31.682   6.173  0.00  0.00    +0.210 HD
ENDBRANCH  10  21
ENDBRANCH   9  10
ENDBRANCH   8   9
ENDBRANCH   7   8
ENDBRANCH   1   7
BRANCH   4  23
ATOM     23  C   LIG    1       25.018 -21.239   6.992  0.00  0.00    +0.119 C 
BRANCH  23  24
ATOM     24  C   LIG    1       24.323 -20.451   5.864  0.00  0.00    -0.011 A 
ATOM     25  C   LIG    1       24.978 -20.232   4.641  0.00  0.00    +0.007 A 
ATOM     26  C   LIG    1       24.358 -19.549   3.596  0.00  0.00    +0.000 A 
ATOM     27  C   LIG    1       23.059 -19.072   3.756  0.00  0.00    +0.000 A 
ATOM     28  C   LIG    1       22.395 -19.264   4.964  0.00  0.00    +0.000 A 
ATOM     29  C   LIG    1       23.022 -19.937   6.015  0.00  0.00    +0.007 A 
ENDBRANCH  23  24
BRANCH  23  30
ATOM     30  C   LIG    1       26.554 -20.991   7.014  0.00  0.00    -0.011 A 
ATOM     31  C   LIG    1       27.413 -21.521   8.002  0.00  0.00    +0.007 A 
ATOM     32  C   LIG    1       28.797 -21.313   7.953  0.00  0.00    +0.000 A 
ATOM     33  C   LIG    1       29.361 -20.578   6.930  0.00  0.00    +0.000 A 
ATOM     34  C   LIG    1       28.541 -20.031   5.940  0.00  0.00    +0.000 A 
ATOM     35  C   LIG    1       27.156 -20.227   5.996  0.00  0.00    +0.007 A 
ENDBRANCH  23  30
BRANCH  23  36
ATOM     36  O   LIG    1       24.564 -20.701   8.257  0.00  0.00    -0.379 OA
ATOM     37  H   LIG    1       23.605 -20.568   8.179  0.00  0.00    +0.211 HD
ENDBRANCH  23  36
ENDBRANCH   4  23
TORSDOF 11
ENDMDL
