MODEL 1
REMARK VINA RESULT:      -6.4      0.000      0.000
REMARK  Name = *****
REMARK                            x       y       z     vdW  Elec       q    Type
REMARK                         _______ _______ _______ _____ _____    ______ ____
ROOT
ATOM      1  C   LIG    1       24.790 -31.134   8.393  0.00  0.00    +0.180 C 
ATOM      2  C   LIG    1       25.494 -31.652   9.720  0.00  0.00    +0.021 C 
ATOM      3  C   LIG    1       24.459 -31.255  10.830  0.00  0.00    +0.006 C 
ATOM      4  C   LIG    1       24.711 -29.906  11.569  0.00  0.00    +0.037 C 
ATOM      5  C   LIG    1       26.190 -29.727  11.980  0.00  0.00    +0.153 C 
ATOM      6  C   LIG    1       27.020 -29.749  10.674  0.00  0.00    +0.154 C 
ATOM      7  F   LIG    1       26.500 -30.868  12.694  0.00  0.00    -0.238 F 
ATOM      8  C   LIG    1       26.503 -28.490  12.931  0.00  0.00    +0.047 C 
ATOM      9  C   LIG    1       25.361 -28.183  13.933  0.00  0.00    -0.020 C 
ATOM     10  C   LIG    1       25.491 -27.093  14.731  0.00  0.00    +0.054 C 
ATOM     11  C   LIG    1       25.588 -25.845  13.881  0.00  0.00    +0.179 C 
ATOM     12  C   LIG    1       26.331 -25.975  12.595  0.00  0.00    +0.047 C 
ATOM     13  O   LIG    1       25.182 -24.764  14.282  0.00  0.00    -0.288 OA
ATOM     14  C   LIG    1       23.952 -28.474  13.475  0.00  0.00    +0.194 C 
ATOM     15  F   LIG    1       23.549 -27.526  12.578  0.00  0.00    -0.241 F 
ATOM     16  C   LIG    1       27.785 -28.828  13.751  0.00  0.00    +0.023 C 
ATOM     17  C   LIG    1       26.778 -27.175  12.180  0.00  0.00    -0.009 C 
ATOM     18  C   LIG    1       23.805 -29.822  12.804  0.00  0.00    +0.048 C 
ATOM     19  C   LIG    1       23.081 -31.293  10.121  0.00  0.00    +0.009 C 
ATOM     20  C   LIG    1       25.638 -33.200   9.781  0.00  0.00    +0.016 C 
ATOM     21  C   LIG    1       26.908 -31.091   9.982  0.00  0.00    +0.045 C 
ATOM     22  C   LIG    1       23.347 -31.617   8.651  0.00  0.00    +0.057 C 
ENDROOT
BRANCH   6  23
ATOM     23  O   LIG    1       28.412 -29.501  10.884  0.00  0.00    -0.389 OA
ATOM     24  H   LIG    1       28.509 -28.716  11.451  0.00  0.00    +0.210 HD
ENDBRANCH   6  23
BRANCH   1  25
ATOM     25  C   LIG    1       25.349 -31.709   7.052  0.00  0.00    +0.214 C 
ATOM     26  O   LIG    1       26.517 -31.524   6.699  0.00  0.00    -0.289 OA
BRANCH  25  27
ATOM     27  C   LIG    1       24.382 -32.507   6.177  0.00  0.00    +0.310 C 
BRANCH  27  28
ATOM     28  O   LIG    1       25.004 -33.477   5.337  0.00  0.00    -0.457 OA
BRANCH  28  29
ATOM     29  C   LIG    1       24.687 -33.389   4.016  0.00  0.00    +0.304 C 
ATOM     30  O   LIG    1       23.669 -33.824   3.508  0.00  0.00    -0.251 OA
ATOM     31  C   LIG    1       25.767 -32.691   3.253  0.00  0.00    +0.136 C 
ENDBRANCH  28  29
ENDBRANCH  27  28
ENDBRANCH  25  27
ENDBRANCH   1  25
BRANCH   1  32
ATOM     32  O   LIG    1       24.885 -29.683   8.463  0.00  0.00    -0.450 OA
BRANCH  32  33
ATOM     33  C   LIG    1       24.673 -28.910   7.344  0.00  0.00    +0.308 C 
ATOM     34  O   LIG    1       23.785 -29.062   6.535  0.00  0.00    -0.251 OA
BRANCH  33  35
ATOM     35  C   LIG    1       25.725 -27.806   7.301  0.00  0.00    +0.120 C 
BRANCH  35  37
ATOM     36  C   LIG    1       25.026 -25.548   6.437  0.00  0.00    +0.004 C 
ATOM     37  C   LIG    1       25.536 -26.931   6.070  0.00  0.00    +0.008 C 
ENDBRANCH  35  37
ENDBRANCH  33  35
ENDBRANCH  32  33
ENDBRANCH   1  32
TORSDOF 9
ENDMDL
MODEL 2
REMARK VINA RESULT:      -6.0      1.708      2.293
REMARK  Name = *****
REMARK                            x       y       z     vdW  Elec       q    Type
REMARK                         _______ _______ _______ _____ _____    ______ ____
ROOT
ATOM      1  C   LIG    1       23.928 -30.937  10.322  0.00  0.00    +0.180 C 
ATOM      2  C   LIG    1       24.152 -31.132  11.883  0.00  0.00    +0.021 C 
ATOM      3  C   LIG    1       23.111 -30.135  12.502  0.00  0.00    +0.006 C 
ATOM      4  C   LIG    1       23.645 -28.725  12.896  0.00  0.00    +0.037 C 
ATOM      5  C   LIG    1       24.990 -28.794  13.651  0.00  0.00    +0.153 C 
ATOM      6  C   LIG    1       26.003 -29.466  12.694  0.00  0.00    +0.154 C 
ATOM      7  F   LIG    1       24.764 -29.663  14.700  0.00  0.00    -0.238 F 
ATOM      8  C   LIG    1       25.503 -27.428  14.287  0.00  0.00    +0.047 C 
ATOM      9  C   LIG    1       24.355 -26.522  14.800  0.00  0.00    -0.020 C 
ATOM     10  C   LIG    1       24.679 -25.296  15.282  0.00  0.00    +0.054 C 
ATOM     11  C   LIG    1       25.343 -24.479  14.197  0.00  0.00    +0.179 C 
ATOM     12  C   LIG    1       26.236 -25.221  13.261  0.00  0.00    +0.047 C 
ATOM     13  O   LIG    1       25.246 -23.261  14.161  0.00  0.00    -0.288 OA
ATOM     14  C   LIG    1       23.045 -26.588  14.051  0.00  0.00    +0.194 C 
ATOM     15  F   LIG    1       23.158 -25.933  12.859  0.00  0.00    -0.241 F 
ATOM     16  C   LIG    1       26.418 -27.778  15.500  0.00  0.00    +0.023 C 
ATOM     17  C   LIG    1       26.334 -26.561  13.326  0.00  0.00    -0.009 C 
ATOM     18  C   LIG    1       22.595 -28.001  13.750  0.00  0.00    +0.048 C 
ATOM     19  C   LIG    1       21.961 -30.064  11.463  0.00  0.00    +0.009 C 
ATOM     20  C   LIG    1       23.764 -32.551  12.392  0.00  0.00    +0.016 C 
ATOM     21  C   LIG    1       25.592 -30.890  12.381  0.00  0.00    +0.045 C 
ATOM     22  C   LIG    1       22.386 -30.925  10.273  0.00  0.00    +0.057 C 
ENDROOT
BRANCH   6  23
ATOM     23  O   LIG    1       27.331 -29.520  13.221  0.00  0.00    -0.389 OA
ATOM     24  H   LIG    1       27.961 -29.565  12.481  0.00  0.00    +0.210 HD
ENDBRANCH   6  23
BRANCH   1  25
ATOM     25  C   LIG    1       24.515 -32.055   9.401  0.00  0.00    +0.214 C 
ATOM     26  O   LIG    1       25.687 -32.431   9.497  0.00  0.00    -0.289 OA
BRANCH  25  27
ATOM     27  C   LIG    1       23.579 -32.664   8.357  0.00  0.00    +0.310 C 
BRANCH  27  28
ATOM     28  O   LIG    1       24.224 -33.098   7.162  0.00  0.00    -0.457 OA
BRANCH  28  29
ATOM     29  C   LIG    1       24.238 -32.191   6.148  0.00  0.00    +0.304 C 
ATOM     30  O   LIG    1       23.265 -31.585   5.735  0.00  0.00    -0.251 OA
ATOM     31  C   LIG    1       25.615 -32.037   5.586  0.00  0.00    +0.136 C 
ENDBRANCH  28  29
ENDBRANCH  27  28
ENDBRANCH  25  27
ENDBRANCH   1  25
BRANCH   1  32
ATOM     32  O   LIG    1       24.480 -29.622  10.028  0.00  0.00    -0.450 OA
BRANCH  32  33
ATOM     33  C   LIG    1       25.375 -29.450   8.996  0.00  0.00    +0.308 C 
ATOM     34  O   LIG    1       26.576 -29.571   9.073  0.00  0.00    -0.251 OA
BRANCH  33  35
ATOM     35  C   LIG    1       24.601 -29.107   7.726  0.00  0.00    +0.120 C 
BRANCH  35  37
ATOM     36  C   LIG    1       24.372 -27.213   6.086  0.00  0.00    +0.004 C 
ATOM     37  C   LIG    1       25.332 -28.040   6.924  0.00  0.00    +0.008 C 
ENDBRANCH  35  37
ENDBRANCH  33  35
ENDBRANCH  32  33
ENDBRANCH   1  32
TORSDOF 9
ENDMDL
MODEL 3
REMARK VINA RESULT:      -5.4      3.798      6.017
REMARK  Name = *****
REMARK                            x       y       z     vdW  Elec       q    Type
REMARK                         _______ _______ _______ _____ _____    ______ ____
ROOT
ATOM      1  C   LIG    1       21.224 -30.772  12.431  0.00  0.00    +0.180 C 
ATOM      2  C   LIG    1       22.609 -31.476  12.103  0.00  0.00    +0.021 C 
ATOM      3  C   LIG    1       23.352 -31.423  13.484  0.00  0.00    +0.006 C 
ATOM      4  C   LIG    1       24.339 -30.237  13.700  0.00  0.00    +0.037 C 
ATOM      5  C   LIG    1       25.249 -29.996  12.476  0.00  0.00    +0.153 C 
ATOM      6  C   LIG    1       24.316 -29.665  11.287  0.00  0.00    +0.154 C 
ATOM      7  F   LIG    1       25.833 -31.221  12.222  0.00  0.00    -0.238 F 
ATOM      8  C   LIG    1       26.435 -28.955  12.683  0.00  0.00    +0.047 C 
ATOM      9  C   LIG    1       27.027 -28.978  14.115  0.00  0.00    -0.020 C 
ATOM     10  C   LIG    1       27.985 -28.068  14.422  0.00  0.00    +0.054 C 
ATOM     11  C   LIG    1       27.430 -26.669  14.270  0.00  0.00    +0.179 C 
ATOM     12  C   LIG    1       26.467 -26.456  13.151  0.00  0.00    +0.047 C 
ATOM     13  O   LIG    1       27.837 -25.740  14.952  0.00  0.00    -0.288 OA
ATOM     14  C   LIG    1       26.079 -29.311  15.243  0.00  0.00    +0.194 C 
ATOM     15  F   LIG    1       25.262 -28.246  15.493  0.00  0.00    -0.241 F 
ATOM     16  C   LIG    1       27.574 -29.322  11.685  0.00  0.00    +0.023 C 
ATOM     17  C   LIG    1       26.042 -27.493  12.407  0.00  0.00    -0.009 C 
ATOM     18  C   LIG    1       25.191 -30.501  14.949  0.00  0.00    +0.048 C 
ATOM     19  C   LIG    1       22.222 -31.455  14.545  0.00  0.00    +0.009 C 
ATOM     20  C   LIG    1       22.467 -32.982  11.734  0.00  0.00    +0.016 C 
ATOM     21  C   LIG    1       23.421 -30.841  10.955  0.00  0.00    +0.045 C 
ATOM     22  C   LIG    1       20.897 -31.441  13.782  0.00  0.00    +0.057 C 
ENDROOT
BRANCH   6  23
ATOM     23  O   LIG    1       25.021 -29.325  10.090  0.00  0.00    -0.389 OA
ATOM     24  H   LIG    1       25.921 -29.692  10.142  0.00  0.00    +0.210 HD
ENDBRANCH   6  23
BRANCH   1  25
ATOM     25  C   LIG    1       20.077 -31.000  11.394  0.00  0.00    +0.214 C 
ATOM     26  O   LIG    1       20.130 -30.536  10.252  0.00  0.00    -0.289 OA
BRANCH  25  27
ATOM     27  C   LIG    1       18.869 -31.815  11.855  0.00  0.00    +0.310 C 
BRANCH  27  28
ATOM     28  O   LIG    1       17.605 -31.239  11.531  0.00  0.00    -0.457 OA
BRANCH  28  29
ATOM     29  C   LIG    1       16.756 -31.078  12.582  0.00  0.00    +0.304 C 
ATOM     30  O   LIG    1       16.653 -30.067  13.252  0.00  0.00    -0.251 OA
ATOM     31  C   LIG    1       15.959 -32.322  12.820  0.00  0.00    +0.136 C 
ENDBRANCH  28  29
ENDBRANCH  27  28
ENDBRANCH  25  27
ENDBRANCH   1  25
BRANCH   1  32
ATOM     32  O   LIG    1       21.553 -29.364  12.602  0.00  0.00    -0.450 OA
BRANCH  32  33
ATOM     33  C   LIG    1       20.657 -28.498  13.187  0.00  0.00    +0.308 C 
ATOM     34  O   LIG    1       19.701 -28.815  13.859  0.00  0.00    -0.251 OA
BRANCH  33  35
ATOM     35  C   LIG    1       21.080 -27.066  12.875  0.00  0.00    +0.120 C 
BRANCH  35  37
ATOM     36  C   LIG    1       22.688 -26.502  14.726  0.00  0.00    +0.004 C 
ATOM     37  C   LIG    1       22.538 -26.841  13.253  0.00  0.00    +0.008 C 
ENDBRANCH  35  37
ENDBRANCH  33  35
ENDBRANCH  32  33
ENDBRANCH   1  32
TORSDOF 9
ENDMDL
MODEL 4
REMARK VINA RESULT:      -5.4      2.346      3.006
REMARK  Name = *****
REMARK                            x       y       z     vdW  Elec       q    Type
REMARK                         _______ _______ _______ _____ _____    ______ ____
ROOT
ATOM      1  C   LIG    1       24.759 -31.958   9.004  0.00  0.00    +0.180 C 
ATOM      2  C   LIG    1       24.733 -32.401  10.529  0.00  0.00    +0.021 C 
ATOM      3  C   LIG    1       23.196 -32.489  10.831  0.00  0.00    +0.006 C 
ATOM      4  C   LIG    1       22.541 -31.236  11.486  0.00  0.00    +0.037 C 
ATOM      5  C   LIG    1       23.388 -30.666  12.645  0.00  0.00    +0.153 C 
ATOM      6  C   LIG    1       24.754 -30.262  12.040  0.00  0.00    +0.154 C 
ATOM      7  F   LIG    1       23.603 -31.738  13.488  0.00  0.00    -0.238 F 
ATOM      8  C   LIG    1       22.699 -29.527  13.516  0.00  0.00    +0.047 C 
ATOM      9  C   LIG    1       21.169 -29.718  13.675  0.00  0.00    -0.020 C 
ATOM     10  C   LIG    1       20.472 -28.754  14.328  0.00  0.00    +0.054 C 
ATOM     11  C   LIG    1       20.610 -27.438  13.595  0.00  0.00    +0.179 C 
ATOM     12  C   LIG    1       21.933 -27.166  12.965  0.00  0.00    +0.047 C 
ATOM     13  O   LIG    1       19.725 -26.595  13.619  0.00  0.00    -0.288 OA
ATOM     14  C   LIG    1       20.437 -30.366  12.524  0.00  0.00    +0.194 C 
ATOM     15  F   LIG    1       20.316 -29.480  11.492  0.00  0.00    -0.241 F 
ATOM     16  C   LIG    1       23.338 -29.558  14.937  0.00  0.00    +0.023 C 
ATOM     17  C   LIG    1       22.896 -28.105  12.961  0.00  0.00    -0.009 C 
ATOM     18  C   LIG    1       21.135 -31.596  11.985  0.00  0.00    +0.048 C 
ATOM     19  C   LIG    1       22.544 -32.857   9.473  0.00  0.00    +0.009 C 
ATOM     20  C   LIG    1       25.314 -33.825  10.771  0.00  0.00    +0.016 C 
ATOM     21  C   LIG    1       25.489 -31.472  11.502  0.00  0.00    +0.045 C 
ATOM     22  C   LIG    1       23.668 -32.890   8.436  0.00  0.00    +0.057 C 
ENDROOT
BRANCH   6  23
ATOM     23  O   LIG    1       25.624 -29.628  12.981  0.00  0.00    -0.389 OA
ATOM     24  H   LIG    1       25.903 -30.285  13.643  0.00  0.00    +0.210 HD
ENDBRANCH   6  23
BRANCH   1  25
ATOM     25  C   LIG    1       26.117 -32.155   8.256  0.00  0.00    +0.214 C 
ATOM     26  O   LIG    1       27.117 -31.487   8.534  0.00  0.00    -0.289 OA
BRANCH  25  27
ATOM     27  C   LIG    1       26.159 -33.206   7.148  0.00  0.00    +0.310 C 
BRANCH  27  28
ATOM     28  O   LIG    1       26.919 -32.831   6.001  0.00  0.00    -0.457 OA
BRANCH  28  29
ATOM     29  C   LIG    1       26.198 -32.649   4.862  0.00  0.00    +0.304 C 
ATOM     30  O   LIG    1       25.924 -33.522   4.057  0.00  0.00    -0.251 OA
ATOM     31  C   LIG    1       25.787 -31.218   4.712  0.00  0.00    +0.136 C 
ENDBRANCH  28  29
ENDBRANCH  27  28
ENDBRANCH  25  27
ENDBRANCH   1  25
BRANCH   1  32
ATOM     32  O   LIG    1       24.320 -30.569   9.012  0.00  0.00    -0.450 OA
BRANCH  32  33
ATOM     33  C   LIG    1       24.319 -29.826   7.854  0.00  0.00    +0.308 C 
ATOM     34  O   LIG    1       23.565 -29.971   6.919  0.00  0.00    -0.251 OA
BRANCH  33  35
ATOM     35  C   LIG    1       25.410 -28.763   7.951  0.00  0.00    +0.120 C 
BRANCH  35  37
ATOM     36  C   LIG    1       25.541 -26.480   6.901  0.00  0.00    +0.004 C 
ATOM     37  C   LIG    1       25.512 -27.977   6.650  0.00  0.00    +0.008 C 
ENDBRANCH  35  37
ENDBRANCH  33  35
ENDBRANCH  32  33
ENDBRANCH   1  32
TORSDOF 9
ENDMDL
MODEL 5
REMARK VINA RESULT:      -5.2      2.388      7.495
REMARK  Name = *****
REMARK                            x       y       z     vdW  Elec       q    Type
REMARK                         _______ _______ _______ _____ _____    ______ ____
ROOT
ATOM      1  C   LIG    1       24.782 -29.298  13.341  0.00  0.00    +0.180 C 
ATOM      2  C   LIG    1       23.847 -30.560  13.103  0.00  0.00    +0.021 C 
ATOM      3  C   LIG    1       24.873 -31.670  12.684  0.00  0.00    +0.006 C 
ATOM      4  C   LIG    1       25.073 -31.895  11.155  0.00  0.00    +0.037 C 
ATOM      5  C   LIG    1       23.734 -31.940  10.387  0.00  0.00    +0.153 C 
ATOM      6  C   LIG    1       23.047 -30.572  10.609  0.00  0.00    +0.154 C 
ATOM      7  F   LIG    1       22.983 -32.898  11.039  0.00  0.00    -0.238 F 
ATOM      8  C   LIG    1       23.822 -32.385   8.861  0.00  0.00    +0.047 C 
ATOM      9  C   LIG    1       24.924 -33.442   8.593  0.00  0.00    -0.020 C 
ATOM     10  C   LIG    1       25.140 -33.825   7.310  0.00  0.00    +0.054 C 
ATOM     11  C   LIG    1       25.560 -32.630   6.483  0.00  0.00    +0.179 C 
ATOM     12  C   LIG    1       24.914 -31.330   6.822  0.00  0.00    +0.047 C 
ATOM     13  O   LIG    1       26.299 -32.747   5.517  0.00  0.00    -0.288 OA
ATOM     14  C   LIG    1       26.161 -33.374   9.456  0.00  0.00    +0.194 C 
ATOM     15  F   LIG    1       26.941 -32.323   9.068  0.00  0.00    -0.241 F 
ATOM     16  C   LIG    1       22.450 -33.009   8.464  0.00  0.00    +0.023 C 
ATOM     17  C   LIG    1       24.095 -31.228   7.884  0.00  0.00    -0.009 C 
ATOM     18  C   LIG    1       25.859 -33.193  10.928  0.00  0.00    +0.048 C 
ATOM     19  C   LIG    1       26.192 -31.284  13.404  0.00  0.00    +0.009 C 
ATOM     20  C   LIG    1       23.149 -31.067  14.399  0.00  0.00    +0.016 C 
ATOM     21  C   LIG    1       22.716 -30.362  12.072  0.00  0.00    +0.045 C 
ATOM     22  C   LIG    1       25.931 -29.962  14.128  0.00  0.00    +0.057 C 
ENDROOT
BRANCH   6  23
ATOM     23  O   LIG    1       21.827 -30.425   9.878  0.00  0.00    -0.389 OA
ATOM     24  H   LIG    1       21.635 -29.477   9.775  0.00  0.00    +0.210 HD
ENDBRANCH   6  23
BRANCH   1  25
ATOM     25  C   LIG    1       24.150 -28.119  14.148  0.00  0.00    +0.214 C 
ATOM     26  O   LIG    1       24.514 -27.844  15.294  0.00  0.00    -0.289 OA
BRANCH  25  27
ATOM     27  C   LIG    1       23.042 -27.318  13.463  0.00  0.00    +0.310 C 
BRANCH  27  28
ATOM     28  O   LIG    1       22.331 -26.431  14.324  0.00  0.00    -0.457 OA
BRANCH  28  29
ATOM     29  C   LIG    1       20.987 -26.632  14.382  0.00  0.00    +0.304 C 
ATOM     30  O   LIG    1       20.263 -26.280  15.296  0.00  0.00    -0.251 OA
ATOM     31  C   LIG    1       20.503 -27.361  13.169  0.00  0.00    +0.136 C 
ENDBRANCH  28  29
ENDBRANCH  27  28
ENDBRANCH  25  27
ENDBRANCH   1  25
BRANCH   1  32
ATOM     32  O   LIG    1       25.213 -28.898  12.008  0.00  0.00    -0.450 OA
BRANCH  32  33
ATOM     33  C   LIG    1       26.301 -28.072  11.840  0.00  0.00    +0.308 C 
ATOM     34  O   LIG    1       26.519 -27.052  12.454  0.00  0.00    -0.251 OA
BRANCH  33  35
ATOM     35  C   LIG    1       27.210 -28.668  10.769  0.00  0.00    +0.120 C 
BRANCH  35  37
ATOM     36  C   LIG    1       26.357 -28.098   8.472  0.00  0.00    +0.004 C 
ATOM     37  C   LIG    1       26.394 -29.141   9.574  0.00  0.00    +0.008 C 
ENDBRANCH  35  37
ENDBRANCH  33  35
ENDBRANCH  32  33
ENDBRANCH   1  32
TORSDOF 9
ENDMDL
MODEL 6
REMARK VINA RESULT:      -5.1      3.855      6.672
REMARK  Name = *****
REMARK                            x       y       z     vdW  Elec       q    Type
REMARK                         _______ _______ _______ _____ _____    ______ ____
ROOT
ATOM      1  C   LIG    1       20.710 -31.092  14.033  0.00  0.00    +0.180 C 
ATOM      2  C   LIG    1       21.767 -32.221  13.674  0.00  0.00    +0.021 C 
ATOM      3  C   LIG    1       23.136 -31.504  13.943  0.00  0.00    +0.006 C 
ATOM      4  C   LIG    1       23.841 -30.860  12.712  0.00  0.00    +0.037 C 
ATOM      5  C   LIG    1       23.840 -31.791  11.479  0.00  0.00    +0.153 C 
ATOM      6  C   LIG    1       22.357 -32.060  11.127  0.00  0.00    +0.154 C 
ATOM      7  F   LIG    1       24.386 -32.976  11.929  0.00  0.00    -0.238 F 
ATOM      8  C   LIG    1       24.726 -31.314  10.246  0.00  0.00    +0.047 C 
ATOM      9  C   LIG    1       26.016 -30.567  10.671  0.00  0.00    -0.020 C 
ATOM     10  C   LIG    1       26.798 -30.043   9.694  0.00  0.00    +0.054 C 
ATOM     11  C   LIG    1       26.014 -29.017   8.906  0.00  0.00    +0.179 C 
ATOM     12  C   LIG    1       24.569 -29.312   8.687  0.00  0.00    +0.047 C 
ATOM     13  O   LIG    1       26.561 -28.059   8.378  0.00  0.00    -0.288 OA
ATOM     14  C   LIG    1       25.948 -29.751  11.940  0.00  0.00    +0.194 C 
ATOM     15  F   LIG    1       25.241 -28.605  11.719  0.00  0.00    -0.241 F 
ATOM     16  C   LIG    1       25.147 -32.581   9.441  0.00  0.00    +0.023 C 
ATOM     17  C   LIG    1       23.992 -30.378   9.270  0.00  0.00    -0.009 C 
ATOM     18  C   LIG    1       25.279 -30.479  13.087  0.00  0.00    +0.048 C 
ATOM     19  C   LIG    1       22.830 -30.470  15.058  0.00  0.00    +0.009 C 
ATOM     20  C   LIG    1       21.714 -33.448  14.631  0.00  0.00    +0.016 C 
ATOM     21  C   LIG    1       21.659 -32.802  12.248  0.00  0.00    +0.045 C 
ATOM     22  C   LIG    1       21.329 -30.552  15.339  0.00  0.00    +0.057 C 
ENDROOT
BRANCH   6  23
ATOM     23  O   LIG    1       22.189 -32.841   9.941  0.00  0.00    -0.389 OA
ATOM     24  H   LIG    1       21.238 -32.960   9.776  0.00  0.00    +0.210 HD
ENDBRANCH   6  23
BRANCH   1  25
ATOM     25  C   LIG    1       19.241 -31.576  14.260  0.00  0.00    +0.214 C 
ATOM     26  O   LIG    1       18.687 -31.486  15.358  0.00  0.00    -0.289 OA
BRANCH  25  27
ATOM     27  C   LIG    1       18.512 -32.182  13.061  0.00  0.00    +0.310 C 
BRANCH  27  28
ATOM     28  O   LIG    1       18.168 -31.248  12.040  0.00  0.00    -0.457 OA
BRANCH  28  29
ATOM     29  C   LIG    1       18.573 -31.584  10.786  0.00  0.00    +0.304 C 
ATOM     30  O   LIG    1       19.202 -30.861  10.034  0.00  0.00    -0.251 OA
ATOM     31  C   LIG    1       18.134 -32.970  10.435  0.00  0.00    +0.136 C 
ENDBRANCH  28  29
ENDBRANCH  27  28
ENDBRANCH  25  27
ENDBRANCH   1  25
BRANCH   1  32
ATOM     32  O   LIG    1       20.820 -30.122  12.952  0.00  0.00    -0.450 OA
BRANCH  32  33
ATOM     33  C   LIG    1       20.544 -28.791  13.171  0.00  0.00    +0.308 C 
ATOM     34  O   LIG    1       19.571 -28.354  13.742  0.00  0.00    -0.251 OA
BRANCH  33  35
ATOM     35  C   LIG    1       21.684 -27.952  12.602  0.00  0.00    +0.120 C 
BRANCH  35  37
ATOM     36  C   LIG    1       23.487 -26.566  13.679  0.00  0.00    +0.004 C 
ATOM     37  C   LIG    1       21.991 -26.772  13.514  0.00  0.00    +0.008 C 
ENDBRANCH  35  37
ENDBRANCH  33  35
ENDBRANCH  32  33
ENDBRANCH   1  32
TORSDOF 9
ENDMDL
MODEL 7
REMARK VINA RESULT:      -5.0      2.286      7.875
REMARK  Name = *****
REMARK                            x       y       z     vdW  Elec       q    Type
REMARK                         _______ _______ _______ _____ _____    ______ ____
ROOT
ATOM      1  C   LIG    1       25.644 -27.908  13.284  0.00  0.00    +0.180 C 
ATOM      2  C   LIG    1       26.763 -28.914  12.778  0.00  0.00    +0.021 C 
ATOM      3  C   LIG    1       26.960 -28.479  11.283  0.00  0.00    +0.006 C 
ATOM      4  C   LIG    1       26.165 -29.283  10.211  0.00  0.00    +0.037 C 
ATOM      5  C   LIG    1       26.233 -30.807  10.447  0.00  0.00    +0.153 C 
ATOM      6  C   LIG    1       25.611 -31.071  11.839  0.00  0.00    +0.154 C 
ATOM      7  F   LIG    1       27.582 -31.093  10.530  0.00  0.00    -0.238 F 
ATOM      8  C   LIG    1       25.640 -31.719   9.285  0.00  0.00    +0.047 C 
ATOM      9  C   LIG    1       25.860 -31.127   7.869  0.00  0.00    -0.020 C 
ATOM     10  C   LIG    1       25.316 -31.784   6.814  0.00  0.00    +0.054 C 
ATOM     11  C   LIG    1       23.812 -31.840   6.966  0.00  0.00    +0.179 C 
ATOM     12  C   LIG    1       23.292 -32.007   8.354  0.00  0.00    +0.047 C 
ATOM     13  O   LIG    1       23.070 -31.865   5.995  0.00  0.00    -0.288 OA
ATOM     14  C   LIG    1       25.866 -29.622   7.750  0.00  0.00    +0.194 C 
ATOM     15  F   LIG    1       24.592 -29.142   7.858  0.00  0.00    -0.241 F 
ATOM     16  C   LIG    1       26.359 -33.101   9.346  0.00  0.00    +0.023 C 
ATOM     17  C   LIG    1       24.130 -31.987   9.406  0.00  0.00    -0.009 C 
ATOM     18  C   LIG    1       26.697 -28.938   8.814  0.00  0.00    +0.048 C 
ATOM     19  C   LIG    1       26.622 -26.966  11.262  0.00  0.00    +0.009 C 
ATOM     20  C   LIG    1       28.137 -28.718  13.482  0.00  0.00    +0.016 C 
ATOM     21  C   LIG    1       26.426 -30.412  12.932  0.00  0.00    +0.045 C 
ATOM     22  C   LIG    1       26.172 -26.592  12.674  0.00  0.00    +0.057 C 
ENDROOT
BRANCH   6  23
ATOM     23  O   LIG    1       25.519 -32.460  12.165  0.00  0.00    -0.389 OA
ATOM     24  H   LIG    1       26.406 -32.789  12.391  0.00  0.00    +0.210 HD
ENDBRANCH   6  23
BRANCH   1  25
ATOM     25  C   LIG    1       25.479 -27.788  14.834  0.00  0.00    +0.214 C 
ATOM     26  O   LIG    1       24.920 -28.664  15.499  0.00  0.00    -0.289 OA
BRANCH  25  27
ATOM     27  C   LIG    1       26.031 -26.528  15.500  0.00  0.00    +0.310 C 
BRANCH  27  28
ATOM     28  O   LIG    1       25.198 -25.377  15.375  0.00  0.00    -0.457 OA
BRANCH  28  29
ATOM     29  C   LIG    1       25.857 -24.206  15.163  0.00  0.00    +0.304 C 
ATOM     30  O   LIG    1       25.348 -23.179  14.748  0.00  0.00    -0.251 OA
ATOM     31  C   LIG    1       27.308 -24.341  15.497  0.00  0.00    +0.136 C 
ENDBRANCH  28  29
ENDBRANCH  27  28
ENDBRANCH  25  27
ENDBRANCH   1  25
BRANCH   1  32
ATOM     32  O   LIG    1       24.422 -28.346  12.623  0.00  0.00    -0.450 OA
BRANCH  32  33
ATOM     33  C   LIG    1       23.204 -27.805  12.967  0.00  0.00    +0.308 C 
ATOM     34  O   LIG    1       22.973 -26.629  13.134  0.00  0.00    -0.251 OA
BRANCH  33  35
ATOM     35  C   LIG    1       22.178 -28.930  13.075  0.00  0.00    +0.120 C 
BRANCH  35  37
ATOM     36  C   LIG    1       20.778 -30.319  11.513  0.00  0.00    +0.004 C 
ATOM     37  C   LIG    1       22.162 -29.767  11.803  0.00  0.00    +0.008 C 
ENDBRANCH  35  37
ENDBRANCH  33  35
ENDBRANCH  32  33
ENDBRANCH   1  32
TORSDOF 9
ENDMDL
MODEL 8
REMARK VINA RESULT:      -4.9      4.257      7.678
REMARK  Name = *****
REMARK                            x       y       z     vdW  Elec       q    Type
REMARK                         _______ _______ _______ _____ _____    ______ ____
ROOT
ATOM      1  C   LIG    1       20.323 -30.377  13.884  0.00  0.00    +0.180 C 
ATOM      2  C   LIG    1       21.198 -31.672  13.604  0.00  0.00    +0.021 C 
ATOM      3  C   LIG    1       22.644 -31.192  13.980  0.00  0.00    +0.006 C 
ATOM      4  C   LIG    1       23.540 -30.688  12.809  0.00  0.00    +0.037 C 
ATOM      5  C   LIG    1       23.476 -31.617  11.577  0.00  0.00    +0.153 C 
ATOM      6  C   LIG    1       22.000 -31.636  11.110  0.00  0.00    +0.154 C 
ATOM      7  F   LIG    1       23.779 -32.873  12.063  0.00  0.00    -0.238 F 
ATOM      8  C   LIG    1       24.521 -31.308  10.417  0.00  0.00    +0.047 C 
ATOM      9  C   LIG    1       25.882 -30.785  10.943  0.00  0.00    -0.020 C 
ATOM     10  C   LIG    1       26.814 -30.409  10.032  0.00  0.00    +0.054 C 
ATOM     11  C   LIG    1       26.278 -29.274   9.189  0.00  0.00    +0.179 C 
ATOM     12  C   LIG    1       24.825 -29.323   8.858  0.00  0.00    +0.047 C 
ATOM     13  O   LIG    1       27.017 -28.427   8.708  0.00  0.00    -0.288 OA
ATOM     14  C   LIG    1       25.856 -29.958  12.206  0.00  0.00    +0.194 C 
ATOM     15  F   LIG    1       25.372 -28.710  11.935  0.00  0.00    -0.241 F 
ATOM     16  C   LIG    1       24.783 -32.635   9.643  0.00  0.00    +0.023 C 
ATOM     17  C   LIG    1       24.033 -30.272   9.391  0.00  0.00    -0.009 C 
ATOM     18  C   LIG    1       24.988 -30.552  13.295  0.00  0.00    +0.048 C 
ATOM     19  C   LIG    1       22.432 -30.111  15.072  0.00  0.00    +0.009 C 
ATOM     20  C   LIG    1       20.866 -32.862  14.550  0.00  0.00    +0.016 C 
ATOM     21  C   LIG    1       21.103 -32.239  12.172  0.00  0.00    +0.045 C 
ATOM     22  C   LIG    1       20.922 -29.936  15.236  0.00  0.00    +0.057 C 
ENDROOT
BRANCH   6  23
ATOM     23  O   LIG    1       21.795 -32.389   9.912  0.00  0.00    -0.389 OA
ATOM     24  H   LIG    1       20.949 -32.119   9.514  0.00  0.00    +0.210 HD
ENDBRANCH   6  23
BRANCH   1  25
ATOM     25  C   LIG    1       18.780 -30.604  13.995  0.00  0.00    +0.214 C 
ATOM     26  O   LIG    1       18.114 -31.035  13.050  0.00  0.00    -0.289 OA
BRANCH  25  27
ATOM     27  C   LIG    1       18.117 -30.256  15.328  0.00  0.00    +0.310 C 
BRANCH  27  28
ATOM     28  O   LIG    1       16.838 -29.637  15.211  0.00  0.00    -0.457 OA
BRANCH  28  29
ATOM     29  C   LIG    1       16.861 -28.296  14.985  0.00  0.00    +0.304 C 
ATOM     30  O   LIG    1       17.637 -27.510  15.500  0.00  0.00    -0.251 OA
ATOM     31  C   LIG    1       15.792 -27.899  14.017  0.00  0.00    +0.136 C 
ENDBRANCH  28  29
ENDBRANCH  27  28
ENDBRANCH  25  27
ENDBRANCH   1  25
BRANCH   1  32
ATOM     32  O   LIG    1       20.677 -29.450  12.818  0.00  0.00    -0.450 OA
BRANCH  32  33
ATOM     33  C   LIG    1       20.748 -28.096  13.059  0.00  0.00    +0.308 C 
ATOM     34  O   LIG    1       19.832 -27.392  13.421  0.00  0.00    -0.251 OA
BRANCH  33  35
ATOM     35  C   LIG    1       22.181 -27.628  12.823  0.00  0.00    +0.120 C 
BRANCH  35  37
ATOM     36  C   LIG    1       24.025 -26.153  13.690  0.00  0.00    +0.004 C 
ATOM     37  C   LIG    1       22.564 -26.545  13.822  0.00  0.00    +0.008 C 
ENDBRANCH  35  37
ENDBRANCH  33  35
ENDBRANCH  32  33
ENDBRANCH   1  32
TORSDOF 9
ENDMDL
MODEL 9
REMARK VINA RESULT:      -4.9      3.389      7.752
REMARK  Name = *****
REMARK                            x       y       z     vdW  Elec       q    Type
REMARK                         _______ _______ _______ _____ _____    ______ ____
ROOT
ATOM      1  C   LIG    1       25.716 -28.529  12.927  0.00  0.00    +0.180 C 
ATOM      2  C   LIG    1       24.672 -28.938  14.052  0.00  0.00    +0.021 C 
ATOM      3  C   LIG    1       24.582 -30.495  13.882  0.00  0.00    +0.006 C 
ATOM      4  C   LIG    1       23.411 -31.035  13.007  0.00  0.00    +0.037 C 
ATOM      5  C   LIG    1       22.066 -30.350  13.335  0.00  0.00    +0.153 C 
ATOM      6  C   LIG    1       22.254 -28.841  13.048  0.00  0.00    +0.154 C 
ATOM      7  F   LIG    1       21.913 -30.502  14.698  0.00  0.00    -0.238 F 
ATOM      8  C   LIG    1       20.776 -30.987  12.653  0.00  0.00    +0.047 C 
ATOM      9  C   LIG    1       20.861 -32.526  12.499  0.00  0.00    -0.020 C 
ATOM     10  C   LIG    1       19.850 -33.158  11.851  0.00  0.00    +0.054 C 
ATOM     11  C   LIG    1       19.753 -32.644  10.431  0.00  0.00    +0.179 C 
ATOM     12  C   LIG    1       20.036 -31.194  10.230  0.00  0.00    +0.047 C 
ATOM     13  O   LIG    1       19.349 -33.352   9.520  0.00  0.00    -0.288 OA
ATOM     14  C   LIG    1       22.233 -33.116  12.269  0.00  0.00    +0.194 C 
ATOM     15  F   LIG    1       22.637 -32.868  10.989  0.00  0.00    -0.241 F 
ATOM     16  C   LIG    1       19.548 -30.661  13.556  0.00  0.00    +0.023 C 
ATOM     17  C   LIG    1       20.468 -30.433  11.251  0.00  0.00    -0.009 C 
ATOM     18  C   LIG    1       23.291 -32.553  13.193  0.00  0.00    +0.048 C 
ATOM     19  C   LIG    1       25.971 -30.916  13.337  0.00  0.00    +0.009 C 
ATOM     20  C   LIG    1       25.185 -28.679  15.498  0.00  0.00    +0.016 C 
ATOM     21  C   LIG    1       23.298 -28.240  13.966  0.00  0.00    +0.045 C 
ATOM     22  C   LIG    1       26.775 -29.632  13.132  0.00  0.00    +0.057 C 
ENDROOT
BRANCH   6  23
ATOM     23  O   LIG    1       21.057 -28.078  13.219  0.00  0.00    -0.389 OA
ATOM     24  H   LIG    1       21.081 -27.648  14.092  0.00  0.00    +0.210 HD
ENDBRANCH   6  23
BRANCH   1  25
ATOM     25  C   LIG    1       26.346 -27.105  13.063  0.00  0.00    +0.214 C 
ATOM     26  O   LIG    1       27.566 -26.926  13.024  0.00  0.00    -0.289 OA
BRANCH  25  27
ATOM     27  C   LIG    1       25.387 -25.932  13.262  0.00  0.00    +0.310 C 
BRANCH  27  28
ATOM     28  O   LIG    1       26.023 -24.671  13.463  0.00  0.00    -0.457 OA
BRANCH  28  29
ATOM     29  C   LIG    1       25.496 -23.909  14.459  0.00  0.00    +0.304 C 
ATOM     30  O   LIG    1       25.548 -22.693  14.514  0.00  0.00    -0.251 OA
ATOM     31  C   LIG    1       24.845 -24.764  15.499  0.00  0.00    +0.136 C 
ENDBRANCH  28  29
ENDBRANCH  27  28
ENDBRANCH  25  27
ENDBRANCH   1  25
BRANCH   1  32
ATOM     32  O   LIG    1       25.000 -28.707  11.672  0.00  0.00    -0.450 OA
BRANCH  32  33
ATOM     33  C   LIG    1       25.682 -28.960  10.503  0.00  0.00    +0.308 C 
ATOM     34  O   LIG    1       26.624 -28.328  10.081  0.00  0.00    -0.251 OA
BRANCH  33  35
ATOM     35  C   LIG    1       25.076 -30.191   9.836  0.00  0.00    +0.120 C 
BRANCH  35  37
ATOM     36  C   LIG    1       25.697 -32.616  10.093  0.00  0.00    +0.004 C 
ATOM     37  C   LIG    1       26.141 -31.252   9.595  0.00  0.00    +0.008 C 
ENDBRANCH  35  37
ENDBRANCH  33  35
ENDBRANCH  32  33
ENDBRANCH   1  32
TORSDOF 9
ENDMDL
