MODEL 1
REMARK VINA RESULT:       5.6      0.000      0.000
REMARK  Name = *****
REMARK                            x       y       z     vdW  Elec       q    Type
REMARK                         _______ _______ _______ _____ _____    ______ ____
ROOT
ATOM      1  C   LIG    1       27.123 -17.072   3.671  0.00  0.00    -0.000 C 
ATOM      2  C   LIG    1       27.415 -18.246   4.272  0.00  0.00    -0.066 C 
ATOM      3  C   LIG    1       26.527 -19.482   4.164  0.00  0.00    +0.021 C 
ATOM      4  C   LIG    1       25.071 -19.232   3.774  0.00  0.00    +0.009 C 
ATOM      5  C   LIG    1       24.404 -20.550   4.102  0.00  0.00    +0.005 C 
ATOM      6  C   LIG    1       24.946 -20.919   5.502  0.00  0.00    +0.002 C 
ATOM      7  C   LIG    1       26.429 -20.352   5.476  0.00  0.00    -0.022 C 
ATOM      8  C   LIG    1       27.378 -21.571   5.364  0.00  0.00    +0.012 C 
ATOM      9  C   LIG    1       26.850 -19.508   6.693  0.00  0.00    +0.008 C 
ATOM     10  C   LIG    1       28.222 -18.834   6.565  0.00  0.00    +0.005 C 
ATOM     11  C   LIG    1       28.626 -18.473   5.138  0.00  0.00    +0.031 C 
ENDROOT
BRANCH   1  19
ATOM     12  C   LIG    1       29.210 -13.243   2.879  0.00  0.00    +0.015 C 
ATOM     13  C   LIG    1       28.422 -13.491   3.943  0.00  0.00    -0.023 C 
ATOM     14  C   LIG    1       28.388 -12.643   5.205  0.00  0.00    +0.147 C 
ATOM     15  C   LIG    1       26.959 -12.254   5.596  0.00  0.00    +0.067 C 
ATOM     16  C   LIG    1       26.024 -13.459   5.637  0.00  0.00    +0.122 C 
ATOM     17  C   LIG    1       26.077 -14.264   4.329  0.00  0.00    +0.067 C 
ATOM     18  C   LIG    1       27.497 -14.629   3.944  0.00  0.00    -0.040 C 
ATOM     19  C   LIG    1       27.939 -15.882   3.703  0.00  0.00    +0.004 C 
BRANCH  14  20
ATOM     20  O   LIG    1       29.153 -11.447   5.051  0.00  0.00    -0.387 OA
ATOM     21  H   LIG    1       29.456 -11.421   4.128  0.00  0.00    +0.210 HD
ENDBRANCH  14  20
BRANCH  16  22
ATOM     22  O   LIG    1       26.329 -14.283   6.763  0.00  0.00    -0.391 OA
ATOM     23  H   LIG    1       27.210 -14.037   7.099  0.00  0.00    +0.210 HD
ENDBRANCH  16  22
ENDBRANCH   1  19
BRANCH   6  24
ATOM     24  C   LIG    1       23.956 -20.493   6.637  0.00  0.00    +0.012 C 
ATOM     25  C   LIG    1       22.856 -21.524   6.941  0.00  0.00    +0.012 C 
BRANCH  24  26
ATOM     26  C   LIG    1       23.240 -19.209   6.221  0.00  0.00    -0.027 C 
ATOM     27  C   LIG    1       22.393 -19.090   5.183  0.00  0.00    -0.027 C 
BRANCH  27  28
ATOM     28  C   LIG    1       21.663 -17.798   4.849  0.00  0.00    +0.011 C 
ATOM     29  C   LIG    1       21.159 -17.847   3.400  0.00  0.00    +0.012 C 
BRANCH  28  30
ATOM     30  C   LIG    1       22.510 -16.536   5.183  0.00  0.00    -0.011 C 
ATOM     31  C   LIG    1       21.730 -15.541   6.052  0.00  0.00    +0.008 C 
ATOM     32  C   LIG    1       23.068 -15.791   3.965  0.00  0.00    +0.008 C 
ENDBRANCH  28  30
ENDBRANCH  27  28
ENDBRANCH  24  26
ENDBRANCH   6  24
TORSDOF 7
ENDMDL
MODEL 2
REMARK VINA RESULT:       5.6      1.738      4.595
REMARK  Name = *****
REMARK                            x       y       z     vdW  Elec       q    Type
REMARK                         _______ _______ _______ _____ _____    ______ ____
ROOT
ATOM      1  C   LIG    1       23.202 -16.202   4.812  0.00  0.00    -0.000 C 
ATOM      2  C   LIG    1       22.676 -17.350   4.331  0.00  0.00    -0.066 C 
ATOM      3  C   LIG    1       22.379 -18.563   5.209  0.00  0.00    +0.021 C 
ATOM      4  C   LIG    1       23.133 -18.633   6.537  0.00  0.00    +0.009 C 
ATOM      5  C   LIG    1       22.910 -20.064   6.974  0.00  0.00    +0.005 C 
ATOM      6  C   LIG    1       23.176 -20.903   5.704  0.00  0.00    +0.002 C 
ATOM      7  C   LIG    1       22.660 -19.960   4.534  0.00  0.00    -0.022 C 
ATOM      8  C   LIG    1       21.330 -20.566   4.019  0.00  0.00    +0.012 C 
ATOM      9  C   LIG    1       23.616 -19.780   3.341  0.00  0.00    +0.008 C 
ATOM     10  C   LIG    1       23.169 -18.737   2.309  0.00  0.00    +0.005 C 
ATOM     11  C   LIG    1       22.346 -17.586   2.881  0.00  0.00    +0.031 C 
ENDROOT
BRANCH   1  19
ATOM     12  C   LIG    1       23.745 -12.075   3.291  0.00  0.00    +0.015 C 
ATOM     13  C   LIG    1       24.708 -13.015   3.342  0.00  0.00    -0.023 C 
ATOM     14  C   LIG    1       26.026 -12.940   2.587  0.00  0.00    +0.147 C 
ATOM     15  C   LIG    1       27.227 -13.198   3.502  0.00  0.00    +0.067 C 
ATOM     16  C   LIG    1       27.061 -14.470   4.327  0.00  0.00    +0.122 C 
ATOM     17  C   LIG    1       25.727 -14.483   5.090  0.00  0.00    +0.067 C 
ATOM     18  C   LIG    1       24.548 -14.211   4.178  0.00  0.00    -0.040 C 
ATOM     19  C   LIG    1       23.468 -15.010   4.043  0.00  0.00    +0.004 C 
BRANCH  14  20
ATOM     20  O   LIG    1       26.199 -11.665   1.966  0.00  0.00    -0.387 OA
ATOM     21  H   LIG    1       25.919 -11.761   1.040  0.00  0.00    +0.210 HD
ENDBRANCH  14  20
BRANCH  16  22
ATOM     22  O   LIG    1       27.188 -15.621   3.491  0.00  0.00    -0.391 OA
ATOM     23  H   LIG    1       26.395 -16.177   3.604  0.00  0.00    +0.210 HD
ENDBRANCH  16  22
ENDBRANCH   1  19
BRANCH   6  24
ATOM     24  C   LIG    1       24.637 -21.467   5.678  0.00  0.00    +0.012 C 
ATOM     25  C   LIG    1       25.302 -21.570   7.061  0.00  0.00    +0.012 C 
BRANCH  24  26
ATOM     26  C   LIG    1       25.518 -20.539   4.844  0.00  0.00    -0.027 C 
ATOM     27  C   LIG    1       26.213 -19.489   5.317  0.00  0.00    -0.027 C 
BRANCH  27  28
ATOM     28  C   LIG    1       27.119 -18.632   4.449  0.00  0.00    +0.011 C 
ATOM     29  C   LIG    1       26.777 -18.849   2.968  0.00  0.00    +0.012 C 
BRANCH  28  30
ATOM     30  C   LIG    1       28.626 -18.831   4.787  0.00  0.00    -0.011 C 
ATOM     31  C   LIG    1       28.841 -20.002   5.754  0.00  0.00    +0.008 C 
ATOM     32  C   LIG    1       29.331 -17.592   5.351  0.00  0.00    +0.008 C 
ENDBRANCH  28  30
ENDBRANCH  27  28
ENDBRANCH  24  26
ENDBRANCH   6  24
TORSDOF 7
ENDMDL
MODEL 3
REMARK VINA RESULT:       8.1      1.434      4.240
REMARK  Name = *****
REMARK                            x       y       z     vdW  Elec       q    Type
REMARK                         _______ _______ _______ _____ _____    ______ ____
ROOT
ATOM      1  C   LIG    1       23.573 -15.816   4.413  0.00  0.00    -0.000 C 
ATOM      2  C   LIG    1       23.981 -16.879   3.685  0.00  0.00    -0.066 C 
ATOM      3  C   LIG    1       23.234 -18.210   3.663  0.00  0.00    +0.021 C 
ATOM      4  C   LIG    1       22.303 -18.478   4.845  0.00  0.00    +0.009 C 
ATOM      5  C   LIG    1       22.018 -19.959   4.718  0.00  0.00    +0.005 C 
ATOM      6  C   LIG    1       23.401 -20.598   4.455  0.00  0.00    +0.002 C 
ATOM      7  C   LIG    1       24.153 -19.491   3.601  0.00  0.00    -0.022 C 
ATOM      8  C   LIG    1       24.219 -20.012   2.143  0.00  0.00    +0.012 C 
ATOM      9  C   LIG    1       25.578 -19.133   4.062  0.00  0.00    +0.008 C 
ATOM     10  C   LIG    1       26.214 -17.947   3.327  0.00  0.00    +0.005 C 
ATOM     11  C   LIG    1       25.224 -16.895   2.835  0.00  0.00    +0.031 C 
ENDROOT
BRANCH   1  19
ATOM     12  C   LIG    1       25.352 -11.904   5.493  0.00  0.00    +0.015 C 
ATOM     13  C   LIG    1       26.005 -12.909   4.880  0.00  0.00    -0.023 C 
ATOM     14  C   LIG    1       27.335 -12.758   4.158  0.00  0.00    +0.147 C 
ATOM     15  C   LIG    1       28.355 -13.807   4.609  0.00  0.00    +0.067 C 
ATOM     16  C   LIG    1       27.786 -15.222   4.564  0.00  0.00    +0.122 C 
ATOM     17  C   LIG    1       26.458 -15.325   5.331  0.00  0.00    +0.067 C 
ATOM     18  C   LIG    1       25.463 -14.272   4.887  0.00  0.00    -0.040 C 
ATOM     19  C   LIG    1       24.212 -14.522   4.445  0.00  0.00    +0.004 C 
BRANCH  14  20
ATOM     20  O   LIG    1       27.899 -11.463   4.368  0.00  0.00    -0.387 OA
ATOM     21  H   LIG    1       28.133 -11.405   5.310  0.00  0.00    +0.210 HD
ENDBRANCH  14  20
BRANCH  16  22
ATOM     22  O   LIG    1       27.635 -15.651   3.210  0.00  0.00    -0.391 OA
ATOM     23  H   LIG    1       26.866 -15.194   2.823  0.00  0.00    +0.210 HD
ENDBRANCH  16  22
ENDBRANCH   1  19
BRANCH   6  24
ATOM     24  C   LIG    1       24.043 -21.151   5.772  0.00  0.00    +0.012 C 
ATOM     25  C   LIG    1       23.345 -20.689   7.062  0.00  0.00    +0.012 C 
BRANCH  24  26
ATOM     26  C   LIG    1       25.489 -20.665   5.867  0.00  0.00    -0.027 C 
ATOM     27  C   LIG    1       26.582 -21.434   5.715  0.00  0.00    -0.027 C 
BRANCH  27  28
ATOM     28  C   LIG    1       27.998 -20.884   5.765  0.00  0.00    +0.011 C 
ATOM     29  C   LIG    1       28.775 -21.552   6.908  0.00  0.00    +0.012 C 
BRANCH  28  30
ATOM     30  C   LIG    1       28.030 -19.329   5.801  0.00  0.00    -0.011 C 
ATOM     31  C   LIG    1       28.460 -18.737   4.453  0.00  0.00    +0.008 C 
ATOM     32  C   LIG    1       28.907 -18.725   6.904  0.00  0.00    +0.008 C 
ENDBRANCH  28  30
ENDBRANCH  27  28
ENDBRANCH  24  26
ENDBRANCH   6  24
TORSDOF 7
ENDMDL
