MODEL 1
REMARK VINA RESULT:      -4.8      0.000      0.000
REMARK  Name = *****
REMARK                            x       y       z     vdW  Elec       q    Type
REMARK                         _______ _______ _______ _____ _____    ______ ____
ROOT
ATOM      1  C   LIG    1       25.234 -14.280   3.469  0.00  0.00    +0.056 A 
ATOM      2  C   LIG    1       25.565 -15.637   3.679  0.00  0.00    +0.043 A 
ATOM      3  C   LIG    1       26.970 -15.813   3.740  0.00  0.00    +0.129 A 
ATOM      4  N   LIG    1       27.889 -14.845   3.615  0.00  0.00    -0.200 NA
ATOM      5  C   LIG    1       27.455 -13.615   3.382  0.00  0.00    +0.214 A 
ATOM      6  N   LIG    1       26.166 -13.299   3.323  0.00  0.00    -0.219 NA
ENDROOT
BRANCH   2   7
ATOM      7  C   LIG    1       24.583 -16.773   3.842  0.00  0.00    -0.013 A 
ATOM      8  C   LIG    1       24.892 -18.114   3.544  0.00  0.00    +0.010 A 
ATOM      9  C   LIG    1       23.970 -19.166   3.679  0.00  0.00    +0.020 A 
ATOM     10  C   LIG    1       22.706 -18.918   4.187  0.00  0.00    +0.041 A 
ATOM     11 CL   LIG    1       21.594 -20.211   4.403  0.00  0.00    -0.084 Cl
ATOM     12  C   LIG    1       22.358 -17.622   4.533  0.00  0.00    +0.020 A 
ATOM     13  C   LIG    1       23.274 -16.570   4.345  0.00  0.00    +0.010 A 
ENDBRANCH   2   7
BRANCH   3  14
ATOM     14  N   LIG    1       27.587 -17.057   3.925  0.00  0.00    -0.343 N 
ATOM     15  H   LIG    1       28.412 -17.139   3.343  0.00  0.00    +0.144 HD
ATOM     16  H   LIG    1       27.848 -17.077   4.914  0.00  0.00    +0.144 HD
ENDBRANCH   3  14
BRANCH   5  17
ATOM     17  N   LIG    1       28.374 -12.611   3.236  0.00  0.00    -0.327 N 
ATOM     18  H   LIG    1       29.305 -13.003   3.204  0.00  0.00    +0.145 HD
ATOM     19  H   LIG    1       28.200 -11.892   3.925  0.00  0.00    +0.145 HD
ENDBRANCH   5  17
BRANCH   1  21
ATOM     20  C   LIG    1       23.858 -12.163   3.378  0.00  0.00    +0.010 C 
ATOM     21  C   LIG    1       23.851 -13.680   3.426  0.00  0.00    +0.053 C 
ENDBRANCH   1  21
TORSDOF 4
ENDMDL
MODEL 2
REMARK VINA RESULT:      -3.8      3.718      5.176
REMARK  Name = *****
REMARK                            x       y       z     vdW  Elec       q    Type
REMARK                         _______ _______ _______ _____ _____    ______ ____
ROOT
ATOM      1  C   LIG    1       26.256 -19.444   4.508  0.00  0.00    +0.056 A 
ATOM      2  C   LIG    1       25.094 -19.959   5.122  0.00  0.00    +0.043 A 
ATOM      3  C   LIG    1       25.424 -20.733   6.263  0.00  0.00    +0.129 A 
ATOM      4  N   LIG    1       26.662 -20.968   6.722  0.00  0.00    -0.200 NA
ATOM      5  C   LIG    1       27.675 -20.461   6.036  0.00  0.00    +0.214 A 
ATOM      6  N   LIG    1       27.515 -19.697   4.962  0.00  0.00    -0.219 NA
ENDROOT
BRANCH   2   7
ATOM      7  C   LIG    1       23.673 -19.723   4.668  0.00  0.00    -0.013 A 
ATOM      8  C   LIG    1       22.664 -20.703   4.736  0.00  0.00    +0.010 A 
ATOM      9  C   LIG    1       21.347 -20.485   4.295  0.00  0.00    +0.020 A 
ATOM     10  C   LIG    1       20.973 -19.239   3.823  0.00  0.00    +0.041 A 
ATOM     11 CL   LIG    1       19.350 -18.955   3.332  0.00  0.00    -0.084 Cl
ATOM     12  C   LIG    1       21.915 -18.223   3.768  0.00  0.00    +0.020 A 
ATOM     13  C   LIG    1       23.243 -18.470   4.166  0.00  0.00    +0.010 A 
ENDBRANCH   2   7
BRANCH   3  14
ATOM     14  N   LIG    1       24.471 -21.380   7.062  0.00  0.00    -0.343 N 
ATOM     15  H   LIG    1       23.727 -20.743   7.319  0.00  0.00    +0.144 HD
ATOM     16  H   LIG    1       24.106 -22.135   6.476  0.00  0.00    +0.144 HD
ENDBRANCH   3  14
BRANCH   5  17
ATOM     17  N   LIG    1       28.950 -20.699   6.475  0.00  0.00    -0.327 N 
ATOM     18  H   LIG    1       29.568 -20.813   5.685  0.00  0.00    +0.145 HD
ATOM     19  H   LIG    1       28.936 -21.443   7.161  0.00  0.00    +0.145 HD
ENDBRANCH   5  17
BRANCH   1  21
ATOM     20  C   LIG    1       26.726 -17.097   3.695  0.00  0.00    +0.010 C 
ATOM     21  C   LIG    1       26.319 -18.512   3.323  0.00  0.00    +0.053 C 
ENDBRANCH   1  21
TORSDOF 4
ENDMDL
MODEL 3
REMARK VINA RESULT:      -3.6      4.001      6.466
REMARK  Name = *****
REMARK                            x       y       z     vdW  Elec       q    Type
REMARK                         _______ _______ _______ _____ _____    ______ ____
ROOT
ATOM      1  C   LIG    1       24.447 -19.413   4.102  0.00  0.00    +0.056 A 
ATOM      2  C   LIG    1       23.891 -18.115   4.109  0.00  0.00    +0.043 A 
ATOM      3  C   LIG    1       22.508 -18.157   4.417  0.00  0.00    +0.129 A 
ATOM      4  N   LIG    1       21.792 -19.262   4.670  0.00  0.00    -0.200 NA
ATOM      5  C   LIG    1       22.419 -20.427   4.595  0.00  0.00    +0.214 A 
ATOM      6  N   LIG    1       23.718 -20.538   4.340  0.00  0.00    -0.219 NA
ENDROOT
BRANCH   2   7
ATOM      7  C   LIG    1       24.640 -16.829   3.849  0.00  0.00    -0.013 A 
ATOM      8  C   LIG    1       24.104 -15.553   4.110  0.00  0.00    +0.010 A 
ATOM      9  C   LIG    1       24.797 -14.358   3.850  0.00  0.00    +0.020 A 
ATOM     10  C   LIG    1       26.095 -14.401   3.370  0.00  0.00    +0.041 A 
ATOM     11 CL   LIG    1       26.963 -12.942   3.099  0.00  0.00    -0.084 Cl
ATOM     12  C   LIG    1       26.688 -15.630   3.129  0.00  0.00    +0.020 A 
ATOM     13  C   LIG    1       25.964 -16.819   3.347  0.00  0.00    +0.010 A 
ENDBRANCH   2   7
BRANCH   3  14
ATOM     14  N   LIG    1       21.694 -17.018   4.480  0.00  0.00    -0.343 N 
ATOM     15  H   LIG    1       21.736 -16.498   3.612  0.00  0.00    +0.144 HD
ATOM     16  H   LIG    1       20.749 -17.378   4.632  0.00  0.00    +0.144 HD
ENDBRANCH   3  14
BRANCH   5  17
ATOM     17  N   LIG    1       21.707 -21.572   4.834  0.00  0.00    -0.327 N 
ATOM     18  H   LIG    1       21.689 -22.143   4.001  0.00  0.00    +0.145 HD
ATOM     19  H   LIG    1       20.816 -21.333   5.249  0.00  0.00    +0.145 HD
ENDBRANCH   5  17
BRANCH   1  21
ATOM     20  C   LIG    1       26.623 -20.090   5.194  0.00  0.00    +0.010 C 
ATOM     21  C   LIG    1       25.896 -19.778   3.898  0.00  0.00    +0.053 C 
ENDBRANCH   1  21
TORSDOF 4
ENDMDL
MODEL 4
REMARK VINA RESULT:      -3.6      4.012      6.377
REMARK  Name = *****
REMARK                            x       y       z     vdW  Elec       q    Type
REMARK                         _______ _______ _______ _____ _____    ______ ____
ROOT
ATOM      1  C   LIG    1       24.368 -19.439   4.104  0.00  0.00    +0.056 A 
ATOM      2  C   LIG    1       23.826 -18.135   4.112  0.00  0.00    +0.043 A 
ATOM      3  C   LIG    1       22.440 -18.163   4.408  0.00  0.00    +0.129 A 
ATOM      4  N   LIG    1       21.710 -19.262   4.650  0.00  0.00    -0.200 NA
ATOM      5  C   LIG    1       22.326 -20.433   4.575  0.00  0.00    +0.214 A 
ATOM      6  N   LIG    1       23.624 -20.557   4.329  0.00  0.00    -0.219 NA
ENDROOT
BRANCH   2   7
ATOM      7  C   LIG    1       24.591 -16.857   3.864  0.00  0.00    -0.013 A 
ATOM      8  C   LIG    1       25.899 -16.824   3.344  0.00  0.00    +0.010 A 
ATOM      9  C   LIG    1       26.615 -15.632   3.132  0.00  0.00    +0.020 A 
ATOM     10  C   LIG    1       26.013 -14.410   3.379  0.00  0.00    +0.041 A 
ATOM     11 CL   LIG    1       26.867 -12.951   3.072  0.00  0.00    -0.084 Cl
ATOM     12  C   LIG    1       24.713 -14.380   3.857  0.00  0.00    +0.020 A 
ATOM     13  C   LIG    1       24.025 -15.582   4.112  0.00  0.00    +0.010 A 
ENDBRANCH   2   7
BRANCH   3  14
ATOM     14  N   LIG    1       21.638 -17.016   4.469  0.00  0.00    -0.343 N 
ATOM     15  H   LIG    1       21.603 -16.652   5.414  0.00  0.00    +0.144 HD
ATOM     16  H   LIG    1       22.093 -16.343   3.847  0.00  0.00    +0.144 HD
ENDBRANCH   3  14
BRANCH   5  17
ATOM     17  N   LIG    1       21.599 -21.571   4.802  0.00  0.00    -0.327 N 
ATOM     18  H   LIG    1       20.836 -21.627   4.141  0.00  0.00    +0.145 HD
ATOM     19  H   LIG    1       21.363 -21.630   5.784  0.00  0.00    +0.145 HD
ENDBRANCH   5  17
BRANCH   1  21
ATOM     20  C   LIG    1       26.541 -20.094   5.214  0.00  0.00    +0.010 C 
ATOM     21  C   LIG    1       25.815 -19.819   3.910  0.00  0.00    +0.053 C 
ENDBRANCH   1  21
TORSDOF 4
ENDMDL
MODEL 5
REMARK VINA RESULT:      -3.3      3.879      5.589
REMARK  Name = *****
REMARK                            x       y       z     vdW  Elec       q    Type
REMARK                         _______ _______ _______ _____ _____    ______ ____
ROOT
ATOM      1  C   LIG    1       25.479 -20.739   6.188  0.00  0.00    +0.056 A 
ATOM      2  C   LIG    1       25.091 -19.902   5.118  0.00  0.00    +0.043 A 
ATOM      3  C   LIG    1       26.224 -19.345   4.473  0.00  0.00    +0.129 A 
ATOM      4  N   LIG    1       27.504 -19.560   4.809  0.00  0.00    -0.200 NA
ATOM      5  C   LIG    1       27.739 -20.335   5.857  0.00  0.00    +0.214 A 
ATOM      6  N   LIG    1       26.777 -20.942   6.542  0.00  0.00    -0.219 NA
ENDROOT
BRANCH   2   7
ATOM      7  C   LIG    1       23.673 -19.629   4.677  0.00  0.00    -0.013 A 
ATOM      8  C   LIG    1       23.175 -18.336   4.424  0.00  0.00    +0.010 A 
ATOM      9  C   LIG    1       21.849 -18.084   4.032  0.00  0.00    +0.020 A 
ATOM     10  C   LIG    1       20.979 -19.139   3.814  0.00  0.00    +0.041 A 
ATOM     11 CL   LIG    1       19.372 -18.836   3.283  0.00  0.00    -0.084 Cl
ATOM     12  C   LIG    1       21.424 -20.436   4.011  0.00  0.00    +0.020 A 
ATOM     13  C   LIG    1       22.741 -20.671   4.453  0.00  0.00    +0.010 A 
ENDBRANCH   2   7
BRANCH   3  14
ATOM     14  N   LIG    1       26.141 -18.464   3.387  0.00  0.00    -0.343 N 
ATOM     15  H   LIG    1       25.924 -17.526   3.701  0.00  0.00    +0.144 HD
ATOM     16  H   LIG    1       27.068 -18.489   2.956  0.00  0.00    +0.144 HD
ENDBRANCH   3  14
BRANCH   5  17
ATOM     17  N   LIG    1       29.038 -20.557   6.230  0.00  0.00    -0.327 N 
ATOM     18  H   LIG    1       29.494 -21.145   5.546  0.00  0.00    +0.145 HD
ATOM     19  H   LIG    1       29.064 -20.866   7.193  0.00  0.00    +0.145 HD
ENDBRANCH   5  17
BRANCH   1  21
ATOM     20  C   LIG    1       23.132 -21.099   7.052  0.00  0.00    +0.010 C 
ATOM     21  C   LIG    1       24.575 -21.572   7.062  0.00  0.00    +0.053 C 
ENDBRANCH   1  21
TORSDOF 4
ENDMDL
MODEL 6
REMARK VINA RESULT:      -3.3      3.090      5.444
REMARK  Name = *****
REMARK                            x       y       z     vdW  Elec       q    Type
REMARK                         _______ _______ _______ _____ _____    ______ ____
ROOT
ATOM      1  C   LIG    1       24.068 -18.331   3.964  0.00  0.00    +0.056 A 
ATOM      2  C   LIG    1       25.190 -17.484   3.834  0.00  0.00    +0.043 A 
ATOM      3  C   LIG    1       26.395 -18.202   4.039  0.00  0.00    +0.129 A 
ATOM      4  N   LIG    1       26.492 -19.509   4.322  0.00  0.00    -0.200 NA
ATOM      5  C   LIG    1       25.363 -20.191   4.457  0.00  0.00    +0.214 A 
ATOM      6  N   LIG    1       24.164 -19.654   4.271  0.00  0.00    -0.219 NA
ENDROOT
BRANCH   2   7
ATOM      7  C   LIG    1       25.154 -16.011   3.502  0.00  0.00    -0.013 A 
ATOM      8  C   LIG    1       26.145 -15.364   2.739  0.00  0.00    +0.010 A 
ATOM      9  C   LIG    1       26.118 -13.989   2.448  0.00  0.00    +0.020 A 
ATOM     10  C   LIG    1       25.049 -13.214   2.864  0.00  0.00    +0.041 A 
ATOM     11 CL   LIG    1       24.987 -11.543   2.465  0.00  0.00    -0.084 Cl
ATOM     12  C   LIG    1       24.025 -13.804   3.588  0.00  0.00    +0.020 A 
ATOM     13  C   LIG    1       24.090 -15.173   3.915  0.00  0.00    +0.010 A 
ENDBRANCH   2   7
BRANCH   3  14
ATOM     14  N   LIG    1       27.665 -17.615   3.985  0.00  0.00    -0.343 N 
ATOM     15  H   LIG    1       27.671 -16.728   4.474  0.00  0.00    +0.144 HD
ATOM     16  H   LIG    1       28.284 -18.281   4.453  0.00  0.00    +0.144 HD
ENDBRANCH   3  14
BRANCH   5  17
ATOM     17  N   LIG    1       25.435 -21.524   4.762  0.00  0.00    -0.327 N 
ATOM     18  H   LIG    1       26.044 -21.661   5.556  0.00  0.00    +0.145 HD
ATOM     19  H   LIG    1       25.646 -22.050   3.924  0.00  0.00    +0.145 HD
ENDBRANCH   5  17
BRANCH   1  21
ATOM     20  C   LIG    1       21.650 -18.974   4.322  0.00  0.00    +0.010 C 
ATOM     21  C   LIG    1       22.622 -17.962   3.741  0.00  0.00    +0.053 C 
ENDBRANCH   1  21
TORSDOF 4
ENDMDL
MODEL 7
REMARK VINA RESULT:      -2.7      3.815      5.894
REMARK  Name = *****
REMARK                            x       y       z     vdW  Elec       q    Type
REMARK                         _______ _______ _______ _____ _____    ______ ____
ROOT
ATOM      1  C   LIG    1       22.762 -18.141   4.377  0.00  0.00    +0.056 A 
ATOM      2  C   LIG    1       24.139 -18.183   4.064  0.00  0.00    +0.043 A 
ATOM      3  C   LIG    1       24.609 -19.520   4.024  0.00  0.00    +0.129 A 
ATOM      4  N   LIG    1       23.875 -20.619   4.251  0.00  0.00    -0.200 NA
ATOM      5  C   LIG    1       22.601 -20.446   4.574  0.00  0.00    +0.214 A 
ATOM      6  N   LIG    1       22.020 -19.254   4.627  0.00  0.00    -0.219 NA
ENDROOT
BRANCH   2   7
ATOM      7  C   LIG    1       25.020 -16.990   3.783  0.00  0.00    -0.013 A 
ATOM      8  C   LIG    1       24.542 -15.666   3.735  0.00  0.00    +0.010 A 
ATOM      9  C   LIG    1       25.363 -14.560   3.454  0.00  0.00    +0.020 A 
ATOM     10  C   LIG    1       26.724 -14.736   3.271  0.00  0.00    +0.041 A 
ATOM     11 CL   LIG    1       27.737 -13.379   2.980  0.00  0.00    -0.084 Cl
ATOM     12  C   LIG    1       27.258 -16.013   3.345  0.00  0.00    +0.020 A 
ATOM     13  C   LIG    1       26.416 -17.118   3.577  0.00  0.00    +0.010 A 
ENDBRANCH   2   7
BRANCH   3  14
ATOM     14  N   LIG    1       25.940 -19.865   3.752  0.00  0.00    -0.343 N 
ATOM     15  H   LIG    1       26.521 -19.728   4.571  0.00  0.00    +0.144 HD
ATOM     16  H   LIG    1       25.909 -20.856   3.501  0.00  0.00    +0.144 HD
ENDBRANCH   3  14
BRANCH   5  17
ATOM     17  N   LIG    1       21.834 -21.552   4.826  0.00  0.00    -0.327 N 
ATOM     18  H   LIG    1       22.395 -22.264   5.272  0.00  0.00    +0.145 HD
ATOM     19  H   LIG    1       21.337 -21.816   3.985  0.00  0.00    +0.145 HD
ENDBRANCH   5  17
BRANCH   1  21
ATOM     20  C   LIG    1       22.063 -16.110   5.708  0.00  0.00    +0.010 C 
ATOM     21  C   LIG    1       21.883 -16.917   4.435  0.00  0.00    +0.053 C 
ENDBRANCH   1  21
TORSDOF 4
ENDMDL
MODEL 8
REMARK VINA RESULT:      -2.7      1.028      2.942
REMARK  Name = *****
REMARK                            x       y       z     vdW  Elec       q    Type
REMARK                         _______ _______ _______ _____ _____    ______ ____
ROOT
ATOM      1  C   LIG    1       26.648 -15.932   3.580  0.00  0.00    +0.056 A 
ATOM      2  C   LIG    1       25.244 -15.823   3.685  0.00  0.00    +0.043 A 
ATOM      3  C   LIG    1       24.826 -14.478   3.524  0.00  0.00    +0.129 A 
ATOM      4  N   LIG    1       25.629 -13.426   3.304  0.00  0.00    -0.200 NA
ATOM      5  C   LIG    1       26.934 -13.652   3.264  0.00  0.00    +0.214 A 
ATOM      6  N   LIG    1       27.466 -14.863   3.376  0.00  0.00    -0.219 NA
ENDROOT
BRANCH   2   7
ATOM      7  C   LIG    1       24.282 -16.963   3.917  0.00  0.00    -0.013 A 
ATOM      8  C   LIG    1       22.963 -16.784   4.378  0.00  0.00    +0.010 A 
ATOM      9  C   LIG    1       22.076 -17.850   4.610  0.00  0.00    +0.020 A 
ATOM     10  C   LIG    1       22.464 -19.148   4.324  0.00  0.00    +0.041 A 
ATOM     11 CL   LIG    1       21.363 -20.447   4.558  0.00  0.00    -0.084 Cl
ATOM     12  C   LIG    1       23.738 -19.382   3.833  0.00  0.00    +0.020 A 
ATOM     13  C   LIG    1       24.634 -18.310   3.652  0.00  0.00    +0.010 A 
ENDBRANCH   2   7
BRANCH   3  14
ATOM     14  N   LIG    1       23.488 -14.069   3.594  0.00  0.00    -0.343 N 
ATOM     15  H   LIG    1       23.382 -13.125   3.244  0.00  0.00    +0.144 HD
ATOM     16  H   LIG    1       22.980 -14.727   2.999  0.00  0.00    +0.144 HD
ENDBRANCH   3  14
BRANCH   5  17
ATOM     17  N   LIG    1       27.776 -12.592   3.056  0.00  0.00    -0.327 N 
ATOM     18  H   LIG    1       27.643 -11.902   3.781  0.00  0.00    +0.145 HD
ATOM     19  H   LIG    1       27.691 -12.277   2.098  0.00  0.00    +0.145 HD
ENDBRANCH   5  17
BRANCH   1  21
ATOM     20  C   LIG    1       28.450 -17.245   4.769  0.00  0.00    +0.010 C 
ATOM     21  C   LIG    1       27.464 -17.200   3.615  0.00  0.00    +0.053 C 
ENDBRANCH   1  21
TORSDOF 4
ENDMDL
MODEL 9
REMARK VINA RESULT:      -2.1      3.579      5.707
REMARK  Name = *****
REMARK                            x       y       z     vdW  Elec       q    Type
REMARK                         _______ _______ _______ _____ _____    ______ ____
ROOT
ATOM      1  C   LIG    1       22.987 -16.910   4.433  0.00  0.00    +0.056 A 
ATOM      2  C   LIG    1       24.311 -16.958   3.944  0.00  0.00    +0.043 A 
ATOM      3  C   LIG    1       24.698 -18.292   3.658  0.00  0.00    +0.129 A 
ATOM      4  N   LIG    1       23.936 -19.383   3.820  0.00  0.00    -0.200 NA
ATOM      5  C   LIG    1       22.722 -19.212   4.324  0.00  0.00    +0.214 A 
ATOM      6  N   LIG    1       22.219 -18.019   4.617  0.00  0.00    -0.219 NA
ENDROOT
BRANCH   2   7
ATOM      7  C   LIG    1       25.217 -15.771   3.723  0.00  0.00    -0.013 A 
ATOM      8  C   LIG    1       24.778 -14.435   3.795  0.00  0.00    +0.010 A 
ATOM      9  C   LIG    1       25.620 -13.332   3.570  0.00  0.00    +0.020 A 
ATOM     10  C   LIG    1       26.968 -13.531   3.323  0.00  0.00    +0.041 A 
ATOM     11 CL   LIG    1       28.011 -12.183   3.099  0.00  0.00    -0.084 Cl
ATOM     12  C   LIG    1       27.466 -14.823   3.277  0.00  0.00    +0.020 A 
ATOM     13  C   LIG    1       26.600 -15.920   3.455  0.00  0.00    +0.010 A 
ENDBRANCH   2   7
BRANCH   3  14
ATOM     14  N   LIG    1       25.964 -18.643   3.172  0.00  0.00    -0.343 N 
ATOM     15  H   LIG    1       26.594 -17.851   3.206  0.00  0.00    +0.144 HD
ATOM     16  H   LIG    1       26.290 -19.383   3.799  0.00  0.00    +0.144 HD
ENDBRANCH   3  14
BRANCH   5  17
ATOM     17  N   LIG    1       21.930 -20.312   4.514  0.00  0.00    -0.327 N 
ATOM     18  H   LIG    1       22.401 -20.972   5.117  0.00  0.00    +0.145 HD
ATOM     19  H   LIG    1       21.608 -20.655   3.618  0.00  0.00    +0.145 HD
ENDBRANCH   5  17
BRANCH   1  21
ATOM     20  C   LIG    1       21.826 -15.585   6.244  0.00  0.00    +0.010 C 
ATOM     21  C   LIG    1       22.190 -15.675   4.773  0.00  0.00    +0.053 C 
ENDBRANCH   1  21
TORSDOF 4
ENDMDL
