MODEL 1
REMARK VINA RESULT:      -5.3      0.000      0.000
REMARK  Name = *****
REMARK                            x       y       z     vdW  Elec       q    Type
REMARK                         _______ _______ _______ _____ _____    ______ ____
ROOT
ATOM      1  C   LIG    1       24.680 -29.913  10.058  0.00  0.00    +0.283 C 
ATOM      2  C   LIG    1       26.055 -29.354   9.538  0.00  0.00    +0.208 C 
ATOM      3  C   LIG    1       27.167 -30.470   9.648  0.00  0.00    +0.179 C 
ATOM      4  C   LIG    1       26.586 -31.881   9.887  0.00  0.00    +0.177 C 
ATOM      5  C   LIG    1       25.403 -31.961   8.946  0.00  0.00    +0.178 C 
ATOM      6  O   LIG    1       24.324 -31.173   9.445  0.00  0.00    -0.341 OA
ENDROOT
BRANCH   3   7
ATOM      7  O   LIG    1       28.126 -30.235  10.688  0.00  0.00    -0.386 OA
ATOM      8  H   LIG    1       28.392 -31.097  11.048  0.00  0.00    +0.210 HD
ENDBRANCH   3   7
BRANCH   4   9
ATOM      9  O   LIG    1       27.583 -32.864   9.600  0.00  0.00    -0.387 OA
ATOM     10  H   LIG    1       28.380 -32.575  10.086  0.00  0.00    +0.210 HD
ENDBRANCH   4   9
BRANCH   1  11
ATOM     11  O   LIG    1       24.678 -30.002  11.494  0.00  0.00    -0.338 OA
BRANCH  11  14
ATOM     12  C   LIG    1       22.658 -27.943  12.871  0.00  0.00    +0.010 C 
ATOM     13  C   LIG    1       22.455 -29.097  12.218  0.00  0.00    -0.045 C 
ATOM     14  C   LIG    1       23.415 -30.285  12.112  0.00  0.00    +0.094 C 
ATOM     15  C   LIG    1       23.643 -30.830  13.542  0.00  0.00    +0.040 C 
ATOM     16  C   LIG    1       22.315 -30.984  14.320  0.00  0.00    +0.007 C 
ATOM     17  C   LIG    1       21.115 -31.533  13.469  0.00  0.00    +0.002 C 
ATOM     18  C   LIG    1       21.178 -31.086  11.988  0.00  0.00    -0.019 C 
ATOM     19  C   LIG    1       20.126 -31.859  11.214  0.00  0.00    +0.008 C 
ATOM     20  C   LIG    1       18.756 -31.359  11.586  0.00  0.00    +0.006 C 
ATOM     21  C   LIG    1       18.415 -31.358  13.102  0.00  0.00    +0.012 C 
ATOM     22  C   LIG    1       17.232 -32.361  13.471  0.00  0.00    +0.068 C 
ATOM     23  C   LIG    1       16.191 -32.493  12.320  0.00  0.00    +0.023 C 
ATOM     24  C   LIG    1       17.794 -33.766  13.762  0.00  0.00    +0.018 C 
ATOM     25  C   LIG    1       19.079 -33.824  14.577  0.00  0.00    +0.002 C 
ATOM     26  C   LIG    1       19.504 -32.496  15.181  0.00  0.00    +0.007 C 
ATOM     27  C   LIG    1       19.667 -31.359  14.130  0.00  0.00    -0.025 C 
ATOM     28  C   LIG    1       19.632 -30.035  14.955  0.00  0.00    +0.012 C 
ATOM     29  C   LIG    1       22.566 -31.359  11.413  0.00  0.00    +0.047 C 
ATOM     30  C   LIG    1       21.093 -29.559  11.775  0.00  0.00    +0.040 C 
BRANCH  22  31
ATOM     31  C   LIG    1       16.412 -31.800  14.672  0.00  0.00    +0.311 C 
ATOM     32  O   LIG    1       16.176 -30.639  14.876  0.00  0.00    -0.250 OA
BRANCH  31  33
ATOM     33  O   LIG    1       15.895 -32.747  15.497  0.00  0.00    -0.480 OA
ATOM     34  H   LIG    1       15.691 -32.468  16.406  0.00  0.00    +0.295 HD
ENDBRANCH  31  33
ENDBRANCH  22  31
ENDBRANCH  11  14
ENDBRANCH   1  11
BRANCH   2  35
ATOM     35  O   LIG    1       26.012 -28.903   8.142  0.00  0.00    -0.338 OA
BRANCH  35  36
ATOM     36  C   LIG    1       24.749 -28.375   7.667  0.00  0.00    +0.282 C 
ATOM     37  C   LIG    1       24.944 -27.459   6.418  0.00  0.00    +0.201 C 
ATOM     38  C   LIG    1       25.500 -28.273   5.227  0.00  0.00    +0.179 C 
ATOM     39  C   LIG    1       25.367 -29.792   5.472  0.00  0.00    +0.177 C 
ATOM     40  C   LIG    1       23.952 -29.995   6.026  0.00  0.00    +0.178 C 
ATOM     41  O   LIG    1       23.827 -29.427   7.343  0.00  0.00    -0.341 OA
BRANCH  37  42
ATOM     42  O   LIG    1       23.668 -26.886   6.058  0.00  0.00    -0.384 OA
ATOM     43  H   LIG    1       23.108 -26.885   6.856  0.00  0.00    +0.210 HD
ENDBRANCH  37  42
BRANCH  38  44
ATOM     44  O   LIG    1       26.863 -27.894   5.001  0.00  0.00    -0.386 OA
ATOM     45  H   LIG    1       26.974 -26.985   5.329  0.00  0.00    +0.210 HD
ENDBRANCH  38  44
BRANCH  39  46
ATOM     46  O   LIG    1       25.628 -30.507   4.267  0.00  0.00    -0.387 OA
ATOM     47  H   LIG    1       26.599 -30.519   4.141  0.00  0.00    +0.210 HD
ENDBRANCH  39  46
BRANCH  40  48
ATOM     48  C   LIG    1       23.479 -31.454   6.048  0.00  0.00    +0.190 C 
BRANCH  48  49
ATOM     49  O   LIG    1       24.007 -32.204   4.950  0.00  0.00    -0.392 OA
ATOM     50  H   LIG    1       23.488 -31.988   4.155  0.00  0.00    +0.209 HD
ENDBRANCH  48  49
ENDBRANCH  40  48
ENDBRANCH  35  36
ENDBRANCH   2  35
BRANCH   5  51
ATOM     51  C   LIG    1       24.929 -33.358   8.541  0.00  0.00    +0.190 C 
BRANCH  51  52
ATOM     52  O   LIG    1       25.659 -33.755   7.366  0.00  0.00    -0.392 OA
ATOM     53  H   LIG    1       26.460 -33.198   7.362  0.00  0.00    +0.209 HD
ENDBRANCH  51  52
ENDBRANCH   5  51
TORSDOF 15
ENDMDL
MODEL 2
REMARK VINA RESULT:      -5.0      3.558      9.634
REMARK  Name = *****
REMARK                            x       y       z     vdW  Elec       q    Type
REMARK                         _______ _______ _______ _____ _____    ______ ____
ROOT
ATOM      1  C   LIG    1       25.011 -29.973   7.324  0.00  0.00    +0.283 C 
ATOM      2  C   LIG    1       23.700 -30.834   7.444  0.00  0.00    +0.208 C 
ATOM      3  C   LIG    1       23.788 -32.085   6.486  0.00  0.00    +0.179 C 
ATOM      4  C   LIG    1       25.217 -32.345   5.960  0.00  0.00    +0.177 C 
ATOM      5  C   LIG    1       26.102 -32.150   7.173  0.00  0.00    +0.178 C 
ATOM      6  O   LIG    1       26.211 -30.761   7.482  0.00  0.00    -0.341 OA
ENDROOT
BRANCH   3   7
ATOM      7  O   LIG    1       22.934 -32.000   5.337  0.00  0.00    -0.386 OA
ATOM      8  H   LIG    1       22.775 -32.903   5.016  0.00  0.00    +0.210 HD
ENDBRANCH   3   7
BRANCH   4   9
ATOM      9  O   LIG    1       25.299 -33.670   5.430  0.00  0.00    -0.387 OA
ATOM     10  H   LIG    1       24.373 -33.965   5.325  0.00  0.00    +0.210 HD
ENDBRANCH   4   9
BRANCH   1  11
ATOM     11  O   LIG    1       25.022 -29.231   6.091  0.00  0.00    -0.338 OA
BRANCH  11  14
ATOM     12  C   LIG    1       27.441 -27.583   4.808  0.00  0.00    +0.010 C 
ATOM     13  C   LIG    1       26.177 -27.240   5.098  0.00  0.00    -0.045 C 
ATOM     14  C   LIG    1       25.285 -27.826   6.197  0.00  0.00    +0.094 C 
ATOM     15  C   LIG    1       25.957 -27.520   7.556  0.00  0.00    +0.040 C 
ATOM     16  C   LIG    1       26.426 -26.048   7.652  0.00  0.00    +0.007 C 
ATOM     17  C   LIG    1       25.434 -25.002   7.031  0.00  0.00    +0.002 C 
ATOM     18  C   LIG    1       24.656 -25.563   5.815  0.00  0.00    -0.019 C 
ATOM     19  C   LIG    1       23.567 -24.571   5.450  0.00  0.00    +0.008 C 
ATOM     20  C   LIG    1       24.184 -23.347   4.830  0.00  0.00    +0.006 C 
ATOM     21  C   LIG    1       25.294 -22.645   5.660  0.00  0.00    +0.012 C 
ATOM     22  C   LIG    1       24.884 -21.176   6.125  0.00  0.00    +0.068 C 
ATOM     23  C   LIG    1       23.956 -20.469   5.093  0.00  0.00    +0.023 C 
ATOM     24  C   LIG    1       24.136 -21.230   7.471  0.00  0.00    +0.018 C 
ATOM     25  C   LIG    1       24.687 -22.197   8.511  0.00  0.00    +0.002 C 
ATOM     26  C   LIG    1       26.033 -22.806   8.157  0.00  0.00    +0.007 C 
ATOM     27  C   LIG    1       26.040 -23.541   6.785  0.00  0.00    -0.025 C 
ATOM     28  C   LIG    1       27.547 -23.666   6.399  0.00  0.00    +0.012 C 
ATOM     29  C   LIG    1       24.044 -26.919   6.160  0.00  0.00    +0.047 C 
ATOM     30  C   LIG    1       25.542 -25.963   4.615  0.00  0.00    +0.040 C 
BRANCH  22  31
ATOM     31  C   LIG    1       26.148 -20.266   6.197  0.00  0.00    +0.311 C 
ATOM     32  O   LIG    1       26.704 -19.921   7.204  0.00  0.00    -0.250 OA
BRANCH  31  33
ATOM     33  O   LIG    1       26.658 -19.907   4.989  0.00  0.00    -0.480 OA
ATOM     34  H   LIG    1       26.078 -20.031   4.219  0.00  0.00    +0.295 HD
ENDBRANCH  31  33
ENDBRANCH  22  31
ENDBRANCH  11  14
ENDBRANCH   1  11
BRANCH   2  35
ATOM     35  O   LIG    1       23.448 -31.328   8.802  0.00  0.00    -0.338 OA
BRANCH  35  36
ATOM     36  C   LIG    1       23.208 -30.331   9.825  0.00  0.00    +0.282 C 
ATOM     37  C   LIG    1       22.541 -30.955  11.090  0.00  0.00    +0.201 C 
ATOM     38  C   LIG    1       23.490 -31.978  11.758  0.00  0.00    +0.179 C 
ATOM     39  C   LIG    1       24.933 -31.838  11.225  0.00  0.00    +0.177 C 
ATOM     40  C   LIG    1       25.218 -30.332  11.207  0.00  0.00    +0.178 C 
ATOM     41  O   LIG    1       24.423 -29.667  10.208  0.00  0.00    -0.341 OA
BRANCH  37  42
ATOM     42  O   LIG    1       22.237 -29.897  12.025  0.00  0.00    -0.384 OA
ATOM     43  H   LIG    1       22.629 -30.139  12.884  0.00  0.00    +0.210 HD
ENDBRANCH  37  42
BRANCH  38  44
ATOM     44  O   LIG    1       22.975 -33.298  11.542  0.00  0.00    -0.386 OA
ATOM     45  H   LIG    1       22.240 -33.227  10.909  0.00  0.00    +0.210 HD
ENDBRANCH  38  44
BRANCH  39  46
ATOM     46  O   LIG    1       25.829 -32.590  12.038  0.00  0.00    -0.387 OA
ATOM     47  H   LIG    1       25.925 -32.109  12.886  0.00  0.00    +0.210 HD
ENDBRANCH  39  46
BRANCH  40  48
ATOM     48  C   LIG    1       26.695 -29.966  11.017  0.00  0.00    +0.190 C 
BRANCH  48  49
ATOM     49  O   LIG    1       27.388 -30.932  10.220  0.00  0.00    -0.392 OA
ATOM     50  H   LIG    1       28.302 -30.622  10.091  0.00  0.00    +0.209 HD
ENDBRANCH  48  49
ENDBRANCH  40  48
ENDBRANCH  35  36
ENDBRANCH   2  35
BRANCH   5  51
ATOM     51  C   LIG    1       27.474 -32.824   7.150  0.00  0.00    +0.190 C 
BRANCH  51  52
ATOM     52  O   LIG    1       27.887 -32.952   5.777  0.00  0.00    -0.392 OA
ATOM     53  H   LIG    1       27.248 -32.421   5.267  0.00  0.00    +0.209 HD
ENDBRANCH  51  52
ENDBRANCH   5  51
TORSDOF 15
ENDMDL
MODEL 3
REMARK VINA RESULT:      -4.3      1.392      2.563
REMARK  Name = *****
REMARK                            x       y       z     vdW  Elec       q    Type
REMARK                         _______ _______ _______ _____ _____    ______ ____
ROOT
ATOM      1  C   LIG    1       24.327 -29.381   9.530  0.00  0.00    +0.283 C 
ATOM      2  C   LIG    1       25.643 -28.755   8.939  0.00  0.00    +0.208 C 
ATOM      3  C   LIG    1       26.717 -29.886   8.695  0.00  0.00    +0.179 C 
ATOM      4  C   LIG    1       26.119 -31.310   8.753  0.00  0.00    +0.177 C 
ATOM      5  C   LIG    1       24.821 -31.200   7.981  0.00  0.00    +0.178 C 
ATOM      6  O   LIG    1       23.847 -30.501   8.754  0.00  0.00    -0.341 OA
ENDROOT
BRANCH   3   7
ATOM      7  O   LIG    1       27.811 -29.860   9.622  0.00  0.00    -0.386 OA
ATOM      8  H   LIG    1       28.465 -29.221   9.293  0.00  0.00    +0.210 HD
ENDBRANCH   3   7
BRANCH   4   9
ATOM      9  O   LIG    1       27.032 -32.237   8.161  0.00  0.00    -0.387 OA
ATOM     10  H   LIG    1       26.476 -32.964   7.818  0.00  0.00    +0.210 HD
ENDBRANCH   4   9
BRANCH   1  11
ATOM     11  O   LIG    1       24.508 -29.732  10.914  0.00  0.00    -0.338 OA
BRANCH  11  14
ATOM     12  C   LIG    1       22.993 -27.953  13.095  0.00  0.00    +0.010 C 
ATOM     13  C   LIG    1       22.550 -28.864  12.216  0.00  0.00    -0.045 C 
ATOM     14  C   LIG    1       23.320 -30.059  11.647  0.00  0.00    +0.094 C 
ATOM     15  C   LIG    1       23.677 -30.990  12.831  0.00  0.00    +0.040 C 
ATOM     16  C   LIG    1       22.464 -31.231  13.762  0.00  0.00    +0.007 C 
ATOM     17  C   LIG    1       21.094 -31.419  13.019  0.00  0.00    +0.002 C 
ATOM     18  C   LIG    1       21.003 -30.594  11.712  0.00  0.00    -0.019 C 
ATOM     19  C   LIG    1       19.759 -31.031  10.961  0.00  0.00    +0.008 C 
ATOM     20  C   LIG    1       18.534 -30.532  11.677  0.00  0.00    +0.006 C 
ATOM     21  C   LIG    1       18.416 -30.912  13.179  0.00  0.00    +0.012 C 
ATOM     22  C   LIG    1       17.176 -31.869  13.480  0.00  0.00    +0.068 C 
ATOM     23  C   LIG    1       15.973 -31.590  12.530  0.00  0.00    +0.023 C 
ATOM     24  C   LIG    1       17.584 -33.344  13.303  0.00  0.00    +0.018 C 
ATOM     25  C   LIG    1       18.954 -33.735  13.843  0.00  0.00    +0.002 C 
ATOM     26  C   LIG    1       19.631 -32.665  14.681  0.00  0.00    +0.007 C 
ATOM     27  C   LIG    1       19.790 -31.304  13.942  0.00  0.00    -0.025 C 
ATOM     28  C   LIG    1       20.047 -30.256  15.069  0.00  0.00    +0.012 C 
ATOM     29  C   LIG    1       22.247 -30.824  10.856  0.00  0.00    +0.047 C 
ATOM     30  C   LIG    1       21.089 -29.065  11.911  0.00  0.00    +0.040 C 
BRANCH  22  31
ATOM     31  C   LIG    1       16.617 -31.584  14.907  0.00  0.00    +0.311 C 
ATOM     32  O   LIG    1       16.697 -30.539  15.494  0.00  0.00    -0.250 OA
BRANCH  31  33
ATOM     33  O   LIG    1       15.940 -32.621  15.467  0.00  0.00    -0.480 OA
ATOM     34  H   LIG    1       15.345 -33.118  14.882  0.00  0.00    +0.295 HD
ENDBRANCH  31  33
ENDBRANCH  22  31
ENDBRANCH  11  14
ENDBRANCH   1  11
BRANCH   2  35
ATOM     35  O   LIG    1       25.436 -28.055   7.666  0.00  0.00    -0.338 OA
BRANCH  35  36
ATOM     36  C   LIG    1       26.582 -27.365   7.108  0.00  0.00    +0.282 C 
ATOM     37  C   LIG    1       26.746 -27.665   5.585  0.00  0.00    +0.201 C 
ATOM     38  C   LIG    1       25.537 -27.119   4.790  0.00  0.00    +0.179 C 
ATOM     39  C   LIG    1       24.701 -26.136   5.639  0.00  0.00    +0.177 C 
ATOM     40  C   LIG    1       25.722 -25.221   6.326  0.00  0.00    +0.178 C 
ATOM     41  O   LIG    1       26.489 -25.946   7.305  0.00  0.00    -0.341 OA
BRANCH  37  42
ATOM     42  O   LIG    1       27.957 -27.034   5.115  0.00  0.00    -0.384 OA
ATOM     43  H   LIG    1       28.638 -27.152   5.801  0.00  0.00    +0.210 HD
ENDBRANCH  37  42
BRANCH  38  44
ATOM     44  O   LIG    1       24.745 -28.223   4.334  0.00  0.00    -0.386 OA
ATOM     45  H   LIG    1       24.811 -28.252   3.364  0.00  0.00    +0.210 HD
ENDBRANCH  38  44
BRANCH  39  46
ATOM     46  O   LIG    1       23.767 -25.447   4.812  0.00  0.00    -0.387 OA
ATOM     47  H   LIG    1       24.083 -25.526   3.889  0.00  0.00    +0.210 HD
ENDBRANCH  39  46
BRANCH  40  48
ATOM     48  C   LIG    1       25.120 -23.966   6.970  0.00  0.00    +0.190 C 
BRANCH  48  49
ATOM     49  O   LIG    1       24.031 -23.440   6.204  0.00  0.00    -0.392 OA
ATOM     50  H   LIG    1       24.371 -22.716   5.649  0.00  0.00    +0.209 HD
ENDBRANCH  48  49
ENDBRANCH  40  48
ENDBRANCH  35  36
ENDBRANCH   2  35
BRANCH   5  51
ATOM     51  C   LIG    1       24.246 -32.492   7.398  0.00  0.00    +0.190 C 
BRANCH  51  52
ATOM     52  O   LIG    1       23.004 -32.174   6.744  0.00  0.00    -0.392 OA
ATOM     53  H   LIG    1       23.088 -31.241   6.475  0.00  0.00    +0.209 HD
ENDBRANCH  51  52
ENDBRANCH   5  51
TORSDOF 15
ENDMDL
MODEL 4
REMARK VINA RESULT:      -4.3      3.609      9.753
REMARK  Name = *****
REMARK                            x       y       z     vdW  Elec       q    Type
REMARK                         _______ _______ _______ _____ _____    ______ ____
ROOT
ATOM      1  C   LIG    1       25.146 -30.012   7.361  0.00  0.00    +0.283 C 
ATOM      2  C   LIG    1       23.860 -30.887   7.595  0.00  0.00    +0.208 C 
ATOM      3  C   LIG    1       23.872 -32.131   6.623  0.00  0.00    +0.179 C 
ATOM      4  C   LIG    1       25.248 -32.372   5.965  0.00  0.00    +0.177 C 
ATOM      5  C   LIG    1       26.240 -32.176   7.093  0.00  0.00    +0.178 C 
ATOM      6  O   LIG    1       26.363 -30.789   7.401  0.00  0.00    -0.341 OA
ENDROOT
BRANCH   3   7
ATOM      7  O   LIG    1       22.914 -32.047   5.558  0.00  0.00    -0.386 OA
ATOM      8  H   LIG    1       22.989 -32.855   5.025  0.00  0.00    +0.210 HD
ENDBRANCH   3   7
BRANCH   4   9
ATOM      9  O   LIG    1       25.294 -33.693   5.419  0.00  0.00    -0.387 OA
ATOM     10  H   LIG    1       26.214 -33.995   5.548  0.00  0.00    +0.210 HD
ENDBRANCH   4   9
BRANCH   1  11
ATOM     11  O   LIG    1       25.035 -29.261   6.139  0.00  0.00    -0.338 OA
BRANCH  11  14
ATOM     12  C   LIG    1       27.448 -27.615   4.842  0.00  0.00    +0.010 C 
ATOM     13  C   LIG    1       26.182 -27.275   5.127  0.00  0.00    -0.045 C 
ATOM     14  C   LIG    1       25.292 -27.854   6.231  0.00  0.00    +0.094 C 
ATOM     15  C   LIG    1       25.961 -27.532   7.588  0.00  0.00    +0.040 C 
ATOM     16  C   LIG    1       26.424 -26.058   7.670  0.00  0.00    +0.007 C 
ATOM     17  C   LIG    1       25.428 -25.022   7.037  0.00  0.00    +0.002 C 
ATOM     18  C   LIG    1       24.653 -25.598   5.826  0.00  0.00    -0.019 C 
ATOM     19  C   LIG    1       23.560 -24.614   5.451  0.00  0.00    +0.008 C 
ATOM     20  C   LIG    1       24.173 -23.394   4.820  0.00  0.00    +0.006 C 
ATOM     21  C   LIG    1       25.279 -22.679   5.644  0.00  0.00    +0.012 C 
ATOM     22  C   LIG    1       24.862 -21.207   6.094  0.00  0.00    +0.068 C 
ATOM     23  C   LIG    1       23.932 -20.514   5.055  0.00  0.00    +0.023 C 
ATOM     24  C   LIG    1       24.112 -21.252   7.441  0.00  0.00    +0.018 C 
ATOM     25  C   LIG    1       24.667 -22.206   8.490  0.00  0.00    +0.002 C 
ATOM     26  C   LIG    1       26.016 -22.812   8.143  0.00  0.00    +0.007 C 
ATOM     27  C   LIG    1       26.028 -23.561   6.778  0.00  0.00    -0.025 C 
ATOM     28  C   LIG    1       27.535 -23.683   6.395  0.00  0.00    +0.012 C 
ATOM     29  C   LIG    1       24.047 -26.953   6.185  0.00  0.00    +0.047 C 
ATOM     30  C   LIG    1       25.543 -26.006   4.632  0.00  0.00    +0.040 C 
BRANCH  22  31
ATOM     31  C   LIG    1       26.122 -20.291   6.158  0.00  0.00    +0.311 C 
ATOM     32  O   LIG    1       26.688 -19.950   7.162  0.00  0.00    -0.250 OA
BRANCH  31  33
ATOM     33  O   LIG    1       26.615 -19.920   4.948  0.00  0.00    -0.480 OA
ATOM     34  H   LIG    1       26.357 -20.468   4.188  0.00  0.00    +0.295 HD
ENDBRANCH  31  33
ENDBRANCH  22  31
ENDBRANCH  11  14
ENDBRANCH   1  11
BRANCH   2  35
ATOM     35  O   LIG    1       23.740 -31.394   8.966  0.00  0.00    -0.338 OA
BRANCH  35  36
ATOM     36  C   LIG    1       22.437 -31.883   9.369  0.00  0.00    +0.282 C 
ATOM     37  C   LIG    1       22.549 -33.199  10.200  0.00  0.00    +0.201 C 
ATOM     38  C   LIG    1       23.296 -32.940  11.530  0.00  0.00    +0.179 C 
ATOM     39  C   LIG    1       23.400 -31.430  11.833  0.00  0.00    +0.177 C 
ATOM     40  C   LIG    1       22.009 -30.857  11.540  0.00  0.00    +0.178 C 
ATOM     41  O   LIG    1       21.719 -30.900  10.131  0.00  0.00    -0.341 OA
BRANCH  37  42
ATOM     42  O   LIG    1       21.219 -33.686  10.481  0.00  0.00    -0.384 OA
ATOM     43  H   LIG    1       21.279 -34.290  11.243  0.00  0.00    +0.210 HD
ENDBRANCH  37  42
BRANCH  38  44
ATOM     44  O   LIG    1       24.589 -33.553  11.462  0.00  0.00    -0.386 OA
ATOM     45  H   LIG    1       25.029 -33.409  12.318  0.00  0.00    +0.210 HD
ENDBRANCH  38  44
BRANCH  39  46
ATOM     46  O   LIG    1       23.841 -31.229  13.173  0.00  0.00    -0.387 OA
ATOM     47  H   LIG    1       23.068 -31.369  13.757  0.00  0.00    +0.210 HD
ENDBRANCH  39  46
BRANCH  40  48
ATOM     48  C   LIG    1       21.780 -29.435  12.070  0.00  0.00    +0.190 C 
BRANCH  48  49
ATOM     49  O   LIG    1       23.010 -28.725  12.246  0.00  0.00    -0.392 OA
ATOM     50  H   LIG    1       22.987 -28.285  13.113  0.00  0.00    +0.209 HD
ENDBRANCH  48  49
ENDBRANCH  40  48
ENDBRANCH  35  36
ENDBRANCH   2  35
BRANCH   5  51
ATOM     51  C   LIG    1       27.611 -32.835   6.937  0.00  0.00    +0.190 C 
BRANCH  51  52
ATOM     52  O   LIG    1       27.892 -32.958   5.531  0.00  0.00    -0.392 OA
ATOM     53  H   LIG    1       28.710 -32.447   5.388  0.00  0.00    +0.209 HD
ENDBRANCH  51  52
ENDBRANCH   5  51
TORSDOF 15
ENDMDL
MODEL 5
REMARK VINA RESULT:      -4.1      3.643      9.701
REMARK  Name = *****
REMARK                            x       y       z     vdW  Elec       q    Type
REMARK                         _______ _______ _______ _____ _____    ______ ____
ROOT
ATOM      1  C   LIG    1       25.341 -30.190   6.764  0.00  0.00    +0.283 C 
ATOM      2  C   LIG    1       24.233 -31.129   7.366  0.00  0.00    +0.208 C 
ATOM      3  C   LIG    1       23.812 -32.217   6.303  0.00  0.00    +0.179 C 
ATOM      4  C   LIG    1       24.798 -32.318   5.118  0.00  0.00    +0.177 C 
ATOM      5  C   LIG    1       26.166 -32.257   5.765  0.00  0.00    +0.178 C 
ATOM      6  O   LIG    1       26.447 -30.927   6.196  0.00  0.00    -0.341 OA
ENDROOT
BRANCH   3   7
ATOM      7  O   LIG    1       22.510 -32.008   5.740  0.00  0.00    -0.386 OA
ATOM      8  H   LIG    1       22.179 -32.866   5.428  0.00  0.00    +0.210 HD
ENDBRANCH   3   7
BRANCH   4   9
ATOM      9  O   LIG    1       24.579 -33.543   4.415  0.00  0.00    -0.387 OA
ATOM     10  H   LIG    1       23.643 -33.517   4.134  0.00  0.00    +0.210 HD
ENDBRANCH   4   9
BRANCH   1  11
ATOM     11  O   LIG    1       24.770 -29.273   5.813  0.00  0.00    -0.338 OA
BRANCH  11  14
ATOM     12  C   LIG    1       27.296 -27.693   4.656  0.00  0.00    +0.010 C 
ATOM     13  C   LIG    1       26.044 -27.301   4.935  0.00  0.00    -0.045 C 
ATOM     14  C   LIG    1       25.099 -27.889   5.987  0.00  0.00    +0.094 C 
ATOM     15  C   LIG    1       25.754 -27.677   7.373  0.00  0.00    +0.040 C 
ATOM     16  C   LIG    1       26.292 -26.236   7.544  0.00  0.00    +0.007 C 
ATOM     17  C   LIG    1       25.367 -25.116   6.950  0.00  0.00    +0.002 C 
ATOM     18  C   LIG    1       24.591 -25.583   5.694  0.00  0.00    -0.019 C 
ATOM     19  C   LIG    1       23.560 -24.523   5.351  0.00  0.00    +0.008 C 
ATOM     20  C   LIG    1       24.251 -23.305   4.800  0.00  0.00    +0.006 C 
ATOM     21  C   LIG    1       25.375 -22.697   5.684  0.00  0.00    +0.012 C 
ATOM     22  C   LIG    1       25.026 -21.231   6.206  0.00  0.00    +0.068 C 
ATOM     23  C   LIG    1       24.158 -20.434   5.187  0.00  0.00    +0.023 C 
ATOM     24  C   LIG    1       24.245 -21.307   7.532  0.00  0.00    +0.018 C 
ATOM     25  C   LIG    1       24.724 -22.344   8.539  0.00  0.00    +0.002 C 
ATOM     26  C   LIG    1       26.047 -23.003   8.186  0.00  0.00    +0.007 C 
ATOM     27  C   LIG    1       26.050 -23.677   6.783  0.00  0.00    -0.025 C 
ATOM     28  C   LIG    1       27.557 -23.860   6.423  0.00  0.00    +0.012 C 
ATOM     29  C   LIG    1       23.906 -26.921   5.965  0.00  0.00    +0.047 C 
ATOM     30  C   LIG    1       25.485 -25.974   4.496  0.00  0.00    +0.040 C 
BRANCH  22  31
ATOM     31  C   LIG    1       26.331 -20.389   6.345  0.00  0.00    +0.311 C 
ATOM     32  O   LIG    1       26.802 -19.995   7.378  0.00  0.00    -0.250 OA
BRANCH  31  33
ATOM     33  O   LIG    1       26.983 -20.157   5.176  0.00  0.00    -0.480 OA
ATOM     34  H   LIG    1       27.931 -19.952   5.240  0.00  0.00    +0.295 HD
ENDBRANCH  31  33
ENDBRANCH  22  31
ENDBRANCH  11  14
ENDBRANCH   1  11
BRANCH   2  35
ATOM     35  O   LIG    1       24.661 -31.833   8.580  0.00  0.00    -0.338 OA
BRANCH  35  36
ATOM     36  C   LIG    1       25.098 -31.011   9.690  0.00  0.00    +0.282 C 
ATOM     37  C   LIG    1       23.950 -30.089  10.209  0.00  0.00    +0.201 C 
ATOM     38  C   LIG    1       22.790 -30.935  10.783  0.00  0.00    +0.179 C 
ATOM     39  C   LIG    1       23.223 -32.399  11.019  0.00  0.00    +0.177 C 
ATOM     40  C   LIG    1       24.598 -32.316  11.690  0.00  0.00    +0.178 C 
ATOM     41  O   LIG    1       25.590 -31.812  10.776  0.00  0.00    -0.341 OA
BRANCH  37  42
ATOM     42  O   LIG    1       24.477 -29.228  11.242  0.00  0.00    -0.384 OA
ATOM     43  H   LIG    1       24.502 -28.321  10.887  0.00  0.00    +0.210 HD
ENDBRANCH  37  42
BRANCH  38  44
ATOM     44  O   LIG    1       21.671 -30.855   9.891  0.00  0.00    -0.386 OA
ATOM     45  H   LIG    1       21.152 -31.671   9.996  0.00  0.00    +0.210 HD
ENDBRANCH  38  44
BRANCH  39  46
ATOM     46  O   LIG    1       22.239 -33.082  11.791  0.00  0.00    -0.387 OA
ATOM     47  H   LIG    1       21.384 -32.986  11.323  0.00  0.00    +0.210 HD
ENDBRANCH  39  46
BRANCH  40  48
ATOM     48  C   LIG    1       25.087 -33.632  12.307  0.00  0.00    +0.190 C 
BRANCH  48  49
ATOM     49  O   LIG    1       26.093 -33.416  13.301  0.00  0.00    -0.392 OA
ATOM     50  H   LIG    1       26.437 -32.512  13.197  0.00  0.00    +0.209 HD
ENDBRANCH  48  49
ENDBRANCH  40  48
ENDBRANCH  35  36
ENDBRANCH   2  35
BRANCH   5  51
ATOM     51  C   LIG    1       27.337 -32.845   4.976  0.00  0.00    +0.190 C 
BRANCH  51  52
ATOM     52  O   LIG    1       27.024 -32.751   3.574  0.00  0.00    -0.392 OA
ATOM     53  H   LIG    1       27.239 -33.627   3.205  0.00  0.00    +0.209 HD
ENDBRANCH  51  52
ENDBRANCH   5  51
TORSDOF 15
ENDMDL
MODEL 6
REMARK VINA RESULT:      -3.9      3.693      9.632
REMARK  Name = *****
REMARK                            x       y       z     vdW  Elec       q    Type
REMARK                         _______ _______ _______ _____ _____    ______ ____
ROOT
ATOM      1  C   LIG    1       25.585 -30.114   6.670  0.00  0.00    +0.283 C 
ATOM      2  C   LIG    1       24.903 -31.028   7.753  0.00  0.00    +0.208 C 
ATOM      3  C   LIG    1       23.963 -32.084   7.052  0.00  0.00    +0.179 C 
ATOM      4  C   LIG    1       24.206 -32.196   5.531  0.00  0.00    +0.177 C 
ATOM      5  C   LIG    1       25.715 -32.190   5.394  0.00  0.00    +0.178 C 
ATOM      6  O   LIG    1       26.223 -30.876   5.621  0.00  0.00    -0.341 OA
ENDROOT
BRANCH   3   7
ATOM      7  O   LIG    1       22.563 -31.825   7.228  0.00  0.00    -0.386 OA
ATOM      8  H   LIG    1       22.273 -31.249   6.502  0.00  0.00    +0.210 HD
ENDBRANCH   3   7
BRANCH   4   9
ATOM      9  O   LIG    1       23.617 -33.401   5.038  0.00  0.00    -0.387 OA
ATOM     10  H   LIG    1       23.819 -33.417   4.082  0.00  0.00    +0.210 HD
ENDBRANCH   4   9
BRANCH   1  11
ATOM     11  O   LIG    1       24.644 -29.164   6.140  0.00  0.00    -0.338 OA
BRANCH  11  14
ATOM     12  C   LIG    1       27.051 -27.653   4.678  0.00  0.00    +0.010 C 
ATOM     13  C   LIG    1       25.842 -27.234   5.080  0.00  0.00    -0.045 C 
ATOM     14  C   LIG    1       25.009 -27.782   6.242  0.00  0.00    +0.094 C 
ATOM     15  C   LIG    1       25.813 -27.548   7.544  0.00  0.00    +0.040 C 
ATOM     16  C   LIG    1       26.386 -26.113   7.620  0.00  0.00    +0.007 C 
ATOM     17  C   LIG    1       25.417 -24.992   7.102  0.00  0.00    +0.002 C 
ATOM     18  C   LIG    1       24.503 -25.475   5.949  0.00  0.00    -0.019 C 
ATOM     19  C   LIG    1       23.456 -24.407   5.694  0.00  0.00    +0.008 C 
ATOM     20  C   LIG    1       24.099 -23.214   5.041  0.00  0.00    +0.006 C 
ATOM     21  C   LIG    1       25.320 -22.603   5.783  0.00  0.00    +0.012 C 
ATOM     22  C   LIG    1       25.050 -21.120   6.303  0.00  0.00    +0.068 C 
ATOM     23  C   LIG    1       24.088 -20.333   5.364  0.00  0.00    +0.023 C 
ATOM     24  C   LIG    1       24.416 -21.152   7.707  0.00  0.00    +0.018 C 
ATOM     25  C   LIG    1       24.988 -22.174   8.682  0.00  0.00    +0.002 C 
ATOM     26  C   LIG    1       26.255 -22.862   8.204  0.00  0.00    +0.007 C 
ATOM     27  C   LIG    1       26.097 -23.569   6.826  0.00  0.00    -0.025 C 
ATOM     28  C   LIG    1       27.554 -23.784   6.310  0.00  0.00    +0.012 C 
ATOM     29  C   LIG    1       23.833 -26.795   6.326  0.00  0.00    +0.047 C 
ATOM     30  C   LIG    1       25.256 -25.909   4.672  0.00  0.00    +0.040 C 
BRANCH  22  31
ATOM     31  C   LIG    1       26.374 -20.296   6.279  0.00  0.00    +0.311 C 
ATOM     32  O   LIG    1       26.996 -19.945   7.245  0.00  0.00    -0.250 OA
BRANCH  31  33
ATOM     33  O   LIG    1       26.852 -20.028   5.036  0.00  0.00    -0.480 OA
ATOM     34  H   LIG    1       27.769 -20.295   4.856  0.00  0.00    +0.295 HD
ENDBRANCH  31  33
ENDBRANCH  22  31
ENDBRANCH  11  14
ENDBRANCH   1  11
BRANCH   2  35
ATOM     35  O   LIG    1       25.862 -31.765   8.583  0.00  0.00    -0.338 OA
BRANCH  35  36
ATOM     36  C   LIG    1       25.317 -32.528   9.688  0.00  0.00    +0.282 C 
ATOM     37  C   LIG    1       26.207 -32.405  10.964  0.00  0.00    +0.201 C 
ATOM     38  C   LIG    1       26.232 -30.945  11.473  0.00  0.00    +0.179 C 
ATOM     39  C   LIG    1       25.113 -30.102  10.821  0.00  0.00    +0.177 C 
ATOM     40  C   LIG    1       23.856 -30.978  10.878  0.00  0.00    +0.178 C 
ATOM     41  O   LIG    1       23.978 -32.114  10.003  0.00  0.00    -0.341 OA
BRANCH  37  42
ATOM     42  O   LIG    1       25.667 -33.265  11.992  0.00  0.00    -0.384 OA
ATOM     43  H   LIG    1       26.305 -33.985  12.142  0.00  0.00    +0.210 HD
ENDBRANCH  37  42
BRANCH  38  44
ATOM     44  O   LIG    1       27.527 -30.387  11.217  0.00  0.00    -0.386 OA
ATOM     45  H   LIG    1       27.991 -30.986  10.607  0.00  0.00    +0.210 HD
ENDBRANCH  38  44
BRANCH  39  46
ATOM     46  O   LIG    1       24.984 -28.854  11.497  0.00  0.00    -0.387 OA
ATOM     47  H   LIG    1       24.166 -28.899  12.033  0.00  0.00    +0.210 HD
ENDBRANCH  39  46
BRANCH  40  48
ATOM     48  C   LIG    1       22.548 -30.235  10.579  0.00  0.00    +0.190 C 
BRANCH  48  49
ATOM     49  O   LIG    1       21.620 -31.053   9.861  0.00  0.00    -0.392 OA
ATOM     50  H   LIG    1       21.875 -31.052   8.921  0.00  0.00    +0.209 HD
ENDBRANCH  48  49
ENDBRANCH  40  48
ENDBRANCH  35  36
ENDBRANCH   2  35
BRANCH   5  51
ATOM     51  C   LIG    1       26.301 -32.800   4.121  0.00  0.00    +0.190 C 
BRANCH  51  52
ATOM     52  O   LIG    1       25.466 -32.416   3.014  0.00  0.00    -0.392 OA
ATOM     53  H   LIG    1       26.083 -32.129   2.315  0.00  0.00    +0.209 HD
ENDBRANCH  51  52
ENDBRANCH   5  51
TORSDOF 15
ENDMDL
MODEL 7
REMARK VINA RESULT:      -3.4      4.178      9.664
REMARK  Name = *****
REMARK                            x       y       z     vdW  Elec       q    Type
REMARK                         _______ _______ _______ _____ _____    ______ ____
ROOT
ATOM      1  C   LIG    1       25.662 -30.078   7.650  0.00  0.00    +0.283 C 
ATOM      2  C   LIG    1       24.964 -30.264   9.046  0.00  0.00    +0.208 C 
ATOM      3  C   LIG    1       23.777 -31.298   8.921  0.00  0.00    +0.179 C 
ATOM      4  C   LIG    1       23.816 -32.108   7.607  0.00  0.00    +0.177 C 
ATOM      5  C   LIG    1       25.276 -32.477   7.440  0.00  0.00    +0.178 C 
ATOM      6  O   LIG    1       26.028 -31.334   7.038  0.00  0.00    -0.341 OA
ENDROOT
BRANCH   3   7
ATOM      7  O   LIG    1       22.475 -30.701   9.001  0.00  0.00    -0.386 OA
ATOM      8  H   LIG    1       22.567 -29.844   9.448  0.00  0.00    +0.210 HD
ENDBRANCH   3   7
BRANCH   4   9
ATOM      9  O   LIG    1       22.971 -33.255   7.725  0.00  0.00    -0.387 OA
ATOM     10  H   LIG    1       23.517 -34.010   7.431  0.00  0.00    +0.210 HD
ENDBRANCH   4   9
BRANCH   1  11
ATOM     11  O   LIG    1       24.845 -29.279   6.775  0.00  0.00    -0.338 OA
BRANCH  11  14
ATOM     12  C   LIG    1       27.046 -27.813   4.980  0.00  0.00    +0.010 C 
ATOM     13  C   LIG    1       25.856 -27.408   5.447  0.00  0.00    -0.045 C 
ATOM     14  C   LIG    1       25.149 -27.879   6.722  0.00  0.00    +0.094 C 
ATOM     15  C   LIG    1       26.046 -27.493   7.922  0.00  0.00    +0.040 C 
ATOM     16  C   LIG    1       26.553 -26.034   7.820  0.00  0.00    +0.007 C 
ATOM     17  C   LIG    1       25.491 -25.007   7.290  0.00  0.00    +0.002 C 
ATOM     18  C   LIG    1       24.509 -25.633   6.268  0.00  0.00    -0.019 C 
ATOM     19  C   LIG    1       23.394 -24.636   6.011  0.00  0.00    +0.008 C 
ATOM     20  C   LIG    1       23.923 -23.484   5.201  0.00  0.00    +0.006 C 
ATOM     21  C   LIG    1       25.170 -22.757   5.776  0.00  0.00    +0.012 C 
ATOM     22  C   LIG    1       24.872 -21.245   6.183  0.00  0.00    +0.068 C 
ATOM     23  C   LIG    1       23.798 -20.588   5.265  0.00  0.00    +0.023 C 
ATOM     24  C   LIG    1       24.359 -21.172   7.635  0.00  0.00    +0.018 C 
ATOM     25  C   LIG    1       25.059 -22.074   8.643  0.00  0.00    +0.002 C 
ATOM     26  C   LIG    1       26.314 -22.752   8.121  0.00  0.00    +0.007 C 
ATOM     27  C   LIG    1       26.076 -23.589   6.830  0.00  0.00    -0.025 C 
ATOM     28  C   LIG    1       27.494 -23.792   6.211  0.00  0.00    +0.012 C 
ATOM     29  C   LIG    1       23.938 -26.938   6.819  0.00  0.00    +0.047 C 
ATOM     30  C   LIG    1       25.174 -26.152   4.975  0.00  0.00    +0.040 C 
BRANCH  22  31
ATOM     31  C   LIG    1       26.147 -20.374   5.971  0.00  0.00    +0.311 C 
ATOM     32  O   LIG    1       26.875 -19.976   6.840  0.00  0.00    -0.250 OA
BRANCH  31  33
ATOM     33  O   LIG    1       26.449 -20.118   4.671  0.00  0.00    -0.480 OA
ATOM     34  H   LIG    1       26.331 -20.852   4.045  0.00  0.00    +0.295 HD
ENDBRANCH  31  33
ENDBRANCH  22  31
ENDBRANCH  11  14
ENDBRANCH   1  11
BRANCH   2  35
ATOM     35  O   LIG    1       25.871 -30.750  10.092  0.00  0.00    -0.338 OA
BRANCH  35  36
ATOM     36  C   LIG    1       26.501 -29.747  10.926  0.00  0.00    +0.282 C 
ATOM     37  C   LIG    1       25.478 -28.665  11.395  0.00  0.00    +0.201 C 
ATOM     38  C   LIG    1       24.392 -29.297  12.297  0.00  0.00    +0.179 C 
ATOM     39  C   LIG    1       24.808 -30.705  12.776  0.00  0.00    +0.177 C 
ATOM     40  C   LIG    1       26.272 -30.575  13.210  0.00  0.00    +0.178 C 
ATOM     41  O   LIG    1       27.127 -30.336  12.076  0.00  0.00    -0.341 OA
BRANCH  37  42
ATOM     42  O   LIG    1       26.185 -27.645  12.133  0.00  0.00    -0.384 OA
ATOM     43  H   LIG    1       26.453 -26.953  11.501  0.00  0.00    +0.210 HD
ENDBRANCH  37  42
BRANCH  38  44
ATOM     44  O   LIG    1       23.153 -29.330  11.579  0.00  0.00    -0.386 OA
ATOM     45  H   LIG    1       23.213 -28.678  10.859  0.00  0.00    +0.210 HD
ENDBRANCH  38  44
BRANCH  39  46
ATOM     46  O   LIG    1       23.933 -31.149  13.810  0.00  0.00    -0.387 OA
ATOM     47  H   LIG    1       24.476 -31.645  14.456  0.00  0.00    +0.210 HD
ENDBRANCH  39  46
BRANCH  40  48
ATOM     48  C   LIG    1       26.806 -31.764  14.017  0.00  0.00    +0.190 C 
BRANCH  48  49
ATOM     49  O   LIG    1       28.043 -31.457  14.668  0.00  0.00    -0.392 OA
ATOM     50  H   LIG    1       28.072 -31.942  15.511  0.00  0.00    +0.209 HD
ENDBRANCH  48  49
ENDBRANCH  40  48
ENDBRANCH  35  36
ENDBRANCH   2  35
BRANCH   5  51
ATOM     51  C   LIG    1       25.592 -33.688   6.562  0.00  0.00    +0.190 C 
BRANCH  51  52
ATOM     52  O   LIG    1       24.742 -33.634   5.401  0.00  0.00    -0.392 OA
ATOM     53  H   LIG    1       23.889 -34.008   5.690  0.00  0.00    +0.209 HD
ENDBRANCH  51  52
ENDBRANCH   5  51
TORSDOF 15
ENDMDL
MODEL 8
REMARK VINA RESULT:      -3.2      3.697      9.648
REMARK  Name = *****
REMARK                            x       y       z     vdW  Elec       q    Type
REMARK                         _______ _______ _______ _____ _____    ______ ____
ROOT
ATOM      1  C   LIG    1       25.629 -30.094   7.190  0.00  0.00    +0.283 C 
ATOM      2  C   LIG    1       24.953 -30.575   8.526  0.00  0.00    +0.208 C 
ATOM      3  C   LIG    1       23.846 -31.655   8.211  0.00  0.00    +0.179 C 
ATOM      4  C   LIG    1       23.939 -32.216   6.775  0.00  0.00    +0.177 C 
ATOM      5  C   LIG    1       25.421 -32.441   6.558  0.00  0.00    +0.178 C 
ATOM      6  O   LIG    1       26.085 -31.192   6.370  0.00  0.00    -0.341 OA
ENDROOT
BRANCH   3   7
ATOM      7  O   LIG    1       22.504 -31.180   8.383  0.00  0.00    -0.386 OA
ATOM      8  H   LIG    1       22.405 -30.370   7.856  0.00  0.00    +0.210 HD
ENDBRANCH   3   7
BRANCH   4   9
ATOM      9  O   LIG    1       23.182 -33.425   6.683  0.00  0.00    -0.387 OA
ATOM     10  H   LIG    1       23.767 -34.063   6.228  0.00  0.00    +0.210 HD
ENDBRANCH   4   9
BRANCH   1  11
ATOM     11  O   LIG    1       24.751 -29.216   6.463  0.00  0.00    -0.338 OA
BRANCH  11  14
ATOM     12  C   LIG    1       27.035 -27.712   4.810  0.00  0.00    +0.010 C 
ATOM     13  C   LIG    1       25.838 -27.306   5.257  0.00  0.00    -0.045 C 
ATOM     14  C   LIG    1       25.082 -27.822   6.485  0.00  0.00    +0.094 C 
ATOM     15  C   LIG    1       25.947 -27.510   7.731  0.00  0.00    +0.040 C 
ATOM     16  C   LIG    1       26.483 -26.059   7.713  0.00  0.00    +0.007 C 
ATOM     17  C   LIG    1       25.458 -24.987   7.200  0.00  0.00    +0.002 C 
ATOM     18  C   LIG    1       24.499 -25.544   6.120  0.00  0.00    -0.019 C 
ATOM     19  C   LIG    1       23.411 -24.515   5.875  0.00  0.00    +0.008 C 
ATOM     20  C   LIG    1       23.986 -23.336   5.137  0.00  0.00    +0.006 C 
ATOM     21  C   LIG    1       25.227 -22.663   5.786  0.00  0.00    +0.012 C 
ATOM     22  C   LIG    1       24.944 -21.165   6.254  0.00  0.00    +0.068 C 
ATOM     23  C   LIG    1       23.913 -20.445   5.335  0.00  0.00    +0.023 C 
ATOM     24  C   LIG    1       24.386 -21.150   7.691  0.00  0.00    +0.018 C 
ATOM     25  C   LIG    1       25.036 -22.112   8.677  0.00  0.00    +0.002 C 
ATOM     26  C   LIG    1       26.295 -22.790   8.162  0.00  0.00    +0.007 C 
ATOM     27  C   LIG    1       26.084 -23.561   6.827  0.00  0.00    -0.025 C 
ATOM     28  C   LIG    1       27.517 -23.763   6.243  0.00  0.00    +0.012 C 
ATOM     29  C   LIG    1       23.886 -26.862   6.589  0.00  0.00    +0.047 C 
ATOM     30  C   LIG    1       25.195 -26.015   4.824  0.00  0.00    +0.040 C 
BRANCH  22  31
ATOM     31  C   LIG    1       26.242 -20.311   6.123  0.00  0.00    +0.311 C 
ATOM     32  O   LIG    1       26.927 -19.936   7.037  0.00  0.00    -0.250 OA
BRANCH  31  33
ATOM     33  O   LIG    1       26.617 -20.042   4.846  0.00  0.00    -0.480 OA
ATOM     34  H   LIG    1       27.549 -20.209   4.622  0.00  0.00    +0.295 HD
ENDBRANCH  31  33
ENDBRANCH  22  31
ENDBRANCH  11  14
ENDBRANCH   1  11
BRANCH   2  35
ATOM     35  O   LIG    1       25.898 -31.169   9.478  0.00  0.00    -0.338 OA
BRANCH  35  36
ATOM     36  C   LIG    1       25.329 -31.891  10.597  0.00  0.00    +0.282 C 
ATOM     37  C   LIG    1       26.261 -31.838  11.848  0.00  0.00    +0.201 C 
ATOM     38  C   LIG    1       26.408 -30.384  12.356  0.00  0.00    +0.179 C 
ATOM     39  C   LIG    1       25.338 -29.459  11.736  0.00  0.00    +0.177 C 
ATOM     40  C   LIG    1       24.021 -30.239  11.828  0.00  0.00    +0.178 C 
ATOM     41  O   LIG    1       24.034 -31.380  10.949  0.00  0.00    -0.341 OA
BRANCH  37  42
ATOM     42  O   LIG    1       25.687 -32.656  12.891  0.00  0.00    -0.384 OA
ATOM     43  H   LIG    1       26.405 -32.909  13.499  0.00  0.00    +0.210 HD
ENDBRANCH  37  42
BRANCH  38  44
ATOM     44  O   LIG    1       27.733 -29.923  12.065  0.00  0.00    -0.386 OA
ATOM     45  H   LIG    1       28.001 -29.325  12.784  0.00  0.00    +0.210 HD
ENDBRANCH  38  44
BRANCH  39  46
ATOM     46  O   LIG    1       25.320 -28.207  12.415  0.00  0.00    -0.387 OA
ATOM     47  H   LIG    1       24.381 -27.966  12.554  0.00  0.00    +0.210 HD
ENDBRANCH  39  46
BRANCH  40  48
ATOM     48  C   LIG    1       22.764 -29.401  11.565  0.00  0.00    +0.190 C 
BRANCH  48  49
ATOM     49  O   LIG    1       22.441 -28.557  12.674  0.00  0.00    -0.392 OA
ATOM     50  H   LIG    1       22.801 -27.669  12.498  0.00  0.00    +0.209 HD
ENDBRANCH  48  49
ENDBRANCH  40  48
ENDBRANCH  35  36
ENDBRANCH   2  35
BRANCH   5  51
ATOM     51  C   LIG    1       25.822 -33.452   5.483  0.00  0.00    +0.190 C 
BRANCH  51  52
ATOM     52  O   LIG    1       24.893 -33.334   4.390  0.00  0.00    -0.392 OA
ATOM     53  H   LIG    1       25.180 -32.545   3.894  0.00  0.00    +0.209 HD
ENDBRANCH  51  52
ENDBRANCH   5  51
TORSDOF 15
ENDMDL
MODEL 9
REMARK VINA RESULT:      -2.9      5.813     10.321
REMARK  Name = *****
REMARK                            x       y       z     vdW  Elec       q    Type
REMARK                         _______ _______ _______ _____ _____    ______ ____
ROOT
ATOM      1  C   LIG    1       26.367 -22.997   7.237  0.00  0.00    +0.283 C 
ATOM      2  C   LIG    1       27.175 -21.687   6.916  0.00  0.00    +0.208 C 
ATOM      3  C   LIG    1       26.319 -20.741   5.985  0.00  0.00    +0.179 C 
ATOM      4  C   LIG    1       24.831 -21.148   5.914  0.00  0.00    +0.177 C 
ATOM      5  C   LIG    1       24.465 -21.474   7.347  0.00  0.00    +0.178 C 
ATOM      6  O   LIG    1       25.035 -22.725   7.727  0.00  0.00    -0.341 OA
ENDROOT
BRANCH   3   7
ATOM      7  O   LIG    1       26.793 -20.671   4.633  0.00  0.00    -0.386 OA
ATOM      8  H   LIG    1       26.124 -21.082   4.061  0.00  0.00    +0.210 HD
ENDBRANCH   3   7
BRANCH   4   9
ATOM      9  O   LIG    1       24.062 -20.065   5.386  0.00  0.00    -0.387 OA
ATOM     10  H   LIG    1       24.370 -19.270   5.865  0.00  0.00    +0.210 HD
ENDBRANCH   4   9
BRANCH   1  11
ATOM     11  O   LIG    1       26.344 -23.873   6.096  0.00  0.00    -0.338 OA
BRANCH  11  14
ATOM     12  C   LIG    1       23.417 -25.073   6.547  0.00  0.00    +0.010 C 
ATOM     13  C   LIG    1       24.530 -25.601   6.016  0.00  0.00    -0.045 C 
ATOM     14  C   LIG    1       25.979 -25.237   6.348  0.00  0.00    +0.094 C 
ATOM     15  C   LIG    1       26.216 -25.574   7.839  0.00  0.00    +0.040 C 
ATOM     16  C   LIG    1       25.673 -26.976   8.208  0.00  0.00    +0.007 C 
ATOM     17  C   LIG    1       25.917 -28.081   7.120  0.00  0.00    +0.002 C 
ATOM     18  C   LIG    1       25.890 -27.518   5.677  0.00  0.00    -0.019 C 
ATOM     19  C   LIG    1       26.372 -28.605   4.735  0.00  0.00    +0.008 C 
ATOM     20  C   LIG    1       25.323 -29.678   4.622  0.00  0.00    +0.006 C 
ATOM     21  C   LIG    1       24.837 -30.303   5.959  0.00  0.00    +0.012 C 
ATOM     22  C   LIG    1       25.206 -31.849   6.090  0.00  0.00    +0.068 C 
ATOM     23  C   LIG    1       25.207 -32.574   4.711  0.00  0.00    +0.023 C 
ATOM     24  C   LIG    1       26.608 -32.013   6.709  0.00  0.00    +0.018 C 
ATOM     25  C   LIG    1       26.948 -31.082   7.865  0.00  0.00    +0.002 C 
ATOM     26  C   LIG    1       25.774 -30.274   8.393  0.00  0.00    +0.007 C 
ATOM     27  C   LIG    1       25.064 -29.424   7.300  0.00  0.00    -0.025 C 
ATOM     28  C   LIG    1       23.668 -29.071   7.902  0.00  0.00    +0.012 C 
ATOM     29  C   LIG    1       26.790 -26.289   5.574  0.00  0.00    +0.047 C 
ATOM     30  C   LIG    1       24.539 -26.900   5.256  0.00  0.00    +0.040 C 
BRANCH  22  31
ATOM     31  C   LIG    1       24.112 -32.591   6.917  0.00  0.00    +0.311 C 
ATOM     32  O   LIG    1       22.938 -32.335   6.911  0.00  0.00    -0.250 OA
BRANCH  31  33
ATOM     33  O   LIG    1       24.569 -33.643   7.645  0.00  0.00    -0.480 OA
ATOM     34  H   LIG    1       25.180 -33.436   8.372  0.00  0.00    +0.295 HD
ENDBRANCH  31  33
ENDBRANCH  22  31
ENDBRANCH  11  14
ENDBRANCH   1  11
BRANCH   2  35
ATOM     35  O   LIG    1       27.544 -20.920   8.112  0.00  0.00    -0.338 OA
BRANCH  35  36
ATOM     36  C   LIG    1       28.864 -21.161   8.658  0.00  0.00    +0.282 C 
ATOM     37  C   LIG    1       29.907 -21.447   7.533  0.00  0.00    +0.201 C 
ATOM     38  C   LIG    1       30.081 -20.208   6.624  0.00  0.00    +0.179 C 
ATOM     39  C   LIG    1       29.473 -18.944   7.271  0.00  0.00    +0.177 C 
ATOM     40  C   LIG    1       29.936 -18.970   8.732  0.00  0.00    +0.178 C 
ATOM     41  O   LIG    1       29.315 -20.052   9.451  0.00  0.00    -0.341 OA
BRANCH  37  42
ATOM     42  O   LIG    1       31.173 -21.777   8.145  0.00  0.00    -0.384 OA
ATOM     43  H   LIG    1       31.869 -21.290   7.668  0.00  0.00    +0.210 HD
ENDBRANCH  37  42
BRANCH  38  44
ATOM     44  O   LIG    1       29.488 -20.481   5.348  0.00  0.00    -0.386 OA
ATOM     45  H   LIG    1       28.672 -19.956   5.284  0.00  0.00    +0.210 HD
ENDBRANCH  38  44
BRANCH  39  46
ATOM     46  O   LIG    1       29.880 -17.782   6.553  0.00  0.00    -0.387 OA
ATOM     47  H   LIG    1       30.121 -17.102   7.216  0.00  0.00    +0.210 HD
ENDBRANCH  39  46
BRANCH  40  48
ATOM     48  C   LIG    1       29.721 -17.656   9.493  0.00  0.00    +0.190 C 
BRANCH  48  49
ATOM     49  O   LIG    1       30.040 -17.783  10.882  0.00  0.00    -0.392 OA
ATOM     50  H   LIG    1       29.286 -17.451  11.400  0.00  0.00    +0.209 HD
ENDBRANCH  48  49
ENDBRANCH  40  48
ENDBRANCH  35  36
ENDBRANCH   2  35
BRANCH   5  51
ATOM     51  C   LIG    1       22.984 -21.402   7.722  0.00  0.00    +0.190 C 
BRANCH  51  52
ATOM     52  O   LIG    1       22.217 -21.922   6.620  0.00  0.00    -0.392 OA
ATOM     53  H   LIG    1       22.622 -21.535   5.822  0.00  0.00    +0.209 HD
ENDBRANCH  51  52
ENDBRANCH   5  51
TORSDOF 15
ENDMDL
