MODEL 1
REMARK VINA RESULT:      -7.1      0.000      0.000
REMARK  Name = *****
REMARK                            x       y       z     vdW  Elec       q    Type
REMARK                         _______ _______ _______ _____ _____    ______ ____
ROOT
ATOM      1  C   LIG    1       30.383 -19.517   7.442  0.00  0.00    +0.059 A 
ATOM      2  C   LIG    1       30.093 -18.639   6.395  0.00  0.00    +0.017 A 
ATOM      3  C   LIG    1       28.971 -18.856   5.590  0.00  0.00    +0.023 A 
ATOM      4  C   LIG    1       28.161 -19.977   5.781  0.00  0.00    +0.025 A 
ATOM      5  C   LIG    1       28.444 -20.840   6.844  0.00  0.00    +0.023 A 
ATOM      6  C   LIG    1       29.561 -20.629   7.658  0.00  0.00    +0.017 A 
ENDROOT
BRANCH   4   7
ATOM      7  N   LIG    1       26.957 -20.101   5.078  0.00  0.00    -0.358 N 
ATOM      8  H   LIG    1       27.020 -20.698   4.260  0.00  0.00    +0.142 HD
ATOM      9  H   LIG    1       26.158 -20.327   5.662  0.00  0.00    +0.142 HD
ENDBRANCH   4   7
BRANCH   1  10
ATOM     10  C   LIG    1       31.540 -19.203   8.321  0.00  0.00    +0.339 C 
ATOM     11  O   LIG    1       32.012 -19.983   9.127  0.00  0.00    -0.245 OA
BRANCH  10  12
ATOM     12  O   LIG    1       31.994 -17.955   8.048  0.00  0.00    -0.461 OA
BRANCH  12  13
ATOM     13  C   LIG    1       32.117 -17.070   9.169  0.00  0.00    +0.232 C 
BRANCH  13  14
ATOM     14  C   LIG    1       30.746 -16.735   9.752  0.00  0.00    +0.041 C 
BRANCH  14  16
ATOM     15  C   LIG    1       31.657 -16.426  12.092  0.00  0.00    +0.004 C 
ATOM     16  C   LIG    1       30.647 -17.152  11.221  0.00  0.00    +0.000 C 
ENDBRANCH  14  16
ENDBRANCH  13  14
ENDBRANCH  12  13
ENDBRANCH  10  12
ENDBRANCH   1  10
TORSDOF 6
ENDMDL
MODEL 2
REMARK VINA RESULT:      -6.8      6.404      7.850
REMARK  Name = *****
REMARK                            x       y       z     vdW  Elec       q    Type
REMARK                         _______ _______ _______ _____ _____    ______ ____
ROOT
ATOM      1  C   LIG    1       24.950 -22.966   7.319  0.00  0.00    +0.059 A 
ATOM      2  C   LIG    1       23.640 -23.310   6.977  0.00  0.00    +0.017 A 
ATOM      3  C   LIG    1       23.367 -24.569   6.433  0.00  0.00    +0.023 A 
ATOM      4  C   LIG    1       24.399 -25.474   6.171  0.00  0.00    +0.025 A 
ATOM      5  C   LIG    1       25.704 -25.130   6.536  0.00  0.00    +0.023 A 
ATOM      6  C   LIG    1       25.987 -23.876   7.084  0.00  0.00    +0.017 A 
ENDROOT
BRANCH   4   7
ATOM      7  N   LIG    1       24.100 -26.783   5.778  0.00  0.00    -0.358 N 
ATOM      8  H   LIG    1       23.152 -27.070   5.996  0.00  0.00    +0.142 HD
ATOM      9  H   LIG    1       24.357 -26.995   4.819  0.00  0.00    +0.142 HD
ENDBRANCH   4   7
BRANCH   1  10
ATOM     10  C   LIG    1       25.181 -21.648   7.966  0.00  0.00    +0.339 C 
ATOM     11  O   LIG    1       25.748 -21.506   9.034  0.00  0.00    -0.245 OA
BRANCH  10  12
ATOM     12  O   LIG    1       24.707 -20.659   7.169  0.00  0.00    -0.461 OA
BRANCH  12  13
ATOM     13  C   LIG    1       25.374 -20.490   5.911  0.00  0.00    +0.232 C 
BRANCH  13  14
ATOM     14  C   LIG    1       24.366 -20.416   4.766  0.00  0.00    +0.041 C 
BRANCH  14  16
ATOM     15  C   LIG    1       22.390 -18.835   4.743  0.00  0.00    +0.004 C 
ATOM     16  C   LIG    1       22.953 -20.139   5.283  0.00  0.00    +0.000 C 
ENDBRANCH  14  16
ENDBRANCH  13  14
ENDBRANCH  12  13
ENDBRANCH  10  12
ENDBRANCH   1  10
TORSDOF 6
ENDMDL
MODEL 3
REMARK VINA RESULT:      -6.8      4.223      5.827
REMARK  Name = *****
REMARK                            x       y       z     vdW  Elec       q    Type
REMARK                         _______ _______ _______ _____ _____    ______ ____
ROOT
ATOM      1  C   LIG    1       25.293 -22.087   7.699  0.00  0.00    +0.059 A 
ATOM      2  C   LIG    1       26.133 -23.164   7.408  0.00  0.00    +0.017 A 
ATOM      3  C   LIG    1       25.619 -24.302   6.779  0.00  0.00    +0.023 A 
ATOM      4  C   LIG    1       24.256 -24.402   6.486  0.00  0.00    +0.025 A 
ATOM      5  C   LIG    1       23.426 -23.312   6.761  0.00  0.00    +0.023 A 
ATOM      6  C   LIG    1       23.932 -22.168   7.385  0.00  0.00    +0.017 A 
ENDROOT
BRANCH   4   7
ATOM      7  N   LIG    1       23.782 -25.471   5.718  0.00  0.00    -0.358 N 
ATOM      8  H   LIG    1       24.493 -26.157   5.485  0.00  0.00    +0.142 HD
ATOM      9  H   LIG    1       22.937 -25.899   6.083  0.00  0.00    +0.142 HD
ENDBRANCH   4   7
BRANCH   1  10
ATOM     10  C   LIG    1       25.899 -20.868   8.296  0.00  0.00    +0.339 C 
ATOM     11  O   LIG    1       25.857 -20.600   9.483  0.00  0.00    -0.245 OA
BRANCH  10  12
ATOM     12  O   LIG    1       26.526 -20.151   7.331  0.00  0.00    -0.461 OA
BRANCH  12  13
ATOM     13  C   LIG    1       27.959 -20.147   7.381  0.00  0.00    +0.232 C 
BRANCH  13  14
ATOM     14  C   LIG    1       28.550 -19.806   6.014  0.00  0.00    +0.041 C 
BRANCH  14  16
ATOM     15  C   LIG    1       30.071 -18.510   7.566  0.00  0.00    +0.004 C 
ATOM     16  C   LIG    1       29.637 -18.735   6.128  0.00  0.00    +0.000 C 
ENDBRANCH  14  16
ENDBRANCH  13  14
ENDBRANCH  12  13
ENDBRANCH  10  12
ENDBRANCH   1  10
TORSDOF 6
ENDMDL
MODEL 4
REMARK VINA RESULT:      -6.6      4.108      6.665
REMARK  Name = *****
REMARK                            x       y       z     vdW  Elec       q    Type
REMARK                         _______ _______ _______ _____ _____    ______ ____
ROOT
ATOM      1  C   LIG    1       26.897 -20.714   7.347  0.00  0.00    +0.059 A 
ATOM      2  C   LIG    1       28.078 -20.310   7.973  0.00  0.00    +0.017 A 
ATOM      3  C   LIG    1       29.016 -19.545   7.272  0.00  0.00    +0.023 A 
ATOM      4  C   LIG    1       28.814 -19.225   5.927  0.00  0.00    +0.025 A 
ATOM      5  C   LIG    1       27.620 -19.614   5.313  0.00  0.00    +0.023 A 
ATOM      6  C   LIG    1       26.674 -20.375   6.008  0.00  0.00    +0.017 A 
ENDROOT
BRANCH   4   7
ATOM      7  N   LIG    1       29.676 -18.331   5.283  0.00  0.00    -0.358 N 
ATOM      8  H   LIG    1       30.215 -17.751   5.918  0.00  0.00    +0.142 HD
ATOM      9  H   LIG    1       30.253 -18.757   4.565  0.00  0.00    +0.142 HD
ENDBRANCH   4   7
BRANCH   1  10
ATOM     10  C   LIG    1       25.895 -21.457   8.155  0.00  0.00    +0.339 C 
ATOM     11  O   LIG    1       25.784 -21.353   9.363  0.00  0.00    -0.245 OA
BRANCH  10  12
ATOM     12  O   LIG    1       25.121 -22.214   7.339  0.00  0.00    -0.461 OA
BRANCH  12  13
ATOM     13  C   LIG    1       23.704 -22.045   7.480  0.00  0.00    +0.232 C 
BRANCH  13  14
ATOM     14  C   LIG    1       23.269 -20.665   6.993  0.00  0.00    +0.041 C 
BRANCH  14  16
ATOM     15  C   LIG    1       22.485 -19.318   5.000  0.00  0.00    +0.004 C 
ATOM     16  C   LIG    1       22.924 -20.682   5.502  0.00  0.00    +0.000 C 
ENDBRANCH  14  16
ENDBRANCH  13  14
ENDBRANCH  12  13
ENDBRANCH  10  12
ENDBRANCH   1  10
TORSDOF 6
ENDMDL
MODEL 5
REMARK VINA RESULT:      -6.6      5.260      7.695
REMARK  Name = *****
REMARK                            x       y       z     vdW  Elec       q    Type
REMARK                         _______ _______ _______ _____ _____    ______ ____
ROOT
ATOM      1  C   LIG    1       25.114 -20.709   6.794  0.00  0.00    +0.059 A 
ATOM      2  C   LIG    1       25.768 -20.352   5.612  0.00  0.00    +0.017 A 
ATOM      3  C   LIG    1       27.165 -20.299   5.574  0.00  0.00    +0.023 A 
ATOM      4  C   LIG    1       27.921 -20.544   6.723  0.00  0.00    +0.025 A 
ATOM      5  C   LIG    1       27.261 -20.922   7.896  0.00  0.00    +0.023 A 
ATOM      6  C   LIG    1       25.865 -20.982   7.943  0.00  0.00    +0.017 A 
ENDROOT
BRANCH   4   7
ATOM      7  N   LIG    1       29.314 -20.644   6.637  0.00  0.00    -0.358 N 
ATOM      8  H   LIG    1       29.710 -21.373   7.222  0.00  0.00    +0.142 HD
ATOM      9  H   LIG    1       29.668 -20.677   5.686  0.00  0.00    +0.142 HD
ENDBRANCH   4   7
BRANCH   1  10
ATOM     10  C   LIG    1       23.633 -20.829   6.765  0.00  0.00    +0.339 C 
ATOM     11  O   LIG    1       22.898 -20.034   6.208  0.00  0.00    -0.245 OA
BRANCH  10  12
ATOM     12  O   LIG    1       23.255 -21.961   7.407  0.00  0.00    -0.461 OA
BRANCH  12  13
ATOM     13  C   LIG    1       22.640 -22.970   6.595  0.00  0.00    +0.232 C 
BRANCH  13  14
ATOM     14  C   LIG    1       23.396 -24.293   6.706  0.00  0.00    +0.041 C 
BRANCH  14  16
ATOM     15  C   LIG    1       25.913 -24.542   6.741  0.00  0.00    +0.004 C 
ATOM     16  C   LIG    1       24.688 -24.269   5.886  0.00  0.00    +0.000 C 
ENDBRANCH  14  16
ENDBRANCH  13  14
ENDBRANCH  12  13
ENDBRANCH  10  12
ENDBRANCH   1  10
TORSDOF 6
ENDMDL
MODEL 6
REMARK VINA RESULT:      -6.5      4.136      6.757
REMARK  Name = *****
REMARK                            x       y       z     vdW  Elec       q    Type
REMARK                         _______ _______ _______ _____ _____    ______ ____
ROOT
ATOM      1  C   LIG    1       27.852 -20.117   6.314  0.00  0.00    +0.059 A 
ATOM      2  C   LIG    1       28.297 -20.962   7.333  0.00  0.00    +0.017 A 
ATOM      3  C   LIG    1       29.585 -20.810   7.855  0.00  0.00    +0.023 A 
ATOM      4  C   LIG    1       30.461 -19.857   7.329  0.00  0.00    +0.025 A 
ATOM      5  C   LIG    1       30.002 -19.001   6.324  0.00  0.00    +0.023 A 
ATOM      6  C   LIG    1       28.714 -19.142   5.799  0.00  0.00    +0.017 A 
ENDROOT
BRANCH   4   7
ATOM      7  N   LIG    1       31.685 -19.607   7.960  0.00  0.00    -0.358 N 
ATOM      8  H   LIG    1       31.695 -18.758   8.514  0.00  0.00    +0.142 HD
ATOM      9  H   LIG    1       32.059 -20.403   8.466  0.00  0.00    +0.142 HD
ENDBRANCH   4   7
BRANCH   1  10
ATOM     10  C   LIG    1       26.448 -20.264   5.845  0.00  0.00    +0.339 C 
ATOM     11  O   LIG    1       26.082 -20.020   4.710  0.00  0.00    -0.245 OA
BRANCH  10  12
ATOM     12  O   LIG    1       25.679 -20.743   6.854  0.00  0.00    -0.461 OA
BRANCH  12  13
ATOM     13  C   LIG    1       24.530 -21.505   6.462  0.00  0.00    +0.232 C 
BRANCH  13  14
ATOM     14  C   LIG    1       23.252 -20.682   6.615  0.00  0.00    +0.041 C 
BRANCH  14  16
ATOM     15  C   LIG    1       22.432 -19.108   4.812  0.00  0.00    +0.004 C 
ATOM     16  C   LIG    1       22.511 -20.550   5.283  0.00  0.00    +0.000 C 
ENDBRANCH  14  16
ENDBRANCH  13  14
ENDBRANCH  12  13
ENDBRANCH  10  12
ENDBRANCH   1  10
TORSDOF 6
ENDMDL
MODEL 7
REMARK VINA RESULT:      -6.5      3.989      6.660
REMARK  Name = *****
REMARK                            x       y       z     vdW  Elec       q    Type
REMARK                         _______ _______ _______ _____ _____    ______ ____
ROOT
ATOM      1  C   LIG    1       27.948 -20.217   6.427  0.00  0.00    +0.059 A 
ATOM      2  C   LIG    1       28.543 -20.927   7.473  0.00  0.00    +0.017 A 
ATOM      3  C   LIG    1       29.847 -20.620   7.874  0.00  0.00    +0.023 A 
ATOM      4  C   LIG    1       30.590 -19.645   7.203  0.00  0.00    +0.025 A 
ATOM      5  C   LIG    1       29.980 -18.924   6.172  0.00  0.00    +0.023 A 
ATOM      6  C   LIG    1       28.676 -19.221   5.767  0.00  0.00    +0.017 A 
ENDROOT
BRANCH   4   7
ATOM      7  N   LIG    1       31.828 -19.236   7.710  0.00  0.00    -0.358 N 
ATOM      8  H   LIG    1       32.499 -18.978   6.994  0.00  0.00    +0.142 HD
ATOM      9  H   LIG    1       31.764 -18.542   8.448  0.00  0.00    +0.142 HD
ENDBRANCH   4   7
BRANCH   1  10
ATOM     10  C   LIG    1       26.534 -20.525   6.088  0.00  0.00    +0.339 C 
ATOM     11  O   LIG    1       25.789 -21.171   6.802  0.00  0.00    -0.245 OA
BRANCH  10  12
ATOM     12  O   LIG    1       26.212 -19.945   4.905  0.00  0.00    -0.461 OA
BRANCH  12  13
ATOM     13  C   LIG    1       24.996 -20.395   4.294  0.00  0.00    +0.232 C 
BRANCH  13  14
ATOM     14  C   LIG    1       24.250 -19.230   3.644  0.00  0.00    +0.041 C 
BRANCH  14  16
ATOM     15  C   LIG    1       22.676 -19.906   5.507  0.00  0.00    +0.004 C 
ATOM     16  C   LIG    1       22.889 -19.003   4.304  0.00  0.00    +0.000 C 
ENDBRANCH  14  16
ENDBRANCH  13  14
ENDBRANCH  12  13
ENDBRANCH  10  12
ENDBRANCH   1  10
TORSDOF 6
ENDMDL
MODEL 8
REMARK VINA RESULT:      -6.4      7.418      8.503
REMARK  Name = *****
REMARK                            x       y       z     vdW  Elec       q    Type
REMARK                         _______ _______ _______ _____ _____    ______ ____
ROOT
ATOM      1  C   LIG    1       24.309 -23.415   6.955  0.00  0.00    +0.059 A 
ATOM      2  C   LIG    1       25.686 -23.647   6.975  0.00  0.00    +0.017 A 
ATOM      3  C   LIG    1       26.194 -24.877   6.547  0.00  0.00    +0.023 A 
ATOM      4  C   LIG    1       25.336 -25.906   6.151  0.00  0.00    +0.025 A 
ATOM      5  C   LIG    1       23.960 -25.659   6.113  0.00  0.00    +0.023 A 
ATOM      6  C   LIG    1       23.443 -24.431   6.534  0.00  0.00    +0.017 A 
ENDROOT
BRANCH   4   7
ATOM      7  N   LIG    1       25.856 -27.071   5.578  0.00  0.00    -0.358 N 
ATOM      8  H   LIG    1       25.665 -27.913   6.112  0.00  0.00    +0.142 HD
ATOM      9  H   LIG    1       25.637 -27.181   4.592  0.00  0.00    +0.142 HD
ENDBRANCH   4   7
BRANCH   1  10
ATOM     10  C   LIG    1       23.821 -22.065   7.344  0.00  0.00    +0.339 C 
ATOM     11  O   LIG    1       24.279 -21.417   8.266  0.00  0.00    -0.245 OA
BRANCH  10  12
ATOM     12  O   LIG    1       22.839 -21.673   6.494  0.00  0.00    -0.461 OA
BRANCH  12  13
ATOM     13  C   LIG    1       23.268 -20.985   5.312  0.00  0.00    +0.232 C 
BRANCH  13  14
ATOM     14  C   LIG    1       22.480 -19.690   5.120  0.00  0.00    +0.041 C 
BRANCH  14  16
ATOM     15  C   LIG    1       24.499 -19.295   3.647  0.00  0.00    +0.004 C 
ATOM     16  C   LIG    1       23.122 -18.799   4.055  0.00  0.00    +0.000 C 
ENDBRANCH  14  16
ENDBRANCH  13  14
ENDBRANCH  12  13
ENDBRANCH  10  12
ENDBRANCH   1  10
TORSDOF 6
ENDMDL
MODEL 9
REMARK VINA RESULT:      -6.4      3.612      4.812
REMARK  Name = *****
REMARK                            x       y       z     vdW  Elec       q    Type
REMARK                         _______ _______ _______ _____ _____    ______ ____
ROOT
ATOM      1  C   LIG    1       25.664 -20.657   6.748  0.00  0.00    +0.059 A 
ATOM      2  C   LIG    1       25.532 -20.630   5.358  0.00  0.00    +0.017 A 
ATOM      3  C   LIG    1       24.289 -20.878   4.768  0.00  0.00    +0.023 A 
ATOM      4  C   LIG    1       23.180 -21.210   5.550  0.00  0.00    +0.025 A 
ATOM      5  C   LIG    1       23.314 -21.213   6.942  0.00  0.00    +0.023 A 
ATOM      6  C   LIG    1       24.552 -20.962   7.541  0.00  0.00    +0.017 A 
ENDROOT
BRANCH   4   7
ATOM      7  N   LIG    1       21.912 -21.299   4.966  0.00  0.00    -0.358 N 
ATOM      8  H   LIG    1       21.313 -20.504   5.163  0.00  0.00    +0.142 HD
ATOM      9  H   LIG    1       21.927 -21.536   3.979  0.00  0.00    +0.142 HD
ENDBRANCH   4   7
BRANCH   1  10
ATOM     10  C   LIG    1       26.986 -20.310   7.333  0.00  0.00    +0.339 C 
ATOM     11  O   LIG    1       27.212 -20.280   8.529  0.00  0.00    -0.245 OA
BRANCH  10  12
ATOM     12  O   LIG    1       27.879 -20.084   6.339  0.00  0.00    -0.461 OA
BRANCH  12  13
ATOM     13  C   LIG    1       29.253 -20.338   6.658  0.00  0.00    +0.232 C 
BRANCH  13  14
ATOM     14  C   LIG    1       30.090 -19.068   6.515  0.00  0.00    +0.041 C 
BRANCH  14  16
ATOM     15  C   LIG    1       30.208 -18.067   8.836  0.00  0.00    +0.004 C 
ATOM     16  C   LIG    1       30.955 -18.827   7.754  0.00  0.00    +0.000 C 
ENDBRANCH  14  16
ENDBRANCH  13  14
ENDBRANCH  12  13
ENDBRANCH  10  12
ENDBRANCH   1  10
TORSDOF 6
ENDMDL
