MODEL 1
REMARK VINA RESULT:      -5.3      0.000      0.000
REMARK  Name = *****
REMARK                            x       y       z     vdW  Elec       q    Type
REMARK                         _______ _______ _______ _____ _____    ______ ____
ROOT
ATOM      1  C   LIG    1       24.814 -27.329   7.045  0.00  0.00    +0.087 C 
ATOM      2  C   LIG    1       24.400 -28.814   7.207  0.00  0.00    +0.169 C 
ATOM      3  C   LIG    1       24.250 -29.462   5.792  0.00  0.00    +0.175 C 
ATOM      4  C   LIG    1       25.536 -29.460   4.917  0.00  0.00    +0.170 C 
ATOM      5  C   LIG    1       26.371 -28.129   5.059  0.00  0.00    +0.084 C 
ATOM      6  C   LIG    1       26.190 -27.301   6.357  0.00  0.00    +0.042 C 
ENDROOT
BRANCH   5   7
ATOM      7  N   LIG    1       26.160 -27.199   3.930  0.00  0.00    -0.325 NA
ATOM      8  H   LIG    1       25.382 -26.570   4.127  0.00  0.00    +0.118 HD
ATOM      9  H   LIG    1       26.987 -26.622   3.783  0.00  0.00    +0.118 HD
ENDBRANCH   5   7
BRANCH   1  10
ATOM     10  N   LIG    1       23.849 -26.459   6.326  0.00  0.00    -0.311 NA
ATOM     11  H   LIG    1       23.795 -26.797   5.358  0.00  0.00    +0.122 HD
BRANCH  10  13
ATOM     12  C   LIG    1       23.147 -24.130   6.687  0.00  0.00    +0.020 C 
ATOM     13  C   LIG    1       24.287 -25.050   6.273  0.00  0.00    +0.078 C 
ENDBRANCH  10  13
ENDBRANCH   1  10
BRANCH   3  14
ATOM     14  O   LIG    1       23.195 -28.823   5.043  0.00  0.00    -0.387 OA
ATOM     15  H   LIG    1       22.677 -29.539   4.614  0.00  0.00    +0.210 HD
ENDBRANCH   3  14
BRANCH   2  16
ATOM     16  O   LIG    1       25.325 -29.565   8.025  0.00  0.00    -0.341 OA
BRANCH  16  17
ATOM     17  C   LIG    1       25.036 -29.621   9.439  0.00  0.00    +0.281 C 
ATOM     18  C   LIG    1       26.343 -29.989  10.186  0.00  0.00    +0.190 C 
ATOM     19  C   LIG    1       26.137 -30.086  11.724  0.00  0.00    +0.121 C 
ATOM     20  C   LIG    1       24.913 -30.998  12.062  0.00  0.00    +0.104 C 
ATOM     21  C   LIG    1       25.276 -32.486  12.016  0.00  0.00    +0.045 C 
ATOM     22  C   LIG    1       23.728 -30.656  11.133  0.00  0.00    +0.199 C 
ATOM     23  O   LIG    1       24.062 -30.624   9.738  0.00  0.00    -0.346 OA
BRANCH  19  24
ATOM     24  N   LIG    1       25.948 -28.799  12.455  0.00  0.00    -0.311 NA
ATOM     25  H   LIG    1       24.994 -28.450  12.370  0.00  0.00    +0.122 HD
ATOM     26  C   LIG    1       26.879 -27.760  12.036  0.00  0.00    +0.101 C 
ENDBRANCH  19  24
BRANCH  18  27
ATOM     27  O   LIG    1       26.845 -31.249   9.702  0.00  0.00    -0.385 OA
ATOM     28  H   LIG    1       27.031 -31.790  10.497  0.00  0.00    +0.210 HD
ENDBRANCH  18  27
BRANCH  20  29
ATOM     29  O   LIG    1       24.488 -30.751  13.422  0.00  0.00    -0.385 OA
ATOM     30  H   LIG    1       24.495 -31.629  13.861  0.00  0.00    +0.210 HD
ENDBRANCH  20  29
ENDBRANCH  16  17
ENDBRANCH   2  16
BRANCH   4  31
ATOM     31  O   LIG    1       26.244 -30.712   5.147  0.00  0.00    -0.333 OA
BRANCH  31  32
ATOM     32  C   LIG    1       25.455 -31.918   5.072  0.00  0.00    +0.324 C 
ATOM     33  C   LIG    1       25.754 -32.966   6.215  0.00  0.00    +0.124 C 
ATOM     34  C   LIG    1       27.245 -33.327   6.171  0.00  0.00    +0.055 C 
ATOM     35  C   LIG    1       27.681 -33.558   4.764  0.00  0.00    +0.017 C 
ATOM     36  C   LIG    1       26.917 -33.200   3.696  0.00  0.00    +0.111 C 
ATOM     37  O   LIG    1       25.690 -32.579   3.815  0.00  0.00    -0.465 OA
BRANCH  33  38
ATOM     38  N   LIG    1       25.308 -32.669   7.589  0.00  0.00    -0.322 NA
ATOM     39  H   LIG    1       24.365 -33.013   7.749  0.00  0.00    +0.119 HD
ATOM     40  H   LIG    1       25.287 -31.661   7.745  0.00  0.00    +0.119 HD
ENDBRANCH  33  38
BRANCH  36  41
ATOM     41  C   LIG    1       27.381 -33.407   2.287  0.00  0.00    +0.152 C 
BRANCH  41  42
ATOM     42  N   LIG    1       26.337 -32.980   1.358  0.00  0.00    -0.324 NA
ATOM     43  H   LIG    1       26.742 -32.227   0.809  0.00  0.00    +0.119 HD
ATOM     44  H   LIG    1       26.212 -33.740   0.692  0.00  0.00    +0.119 HD
ENDBRANCH  41  42
ENDBRANCH  36  41
ENDBRANCH  31  32
ENDBRANCH   4  31
TORSDOF 14
ENDMDL
MODEL 2
REMARK VINA RESULT:      -5.0      2.871      8.645
REMARK  Name = *****
REMARK                            x       y       z     vdW  Elec       q    Type
REMARK                         _______ _______ _______ _____ _____    ______ ____
ROOT
ATOM      1  C   LIG    1       27.492 -29.454  11.433  0.00  0.00    +0.087 C 
ATOM      2  C   LIG    1       26.266 -30.360  11.154  0.00  0.00    +0.169 C 
ATOM      3  C   LIG    1       25.507 -30.623  12.496  0.00  0.00    +0.175 C 
ATOM      4  C   LIG    1       24.960 -29.355  13.213  0.00  0.00    +0.170 C 
ATOM      5  C   LIG    1       25.948 -28.128  13.125  0.00  0.00    +0.084 C 
ATOM      6  C   LIG    1       26.967 -28.107  11.957  0.00  0.00    +0.042 C 
ENDROOT
BRANCH   5   7
ATOM      7  N   LIG    1       26.723 -27.929  14.367  0.00  0.00    -0.325 NA
ATOM      8  H   LIG    1       26.874 -28.820  14.840  0.00  0.00    +0.118 HD
ATOM      9  H   LIG    1       27.641 -27.539  14.158  0.00  0.00    +0.118 HD
ENDBRANCH   5   7
BRANCH   1  10
ATOM     10  N   LIG    1       28.519 -30.011  12.350  0.00  0.00    -0.311 NA
ATOM     11  H   LIG    1       28.227 -29.784  13.308  0.00  0.00    +0.122 HD
BRANCH  10  13
ATOM     12  C   LIG    1       30.741 -29.677  13.349  0.00  0.00    +0.020 C 
ATOM     13  C   LIG    1       29.850 -29.407  12.143  0.00  0.00    +0.078 C 
ENDBRANCH  10  13
ENDBRANCH   1  10
BRANCH   3  14
ATOM     14  O   LIG    1       26.343 -31.341  13.428  0.00  0.00    -0.387 OA
ATOM     15  H   LIG    1       26.834 -32.015  12.908  0.00  0.00    +0.210 HD
ENDBRANCH   3  14
BRANCH   2  16
ATOM     16  O   LIG    1       25.378 -29.807  10.157  0.00  0.00    -0.341 OA
BRANCH  16  17
ATOM     17  C   LIG    1       25.689 -30.109   8.779  0.00  0.00    +0.281 C 
ATOM     18  C   LIG    1       24.503 -29.636   7.901  0.00  0.00    +0.190 C 
ATOM     19  C   LIG    1       24.734 -29.925   6.391  0.00  0.00    +0.121 C 
ATOM     20  C   LIG    1       25.154 -31.416   6.172  0.00  0.00    +0.104 C 
ATOM     21  C   LIG    1       23.947 -32.359   6.169  0.00  0.00    +0.045 C 
ATOM     22  C   LIG    1       26.213 -31.825   7.219  0.00  0.00    +0.199 C 
ATOM     23  O   LIG    1       25.854 -31.515   8.573  0.00  0.00    -0.346 OA
BRANCH  19  24
ATOM     24  N   LIG    1       25.739 -29.072   5.692  0.00  0.00    -0.311 NA
ATOM     25  H   LIG    1       26.533 -28.852   6.293  0.00  0.00    +0.122 HD
ATOM     26  C   LIG    1       25.175 -27.836   5.167  0.00  0.00    +0.101 C 
ENDBRANCH  19  24
BRANCH  18  27
ATOM     27  O   LIG    1       23.290 -30.289   8.322  0.00  0.00    -0.385 OA
ATOM     28  H   LIG    1       23.463 -31.251   8.255  0.00  0.00    +0.210 HD
ENDBRANCH  18  27
BRANCH  20  29
ATOM     29  O   LIG    1       25.753 -31.561   4.864  0.00  0.00    -0.385 OA
ATOM     30  H   LIG    1       25.004 -31.717   4.249  0.00  0.00    +0.210 HD
ENDBRANCH  20  29
ENDBRANCH  16  17
ENDBRANCH   2  16
BRANCH   4  31
ATOM     31  O   LIG    1       23.592 -29.136  12.765  0.00  0.00    -0.333 OA
BRANCH  31  32
ATOM     32  C   LIG    1       22.567 -29.195  13.779  0.00  0.00    +0.324 C 
ATOM     33  C   LIG    1       21.130 -28.772  13.280  0.00  0.00    +0.124 C 
ATOM     34  C   LIG    1       21.207 -27.347  12.714  0.00  0.00    +0.055 C 
ATOM     35  C   LIG    1       22.011 -26.474  13.617  0.00  0.00    +0.017 C 
ATOM     36  C   LIG    1       22.784 -26.976  14.617  0.00  0.00    +0.111 C 
ATOM     37  O   LIG    1       22.912 -28.326  14.874  0.00  0.00    -0.465 OA
BRANCH  33  38
ATOM     38  N   LIG    1       20.394 -29.676  12.376  0.00  0.00    -0.322 NA
ATOM     39  H   LIG    1       19.787 -30.301  12.899  0.00  0.00    +0.119 HD
ATOM     40  H   LIG    1       21.045 -30.262  11.853  0.00  0.00    +0.119 HD
ENDBRANCH  33  38
BRANCH  36  41
ATOM     41  C   LIG    1       23.614 -26.090  15.496  0.00  0.00    +0.152 C 
BRANCH  41  42
ATOM     42  N   LIG    1       24.590 -25.367  14.684  0.00  0.00    -0.324 NA
ATOM     43  H   LIG    1       24.391 -25.619  13.719  0.00  0.00    +0.119 HD
ATOM     44  H   LIG    1       24.343 -24.380  14.743  0.00  0.00    +0.119 HD
ENDBRANCH  41  42
ENDBRANCH  36  41
ENDBRANCH  31  32
ENDBRANCH   4  31
TORSDOF 14
ENDMDL
MODEL 3
REMARK VINA RESULT:      -4.9      2.797      7.952
REMARK  Name = *****
REMARK                            x       y       z     vdW  Elec       q    Type
REMARK                         _______ _______ _______ _____ _____    ______ ____
ROOT
ATOM      1  C   LIG    1       27.151 -28.997  11.808  0.00  0.00    +0.087 C 
ATOM      2  C   LIG    1       26.303 -30.263  12.087  0.00  0.00    +0.169 C 
ATOM      3  C   LIG    1       25.712 -30.175  13.532  0.00  0.00    +0.175 C 
ATOM      4  C   LIG    1       24.782 -28.957  13.800  0.00  0.00    +0.170 C 
ATOM      5  C   LIG    1       25.289 -27.636  13.104  0.00  0.00    +0.084 C 
ATOM      6  C   LIG    1       26.211 -27.782  11.867  0.00  0.00    +0.042 C 
ENDROOT
BRANCH   5   7
ATOM      7  N   LIG    1       25.979 -26.725  14.042  0.00  0.00    -0.325 NA
ATOM      8  H   LIG    1       26.841 -26.372  13.626  0.00  0.00    +0.118 HD
ATOM      9  H   LIG    1       25.393 -25.919  14.254  0.00  0.00    +0.118 HD
ENDBRANCH   5   7
BRANCH   1  10
ATOM     10  N   LIG    1       28.329 -28.794  12.690  0.00  0.00    -0.311 NA
ATOM     11  H   LIG    1       28.581 -27.800  12.637  0.00  0.00    +0.122 HD
BRANCH  10  13
ATOM     12  C   LIG    1       30.514 -29.679  13.388  0.00  0.00    +0.020 C 
ATOM     13  C   LIG    1       29.506 -29.568  12.251  0.00  0.00    +0.078 C 
ENDBRANCH  10  13
ENDBRANCH   1  10
BRANCH   3  14
ATOM     14  O   LIG    1       26.765 -30.163  14.519  0.00  0.00    -0.387 OA
ATOM     15  H   LIG    1       26.801 -31.065  14.906  0.00  0.00    +0.210 HD
ENDBRANCH   3  14
BRANCH   2  16
ATOM     16  O   LIG    1       25.255 -30.459  11.111  0.00  0.00    -0.341 OA
BRANCH  16  17
ATOM     17  C   LIG    1       25.641 -30.353   9.722  0.00  0.00    +0.281 C 
ATOM     18  C   LIG    1       24.502 -29.634   8.958  0.00  0.00    +0.190 C 
ATOM     19  C   LIG    1       24.814 -29.476   7.443  0.00  0.00    +0.121 C 
ATOM     20  C   LIG    1       25.254 -30.843   6.824  0.00  0.00    +0.104 C 
ATOM     21  C   LIG    1       24.054 -31.733   6.485  0.00  0.00    +0.045 C 
ATOM     22  C   LIG    1       26.258 -31.549   7.762  0.00  0.00    +0.199 C 
ATOM     23  O   LIG    1       25.825 -31.640   9.127  0.00  0.00    -0.346 OA
BRANCH  19  24
ATOM     24  N   LIG    1       25.851 -28.468   7.076  0.00  0.00    -0.311 NA
ATOM     25  H   LIG    1       26.446 -28.229   7.868  0.00  0.00    +0.122 HD
ATOM     26  C   LIG    1       25.289 -27.248   6.512  0.00  0.00    +0.101 C 
ENDBRANCH  19  24
BRANCH  18  27
ATOM     27  O   LIG    1       23.272 -30.368   9.107  0.00  0.00    -0.385 OA
ATOM     28  H   LIG    1       23.080 -30.383  10.067  0.00  0.00    +0.210 HD
ENDBRANCH  18  27
BRANCH  20  29
ATOM     29  O   LIG    1       25.924 -30.610   5.564  0.00  0.00    -0.385 OA
ATOM     30  H   LIG    1       26.404 -31.442   5.365  0.00  0.00    +0.210 HD
ENDBRANCH  20  29
ENDBRANCH  16  17
ENDBRANCH   2  16
BRANCH   4  31
ATOM     31  O   LIG    1       23.410 -29.365  13.527  0.00  0.00    -0.333 OA
BRANCH  31  32
ATOM     32  C   LIG    1       22.732 -28.664  12.463  0.00  0.00    +0.324 C 
ATOM     33  C   LIG    1       21.638 -27.636  12.953  0.00  0.00    +0.124 C 
ATOM     34  C   LIG    1       20.608 -28.386  13.808  0.00  0.00    +0.055 C 
ATOM     35  C   LIG    1       20.236 -29.675  13.159  0.00  0.00    +0.017 C 
ATOM     36  C   LIG    1       20.944 -30.202  12.124  0.00  0.00    +0.111 C 
ATOM     37  O   LIG    1       22.074 -29.608  11.598  0.00  0.00    -0.465 OA
BRANCH  33  38
ATOM     38  N   LIG    1       22.075 -26.385  13.601  0.00  0.00    -0.322 NA
ATOM     39  H   LIG    1       21.289 -25.758  13.751  0.00  0.00    +0.119 HD
ATOM     40  H   LIG    1       22.741 -25.891  13.006  0.00  0.00    +0.119 HD
ENDBRANCH  33  38
BRANCH  36  41
ATOM     41  C   LIG    1       20.580 -31.515  11.502  0.00  0.00    +0.152 C 
BRANCH  41  42
ATOM     42  N   LIG    1       20.611 -31.395  10.046  0.00  0.00    -0.324 NA
ATOM     43  H   LIG    1       21.220 -32.139   9.718  0.00  0.00    +0.119 HD
ATOM     44  H   LIG    1       19.685 -31.661   9.713  0.00  0.00    +0.119 HD
ENDBRANCH  41  42
ENDBRANCH  36  41
ENDBRANCH  31  32
ENDBRANCH   4  31
TORSDOF 14
ENDMDL
MODEL 4
REMARK VINA RESULT:      -4.9      2.569      7.942
REMARK  Name = *****
REMARK                            x       y       z     vdW  Elec       q    Type
REMARK                         _______ _______ _______ _____ _____    ______ ____
ROOT
ATOM      1  C   LIG    1       27.181 -28.617  11.622  0.00  0.00    +0.087 C 
ATOM      2  C   LIG    1       26.398 -29.852  11.107  0.00  0.00    +0.169 C 
ATOM      3  C   LIG    1       25.693 -30.551  12.315  0.00  0.00    +0.175 C 
ATOM      4  C   LIG    1       24.668 -29.674  13.089  0.00  0.00    +0.170 C 
ATOM      5  C   LIG    1       25.139 -28.177  13.246  0.00  0.00    +0.084 C 
ATOM      6  C   LIG    1       26.161 -27.632  12.217  0.00  0.00    +0.042 C 
ENDROOT
BRANCH   5   7
ATOM      7  N   LIG    1       25.694 -27.891  14.586  0.00  0.00    -0.325 NA
ATOM      8  H   LIG    1       25.400 -28.604  15.253  0.00  0.00    +0.118 HD
ATOM      9  H   LIG    1       26.713 -27.901  14.561  0.00  0.00    +0.118 HD
ENDBRANCH   5   7
BRANCH   1  10
ATOM     10  N   LIG    1       28.271 -28.895  12.592  0.00  0.00    -0.311 NA
ATOM     11  H   LIG    1       28.558 -27.994  12.994  0.00  0.00    +0.122 HD
BRANCH  10  13
ATOM     12  C   LIG    1       30.567 -29.684  12.981  0.00  0.00    +0.020 C 
ATOM     13  C   LIG    1       29.462 -29.487  11.952  0.00  0.00    +0.078 C 
ENDBRANCH  10  13
ENDBRANCH   1  10
BRANCH   3  14
ATOM     14  O   LIG    1       26.664 -31.048  13.260  0.00  0.00    -0.387 OA
ATOM     15  H   LIG    1       27.348 -30.349  13.358  0.00  0.00    +0.210 HD
ENDBRANCH   3  14
BRANCH   2  16
ATOM     16  O   LIG    1       25.444 -29.517  10.074  0.00  0.00    -0.341 OA
BRANCH  16  17
ATOM     17  C   LIG    1       25.780 -29.928   8.730  0.00  0.00    +0.281 C 
ATOM     18  C   LIG    1       24.626 -29.494   7.791  0.00  0.00    +0.190 C 
ATOM     19  C   LIG    1       24.885 -29.900   6.312  0.00  0.00    +0.121 C 
ATOM     20  C   LIG    1       25.273 -31.412   6.214  0.00  0.00    +0.104 C 
ATOM     21  C   LIG    1       24.043 -32.324   6.251  0.00  0.00    +0.045 C 
ATOM     22  C   LIG    1       26.297 -31.766   7.314  0.00  0.00    +0.199 C 
ATOM     23  O   LIG    1       25.915 -31.348   8.632  0.00  0.00    -0.346 OA
BRANCH  19  24
ATOM     24  N   LIG    1       25.927 -29.124   5.578  0.00  0.00    -0.311 NA
ATOM     25  H   LIG    1       26.834 -29.173   6.042  0.00  0.00    +0.122 HD
ATOM     26  C   LIG    1       25.565 -27.728   5.375  0.00  0.00    +0.101 C 
ENDBRANCH  19  24
BRANCH  18  27
ATOM     27  O   LIG    1       23.388 -30.086   8.228  0.00  0.00    -0.385 OA
ATOM     28  H   LIG    1       22.928 -29.396   8.750  0.00  0.00    +0.210 HD
ENDBRANCH  18  27
BRANCH  20  29
ATOM     29  O   LIG    1       25.899 -31.667   4.936  0.00  0.00    -0.385 OA
ATOM     30  H   LIG    1       26.177 -30.787   4.600  0.00  0.00    +0.210 HD
ENDBRANCH  20  29
ENDBRANCH  16  17
ENDBRANCH   2  16
BRANCH   4  31
ATOM     31  O   LIG    1       23.351 -29.895  12.506  0.00  0.00    -0.333 OA
BRANCH  31  32
ATOM     32  C   LIG    1       22.842 -31.244  12.564  0.00  0.00    +0.324 C 
ATOM     33  C   LIG    1       22.352 -31.816  11.176  0.00  0.00    +0.124 C 
ATOM     34  C   LIG    1       21.268 -30.885  10.616  0.00  0.00    +0.055 C 
ATOM     35  C   LIG    1       20.306 -30.505  11.690  0.00  0.00    +0.017 C 
ATOM     36  C   LIG    1       20.558 -30.731  13.008  0.00  0.00    +0.111 C 
ATOM     37  O   LIG    1       21.725 -31.307  13.470  0.00  0.00    -0.465 OA
BRANCH  33  38
ATOM     38  N   LIG    1       23.357 -32.158  10.151  0.00  0.00    -0.322 NA
ATOM     39  H   LIG    1       24.171 -32.599  10.571  0.00  0.00    +0.119 HD
ATOM     40  H   LIG    1       23.684 -31.314   9.681  0.00  0.00    +0.119 HD
ENDBRANCH  33  38
BRANCH  36  41
ATOM     41  C   LIG    1       19.598 -30.314  14.080  0.00  0.00    +0.152 C 
BRANCH  41  42
ATOM     42  N   LIG    1       18.939 -29.069  13.692  0.00  0.00    -0.324 NA
ATOM     43  H   LIG    1       19.685 -28.417  13.467  0.00  0.00    +0.119 HD
ATOM     44  H   LIG    1       18.482 -29.248  12.799  0.00  0.00    +0.119 HD
ENDBRANCH  41  42
ENDBRANCH  36  41
ENDBRANCH  31  32
ENDBRANCH   4  31
TORSDOF 14
ENDMDL
MODEL 5
REMARK VINA RESULT:      -4.7      2.982      7.682
REMARK  Name = *****
REMARK                            x       y       z     vdW  Elec       q    Type
REMARK                         _______ _______ _______ _____ _____    ______ ____
ROOT
ATOM      1  C   LIG    1       21.401 -33.274  10.792  0.00  0.00    +0.087 C 
ATOM      2  C   LIG    1       22.083 -32.260   9.839  0.00  0.00    +0.169 C 
ATOM      3  C   LIG    1       21.782 -30.808  10.336  0.00  0.00    +0.175 C 
ATOM      4  C   LIG    1       22.291 -30.474  11.768  0.00  0.00    +0.170 C 
ATOM      5  C   LIG    1       22.115 -31.674  12.775  0.00  0.00    +0.084 C 
ATOM      6  C   LIG    1       22.033 -33.104  12.184  0.00  0.00    +0.042 C 
ENDROOT
BRANCH   5   7
ATOM      7  N   LIG    1       20.940 -31.513  13.658  0.00  0.00    -0.325 NA
ATOM      8  H   LIG    1       20.975 -32.184  14.424  0.00  0.00    +0.118 HD
ATOM      9  H   LIG    1       20.929 -30.581  14.071  0.00  0.00    +0.118 HD
ENDBRANCH   5   7
BRANCH   1  10
ATOM     10  N   LIG    1       19.920 -33.198  10.874  0.00  0.00    -0.311 NA
ATOM     11  H   LIG    1       19.634 -33.723  11.709  0.00  0.00    +0.122 HD
BRANCH  10  13
ATOM     12  C   LIG    1       18.016 -33.028   9.328  0.00  0.00    +0.020 C 
ATOM     13  C   LIG    1       19.255 -33.824   9.715  0.00  0.00    +0.078 C 
ENDBRANCH  10  13
ENDBRANCH   1  10
BRANCH   3  14
ATOM     14  O   LIG    1       20.367 -30.530  10.286  0.00  0.00    -0.387 OA
ATOM     15  H   LIG    1       19.968 -30.940  11.085  0.00  0.00    +0.210 HD
ENDBRANCH   3  14
BRANCH   2  16
ATOM     16  O   LIG    1       23.506 -32.480   9.715  0.00  0.00    -0.341 OA
BRANCH  16  17
ATOM     17  C   LIG    1       24.061 -32.369   8.386  0.00  0.00    +0.281 C 
ATOM     18  C   LIG    1       25.171 -31.288   8.414  0.00  0.00    +0.190 C 
ATOM     19  C   LIG    1       25.831 -31.082   7.021  0.00  0.00    +0.121 C 
ATOM     20  C   LIG    1       24.741 -30.870   5.919  0.00  0.00    +0.104 C 
ATOM     21  C   LIG    1       24.227 -29.428   5.890  0.00  0.00    +0.045 C 
ATOM     22  C   LIG    1       23.600 -31.895   6.102  0.00  0.00    +0.199 C 
ATOM     23  O   LIG    1       23.074 -31.959   7.436  0.00  0.00    -0.346 OA
BRANCH  19  24
ATOM     24  N   LIG    1       26.740 -32.165   6.545  0.00  0.00    -0.311 NA
ATOM     25  H   LIG    1       26.247 -32.852   5.975  0.00  0.00    +0.122 HD
ATOM     26  C   LIG    1       27.433 -32.848   7.629  0.00  0.00    +0.101 C 
ENDBRANCH  19  24
BRANCH  18  27
ATOM     27  O   LIG    1       24.622 -30.034   8.861  0.00  0.00    -0.385 OA
ATOM     28  H   LIG    1       23.652 -30.164   8.909  0.00  0.00    +0.210 HD
ENDBRANCH  18  27
BRANCH  20  29
ATOM     29  O   LIG    1       25.324 -31.093   4.615  0.00  0.00    -0.385 OA
ATOM     30  H   LIG    1       25.747 -30.243   4.369  0.00  0.00    +0.210 HD
ENDBRANCH  20  29
ENDBRANCH  16  17
ENDBRANCH   2  16
BRANCH   4  31
ATOM     31  O   LIG    1       23.623 -29.896  11.652  0.00  0.00    -0.333 OA
BRANCH  31  32
ATOM     32  C   LIG    1       24.521 -30.126  12.759  0.00  0.00    +0.324 C 
ATOM     33  C   LIG    1       24.597 -28.937  13.795  0.00  0.00    +0.124 C 
ATOM     34  C   LIG    1       25.020 -27.664  13.050  0.00  0.00    +0.055 C 
ATOM     35  C   LIG    1       26.142 -27.959  12.114  0.00  0.00    +0.017 C 
ATOM     36  C   LIG    1       26.502 -29.230  11.786  0.00  0.00    +0.111 C 
ATOM     37  O   LIG    1       25.855 -30.350  12.267  0.00  0.00    -0.465 OA
BRANCH  33  38
ATOM     38  N   LIG    1       23.445 -28.690  14.682  0.00  0.00    -0.322 NA
ATOM     39  H   LIG    1       22.931 -29.548  14.861  0.00  0.00    +0.119 HD
ATOM     40  H   LIG    1       22.794 -28.038  14.244  0.00  0.00    +0.119 HD
ENDBRANCH  33  38
BRANCH  36  41
ATOM     41  C   LIG    1       27.610 -29.513  10.817  0.00  0.00    +0.152 C 
BRANCH  41  42
ATOM     42  N   LIG    1       27.325 -28.861   9.541  0.00  0.00    -0.324 NA
ATOM     43  H   LIG    1       26.885 -29.568   8.959  0.00  0.00    +0.119 HD
ATOM     44  H   LIG    1       26.586 -28.184   9.719  0.00  0.00    +0.119 HD
ENDBRANCH  41  42
ENDBRANCH  36  41
ENDBRANCH  31  32
ENDBRANCH   4  31
TORSDOF 14
ENDMDL
MODEL 6
REMARK VINA RESULT:      -4.7      4.050      8.649
REMARK  Name = *****
REMARK                            x       y       z     vdW  Elec       q    Type
REMARK                         _______ _______ _______ _____ _____    ______ ____
ROOT
ATOM      1  C   LIG    1       20.340 -32.984  10.930  0.00  0.00    +0.087 C 
ATOM      2  C   LIG    1       21.176 -31.813  10.352  0.00  0.00    +0.169 C 
ATOM      3  C   LIG    1       20.420 -30.468  10.611  0.00  0.00    +0.175 C 
ATOM      4  C   LIG    1       20.161 -30.125  12.106  0.00  0.00    +0.170 C 
ATOM      5  C   LIG    1       19.778 -31.391  12.967  0.00  0.00    +0.084 C 
ATOM      6  C   LIG    1       20.237 -32.778  12.450  0.00  0.00    +0.042 C 
ENDROOT
BRANCH   5   7
ATOM      7  N   LIG    1       18.325 -31.491  13.219  0.00  0.00    -0.325 NA
ATOM      8  H   LIG    1       17.993 -30.670  13.723  0.00  0.00    +0.118 HD
ATOM      9  H   LIG    1       17.812 -31.536  12.340  0.00  0.00    +0.118 HD
ENDBRANCH   5   7
BRANCH   1  10
ATOM     10  N   LIG    1       18.994 -33.181  10.333  0.00  0.00    -0.311 NA
ATOM     11  H   LIG    1       18.475 -33.811  10.955  0.00  0.00    +0.122 HD
BRANCH  10  13
ATOM     12  C   LIG    1       17.710 -33.684   8.298  0.00  0.00    +0.020 C 
ATOM     13  C   LIG    1       19.051 -33.825   9.006  0.00  0.00    +0.078 C 
ENDBRANCH  10  13
ENDBRANCH   1  10
BRANCH   3  14
ATOM     14  O   LIG    1       19.154 -30.448   9.919  0.00  0.00    -0.387 OA
ATOM     15  H   LIG    1       18.930 -29.503   9.765  0.00  0.00    +0.210 HD
ENDBRANCH   3  14
BRANCH   2  16
ATOM     16  O   LIG    1       22.516 -31.765  10.890  0.00  0.00    -0.341 OA
BRANCH  16  17
ATOM     17  C   LIG    1       23.415 -30.804  10.294  0.00  0.00    +0.281 C 
ATOM     18  C   LIG    1       24.033 -31.443   9.025  0.00  0.00    +0.190 C 
ATOM     19  C   LIG    1       25.030 -30.488   8.309  0.00  0.00    +0.121 C 
ATOM     20  C   LIG    1       26.071 -29.913   9.324  0.00  0.00    +0.104 C 
ATOM     21  C   LIG    1       27.211 -30.899   9.597  0.00  0.00    +0.045 C 
ATOM     22  C   LIG    1       25.357 -29.471  10.620  0.00  0.00    +0.199 C 
ATOM     23  O   LIG    1       24.485 -30.464  11.180  0.00  0.00    -0.346 OA
BRANCH  19  24
ATOM     24  N   LIG    1       24.438 -29.331   7.576  0.00  0.00    -0.311 NA
ATOM     25  H   LIG    1       23.582 -28.998   8.019  0.00  0.00    +0.122 HD
ATOM     26  C   LIG    1       24.174 -29.616   6.172  0.00  0.00    +0.101 C 
ENDBRANCH  19  24
BRANCH  18  27
ATOM     27  O   LIG    1       24.721 -32.659   9.374  0.00  0.00    -0.385 OA
ATOM     28  H   LIG    1       24.545 -32.806  10.326  0.00  0.00    +0.210 HD
ENDBRANCH  18  27
BRANCH  20  29
ATOM     29  O   LIG    1       26.706 -28.745   8.755  0.00  0.00    -0.385 OA
ATOM     30  H   LIG    1       26.772 -28.099   9.490  0.00  0.00    +0.210 HD
ENDBRANCH  20  29
ENDBRANCH  16  17
ENDBRANCH   2  16
BRANCH   4  31
ATOM     31  O   LIG    1       21.271 -29.312  12.584  0.00  0.00    -0.333 OA
BRANCH  31  32
ATOM     32  C   LIG    1       21.130 -28.745  13.903  0.00  0.00    +0.324 C 
ATOM     33  C   LIG    1       20.847 -27.191  13.918  0.00  0.00    +0.124 C 
ATOM     34  C   LIG    1       21.984 -26.478  13.174  0.00  0.00    +0.055 C 
ATOM     35  C   LIG    1       23.304 -27.037  13.585  0.00  0.00    +0.017 C 
ATOM     36  C   LIG    1       23.417 -28.197  14.287  0.00  0.00    +0.111 C 
ATOM     37  O   LIG    1       22.334 -28.967  14.661  0.00  0.00    -0.465 OA
BRANCH  33  38
ATOM     38  N   LIG    1       19.524 -26.703  13.485  0.00  0.00    -0.322 NA
ATOM     39  H   LIG    1       19.591 -25.770  13.089  0.00  0.00    +0.119 HD
ATOM     40  H   LIG    1       18.890 -26.644  14.282  0.00  0.00    +0.119 HD
ENDBRANCH  33  38
BRANCH  36  41
ATOM     41  C   LIG    1       24.751 -28.766  14.665  0.00  0.00    +0.152 C 
BRANCH  41  42
ATOM     42  N   LIG    1       24.873 -30.123  14.137  0.00  0.00    -0.324 NA
ATOM     43  H   LIG    1       25.868 -30.284  14.010  0.00  0.00    +0.119 HD
ATOM     44  H   LIG    1       24.609 -30.754  14.893  0.00  0.00    +0.119 HD
ENDBRANCH  41  42
ENDBRANCH  36  41
ENDBRANCH  31  32
ENDBRANCH   4  31
TORSDOF 14
ENDMDL
MODEL 7
REMARK VINA RESULT:      -4.7      3.539      7.706
REMARK  Name = *****
REMARK                            x       y       z     vdW  Elec       q    Type
REMARK                         _______ _______ _______ _____ _____    ______ ____
ROOT
ATOM      1  C   LIG    1       24.756 -31.353   8.260  0.00  0.00    +0.087 C 
ATOM      2  C   LIG    1       23.891 -31.754   9.483  0.00  0.00    +0.169 C 
ATOM      3  C   LIG    1       24.707 -31.500  10.793  0.00  0.00    +0.175 C 
ATOM      4  C   LIG    1       25.145 -30.026  11.031  0.00  0.00    +0.170 C 
ATOM      5  C   LIG    1       25.591 -29.299   9.704  0.00  0.00    +0.084 C 
ATOM      6  C   LIG    1       25.039 -29.845   8.363  0.00  0.00    +0.042 C 
ENDROOT
BRANCH   5   7
ATOM      7  N   LIG    1       27.060 -29.225   9.559  0.00  0.00    -0.325 NA
ATOM      8  H   LIG    1       27.449 -28.548  10.214  0.00  0.00    +0.118 HD
ATOM      9  H   LIG    1       27.486 -30.127   9.767  0.00  0.00    +0.118 HD
ENDBRANCH   5   7
BRANCH   1  10
ATOM     10  N   LIG    1       26.018 -32.114   8.078  0.00  0.00    -0.311 NA
ATOM     11  H   LIG    1       26.721 -31.691   8.695  0.00  0.00    +0.122 HD
BRANCH  10  13
ATOM     12  C   LIG    1       27.718 -32.974   6.523  0.00  0.00    +0.020 C 
ATOM     13  C   LIG    1       26.538 -32.028   6.699  0.00  0.00    +0.078 C 
ENDBRANCH  10  13
ENDBRANCH   1  10
BRANCH   3  14
ATOM     14  O   LIG    1       25.885 -32.332  10.835  0.00  0.00    -0.387 OA
ATOM     15  H   LIG    1       26.306 -32.272   9.949  0.00  0.00    +0.210 HD
ENDBRANCH   3  14
BRANCH   2  16
ATOM     16  O   LIG    1       22.623 -31.061   9.520  0.00  0.00    -0.341 OA
BRANCH  16  17
ATOM     17  C   LIG    1       21.489 -31.819   9.998  0.00  0.00    +0.281 C 
ATOM     18  C   LIG    1       20.478 -30.829  10.630  0.00  0.00    +0.190 C 
ATOM     19  C   LIG    1       19.218 -31.548  11.188  0.00  0.00    +0.121 C 
ATOM     20  C   LIG    1       19.626 -32.742  12.112  0.00  0.00    +0.104 C 
ATOM     21  C   LIG    1       19.988 -32.276  13.526  0.00  0.00    +0.045 C 
ATOM     22  C   LIG    1       20.764 -33.553  11.454  0.00  0.00    +0.199 C 
ATOM     23  O   LIG    1       21.872 -32.758  11.007  0.00  0.00    -0.346 OA
BRANCH  19  24
ATOM     24  N   LIG    1       18.248 -32.074  10.183  0.00  0.00    -0.311 NA
ATOM     25  H   LIG    1       18.675 -32.770   9.572  0.00  0.00    +0.122 HD
ATOM     26  C   LIG    1       17.640 -31.029   9.372  0.00  0.00    +0.101 C 
ENDBRANCH  19  24
BRANCH  18  27
ATOM     27  O   LIG    1       21.110 -30.097  11.697  0.00  0.00    -0.385 OA
ATOM     28  H   LIG    1       20.883 -30.573  12.523  0.00  0.00    +0.210 HD
ENDBRANCH  18  27
BRANCH  20  29
ATOM     29  O   LIG    1       18.497 -33.629  12.281  0.00  0.00    -0.385 OA
ATOM     30  H   LIG    1       17.910 -33.454  11.515  0.00  0.00    +0.210 HD
ENDBRANCH  20  29
ENDBRANCH  16  17
ENDBRANCH   2  16
BRANCH   4  31
ATOM     31  O   LIG    1       24.120 -29.372  11.832  0.00  0.00    -0.333 OA
BRANCH  31  32
ATOM     32  C   LIG    1       24.364 -29.299  13.252  0.00  0.00    +0.324 C 
ATOM     33  C   LIG    1       23.215 -28.598  14.077  0.00  0.00    +0.124 C 
ATOM     34  C   LIG    1       23.005 -27.182  13.521  0.00  0.00    +0.055 C 
ATOM     35  C   LIG    1       24.319 -26.517  13.288  0.00  0.00    +0.017 C 
ATOM     36  C   LIG    1       25.495 -27.202  13.298  0.00  0.00    +0.111 C 
ATOM     37  O   LIG    1       25.578 -28.565  13.502  0.00  0.00    -0.465 OA
BRANCH  33  38
ATOM     38  N   LIG    1       21.933 -29.306  14.257  0.00  0.00    -0.322 NA
ATOM     39  H   LIG    1       22.076 -30.310  14.315  0.00  0.00    +0.119 HD
ATOM     40  H   LIG    1       21.320 -29.137  13.459  0.00  0.00    +0.119 HD
ENDBRANCH  33  38
BRANCH  36  41
ATOM     41  C   LIG    1       26.805 -26.527  13.030  0.00  0.00    +0.152 C 
BRANCH  41  42
ATOM     42  N   LIG    1       27.603 -27.348  12.121  0.00  0.00    -0.324 NA
ATOM     43  H   LIG    1       28.392 -26.771  11.843  0.00  0.00    +0.119 HD
ATOM     44  H   LIG    1       28.017 -28.088  12.686  0.00  0.00    +0.119 HD
ENDBRANCH  41  42
ENDBRANCH  36  41
ENDBRANCH  31  32
ENDBRANCH   4  31
TORSDOF 14
ENDMDL
MODEL 8
REMARK VINA RESULT:      -4.7      4.076      8.392
REMARK  Name = *****
REMARK                            x       y       z     vdW  Elec       q    Type
REMARK                         _______ _______ _______ _____ _____    ______ ____
ROOT
ATOM      1  C   LIG    1       23.769 -28.068  13.226  0.00  0.00    +0.087 C 
ATOM      2  C   LIG    1       23.456 -29.544  12.869  0.00  0.00    +0.169 C 
ATOM      3  C   LIG    1       22.300 -30.059  13.786  0.00  0.00    +0.175 C 
ATOM      4  C   LIG    1       20.956 -29.285  13.665  0.00  0.00    +0.170 C 
ATOM      5  C   LIG    1       21.158 -27.730  13.498  0.00  0.00    +0.084 C 
ATOM      6  C   LIG    1       22.510 -27.238  12.923  0.00  0.00    +0.042 C 
ENDROOT
BRANCH   5   7
ATOM      7  N   LIG    1       20.937 -26.987  14.757  0.00  0.00    -0.325 NA
ATOM      8  H   LIG    1       21.568 -26.188  14.814  0.00  0.00    +0.118 HD
ATOM      9  H   LIG    1       19.986 -26.625  14.796  0.00  0.00    +0.118 HD
ENDBRANCH   5   7
BRANCH   1  10
ATOM     10  N   LIG    1       24.241 -27.820  14.613  0.00  0.00    -0.311 NA
ATOM     11  H   LIG    1       23.810 -26.943  14.929  0.00  0.00    +0.122 HD
BRANCH  10  13
ATOM     12  C   LIG    1       26.208 -26.909  13.452  0.00  0.00    +0.020 C 
ATOM     13  C   LIG    1       25.704 -27.640  14.689  0.00  0.00    +0.078 C 
ENDBRANCH  10  13
ENDBRANCH   1  10
BRANCH   3  14
ATOM     14  O   LIG    1       22.700 -30.050  15.173  0.00  0.00    -0.387 OA
ATOM     15  H   LIG    1       23.073 -29.160  15.355  0.00  0.00    +0.210 HD
ENDBRANCH   3  14
BRANCH   2  16
ATOM     16  O   LIG    1       23.128 -29.722  11.473  0.00  0.00    -0.341 OA
BRANCH  16  17
ATOM     17  C   LIG    1       24.236 -29.961  10.576  0.00  0.00    +0.281 C 
ATOM     18  C   LIG    1       23.679 -30.045   9.133  0.00  0.00    +0.190 C 
ATOM     19  C   LIG    1       24.796 -30.312   8.084  0.00  0.00    +0.121 C 
ATOM     20  C   LIG    1       25.679 -31.528   8.514  0.00  0.00    +0.104 C 
ATOM     21  C   LIG    1       25.025 -32.867   8.160  0.00  0.00    +0.045 C 
ATOM     22  C   LIG    1       26.023 -31.425  10.016  0.00  0.00    +0.199 C 
ATOM     23  O   LIG    1       24.890 -31.199  10.867  0.00  0.00    -0.346 OA
BRANCH  19  24
ATOM     24  N   LIG    1       25.718 -29.177   7.785  0.00  0.00    -0.311 NA
ATOM     25  H   LIG    1       26.038 -28.713   8.635  0.00  0.00    +0.122 HD
ATOM     26  C   LIG    1       25.135 -28.188   6.887  0.00  0.00    +0.101 C 
ENDBRANCH  19  24
BRANCH  18  27
ATOM     27  O   LIG    1       22.697 -31.094   9.046  0.00  0.00    -0.385 OA
ATOM     28  H   LIG    1       22.046 -30.914   9.755  0.00  0.00    +0.210 HD
ENDBRANCH  18  27
BRANCH  20  29
ATOM     29  O   LIG    1       26.924 -31.506   7.778  0.00  0.00    -0.385 OA
ATOM     30  H   LIG    1       26.938 -32.342   7.265  0.00  0.00    +0.210 HD
ENDBRANCH  20  29
ENDBRANCH  16  17
ENDBRANCH   2  16
BRANCH   4  31
ATOM     31  O   LIG    1       20.135 -29.957  12.666  0.00  0.00    -0.333 OA
BRANCH  31  32
ATOM     32  C   LIG    1       19.890 -31.363  12.877  0.00  0.00    +0.324 C 
ATOM     33  C   LIG    1       20.226 -32.277  11.633  0.00  0.00    +0.124 C 
ATOM     34  C   LIG    1       19.406 -31.790  10.430  0.00  0.00    +0.055 C 
ATOM     35  C   LIG    1       18.000 -31.512  10.840  0.00  0.00    +0.017 C 
ATOM     36  C   LIG    1       17.623 -31.430  12.145  0.00  0.00    +0.111 C 
ATOM     37  O   LIG    1       18.503 -31.574  13.199  0.00  0.00    -0.465 OA
BRANCH  33  38
ATOM     38  N   LIG    1       21.639 -32.499  11.274  0.00  0.00    -0.322 NA
ATOM     39  H   LIG    1       22.136 -31.617  11.183  0.00  0.00    +0.119 HD
ATOM     40  H   LIG    1       21.705 -32.972  10.372  0.00  0.00    +0.119 HD
ENDBRANCH  33  38
BRANCH  36  41
ATOM     41  C   LIG    1       16.214 -31.116  12.543  0.00  0.00    +0.152 C 
BRANCH  41  42
ATOM     42  N   LIG    1       16.156 -29.782  13.134  0.00  0.00    -0.324 NA
ATOM     43  H   LIG    1       16.975 -29.704  13.730  0.00  0.00    +0.119 HD
ATOM     44  H   LIG    1       16.330 -29.121  12.378  0.00  0.00    +0.119 HD
ENDBRANCH  41  42
ENDBRANCH  36  41
ENDBRANCH  31  32
ENDBRANCH   4  31
TORSDOF 14
ENDMDL
MODEL 9
REMARK VINA RESULT:      -4.6      3.117      6.596
REMARK  Name = *****
REMARK                            x       y       z     vdW  Elec       q    Type
REMARK                         _______ _______ _______ _____ _____    ______ ____
ROOT
ATOM      1  C   LIG    1       26.740 -31.826   8.447  0.00  0.00    +0.087 C 
ATOM      2  C   LIG    1       26.356 -30.428   8.996  0.00  0.00    +0.169 C 
ATOM      3  C   LIG    1       25.124 -29.886   8.199  0.00  0.00    +0.175 C 
ATOM      4  C   LIG    1       23.838 -30.758   8.283  0.00  0.00    +0.170 C 
ATOM      5  C   LIG    1       24.146 -32.305   8.249  0.00  0.00    +0.084 C 
ATOM      6  C   LIG    1       25.553 -32.770   8.700  0.00  0.00    +0.042 C 
ENDROOT
BRANCH   5   7
ATOM      7  N   LIG    1       23.907 -32.906   6.919  0.00  0.00    -0.325 NA
ATOM      8  H   LIG    1       24.562 -33.669   6.751  0.00  0.00    +0.118 HD
ATOM      9  H   LIG    1       22.967 -33.295   6.866  0.00  0.00    +0.118 HD
ENDBRANCH   5   7
BRANCH   1  10
ATOM     10  N   LIG    1       27.156 -31.874   7.022  0.00  0.00    -0.311 NA
ATOM     11  H   LIG    1       26.324 -31.673   6.455  0.00  0.00    +0.122 HD
BRANCH  10  13
ATOM     12  C   LIG    1       27.317 -33.468   5.157  0.00  0.00    +0.020 C 
ATOM     13  C   LIG    1       27.648 -33.207   6.620  0.00  0.00    +0.078 C 
ENDBRANCH  10  13
ENDBRANCH   1  10
BRANCH   3  14
ATOM     14  O   LIG    1       25.453 -29.702   6.806  0.00  0.00    -0.387 OA
ATOM     15  H   LIG    1       26.420 -29.854   6.721  0.00  0.00    +0.210 HD
ENDBRANCH   3  14
BRANCH   2  16
ATOM     16  O   LIG    1       26.088 -30.441  10.416  0.00  0.00    -0.341 OA
BRANCH  16  17
ATOM     17  C   LIG    1       26.820 -29.487  11.218  0.00  0.00    +0.281 C 
ATOM     18  C   LIG    1       26.981 -30.075  12.642  0.00  0.00    +0.190 C 
ATOM     19  C   LIG    1       27.752 -29.116  13.594  0.00  0.00    +0.121 C 
ATOM     20  C   LIG    1       27.137 -27.679  13.546  0.00  0.00    +0.104 C 
ATOM     21  C   LIG    1       25.892 -27.557  14.431  0.00  0.00    +0.045 C 
ATOM     22  C   LIG    1       26.858 -27.273  12.083  0.00  0.00    +0.199 C 
ATOM     23  O   LIG    1       26.118 -28.246  11.332  0.00  0.00    -0.346 OA
BRANCH  19  24
ATOM     24  N   LIG    1       29.219 -28.981  13.361  0.00  0.00    -0.311 NA
ATOM     25  H   LIG    1       29.481 -29.260  12.416  0.00  0.00    +0.122 HD
ATOM     26  C   LIG    1       30.022 -29.724  14.322  0.00  0.00    +0.101 C 
ENDBRANCH  19  24
BRANCH  18  27
ATOM     27  O   LIG    1       25.685 -30.352  13.207  0.00  0.00    -0.385 OA
ATOM     28  H   LIG    1       25.408 -31.215  12.837  0.00  0.00    +0.210 HD
ENDBRANCH  18  27
BRANCH  20  29
ATOM     29  O   LIG    1       28.085 -26.732  14.090  0.00  0.00    -0.385 OA
ATOM     30  H   LIG    1       28.970 -27.112  13.904  0.00  0.00    +0.210 HD
ENDBRANCH  20  29
ENDBRANCH  16  17
ENDBRANCH   2  16
BRANCH   4  31
ATOM     31  O   LIG    1       23.029 -30.268   9.391  0.00  0.00    -0.333 OA
BRANCH  31  32
ATOM     32  C   LIG    1       22.915 -31.139  10.536  0.00  0.00    +0.324 C 
ATOM     33  C   LIG    1       21.488 -31.789  10.720  0.00  0.00    +0.124 C 
ATOM     34  C   LIG    1       20.447 -30.666  10.826  0.00  0.00    +0.055 C 
ATOM     35  C   LIG    1       20.938 -29.587  11.729  0.00  0.00    +0.017 C 
ATOM     36  C   LIG    1       22.234 -29.511  12.137  0.00  0.00    +0.111 C 
ATOM     37  O   LIG    1       23.208 -30.404  11.739  0.00  0.00    -0.465 OA
BRANCH  33  38
ATOM     38  N   LIG    1       21.057 -32.843   9.782  0.00  0.00    -0.322 NA
ATOM     39  H   LIG    1       20.078 -33.077   9.920  0.00  0.00    +0.119 HD
ATOM     40  H   LIG    1       21.593 -33.696   9.938  0.00  0.00    +0.119 HD
ENDBRANCH  33  38
BRANCH  36  41
ATOM     41  C   LIG    1       22.723 -28.403  13.018  0.00  0.00    +0.152 C 
BRANCH  41  42
ATOM     42  N   LIG    1       21.782 -27.286  12.970  0.00  0.00    -0.324 NA
ATOM     43  H   LIG    1       21.196 -27.379  13.795  0.00  0.00    +0.119 HD
ATOM     44  H   LIG    1       22.325 -26.441  13.141  0.00  0.00    +0.119 HD
ENDBRANCH  41  42
ENDBRANCH  36  41
ENDBRANCH  31  32
ENDBRANCH   4  31
TORSDOF 14
ENDMDL
