MODEL 1
REMARK VINA RESULT:      -8.9      0.000      0.000
REMARK  Name = *****
REMARK                            x       y       z     vdW  Elec       q    Type
REMARK                         _______ _______ _______ _____ _____    ______ ____
ROOT
ATOM      1  N   LIG    1       26.646 -20.385   5.033  0.00  0.00    -0.311 N 
ATOM      2  H   LIG    1       26.774 -21.361   5.246  0.00  0.00    +0.149 HD
ATOM      3  C   LIG    1       25.567 -20.020   4.279  0.00  0.00    +0.213 C 
ATOM      4  O   LIG    1       25.445 -18.887   3.796  0.00  0.00    -0.276 OA
ENDROOT
BRANCH   1   5
ATOM      5  C   LIG    1       27.796 -19.492   5.212  0.00  0.00    +0.139 C 
BRANCH   5  10
ATOM      6  C   LIG    1       30.813 -19.569   7.557  0.00  0.00    +0.162 A 
ATOM      7  C   LIG    1       30.495 -20.668   8.359  0.00  0.00    +0.159 A 
ATOM      8  C   LIG    1       29.370 -21.439   8.111  0.00  0.00    +0.049 A 
ATOM      9  C   LIG    1       28.502 -21.079   7.084  0.00  0.00    +0.009 A 
ATOM     10  C   LIG    1       28.754 -19.948   6.293  0.00  0.00    -0.027 A 
ATOM     11  C   LIG    1       29.950 -19.233   6.507  0.00  0.00    +0.054 A 
BRANCH   6  13
ATOM     12  C   LIG    1       31.816 -17.773   8.724  0.00  0.00    +0.277 C 
ATOM     13  O   LIG    1       31.972 -18.902   7.866  0.00  0.00    -0.491 OA
ENDBRANCH   6  13
BRANCH   7  14
ATOM     14  O   LIG    1       31.227 -20.991   9.468  0.00  0.00    -0.503 OA
ATOM     15  H   LIG    1       30.646 -20.801  10.227  0.00  0.00    +0.292 HD
ENDBRANCH   7  14
ENDBRANCH   5  10
ENDBRANCH   1   5
BRANCH   3  16
ATOM     16  C   LIG    1       24.487 -21.085   4.135  0.00  0.00    +0.096 C 
BRANCH  16  17
ATOM     17  C   LIG    1       23.109 -20.591   4.624  0.00  0.00    +0.010 C 
BRANCH  17  18
ATOM     18  C   LIG    1       23.064 -20.257   6.130  0.00  0.00    +0.004 C 
BRANCH  18  19
ATOM     19  C   LIG    1       23.695 -21.350   7.025  0.00  0.00    +0.027 C 
BRANCH  19  20
ATOM     20  C   LIG    1       22.870 -22.619   7.097  0.00  0.00    -0.031 C 
ATOM     21  C   LIG    1       23.212 -23.877   6.753  0.00  0.00    -0.028 C 
BRANCH  21  22
ATOM     22  C   LIG    1       24.484 -24.377   6.098  0.00  0.00    +0.005 C 
ATOM     23  C   LIG    1       24.346 -25.863   5.731  0.00  0.00    +0.011 C 
ATOM     24  C   LIG    1       25.722 -24.224   6.985  0.00  0.00    +0.011 C 
ENDBRANCH  21  22
ENDBRANCH  19  20
ENDBRANCH  18  19
ENDBRANCH  17  18
ENDBRANCH  16  17
ENDBRANCH   3  16
TORSDOF 10
ENDMDL
MODEL 2
REMARK VINA RESULT:      -8.8      1.764      3.345
REMARK  Name = *****
REMARK                            x       y       z     vdW  Elec       q    Type
REMARK                         _______ _______ _______ _____ _____    ______ ____
ROOT
ATOM      1  N   LIG    1       26.835 -21.847   6.619  0.00  0.00    -0.311 N 
ATOM      2  H   LIG    1       26.794 -22.091   5.643  0.00  0.00    +0.149 HD
ATOM      3  C   LIG    1       26.253 -22.687   7.526  0.00  0.00    +0.213 C 
ATOM      4  O   LIG    1       26.070 -22.369   8.707  0.00  0.00    -0.276 OA
ENDROOT
BRANCH   1   5
ATOM      5  C   LIG    1       27.167 -20.459   6.961  0.00  0.00    +0.139 C 
BRANCH   5  10
ATOM      6  C   LIG    1       30.370 -18.794   8.215  0.00  0.00    +0.162 A 
ATOM      7  C   LIG    1       31.093 -19.909   8.649  0.00  0.00    +0.159 A 
ATOM      8  C   LIG    1       30.608 -21.195   8.472  0.00  0.00    +0.049 A 
ATOM      9  C   LIG    1       29.349 -21.384   7.909  0.00  0.00    +0.009 A 
ATOM     10  C   LIG    1       28.566 -20.289   7.514  0.00  0.00    -0.027 A 
ATOM     11  C   LIG    1       29.117 -18.997   7.622  0.00  0.00    +0.054 A 
BRANCH   6  13
ATOM     12  C   LIG    1       30.550 -16.866   9.571  0.00  0.00    +0.277 C 
ATOM     13  O   LIG    1       30.962 -17.571   8.402  0.00  0.00    -0.491 OA
ENDBRANCH   6  13
BRANCH   7  14
ATOM     14  O   LIG    1       32.269 -19.786   9.335  0.00  0.00    -0.503 OA
ATOM     15  H   LIG    1       32.792 -20.573   9.097  0.00  0.00    +0.292 HD
ENDBRANCH   7  14
ENDBRANCH   5  10
ENDBRANCH   1   5
BRANCH   3  16
ATOM     16  C   LIG    1       25.908 -24.074   6.995  0.00  0.00    +0.096 C 
BRANCH  16  17
ATOM     17  C   LIG    1       24.715 -24.046   6.017  0.00  0.00    +0.010 C 
BRANCH  17  18
ATOM     18  C   LIG    1       23.349 -24.298   6.691  0.00  0.00    +0.004 C 
BRANCH  18  19
ATOM     19  C   LIG    1       22.392 -23.084   6.621  0.00  0.00    +0.027 C 
BRANCH  19  20
ATOM     20  C   LIG    1       23.010 -21.801   7.139  0.00  0.00    -0.031 C 
ATOM     21  C   LIG    1       23.229 -20.639   6.489  0.00  0.00    -0.028 C 
BRANCH  21  22
ATOM     22  C   LIG    1       23.019 -20.308   5.025  0.00  0.00    +0.005 C 
ATOM     23  C   LIG    1       24.354 -20.368   4.268  0.00  0.00    +0.011 C 
ATOM     24  C   LIG    1       22.413 -18.921   4.800  0.00  0.00    +0.011 C 
ENDBRANCH  21  22
ENDBRANCH  19  20
ENDBRANCH  18  19
ENDBRANCH  17  18
ENDBRANCH  16  17
ENDBRANCH   3  16
TORSDOF 10
ENDMDL
MODEL 3
REMARK VINA RESULT:      -8.8      0.734      1.022
REMARK  Name = *****
REMARK                            x       y       z     vdW  Elec       q    Type
REMARK                         _______ _______ _______ _____ _____    ______ ____
ROOT
ATOM      1  N   LIG    1       26.607 -20.389   5.113  0.00  0.00    -0.311 N 
ATOM      2  H   LIG    1       26.692 -21.355   5.386  0.00  0.00    +0.149 HD
ATOM      3  C   LIG    1       25.529 -20.018   4.360  0.00  0.00    +0.213 C 
ATOM      4  O   LIG    1       25.452 -18.914   3.808  0.00  0.00    -0.276 OA
ENDROOT
BRANCH   1   5
ATOM      5  C   LIG    1       27.804 -19.546   5.211  0.00  0.00    +0.139 C 
BRANCH   5  10
ATOM      6  C   LIG    1       30.819 -19.571   7.559  0.00  0.00    +0.162 A 
ATOM      7  C   LIG    1       30.516 -20.672   8.364  0.00  0.00    +0.159 A 
ATOM      8  C   LIG    1       29.403 -21.461   8.116  0.00  0.00    +0.049 A 
ATOM      9  C   LIG    1       28.531 -21.116   7.088  0.00  0.00    +0.009 A 
ATOM     10  C   LIG    1       28.767 -19.984   6.293  0.00  0.00    -0.027 A 
ATOM     11  C   LIG    1       29.952 -19.250   6.506  0.00  0.00    +0.054 A 
BRANCH   6  13
ATOM     12  C   LIG    1       31.792 -17.752   8.714  0.00  0.00    +0.277 C 
ATOM     13  O   LIG    1       31.967 -18.885   7.867  0.00  0.00    -0.491 OA
ENDBRANCH   6  13
BRANCH   7  14
ATOM     14  O   LIG    1       31.252 -20.981   9.474  0.00  0.00    -0.503 OA
ATOM     15  H   LIG    1       30.681 -21.559  10.011  0.00  0.00    +0.292 HD
ENDBRANCH   7  14
ENDBRANCH   5  10
ENDBRANCH   1   5
BRANCH   3  16
ATOM     16  C   LIG    1       24.395 -21.035   4.307  0.00  0.00    +0.096 C 
BRANCH  16  17
ATOM     17  C   LIG    1       23.209 -20.635   5.211  0.00  0.00    +0.010 C 
BRANCH  17  18
ATOM     18  C   LIG    1       23.521 -20.713   6.721  0.00  0.00    +0.004 C 
BRANCH  18  19
ATOM     19  C   LIG    1       23.642 -22.161   7.253  0.00  0.00    +0.027 C 
BRANCH  19  20
ATOM     20  C   LIG    1       25.073 -22.595   7.495  0.00  0.00    -0.031 C 
ATOM     21  C   LIG    1       25.688 -23.739   7.133  0.00  0.00    -0.028 C 
BRANCH  21  22
ATOM     22  C   LIG    1       25.103 -24.971   6.470  0.00  0.00    +0.005 C 
ATOM     23  C   LIG    1       25.931 -26.214   6.830  0.00  0.00    +0.011 C 
ATOM     24  C   LIG    1       25.048 -24.868   4.944  0.00  0.00    +0.011 C 
ENDBRANCH  21  22
ENDBRANCH  19  20
ENDBRANCH  18  19
ENDBRANCH  17  18
ENDBRANCH  16  17
ENDBRANCH   3  16
TORSDOF 10
ENDMDL
MODEL 4
REMARK VINA RESULT:      -8.7      1.668      3.750
REMARK  Name = *****
REMARK                            x       y       z     vdW  Elec       q    Type
REMARK                         _______ _______ _______ _____ _____    ______ ____
ROOT
ATOM      1  N   LIG    1       26.462 -21.940   6.366  0.00  0.00    -0.311 N 
ATOM      2  H   LIG    1       26.378 -22.207   5.398  0.00  0.00    +0.149 HD
ATOM      3  C   LIG    1       26.083 -22.837   7.324  0.00  0.00    +0.213 C 
ATOM      4  O   LIG    1       25.954 -22.525   8.514  0.00  0.00    -0.276 OA
ENDROOT
BRANCH   1   5
ATOM      5  C   LIG    1       26.617 -20.512   6.667  0.00  0.00    +0.139 C 
BRANCH   5  10
ATOM      6  C   LIG    1       30.152 -20.178   8.080  0.00  0.00    +0.162 A 
ATOM      7  C   LIG    1       30.762 -19.411   7.084  0.00  0.00    +0.159 A 
ATOM      8  C   LIG    1       30.039 -18.926   6.005  0.00  0.00    +0.049 A 
ATOM      9  C   LIG    1       28.695 -19.261   5.872  0.00  0.00    +0.009 A 
ATOM     10  C   LIG    1       28.059 -20.078   6.819  0.00  0.00    -0.027 A 
ATOM     11  C   LIG    1       28.791 -20.483   7.953  0.00  0.00    +0.054 A 
BRANCH   6  13
ATOM     12  C   LIG    1       31.263 -21.961   9.166  0.00  0.00    +0.277 C 
ATOM     13  O   LIG    1       30.951 -20.570   9.125  0.00  0.00    -0.491 OA
ENDBRANCH   6  13
BRANCH   7  14
ATOM     14  O   LIG    1       32.107 -19.166   7.081  0.00  0.00    -0.503 OA
ATOM     15  H   LIG    1       32.260 -18.548   7.819  0.00  0.00    +0.292 HD
ENDBRANCH   7  14
ENDBRANCH   5  10
ENDBRANCH   1   5
BRANCH   3  16
ATOM     16  C   LIG    1       25.901 -24.269   6.835  0.00  0.00    +0.096 C 
BRANCH  16  17
ATOM     17  C   LIG    1       24.598 -24.450   6.028  0.00  0.00    +0.010 C 
BRANCH  17  18
ATOM     18  C   LIG    1       23.330 -23.992   6.779  0.00  0.00    +0.004 C 
BRANCH  18  19
ATOM     19  C   LIG    1       22.611 -22.797   6.109  0.00  0.00    +0.027 C 
BRANCH  19  20
ATOM     20  C   LIG    1       22.971 -21.459   6.721  0.00  0.00    -0.031 C 
ATOM     21  C   LIG    1       23.018 -20.243   6.141  0.00  0.00    -0.028 C 
BRANCH  21  22
ATOM     22  C   LIG    1       22.827 -19.871   4.684  0.00  0.00    +0.005 C 
ATOM     23  C   LIG    1       24.179 -19.865   3.954  0.00  0.00    +0.011 C 
ATOM     24  C   LIG    1       22.182 -18.496   4.490  0.00  0.00    +0.011 C 
ENDBRANCH  21  22
ENDBRANCH  19  20
ENDBRANCH  18  19
ENDBRANCH  17  18
ENDBRANCH  16  17
ENDBRANCH   3  16
TORSDOF 10
ENDMDL
MODEL 5
REMARK VINA RESULT:      -8.6      0.845      1.516
REMARK  Name = *****
REMARK                            x       y       z     vdW  Elec       q    Type
REMARK                         _______ _______ _______ _____ _____    ______ ____
ROOT
ATOM      1  N   LIG    1       26.674 -20.390   5.632  0.00  0.00    -0.311 N 
ATOM      2  H   LIG    1       26.741 -21.235   6.175  0.00  0.00    +0.149 HD
ATOM      3  C   LIG    1       25.595 -20.229   4.809  0.00  0.00    +0.213 C 
ATOM      4  O   LIG    1       25.535 -19.333   3.957  0.00  0.00    -0.276 OA
ENDROOT
BRANCH   1   5
ATOM      5  C   LIG    1       27.890 -19.584   5.472  0.00  0.00    +0.139 C 
BRANCH   5  10
ATOM      6  C   LIG    1       31.060 -19.301   7.587  0.00  0.00    +0.162 A 
ATOM      7  C   LIG    1       30.952 -20.448   8.378  0.00  0.00    +0.159 A 
ATOM      8  C   LIG    1       29.924 -21.359   8.189  0.00  0.00    +0.049 A 
ATOM      9  C   LIG    1       28.940 -21.098   7.239  0.00  0.00    +0.009 A 
ATOM     10  C   LIG    1       28.979 -19.928   6.466  0.00  0.00    -0.027 A 
ATOM     11  C   LIG    1       30.082 -19.063   6.613  0.00  0.00    +0.054 A 
BRANCH   6  13
ATOM     12  C   LIG    1       31.920 -17.449   8.780  0.00  0.00    +0.277 C 
ATOM     13  O   LIG    1       32.140 -18.490   7.831  0.00  0.00    -0.491 OA
ENDBRANCH   6  13
BRANCH   7  14
ATOM     14  O   LIG    1       31.803 -20.691   9.420  0.00  0.00    -0.503 OA
ATOM     15  H   LIG    1       31.363 -20.320  10.206  0.00  0.00    +0.292 HD
ENDBRANCH   7  14
ENDBRANCH   5  10
ENDBRANCH   1   5
BRANCH   3  16
ATOM     16  C   LIG    1       24.439 -21.188   5.061  0.00  0.00    +0.096 C 
BRANCH  16  17
ATOM     17  C   LIG    1       23.684 -20.864   6.368  0.00  0.00    +0.010 C 
BRANCH  17  18
ATOM     18  C   LIG    1       23.649 -22.033   7.375  0.00  0.00    +0.004 C 
BRANCH  18  19
ATOM     19  C   LIG    1       23.904 -23.415   6.728  0.00  0.00    +0.027 C 
BRANCH  19  20
ATOM     20  C   LIG    1       25.271 -23.985   7.044  0.00  0.00    -0.031 C 
ATOM     21  C   LIG    1       25.889 -25.059   6.512  0.00  0.00    -0.028 C 
BRANCH  21  22
ATOM     22  C   LIG    1       25.359 -26.072   5.517  0.00  0.00    +0.005 C 
ATOM     23  C   LIG    1       24.308 -26.974   6.182  0.00  0.00    +0.011 C 
ATOM     24  C   LIG    1       26.450 -26.973   4.932  0.00  0.00    +0.011 C 
ENDBRANCH  21  22
ENDBRANCH  19  20
ENDBRANCH  18  19
ENDBRANCH  17  18
ENDBRANCH  16  17
ENDBRANCH   3  16
TORSDOF 10
ENDMDL
MODEL 6
REMARK VINA RESULT:      -8.4      3.095      6.792
REMARK  Name = *****
REMARK                            x       y       z     vdW  Elec       q    Type
REMARK                         _______ _______ _______ _____ _____    ______ ____
ROOT
ATOM      1  N   LIG    1       22.655 -22.240   5.919  0.00  0.00    -0.311 N 
ATOM      2  H   LIG    1       22.610 -22.399   4.925  0.00  0.00    +0.149 HD
ATOM      3  C   LIG    1       23.031 -21.004   6.364  0.00  0.00    +0.213 C 
ATOM      4  O   LIG    1       23.316 -20.781   7.547  0.00  0.00    -0.276 OA
ENDROOT
BRANCH   1   5
ATOM      5  C   LIG    1       22.689 -23.416   6.795  0.00  0.00    +0.139 C 
BRANCH   5  10
ATOM      6  C   LIG    1       24.805 -26.413   5.724  0.00  0.00    +0.162 A 
ATOM      7  C   LIG    1       26.090 -25.942   6.008  0.00  0.00    +0.159 A 
ATOM      8  C   LIG    1       26.288 -24.712   6.616  0.00  0.00    +0.049 A 
ATOM      9  C   LIG    1       25.194 -23.897   6.891  0.00  0.00    +0.009 A 
ATOM     10  C   LIG    1       23.892 -24.306   6.568  0.00  0.00    -0.027 A 
ATOM     11  C   LIG    1       23.709 -25.598   6.034  0.00  0.00    +0.054 A 
BRANCH   6  13
ATOM     12  C   LIG    1       24.504 -28.731   6.078  0.00  0.00    +0.277 C 
ATOM     13  O   LIG    1       24.722 -27.661   5.161  0.00  0.00    -0.491 OA
ENDBRANCH   6  13
BRANCH   7  14
ATOM     14  O   LIG    1       27.211 -26.630   5.635  0.00  0.00    -0.503 OA
ATOM     15  H   LIG    1       26.909 -27.280   4.975  0.00  0.00    +0.292 HD
ENDBRANCH   7  14
ENDBRANCH   5  10
ENDBRANCH   1   5
BRANCH   3  16
ATOM     16  C   LIG    1       23.004 -19.901   5.312  0.00  0.00    +0.096 C 
BRANCH  16  17
ATOM     17  C   LIG    1       24.105 -20.083   4.246  0.00  0.00    +0.010 C 
BRANCH  17  18
ATOM     18  C   LIG    1       25.295 -20.945   4.718  0.00  0.00    +0.004 C 
BRANCH  18  19
ATOM     19  C   LIG    1       26.468 -20.118   5.296  0.00  0.00    +0.027 C 
BRANCH  19  20
ATOM     20  C   LIG    1       26.701 -20.356   6.774  0.00  0.00    -0.031 C 
ATOM     21  C   LIG    1       27.859 -20.355   7.464  0.00  0.00    -0.028 C 
BRANCH  21  22
ATOM     22  C   LIG    1       29.279 -20.218   6.949  0.00  0.00    +0.005 C 
ATOM     23  C   LIG    1       30.282 -20.648   8.031  0.00  0.00    +0.011 C 
ATOM     24  C   LIG    1       29.631 -18.792   6.520  0.00  0.00    +0.011 C 
ENDBRANCH  21  22
ENDBRANCH  19  20
ENDBRANCH  18  19
ENDBRANCH  17  18
ENDBRANCH  16  17
ENDBRANCH   3  16
TORSDOF 10
ENDMDL
MODEL 7
REMARK VINA RESULT:      -8.3      1.302      2.150
REMARK  Name = *****
REMARK                            x       y       z     vdW  Elec       q    Type
REMARK                         _______ _______ _______ _____ _____    ______ ____
ROOT
ATOM      1  N   LIG    1       27.508 -20.372   6.051  0.00  0.00    -0.311 N 
ATOM      2  H   LIG    1       27.515 -21.175   6.659  0.00  0.00    +0.149 HD
ATOM      3  C   LIG    1       26.390 -20.132   5.303  0.00  0.00    +0.213 C 
ATOM      4  O   LIG    1       26.369 -19.304   4.384  0.00  0.00    -0.276 OA
ENDROOT
BRANCH   1   5
ATOM      5  C   LIG    1       28.798 -19.752   5.727  0.00  0.00    +0.139 C 
BRANCH   5  10
ATOM      6  C   LIG    1       31.187 -20.118   8.687  0.00  0.00    +0.162 A 
ATOM      7  C   LIG    1       31.271 -18.793   9.122  0.00  0.00    +0.159 A 
ATOM      8  C   LIG    1       30.510 -17.793   8.537  0.00  0.00    +0.049 A 
ATOM      9  C   LIG    1       29.693 -18.097   7.452  0.00  0.00    +0.009 A 
ATOM     10  C   LIG    1       29.625 -19.404   6.946  0.00  0.00    -0.027 A 
ATOM     11  C   LIG    1       30.338 -20.420   7.614  0.00  0.00    +0.054 A 
BRANCH   6  13
ATOM     12  C   LIG    1       31.550 -22.394   9.218  0.00  0.00    +0.277 C 
ATOM     13  O   LIG    1       31.952 -21.034   9.364  0.00  0.00    -0.491 OA
ENDBRANCH   6  13
BRANCH   7  14
ATOM     14  O   LIG    1       32.158 -18.404  10.088  0.00  0.00    -0.503 OA
ATOM     15  H   LIG    1       31.827 -18.795  10.917  0.00  0.00    +0.292 HD
ENDBRANCH   7  14
ENDBRANCH   5  10
ENDBRANCH   1   5
BRANCH   3  16
ATOM     16  C   LIG    1       25.147 -20.905   5.728  0.00  0.00    +0.096 C 
BRANCH  16  17
ATOM     17  C   LIG    1       24.886 -20.803   7.246  0.00  0.00    +0.010 C 
BRANCH  17  18
ATOM     18  C   LIG    1       23.593 -21.510   7.705  0.00  0.00    +0.004 C 
BRANCH  18  19
ATOM     19  C   LIG    1       22.813 -22.184   6.551  0.00  0.00    +0.027 C 
BRANCH  19  20
ATOM     20  C   LIG    1       22.680 -23.684   6.711  0.00  0.00    -0.031 C 
ATOM     21  C   LIG    1       23.584 -24.651   6.455  0.00  0.00    -0.028 C 
BRANCH  21  22
ATOM     22  C   LIG    1       24.961 -24.532   5.833  0.00  0.00    +0.005 C 
ATOM     23  C   LIG    1       25.296 -25.799   5.031  0.00  0.00    +0.011 C 
ATOM     24  C   LIG    1       26.073 -24.318   6.863  0.00  0.00    +0.011 C 
ENDBRANCH  21  22
ENDBRANCH  19  20
ENDBRANCH  18  19
ENDBRANCH  17  18
ENDBRANCH  16  17
ENDBRANCH   3  16
TORSDOF 10
ENDMDL
MODEL 8
REMARK VINA RESULT:      -7.9      2.083      4.071
REMARK  Name = *****
REMARK                            x       y       z     vdW  Elec       q    Type
REMARK                         _______ _______ _______ _____ _____    ______ ____
ROOT
ATOM      1  N   LIG    1       25.771 -22.438   7.265  0.00  0.00    -0.311 N 
ATOM      2  H   LIG    1       25.062 -21.726   7.341  0.00  0.00    +0.149 HD
ATOM      3  C   LIG    1       25.386 -23.707   6.935  0.00  0.00    +0.213 C 
ATOM      4  O   LIG    1       26.147 -24.678   7.025  0.00  0.00    -0.276 OA
ENDROOT
BRANCH   1   5
ATOM      5  C   LIG    1       27.078 -22.165   7.872  0.00  0.00    +0.139 C 
BRANCH   5  10
ATOM      6  C   LIG    1       29.796 -19.578   7.148  0.00  0.00    +0.162 A 
ATOM      7  C   LIG    1       29.294 -18.987   5.985  0.00  0.00    +0.159 A 
ATOM      8  C   LIG    1       28.057 -19.345   5.473  0.00  0.00    +0.049 A 
ATOM      9  C   LIG    1       27.325 -20.357   6.086  0.00  0.00    +0.009 A 
ATOM     10  C   LIG    1       27.820 -21.017   7.221  0.00  0.00    -0.027 A 
ATOM     11  C   LIG    1       29.038 -20.574   7.777  0.00  0.00    +0.054 A 
BRANCH   6  13
ATOM     12  C   LIG    1       31.378 -19.533   8.905  0.00  0.00    +0.277 C 
ATOM     13  O   LIG    1       31.011 -19.119   7.591  0.00  0.00    -0.491 OA
ENDBRANCH   6  13
BRANCH   7  14
ATOM     14  O   LIG    1       30.024 -18.090   5.257  0.00  0.00    -0.503 OA
ATOM     15  H   LIG    1       29.378 -17.444   4.918  0.00  0.00    +0.292 HD
ENDBRANCH   7  14
ENDBRANCH   5  10
ENDBRANCH   1   5
BRANCH   3  16
ATOM     16  C   LIG    1       23.973 -23.831   6.378  0.00  0.00    +0.096 C 
BRANCH  16  17
ATOM     17  C   LIG    1       23.027 -22.745   6.934  0.00  0.00    +0.010 C 
BRANCH  17  18
ATOM     18  C   LIG    1       22.544 -21.735   5.872  0.00  0.00    +0.004 C 
BRANCH  18  19
ATOM     19  C   LIG    1       22.826 -20.260   6.248  0.00  0.00    +0.027 C 
BRANCH  19  20
ATOM     20  C   LIG    1       22.512 -19.285   5.133  0.00  0.00    -0.031 C 
ATOM     21  C   LIG    1       23.298 -18.871   4.118  0.00  0.00    -0.028 C 
BRANCH  21  22
ATOM     22  C   LIG    1       24.759 -19.178   3.854  0.00  0.00    +0.005 C 
ATOM     23  C   LIG    1       25.445 -17.974   3.190  0.00  0.00    +0.011 C 
ATOM     24  C   LIG    1       24.967 -20.396   2.950  0.00  0.00    +0.011 C 
ENDBRANCH  21  22
ENDBRANCH  19  20
ENDBRANCH  18  19
ENDBRANCH  17  18
ENDBRANCH  16  17
ENDBRANCH   3  16
TORSDOF 10
ENDMDL
MODEL 9
REMARK VINA RESULT:      -7.8      1.344      2.682
REMARK  Name = *****
REMARK                            x       y       z     vdW  Elec       q    Type
REMARK                         _______ _______ _______ _____ _____    ______ ____
ROOT
ATOM      1  N   LIG    1       26.403 -20.380   6.701  0.00  0.00    -0.311 N 
ATOM      2  H   LIG    1       26.467 -20.632   7.674  0.00  0.00    +0.149 HD
ATOM      3  C   LIG    1       25.219 -20.588   6.051  0.00  0.00    +0.213 C 
ATOM      4  O   LIG    1       25.112 -20.508   4.821  0.00  0.00    -0.276 OA
ENDROOT
BRANCH   1   5
ATOM      5  C   LIG    1       27.657 -20.174   5.968  0.00  0.00    +0.139 C 
BRANCH   5  10
ATOM      6  C   LIG    1       30.358 -20.528   8.647  0.00  0.00    +0.162 A 
ATOM      7  C   LIG    1       31.079 -19.346   8.452  0.00  0.00    +0.159 A 
ATOM      8  C   LIG    1       30.667 -18.395   7.531  0.00  0.00    +0.049 A 
ATOM      9  C   LIG    1       29.551 -18.645   6.738  0.00  0.00    +0.009 A 
ATOM     10  C   LIG    1       28.834 -19.845   6.861  0.00  0.00    -0.027 A 
ATOM     11  C   LIG    1       29.219 -20.756   7.865  0.00  0.00    +0.054 A 
BRANCH   6  13
ATOM     12  C   LIG    1       31.474 -22.556   9.128  0.00  0.00    +0.277 C 
ATOM     13  O   LIG    1       30.832 -21.380   9.613  0.00  0.00    -0.491 OA
ENDBRANCH   6  13
BRANCH   7  14
ATOM     14  O   LIG    1       32.260 -19.104   9.097  0.00  0.00    -0.503 OA
ATOM     15  H   LIG    1       32.808 -19.895   8.941  0.00  0.00    +0.292 HD
ENDBRANCH   7  14
ENDBRANCH   5  10
ENDBRANCH   1   5
BRANCH   3  16
ATOM     16  C   LIG    1       24.022 -20.854   6.955  0.00  0.00    +0.096 C 
BRANCH  16  17
ATOM     17  C   LIG    1       22.966 -21.755   6.278  0.00  0.00    +0.010 C 
BRANCH  17  18
ATOM     18  C   LIG    1       23.052 -23.238   6.695  0.00  0.00    +0.004 C 
BRANCH  18  19
ATOM     19  C   LIG    1       24.502 -23.766   6.807  0.00  0.00    +0.027 C 
BRANCH  19  20
ATOM     20  C   LIG    1       24.992 -24.450   5.548  0.00  0.00    -0.031 C 
ATOM     21  C   LIG    1       25.034 -25.766   5.255  0.00  0.00    -0.028 C 
BRANCH  21  22
ATOM     22  C   LIG    1       24.701 -26.953   6.138  0.00  0.00    +0.005 C 
ATOM     23  C   LIG    1       25.849 -27.225   7.121  0.00  0.00    +0.011 C 
ATOM     24  C   LIG    1       24.443 -28.239   5.349  0.00  0.00    +0.011 C 
ENDBRANCH  21  22
ENDBRANCH  19  20
ENDBRANCH  18  19
ENDBRANCH  17  18
ENDBRANCH  16  17
ENDBRANCH   3  16
TORSDOF 10
ENDMDL
