MODEL 1
REMARK VINA RESULT:      -8.0      0.000      0.000
REMARK  Name = *****
REMARK                            x       y       z     vdW  Elec       q    Type
REMARK                         _______ _______ _______ _____ _____    ______ ____
ROOT
ATOM      1  C   LIG    1       24.352 -22.966   6.215  0.00  0.00    +0.131 C 
ENDROOT
BRANCH   1   2
ATOM      2  C   LIG    1       23.818 -22.270   4.868  0.00  0.00    +0.094 C 
ATOM      3  N   LIG    1       22.470 -21.626   4.952  0.00  0.00    -0.310 NA
ATOM      4  H   LIG    1       22.088 -21.580   4.007  0.00  0.00    +0.122 HD
ATOM      5  C   LIG    1       22.464 -20.271   5.503  0.00  0.00    +0.081 C 
ATOM      6  C   LIG    1       23.416 -19.334   4.772  0.00  0.00    +0.015 C 
ATOM      7  C   LIG    1       24.828 -19.898   4.755  0.00  0.00    +0.003 C 
ATOM      8  C   LIG    1       24.823 -21.312   4.185  0.00  0.00    +0.022 C 
ENDBRANCH   1   2
BRANCH   1   9
ATOM      9  C   LIG    1       24.955 -24.378   5.995  0.00  0.00    -0.010 A 
ATOM     10  C   LIG    1       25.541 -25.076   7.069  0.00  0.00    +0.007 A 
ATOM     11  C   LIG    1       26.070 -26.359   6.900  0.00  0.00    +0.000 A 
ATOM     12  C   LIG    1       26.047 -26.963   5.645  0.00  0.00    +0.000 A 
ATOM     13  C   LIG    1       25.510 -26.282   4.560  0.00  0.00    +0.000 A 
ATOM     14  C   LIG    1       24.974 -25.002   4.732  0.00  0.00    +0.007 A 
ENDBRANCH   1   9
BRANCH   1  15
ATOM     15  C   LIG    1       25.385 -22.069   6.932  0.00  0.00    -0.010 A 
ATOM     16  C   LIG    1       25.004 -21.170   7.948  0.00  0.00    +0.007 A 
ATOM     17  C   LIG    1       25.951 -20.375   8.604  0.00  0.00    +0.000 A 
ATOM     18  C   LIG    1       27.295 -20.460   8.261  0.00  0.00    +0.000 A 
ATOM     19  C   LIG    1       27.697 -21.337   7.258  0.00  0.00    +0.000 A 
ATOM     20  C   LIG    1       26.752 -22.131   6.602  0.00  0.00    +0.007 A 
ENDBRANCH   1  15
BRANCH   1  21
ATOM     21  O   LIG    1       23.205 -23.129   7.075  0.00  0.00    -0.378 OA
ATOM     22  H   LIG    1       22.611 -23.721   6.586  0.00  0.00    +0.211 HD
ENDBRANCH   1  21
TORSDOF 4
ENDMDL
MODEL 2
REMARK VINA RESULT:      -7.8      1.767      5.113
REMARK  Name = *****
REMARK                            x       y       z     vdW  Elec       q    Type
REMARK                         _______ _______ _______ _____ _____    ______ ____
ROOT
ATOM      1  C   LIG    1       25.044 -21.408   6.261  0.00  0.00    +0.131 C 
ENDROOT
BRANCH   1   2
ATOM      2  C   LIG    1       25.160 -22.805   5.476  0.00  0.00    +0.094 C 
ATOM      3  N   LIG    1       26.249 -23.724   5.929  0.00  0.00    -0.310 NA
ATOM      4  H   LIG    1       26.471 -24.350   5.154  0.00  0.00    +0.122 HD
ATOM      5  C   LIG    1       25.920 -24.551   7.090  0.00  0.00    +0.081 C 
ATOM      6  C   LIG    1       24.641 -25.354   6.897  0.00  0.00    +0.015 C 
ATOM      7  C   LIG    1       23.476 -24.446   6.538  0.00  0.00    +0.003 C 
ATOM      8  C   LIG    1       23.831 -23.585   5.332  0.00  0.00    +0.022 C 
ENDBRANCH   1   2
BRANCH   1   9
ATOM      9  C   LIG    1       26.414 -20.786   6.643  0.00  0.00    -0.010 A 
ATOM     10  C   LIG    1       26.797 -20.686   7.994  0.00  0.00    +0.007 A 
ATOM     11  C   LIG    1       28.036 -20.151   8.361  0.00  0.00    +0.000 A 
ATOM     12  C   LIG    1       28.909 -19.681   7.383  0.00  0.00    +0.000 A 
ATOM     13  C   LIG    1       28.541 -19.733   6.045  0.00  0.00    +0.000 A 
ATOM     14  C   LIG    1       27.305 -20.276   5.679  0.00  0.00    +0.007 A 
ENDBRANCH   1   9
BRANCH   1  15
ATOM     15  C   LIG    1       24.220 -20.381   5.452  0.00  0.00    -0.010 A 
ATOM     16  C   LIG    1       24.714 -19.810   4.262  0.00  0.00    +0.007 A 
ATOM     17  C   LIG    1       23.951 -18.895   3.528  0.00  0.00    +0.000 A 
ATOM     18  C   LIG    1       22.683 -18.531   3.963  0.00  0.00    +0.000 A 
ATOM     19  C   LIG    1       22.173 -19.078   5.137  0.00  0.00    +0.000 A 
ATOM     20  C   LIG    1       22.934 -19.992   5.872  0.00  0.00    +0.007 A 
ENDBRANCH   1  15
BRANCH   1  21
ATOM     21  O   LIG    1       24.352 -21.686   7.495  0.00  0.00    -0.378 OA
ATOM     22  H   LIG    1       24.851 -22.413   7.900  0.00  0.00    +0.211 HD
ENDBRANCH   1  21
TORSDOF 4
ENDMDL
MODEL 3
REMARK VINA RESULT:      -7.8      1.667      4.809
REMARK  Name = *****
REMARK                            x       y       z     vdW  Elec       q    Type
REMARK                         _______ _______ _______ _____ _____    ______ ____
ROOT
ATOM      1  C   LIG    1       25.167 -21.510   5.849  0.00  0.00    +0.131 C 
ENDROOT
BRANCH   1   2
ATOM      2  C   LIG    1       24.504 -22.463   6.961  0.00  0.00    +0.094 C 
ATOM      3  N   LIG    1       23.293 -23.229   6.531  0.00  0.00    -0.310 NA
ATOM      4  H   LIG    1       22.760 -23.463   7.369  0.00  0.00    +0.122 HD
ATOM      5  C   LIG    1       23.569 -24.474   5.814  0.00  0.00    +0.081 C 
ATOM      6  C   LIG    1       24.497 -25.403   6.585  0.00  0.00    +0.015 C 
ATOM      7  C   LIG    1       25.793 -24.698   6.952  0.00  0.00    +0.003 C 
ATOM      8  C   LIG    1       25.494 -23.400   7.692  0.00  0.00    +0.022 C 
ENDBRANCH   1   2
BRANCH   1   9
ATOM      9  C   LIG    1       24.197 -20.443   5.277  0.00  0.00    -0.010 A 
ATOM     10  C   LIG    1       24.514 -19.759   4.088  0.00  0.00    +0.007 A 
ATOM     11  C   LIG    1       23.644 -18.809   3.542  0.00  0.00    +0.000 A 
ATOM     12  C   LIG    1       22.449 -18.505   4.188  0.00  0.00    +0.000 A 
ATOM     13  C   LIG    1       22.129 -19.137   5.382  0.00  0.00    +0.000 A 
ATOM     14  C   LIG    1       22.995 -20.092   5.924  0.00  0.00    +0.007 A 
ENDBRANCH   1   9
BRANCH   1  15
ATOM     15  C   LIG    1       26.434 -20.816   6.395  0.00  0.00    -0.010 A 
ATOM     16  C   LIG    1       26.645 -20.644   7.777  0.00  0.00    +0.007 A 
ATOM     17  C   LIG    1       27.805 -20.029   8.262  0.00  0.00    +0.000 A 
ATOM     18  C   LIG    1       28.778 -19.575   7.380  0.00  0.00    +0.000 A 
ATOM     19  C   LIG    1       28.593 -19.730   6.009  0.00  0.00    +0.000 A 
ATOM     20  C   LIG    1       27.434 -20.343   5.524  0.00  0.00    +0.007 A 
ENDBRANCH   1  15
BRANCH   1  21
ATOM     21  O   LIG    1       25.545 -22.364   4.750  0.00  0.00    -0.378 OA
ATOM     22  H   LIG    1       25.379 -23.266   5.068  0.00  0.00    +0.211 HD
ENDBRANCH   1  21
TORSDOF 4
ENDMDL
MODEL 4
REMARK VINA RESULT:      -7.8      1.491      2.130
REMARK  Name = *****
REMARK                            x       y       z     vdW  Elec       q    Type
REMARK                         _______ _______ _______ _____ _____    ______ ____
ROOT
ATOM      1  C   LIG    1       24.756 -21.189   6.138  0.00  0.00    +0.131 C 
ENDROOT
BRANCH   1   2
ATOM      2  C   LIG    1       24.287 -20.718   4.675  0.00  0.00    +0.094 C 
ATOM      3  N   LIG    1       23.121 -21.451   4.092  0.00  0.00    -0.310 NA
ATOM      4  H   LIG    1       23.169 -21.353   3.077  0.00  0.00    +0.122 HD
ATOM      5  C   LIG    1       21.809 -20.975   4.526  0.00  0.00    +0.081 C 
ATOM      6  C   LIG    1       21.620 -19.481   4.297  0.00  0.00    +0.015 C 
ATOM      7  C   LIG    1       22.728 -18.683   4.967  0.00  0.00    +0.003 C 
ATOM      8  C   LIG    1       24.090 -19.192   4.513  0.00  0.00    +0.022 C 
ENDBRANCH   1   2
BRANCH   1   9
ATOM      9  C   LIG    1       24.747 -22.728   6.335  0.00  0.00    -0.010 A 
ATOM     10  C   LIG    1       23.528 -23.421   6.466  0.00  0.00    +0.007 A 
ATOM     11  C   LIG    1       23.495 -24.811   6.622  0.00  0.00    +0.000 A 
ATOM     12  C   LIG    1       24.684 -25.535   6.674  0.00  0.00    +0.000 A 
ATOM     13  C   LIG    1       25.901 -24.873   6.585  0.00  0.00    +0.000 A 
ATOM     14  C   LIG    1       25.933 -23.484   6.422  0.00  0.00    +0.007 A 
ENDBRANCH   1   9
BRANCH   1  15
ATOM     15  C   LIG    1       26.157 -20.634   6.479  0.00  0.00    -0.010 A 
ATOM     16  C   LIG    1       26.599 -20.510   7.811  0.00  0.00    +0.007 A 
ATOM     17  C   LIG    1       27.876 -20.022   8.108  0.00  0.00    +0.000 A 
ATOM     18  C   LIG    1       28.739 -19.649   7.084  0.00  0.00    +0.000 A 
ATOM     19  C   LIG    1       28.326 -19.759   5.760  0.00  0.00    +0.000 A 
ATOM     20  C   LIG    1       27.050 -20.245   5.462  0.00  0.00    +0.007 A 
ENDBRANCH   1  15
BRANCH   1  21
ATOM     21  O   LIG    1       23.803 -20.642   7.071  0.00  0.00    -0.378 OA
ATOM     22  H   LIG    1       24.240 -20.700   7.935  0.00  0.00    +0.211 HD
ENDBRANCH   1  21
TORSDOF 4
ENDMDL
MODEL 5
REMARK VINA RESULT:      -7.7      1.559      2.441
REMARK  Name = *****
REMARK                            x       y       z     vdW  Elec       q    Type
REMARK                         _______ _______ _______ _____ _____    ______ ____
ROOT
ATOM      1  C   LIG    1       24.534 -20.975   5.970  0.00  0.00    +0.131 C 
ENDROOT
BRANCH   1   2
ATOM      2  C   LIG    1       24.135 -20.424   4.514  0.00  0.00    +0.094 C 
ATOM      3  N   LIG    1       23.010 -21.134   3.830  0.00  0.00    -0.310 NA
ATOM      4  H   LIG    1       23.108 -20.977   2.827  0.00  0.00    +0.122 HD
ATOM      5  C   LIG    1       21.671 -20.696   4.222  0.00  0.00    +0.081 C 
ATOM      6  C   LIG    1       21.475 -19.194   4.070  0.00  0.00    +0.015 C 
ATOM      7  C   LIG    1       22.537 -18.425   4.841  0.00  0.00    +0.003 C 
ATOM      8  C   LIG    1       23.927 -18.893   4.430  0.00  0.00    +0.022 C 
ENDBRANCH   1   2
BRANCH   1   9
ATOM      9  C   LIG    1       24.378 -22.511   6.126  0.00  0.00    -0.010 A 
ATOM     10  C   LIG    1       25.429 -23.373   5.760  0.00  0.00    +0.007 A 
ATOM     11  C   LIG    1       25.319 -24.759   5.913  0.00  0.00    +0.000 A 
ATOM     12  C   LIG    1       24.143 -25.314   6.414  0.00  0.00    +0.000 A 
ATOM     13  C   LIG    1       23.077 -24.489   6.748  0.00  0.00    +0.000 A 
ATOM     14  C   LIG    1       23.191 -23.103   6.601  0.00  0.00    +0.007 A 
ENDBRANCH   1   9
BRANCH   1  15
ATOM     15  C   LIG    1       25.975 -20.563   6.345  0.00  0.00    -0.010 A 
ATOM     16  C   LIG    1       26.902 -20.146   5.369  0.00  0.00    +0.007 A 
ATOM     17  C   LIG    1       28.200 -19.758   5.722  0.00  0.00    +0.000 A 
ATOM     18  C   LIG    1       28.600 -19.777   7.052  0.00  0.00    +0.000 A 
ATOM     19  C   LIG    1       27.704 -20.188   8.036  0.00  0.00    +0.000 A 
ATOM     20  C   LIG    1       26.408 -20.576   7.685  0.00  0.00    +0.007 A 
ENDBRANCH   1  15
BRANCH   1  21
ATOM     21  O   LIG    1       23.622 -20.364   6.904  0.00  0.00    -0.378 OA
ATOM     22  H   LIG    1       24.155 -19.703   7.375  0.00  0.00    +0.211 HD
ENDBRANCH   1  21
TORSDOF 4
ENDMDL
MODEL 6
REMARK VINA RESULT:      -7.4      1.581      5.117
REMARK  Name = *****
REMARK                            x       y       z     vdW  Elec       q    Type
REMARK                         _______ _______ _______ _____ _____    ______ ____
ROOT
ATOM      1  C   LIG    1       23.916 -22.181   6.839  0.00  0.00    +0.131 C 
ENDROOT
BRANCH   1   2
ATOM      2  C   LIG    1       25.001 -21.860   7.980  0.00  0.00    +0.094 C 
ATOM      3  N   LIG    1       26.122 -22.841   8.115  0.00  0.00    -0.310 NA
ATOM      4  H   LIG    1       26.492 -22.762   9.062  0.00  0.00    +0.122 HD
ATOM      5  C   LIG    1       27.232 -22.647   7.183  0.00  0.00    +0.081 C 
ATOM      6  C   LIG    1       27.801 -21.235   7.232  0.00  0.00    +0.015 C 
ATOM      7  C   LIG    1       26.713 -20.201   6.992  0.00  0.00    +0.003 C 
ATOM      8  C   LIG    1       25.559 -20.416   7.963  0.00  0.00    +0.022 C 
ENDBRANCH   1   2
BRANCH   1   9
ATOM      9  C   LIG    1       23.838 -21.104   5.725  0.00  0.00    -0.010 A 
ATOM     10  C   LIG    1       22.791 -20.162   5.719  0.00  0.00    +0.007 A 
ATOM     11  C   LIG    1       22.713 -19.169   4.738  0.00  0.00    +0.000 A 
ATOM     12  C   LIG    1       23.669 -19.111   3.727  0.00  0.00    +0.000 A 
ATOM     13  C   LIG    1       24.692 -20.049   3.688  0.00  0.00    +0.000 A 
ATOM     14  C   LIG    1       24.773 -21.038   4.674  0.00  0.00    +0.007 A 
ENDBRANCH   1   9
BRANCH   1  15
ATOM     15  C   LIG    1       24.172 -23.565   6.202  0.00  0.00    -0.010 A 
ATOM     16  C   LIG    1       24.896 -23.703   5.001  0.00  0.00    +0.007 A 
ATOM     17  C   LIG    1       25.136 -24.963   4.441  0.00  0.00    +0.000 A 
ATOM     18  C   LIG    1       24.662 -26.109   5.067  0.00  0.00    +0.000 A 
ATOM     19  C   LIG    1       23.941 -26.000   6.252  0.00  0.00    +0.000 A 
ATOM     20  C   LIG    1       23.699 -24.743   6.812  0.00  0.00    +0.007 A 
ENDBRANCH   1  15
BRANCH   1  21
ATOM     21  O   LIG    1       22.630 -22.203   7.491  0.00  0.00    -0.378 OA
ATOM     22  H   LIG    1       22.555 -21.337   7.922  0.00  0.00    +0.211 HD
ENDBRANCH   1  21
TORSDOF 4
ENDMDL
MODEL 7
REMARK VINA RESULT:      -7.3      1.797      4.766
REMARK  Name = *****
REMARK                            x       y       z     vdW  Elec       q    Type
REMARK                         _______ _______ _______ _____ _____    ______ ____
ROOT
ATOM      1  C   LIG    1       25.280 -21.148   7.386  0.00  0.00    +0.131 C 
ENDROOT
BRANCH   1   2
ATOM      2  C   LIG    1       24.958 -22.670   7.788  0.00  0.00    +0.094 C 
ATOM      3  N   LIG    1       23.524 -23.085   7.694  0.00  0.00    -0.310 NA
ATOM      4  H   LIG    1       23.390 -23.883   8.316  0.00  0.00    +0.122 HD
ATOM      5  C   LIG    1       23.078 -23.478   6.358  0.00  0.00    +0.081 C 
ATOM      6  C   LIG    1       23.949 -24.565   5.743  0.00  0.00    +0.015 C 
ATOM      7  C   LIG    1       25.410 -24.143   5.718  0.00  0.00    +0.003 C 
ATOM      8  C   LIG    1       25.863 -23.729   7.113  0.00  0.00    +0.022 C 
ENDBRANCH   1   2
BRANCH   1   9
ATOM      9  C   LIG    1       26.786 -20.867   7.144  0.00  0.00    -0.010 A 
ATOM     10  C   LIG    1       27.194 -20.051   6.071  0.00  0.00    +0.007 A 
ATOM     11  C   LIG    1       28.545 -19.766   5.847  0.00  0.00    +0.000 A 
ATOM     12  C   LIG    1       29.520 -20.312   6.679  0.00  0.00    +0.000 A 
ATOM     13  C   LIG    1       29.149 -21.151   7.721  0.00  0.00    +0.000 A 
ATOM     14  C   LIG    1       27.797 -21.429   7.949  0.00  0.00    +0.007 A 
ENDBRANCH   1   9
BRANCH   1  15
ATOM     15  C   LIG    1       24.469 -20.718   6.144  0.00  0.00    -0.010 A 
ATOM     16  C   LIG    1       23.215 -20.086   6.262  0.00  0.00    +0.007 A 
ATOM     17  C   LIG    1       22.496 -19.684   5.131  0.00  0.00    +0.000 A 
ATOM     18  C   LIG    1       23.012 -19.903   3.859  0.00  0.00    +0.000 A 
ATOM     19  C   LIG    1       24.248 -20.528   3.714  0.00  0.00    +0.000 A 
ATOM     20  C   LIG    1       24.966 -20.930   4.844  0.00  0.00    +0.007 A 
ENDBRANCH   1  15
BRANCH   1  21
ATOM     21  O   LIG    1       24.877 -20.334   8.506  0.00  0.00    -0.378 OA
ATOM     22  H   LIG    1       25.243 -19.455   8.318  0.00  0.00    +0.211 HD
ENDBRANCH   1  21
TORSDOF 4
ENDMDL
MODEL 8
REMARK VINA RESULT:      -7.3      1.734      4.647
REMARK  Name = *****
REMARK                            x       y       z     vdW  Elec       q    Type
REMARK                         _______ _______ _______ _____ _____    ______ ____
ROOT
ATOM      1  C   LIG    1       25.401 -21.294   5.860  0.00  0.00    +0.131 C 
ENDROOT
BRANCH   1   2
ATOM      2  C   LIG    1       24.022 -20.731   6.464  0.00  0.00    +0.094 C 
ATOM      3  N   LIG    1       23.091 -20.088   5.487  0.00  0.00    -0.310 NA
ATOM      4  H   LIG    1       22.484 -19.454   6.006  0.00  0.00    +0.122 HD
ATOM      5  C   LIG    1       22.238 -21.013   4.742  0.00  0.00    +0.081 C 
ATOM      6  C   LIG    1       21.440 -21.939   5.650  0.00  0.00    +0.015 C 
ATOM      7  C   LIG    1       22.359 -22.699   6.594  0.00  0.00    +0.003 C 
ATOM      8  C   LIG    1       23.247 -21.727   7.360  0.00  0.00    +0.022 C 
ENDBRANCH   1   2
BRANCH   1   9
ATOM      9  C   LIG    1       26.669 -20.710   6.537  0.00  0.00    -0.010 A 
ATOM     10  C   LIG    1       27.767 -20.301   5.757  0.00  0.00    +0.007 A 
ATOM     11  C   LIG    1       28.911 -19.750   6.343  0.00  0.00    +0.000 A 
ATOM     12  C   LIG    1       28.990 -19.620   7.728  0.00  0.00    +0.000 A 
ATOM     13  C   LIG    1       27.937 -20.050   8.524  0.00  0.00    +0.000 A 
ATOM     14  C   LIG    1       26.790 -20.594   7.936  0.00  0.00    +0.007 A 
ENDBRANCH   1   9
BRANCH   1  15
ATOM     15  C   LIG    1       25.446 -22.837   5.923  0.00  0.00    -0.010 A 
ATOM     16  C   LIG    1       25.956 -23.516   7.048  0.00  0.00    +0.007 A 
ATOM     17  C   LIG    1       25.977 -24.914   7.101  0.00  0.00    +0.000 A 
ATOM     18  C   LIG    1       25.490 -25.664   6.038  0.00  0.00    +0.000 A 
ATOM     19  C   LIG    1       24.984 -25.018   4.913  0.00  0.00    +0.000 A 
ATOM     20  C   LIG    1       24.963 -23.621   4.858  0.00  0.00    +0.007 A 
ENDBRANCH   1  15
BRANCH   1  21
ATOM     21  O   LIG    1       25.439 -20.887   4.477  0.00  0.00    -0.378 OA
ATOM     22  H   LIG    1       24.639 -21.272   4.083  0.00  0.00    +0.211 HD
ENDBRANCH   1  21
TORSDOF 4
ENDMDL
MODEL 9
REMARK VINA RESULT:      -7.2      1.735      4.560
REMARK  Name = *****
REMARK                            x       y       z     vdW  Elec       q    Type
REMARK                         _______ _______ _______ _____ _____    ______ ____
ROOT
ATOM      1  C   LIG    1       25.416 -21.287   5.833  0.00  0.00    +0.131 C 
ENDROOT
BRANCH   1   2
ATOM      2  C   LIG    1       24.044 -20.696   6.425  0.00  0.00    +0.094 C 
ATOM      3  N   LIG    1       23.152 -20.001   5.446  0.00  0.00    -0.310 NA
ATOM      4  H   LIG    1       22.554 -19.361   5.970  0.00  0.00    +0.122 HD
ATOM      5  C   LIG    1       22.285 -20.881   4.662  0.00  0.00    +0.081 C 
ATOM      6  C   LIG    1       21.442 -21.804   5.532  0.00  0.00    +0.015 C 
ATOM      7  C   LIG    1       22.318 -22.614   6.475  0.00  0.00    +0.003 C 
ATOM      8  C   LIG    1       23.221 -21.689   7.281  0.00  0.00    +0.022 C 
ENDBRANCH   1   2
BRANCH   1   9
ATOM      9  C   LIG    1       26.690 -20.711   6.506  0.00  0.00    -0.010 A 
ATOM     10  C   LIG    1       26.747 -20.556   7.904  0.00  0.00    +0.007 A 
ATOM     11  C   LIG    1       27.892 -20.061   8.535  0.00  0.00    +0.000 A 
ATOM     12  C   LIG    1       29.000 -19.688   7.776  0.00  0.00    +0.000 A 
ATOM     13  C   LIG    1       28.957 -19.796   6.392  0.00  0.00    +0.000 A 
ATOM     14  C   LIG    1       27.813 -20.298   5.763  0.00  0.00    +0.007 A 
ENDBRANCH   1   9
BRANCH   1  15
ATOM     15  C   LIG    1       25.440 -22.829   5.917  0.00  0.00    -0.010 A 
ATOM     16  C   LIG    1       24.960 -23.634   4.865  0.00  0.00    +0.007 A 
ATOM     17  C   LIG    1       25.002 -25.031   4.945  0.00  0.00    +0.000 A 
ATOM     18  C   LIG    1       25.524 -25.653   6.072  0.00  0.00    +0.000 A 
ATOM     19  C   LIG    1       26.001 -24.880   7.128  0.00  0.00    +0.000 A 
ATOM     20  C   LIG    1       25.959 -23.485   7.050  0.00  0.00    +0.007 A 
ENDBRANCH   1  15
BRANCH   1  21
ATOM     21  O   LIG    1       25.464 -20.899   4.445  0.00  0.00    -0.378 OA
ATOM     22  H   LIG    1       26.108 -21.504   4.041  0.00  0.00    +0.211 HD
ENDBRANCH   1  21
TORSDOF 4
ENDMDL
