MODEL 1
REMARK VINA RESULT:      -6.2      0.000      0.000
REMARK  Name = *****
REMARK                            x       y       z     vdW  Elec       q    Type
REMARK                         _______ _______ _______ _____ _____    ______ ____
ROOT
ATOM      1  C   LIG    1       27.945 -19.917   5.504  0.00  0.00    +0.045 C 
ATOM      2  C   LIG    1       26.682 -20.307   6.223  0.00  0.00    -0.028 A 
ATOM      3  C   LIG    1       25.433 -20.340   5.569  0.00  0.00    +0.047 A 
ATOM      4 CL   LIG    1       25.334 -19.922   3.886  0.00  0.00    -0.083 Cl
ATOM      5  C   LIG    1       24.265 -20.709   6.265  0.00  0.00    -0.028 A 
ATOM      6  C   LIG    1       22.918 -20.753   5.597  0.00  0.00    +0.045 C 
ATOM      7  C   LIG    1       24.363 -21.044   7.623  0.00  0.00    +0.050 A 
ATOM      8  C   LIG    1       25.593 -21.012   8.266  0.00  0.00    +0.117 A 
ATOM      9  C   LIG    1       26.749 -20.648   7.583  0.00  0.00    +0.050 A 
ENDROOT
BRANCH   8  10
ATOM     10  O   LIG    1       25.626 -21.349   9.587  0.00  0.00    -0.507 OA
ATOM     11  H   LIG    1       24.962 -22.038   9.752  0.00  0.00    +0.292 HD
ENDBRANCH   8  10
TORSDOF 1
ENDMDL
MODEL 2
REMARK VINA RESULT:      -6.2      0.121      2.754
REMARK  Name = *****
REMARK                            x       y       z     vdW  Elec       q    Type
REMARK                         _______ _______ _______ _____ _____    ______ ____
ROOT
ATOM      1  C   LIG    1       22.853 -20.693   5.499  0.00  0.00    +0.045 C 
ATOM      2  C   LIG    1       24.199 -20.662   6.171  0.00  0.00    -0.028 A 
ATOM      3  C   LIG    1       25.369 -20.293   5.476  0.00  0.00    +0.047 A 
ATOM      4 CL   LIG    1       25.271 -19.859   3.798  0.00  0.00    -0.083 Cl
ATOM      5  C   LIG    1       26.618 -20.273   6.129  0.00  0.00    -0.028 A 
ATOM      6  C   LIG    1       27.885 -19.885   5.416  0.00  0.00    +0.045 C 
ATOM      7  C   LIG    1       26.679 -20.625   7.484  0.00  0.00    +0.050 A 
ATOM      8  C   LIG    1       25.526 -20.988   8.168  0.00  0.00    +0.117 A 
ATOM      9  C   LIG    1       24.292 -21.010   7.527  0.00  0.00    +0.050 A 
ENDROOT
BRANCH   8  10
ATOM     10  O   LIG    1       25.648 -21.320   9.485  0.00  0.00    -0.507 OA
ATOM     11  H   LIG    1       25.248 -20.619  10.024  0.00  0.00    +0.292 HD
ENDBRANCH   8  10
TORSDOF 1
ENDMDL
MODEL 3
REMARK VINA RESULT:      -5.9      2.814      4.277
REMARK  Name = *****
REMARK                            x       y       z     vdW  Elec       q    Type
REMARK                         _______ _______ _______ _____ _____    ______ ____
ROOT
ATOM      1  C   LIG    1       23.282 -21.224   7.244  0.00  0.00    +0.045 C 
ATOM      2  C   LIG    1       24.548 -20.782   6.561  0.00  0.00    -0.028 A 
ATOM      3  C   LIG    1       25.774 -20.691   7.253  0.00  0.00    +0.047 A 
ATOM      4 CL   LIG    1       25.840 -21.099   8.939  0.00  0.00    -0.083 Cl
ATOM      5  C   LIG    1       26.945 -20.275   6.590  0.00  0.00    -0.028 A 
ATOM      6  C   LIG    1       28.268 -20.167   7.299  0.00  0.00    +0.045 C 
ATOM      7  C   LIG    1       26.874 -19.950   5.228  0.00  0.00    +0.050 A 
ATOM      8  C   LIG    1       25.667 -20.040   4.548  0.00  0.00    +0.117 A 
ATOM      9  C   LIG    1       24.508 -20.451   5.198  0.00  0.00    +0.050 A 
ENDROOT
BRANCH   8  10
ATOM     10  O   LIG    1       25.660 -19.713   3.224  0.00  0.00    -0.507 OA
ATOM     11  H   LIG    1       25.794 -18.755   3.137  0.00  0.00    +0.292 HD
ENDBRANCH   8  10
TORSDOF 1
ENDMDL
MODEL 4
REMARK VINA RESULT:      -5.9      2.806      3.270
REMARK  Name = *****
REMARK                            x       y       z     vdW  Elec       q    Type
REMARK                         _______ _______ _______ _____ _____    ______ ____
ROOT
ATOM      1  C   LIG    1       28.276 -20.168   7.356  0.00  0.00    +0.045 C 
ATOM      2  C   LIG    1       26.956 -20.278   6.642  0.00  0.00    -0.028 A 
ATOM      3  C   LIG    1       25.781 -20.687   7.307  0.00  0.00    +0.047 A 
ATOM      4 CL   LIG    1       25.844 -21.078   8.998  0.00  0.00    -0.083 Cl
ATOM      5  C   LIG    1       24.558 -20.782   6.615  0.00  0.00    -0.028 A 
ATOM      6  C   LIG    1       23.288 -21.216   7.294  0.00  0.00    +0.045 C 
ATOM      7  C   LIG    1       24.524 -20.461   5.250  0.00  0.00    +0.050 A 
ATOM      8  C   LIG    1       25.682 -20.059   4.596  0.00  0.00    +0.117 A 
ATOM      9  C   LIG    1       26.891 -19.964   5.275  0.00  0.00    +0.050 A 
ENDROOT
BRANCH   8  10
ATOM     10  O   LIG    1       25.587 -19.760   3.269  0.00  0.00    -0.507 OA
ATOM     11  H   LIG    1       25.545 -18.795   3.167  0.00  0.00    +0.292 HD
ENDBRANCH   8  10
TORSDOF 1
ENDMDL
MODEL 5
REMARK VINA RESULT:      -5.7      2.371      3.603
REMARK  Name = *****
REMARK                            x       y       z     vdW  Elec       q    Type
REMARK                         _______ _______ _______ _____ _____    ______ ____
ROOT
ATOM      1  C   LIG    1       23.453 -20.455   4.403  0.00  0.00    +0.045 C 
ATOM      2  C   LIG    1       24.685 -20.437   5.267  0.00  0.00    -0.028 A 
ATOM      3  C   LIG    1       24.661 -20.873   6.608  0.00  0.00    +0.047 A 
ATOM      4 CL   LIG    1       23.175 -21.451   7.296  0.00  0.00    -0.083 Cl
ATOM      5  C   LIG    1       25.829 -20.846   7.395  0.00  0.00    -0.028 A 
ATOM      6  C   LIG    1       25.836 -21.303   8.828  0.00  0.00    +0.045 C 
ATOM      7  C   LIG    1       27.020 -20.377   6.824  0.00  0.00    +0.050 A 
ATOM      8  C   LIG    1       27.043 -19.948   5.503  0.00  0.00    +0.117 A 
ATOM      9  C   LIG    1       25.893 -19.973   4.722  0.00  0.00    +0.050 A 
ENDROOT
BRANCH   8  10
ATOM     10  O   LIG    1       28.231 -19.504   5.002  0.00  0.00    -0.507 OA
ATOM     11  H   LIG    1       28.200 -18.536   4.931  0.00  0.00    +0.292 HD
ENDBRANCH   8  10
TORSDOF 1
ENDMDL
MODEL 6
REMARK VINA RESULT:      -5.7      2.390      3.134
REMARK  Name = *****
REMARK                            x       y       z     vdW  Elec       q    Type
REMARK                         _______ _______ _______ _____ _____    ______ ____
ROOT
ATOM      1  C   LIG    1       25.887 -21.614   8.764  0.00  0.00    +0.045 C 
ATOM      2  C   LIG    1       25.834 -21.045   7.372  0.00  0.00    -0.028 A 
ATOM      3  C   LIG    1       24.642 -21.031   6.618  0.00  0.00    +0.047 A 
ATOM      4 CL   LIG    1       23.185 -21.683   7.303  0.00  0.00    -0.083 Cl
ATOM      5  C   LIG    1       24.619 -20.493   5.317  0.00  0.00    -0.028 A 
ATOM      6  C   LIG    1       23.365 -20.463   4.486  0.00  0.00    +0.045 C 
ATOM      7  C   LIG    1       25.804 -19.969   4.779  0.00  0.00    +0.050 A 
ATOM      8  C   LIG    1       26.977 -19.983   5.522  0.00  0.00    +0.117 A 
ATOM      9  C   LIG    1       27.004 -20.514   6.807  0.00  0.00    +0.050 A 
ENDROOT
BRANCH   8  10
ATOM     10  O   LIG    1       28.097 -19.460   4.947  0.00  0.00    -0.507 OA
ATOM     11  H   LIG    1       28.692 -20.185   4.700  0.00  0.00    +0.292 HD
ENDBRANCH   8  10
TORSDOF 1
ENDMDL
MODEL 7
REMARK VINA RESULT:      -5.7      2.591      3.084
REMARK  Name = *****
REMARK                            x       y       z     vdW  Elec       q    Type
REMARK                         _______ _______ _______ _____ _____    ______ ____
ROOT
ATOM      1  C   LIG    1       25.851 -24.834   6.891  0.00  0.00    +0.045 C 
ATOM      2  C   LIG    1       25.742 -23.355   7.145  0.00  0.00    -0.028 A 
ATOM      3  C   LIG    1       24.515 -22.668   7.035  0.00  0.00    +0.047 A 
ATOM      4 CL   LIG    1       23.080 -23.542   6.596  0.00  0.00    -0.083 Cl
ATOM      5  C   LIG    1       24.441 -21.283   7.278  0.00  0.00    -0.028 A 
ATOM      6  C   LIG    1       23.148 -20.521   7.168  0.00  0.00    +0.045 C 
ATOM      7  C   LIG    1       25.609 -20.593   7.633  0.00  0.00    +0.050 A 
ATOM      8  C   LIG    1       26.817 -21.269   7.741  0.00  0.00    +0.117 A 
ATOM      9  C   LIG    1       26.895 -22.637   7.502  0.00  0.00    +0.050 A 
ENDROOT
BRANCH   8  10
ATOM     10  O   LIG    1       27.918 -20.546   8.091  0.00  0.00    -0.507 OA
ATOM     11  H   LIG    1       28.712 -21.013   7.783  0.00  0.00    +0.292 HD
ENDBRANCH   8  10
TORSDOF 1
ENDMDL
MODEL 8
REMARK VINA RESULT:      -5.6      2.593      3.524
REMARK  Name = *****
REMARK                            x       y       z     vdW  Elec       q    Type
REMARK                         _______ _______ _______ _____ _____    ______ ____
ROOT
ATOM      1  C   LIG    1       23.147 -20.494   7.182  0.00  0.00    +0.045 C 
ATOM      2  C   LIG    1       24.431 -21.270   7.292  0.00  0.00    -0.028 A 
ATOM      3  C   LIG    1       24.486 -22.658   7.052  0.00  0.00    +0.047 A 
ATOM      4 CL   LIG    1       23.038 -23.511   6.613  0.00  0.00    -0.083 Cl
ATOM      5  C   LIG    1       25.701 -23.361   7.162  0.00  0.00    -0.028 A 
ATOM      6  C   LIG    1       25.793 -24.842   6.912  0.00  0.00    +0.045 C 
ATOM      7  C   LIG    1       26.862 -22.658   7.515  0.00  0.00    +0.050 A 
ATOM      8  C   LIG    1       26.807 -21.290   7.752  0.00  0.00    +0.117 A 
ATOM      9  C   LIG    1       25.609 -20.592   7.645  0.00  0.00    +0.050 A 
ENDROOT
BRANCH   8  10
ATOM     10  O   LIG    1       27.968 -20.660   8.092  0.00  0.00    -0.507 OA
ATOM     11  H   LIG    1       27.884 -20.312   8.994  0.00  0.00    +0.292 HD
ENDBRANCH   8  10
TORSDOF 1
ENDMDL
MODEL 9
REMARK VINA RESULT:      -5.5      2.364      3.492
REMARK  Name = *****
REMARK                            x       y       z     vdW  Elec       q    Type
REMARK                         _______ _______ _______ _____ _____    ______ ____
ROOT
ATOM      1  C   LIG    1       23.581 -19.643   4.408  0.00  0.00    +0.045 C 
ATOM      2  C   LIG    1       23.849 -20.822   5.303  0.00  0.00    -0.028 A 
ATOM      3  C   LIG    1       25.130 -21.079   5.834  0.00  0.00    +0.047 A 
ATOM      4 CL   LIG    1       26.446 -20.011   5.453  0.00  0.00    -0.083 Cl
ATOM      5  C   LIG    1       25.354 -22.190   6.670  0.00  0.00    -0.028 A 
ATOM      6  C   LIG    1       26.708 -22.492   7.251  0.00  0.00    +0.045 C 
ATOM      7  C   LIG    1       24.280 -23.041   6.968  0.00  0.00    +0.050 A 
ATOM      8  C   LIG    1       23.019 -22.788   6.445  0.00  0.00    +0.117 A 
ATOM      9  C   LIG    1       22.793 -21.692   5.619  0.00  0.00    +0.050 A 
ENDROOT
BRANCH   8  10
ATOM     10  O   LIG    1       22.014 -23.650   6.771  0.00  0.00    -0.507 OA
ATOM     11  H   LIG    1       22.286 -24.172   7.543  0.00  0.00    +0.292 HD
ENDBRANCH   8  10
TORSDOF 1
ENDMDL
