MODEL 1
REMARK VINA RESULT:      -9.0      0.000      0.000
REMARK  Name = *****
REMARK                            x       y       z     vdW  Elec       q    Type
REMARK                         _______ _______ _______ _____ _____    ______ ____
ROOT
ATOM      1  N   LIG    1       29.910 -19.998   7.287  0.00  0.00    -0.299 NA
ATOM      2  C   LIG    1       29.556 -21.290   7.931  0.00  0.00    +0.103 C 
ATOM      3  C   LIG    1       28.037 -21.548   8.136  0.00  0.00    +0.120 C 
ATOM      4  N   LIG    1       27.295 -21.385   6.863  0.00  0.00    -0.327 N 
ATOM      5  C   LIG    1       27.616 -20.123   6.156  0.00  0.00    +0.120 C 
ATOM      6  C   LIG    1       29.145 -19.922   6.019  0.00  0.00    +0.103 C 
ENDROOT
BRANCH   4   7
ATOM      7  C   LIG    1       25.935 -21.745   6.949  0.00  0.00    +0.031 A 
ATOM      8  C   LIG    1       25.547 -23.068   6.675  0.00  0.00    +0.043 A 
ATOM      9  C   LIG    1       24.200 -23.449   6.708  0.00  0.00    +0.043 A 
ATOM     10 CL   LIG    1       23.753 -25.072   6.338  0.00  0.00    -0.084 Cl
ATOM     11  C   LIG    1       23.208 -22.529   7.029  0.00  0.00    +0.020 A 
ATOM     12  C   LIG    1       23.570 -21.219   7.319  0.00  0.00    +0.003 A 
ATOM     13  C   LIG    1       24.916 -20.834   7.272  0.00  0.00    +0.023 A 
ENDBRANCH   4   7
BRANCH   1  14
ATOM     14  C   LIG    1       29.644 -18.850   8.183  0.00  0.00    +0.090 C 
BRANCH  14  15
ATOM     15  C   LIG    1       30.857 -17.921   8.376  0.00  0.00    +0.072 C 
BRANCH  15  21
ATOM     16  C   LIG    1       32.214 -15.879  12.858  0.00  0.00    +0.065 C 
ATOM     17  C   LIG    1       31.718 -16.690  11.725  0.00  0.00    +0.033 A 
ATOM     18  N   LIG    1       31.094 -17.898  11.913  0.00  0.00    -0.282 N 
ATOM     19  H   LIG    1       30.890 -18.372  12.780  0.00  0.00    +0.189 HD
ATOM     20  N   LIG    1       30.727 -18.486  10.762  0.00  0.00    -0.179 NA
ATOM     21  C   LIG    1       31.115 -17.626   9.813  0.00  0.00    +0.064 A 
ATOM     22  C   LIG    1       31.743 -16.488  10.370  0.00  0.00    +0.047 A 
ENDBRANCH  15  21
ENDBRANCH  14  15
ENDBRANCH   1  14
TORSDOF 4
ENDMDL
MODEL 2
REMARK VINA RESULT:      -8.9      1.769      1.983
REMARK  Name = *****
REMARK                            x       y       z     vdW  Elec       q    Type
REMARK                         _______ _______ _______ _____ _____    ______ ____
ROOT
ATOM      1  N   LIG    1       29.827 -20.357   7.481  0.00  0.00    -0.299 NA
ATOM      2  C   LIG    1       28.929 -21.401   8.041  0.00  0.00    +0.103 C 
ATOM      3  C   LIG    1       27.406 -21.122   7.911  0.00  0.00    +0.120 C 
ATOM      4  N   LIG    1       27.039 -20.826   6.505  0.00  0.00    -0.327 N 
ATOM      5  C   LIG    1       27.909 -19.805   5.876  0.00  0.00    +0.120 C 
ATOM      6  C   LIG    1       29.409 -20.135   6.076  0.00  0.00    +0.103 C 
ENDROOT
BRANCH   4   7
ATOM      7  C   LIG    1       25.651 -20.705   6.294  0.00  0.00    +0.031 A 
ATOM      8  C   LIG    1       25.176 -20.145   5.096  0.00  0.00    +0.043 A 
ATOM      9  C   LIG    1       23.804 -19.969   4.873  0.00  0.00    +0.043 A 
ATOM     10 CL   LIG    1       23.254 -19.252   3.405  0.00  0.00    -0.084 Cl
ATOM     11  C   LIG    1       22.872 -20.359   5.829  0.00  0.00    +0.020 A 
ATOM     12  C   LIG    1       23.319 -20.929   7.014  0.00  0.00    +0.003 A 
ATOM     13  C   LIG    1       24.691 -21.093   7.243  0.00  0.00    +0.023 A 
ENDBRANCH   4   7
BRANCH   1  14
ATOM     14  C   LIG    1       29.793 -19.118   8.289  0.00  0.00    +0.090 C 
BRANCH  14  15
ATOM     15  C   LIG    1       31.143 -18.377   8.343  0.00  0.00    +0.072 C 
BRANCH  15  21
ATOM     16  C   LIG    1       33.020 -15.970  12.440  0.00  0.00    +0.065 C 
ATOM     17  C   LIG    1       32.298 -16.797  11.448  0.00  0.00    +0.033 A 
ATOM     18  N   LIG    1       31.285 -17.649  11.809  0.00  0.00    -0.282 N 
ATOM     19  H   LIG    1       30.906 -17.820  12.728  0.00  0.00    +0.189 HD
ATOM     20  N   LIG    1       30.763 -18.319  10.769  0.00  0.00    -0.179 NA
ATOM     21  C   LIG    1       31.452 -17.874   9.710  0.00  0.00    +0.064 A 
ATOM     22  C   LIG    1       32.426 -16.922  10.090  0.00  0.00    +0.047 A 
ENDBRANCH  15  21
ENDBRANCH  14  15
ENDBRANCH   1  14
TORSDOF 4
ENDMDL
MODEL 3
REMARK VINA RESULT:      -8.6      1.757      2.104
REMARK  Name = *****
REMARK                            x       y       z     vdW  Elec       q    Type
REMARK                         _______ _______ _______ _____ _____    ______ ____
ROOT
ATOM      1  N   LIG    1       30.665 -19.879   7.887  0.00  0.00    -0.299 NA
ATOM      2  C   LIG    1       29.845 -21.108   8.056  0.00  0.00    +0.103 C 
ATOM      3  C   LIG    1       28.331 -20.957   7.740  0.00  0.00    +0.120 C 
ATOM      4  N   LIG    1       28.126 -20.382   6.388  0.00  0.00    -0.327 N 
ATOM      5  C   LIG    1       28.931 -19.163   6.143  0.00  0.00    +0.120 C 
ATOM      6  C   LIG    1       30.419 -19.381   6.512  0.00  0.00    +0.103 C 
ENDROOT
BRANCH   4   7
ATOM      7  C   LIG    1       26.777 -20.353   5.983  0.00  0.00    +0.031 A 
ATOM      8  C   LIG    1       25.781 -20.841   6.847  0.00  0.00    +0.043 A 
ATOM      9  C   LIG    1       24.435 -20.869   6.459  0.00  0.00    +0.043 A 
ATOM     10 CL   LIG    1       23.241 -21.501   7.529  0.00  0.00    -0.084 Cl
ATOM     11  C   LIG    1       24.046 -20.398   5.209  0.00  0.00    +0.020 A 
ATOM     12  C   LIG    1       25.011 -19.897   4.345  0.00  0.00    +0.003 A 
ATOM     13  C   LIG    1       26.358 -19.882   4.728  0.00  0.00    +0.023 A 
ENDBRANCH   4   7
BRANCH   1  14
ATOM     14  C   LIG    1       30.356 -18.869   8.923  0.00  0.00    +0.090 C 
BRANCH  14  15
ATOM     15  C   LIG    1       30.913 -17.468   8.609  0.00  0.00    +0.072 C 
BRANCH  15  21
ATOM     16  C   LIG    1       32.155 -15.954  13.328  0.00  0.00    +0.065 C 
ATOM     17  C   LIG    1       32.005 -16.204  11.877  0.00  0.00    +0.033 A 
ATOM     18  N   LIG    1       32.782 -15.565  10.944  0.00  0.00    -0.282 N 
ATOM     19  H   LIG    1       33.517 -14.891  11.094  0.00  0.00    +0.189 HD
ATOM     20  N   LIG    1       32.487 -15.918   9.682  0.00  0.00    -0.179 NA
ATOM     21  C   LIG    1       31.504 -16.817   9.811  0.00  0.00    +0.064 A 
ATOM     22  C   LIG    1       31.167 -17.025  11.169  0.00  0.00    +0.047 A 
ENDBRANCH  15  21
ENDBRANCH  14  15
ENDBRANCH   1  14
TORSDOF 4
ENDMDL
MODEL 4
REMARK VINA RESULT:      -8.5      3.784      8.630
REMARK  Name = *****
REMARK                            x       y       z     vdW  Elec       q    Type
REMARK                         _______ _______ _______ _____ _____    ______ ____
ROOT
ATOM      1  N   LIG    1       24.353 -22.030   6.282  0.00  0.00    -0.299 NA
ATOM      2  C   LIG    1       24.921 -21.863   7.645  0.00  0.00    +0.103 C 
ATOM      3  C   LIG    1       26.463 -21.682   7.715  0.00  0.00    +0.120 C 
ATOM      4  N   LIG    1       26.908 -20.578   6.831  0.00  0.00    -0.327 N 
ATOM      5  C   LIG    1       26.360 -20.671   5.458  0.00  0.00    +0.120 C 
ATOM      6  C   LIG    1       24.826 -20.883   5.472  0.00  0.00    +0.103 C 
ENDROOT
BRANCH   4   7
ATOM      7  C   LIG    1       28.277 -20.268   6.957  0.00  0.00    +0.031 A 
ATOM      8  C   LIG    1       29.077 -21.001   7.850  0.00  0.00    +0.043 A 
ATOM      9  C   LIG    1       30.430 -20.691   8.033  0.00  0.00    +0.043 A 
ATOM     10 CL   LIG    1       31.378 -21.590   9.157  0.00  0.00    -0.084 Cl
ATOM     11  C   LIG    1       31.024 -19.653   7.322  0.00  0.00    +0.020 A 
ATOM     12  C   LIG    1       30.256 -18.924   6.423  0.00  0.00    +0.003 A 
ATOM     13  C   LIG    1       28.900 -19.226   6.250  0.00  0.00    +0.023 A 
ENDBRANCH   4   7
BRANCH   1  14
ATOM     14  C   LIG    1       24.722 -23.337   5.693  0.00  0.00    +0.090 C 
BRANCH  14  15
ATOM     15  C   LIG    1       24.214 -24.546   6.500  0.00  0.00    +0.072 C 
BRANCH  15  21
ATOM     16  C   LIG    1       25.387 -29.365   5.270  0.00  0.00    +0.065 C 
ATOM     17  C   LIG    1       25.329 -27.915   5.561  0.00  0.00    +0.033 A 
ATOM     18  N   LIG    1       26.422 -27.099   5.415  0.00  0.00    -0.282 N 
ATOM     19  H   LIG    1       27.351 -27.342   5.105  0.00  0.00    +0.189 HD
ATOM     20  N   LIG    1       26.172 -25.819   5.739  0.00  0.00    -0.179 NA
ATOM     21  C   LIG    1       24.880 -25.814   6.089  0.00  0.00    +0.064 A 
ATOM     22  C   LIG    1       24.312 -27.106   5.996  0.00  0.00    +0.047 A 
ENDBRANCH  15  21
ENDBRANCH  14  15
ENDBRANCH   1  14
TORSDOF 4
ENDMDL
MODEL 5
REMARK VINA RESULT:      -8.0      3.667      8.807
REMARK  Name = *****
REMARK                            x       y       z     vdW  Elec       q    Type
REMARK                         _______ _______ _______ _____ _____    ______ ____
ROOT
ATOM      1  N   LIG    1       24.925 -22.154   7.056  0.00  0.00    -0.299 NA
ATOM      2  C   LIG    1       25.552 -21.911   8.382  0.00  0.00    +0.103 C 
ATOM      3  C   LIG    1       27.048 -21.495   8.354  0.00  0.00    +0.120 C 
ATOM      4  N   LIG    1       27.259 -20.329   7.462  0.00  0.00    -0.327 N 
ATOM      5  C   LIG    1       26.640 -20.495   6.127  0.00  0.00    +0.120 C 
ATOM      6  C   LIG    1       25.161 -20.941   6.237  0.00  0.00    +0.103 C 
ENDROOT
BRANCH   4   7
ATOM      7  C   LIG    1       28.569 -19.813   7.504  0.00  0.00    +0.031 A 
ATOM      8  C   LIG    1       29.040 -19.205   8.681  0.00  0.00    +0.043 A 
ATOM      9  C   LIG    1       30.320 -18.641   8.743  0.00  0.00    +0.043 A 
ATOM     10 CL   LIG    1       30.858 -17.877  10.192  0.00  0.00    -0.084 Cl
ATOM     11  C   LIG    1       31.169 -18.681   7.642  0.00  0.00    +0.020 A 
ATOM     12  C   LIG    1       30.730 -19.290   6.473  0.00  0.00    +0.003 A 
ATOM     13  C   LIG    1       29.445 -19.841   6.407  0.00  0.00    +0.023 A 
ENDBRANCH   4   7
BRANCH   1  14
ATOM     14  C   LIG    1       25.449 -23.383   6.420  0.00  0.00    +0.090 C 
BRANCH  14  15
ATOM     15  C   LIG    1       24.378 -24.464   6.183  0.00  0.00    +0.072 C 
BRANCH  15  21
ATOM     16  C   LIG    1       25.293 -29.432   5.417  0.00  0.00    +0.065 C 
ATOM     17  C   LIG    1       25.315 -27.962   5.585  0.00  0.00    +0.033 A 
ATOM     18  N   LIG    1       26.466 -27.229   5.434  0.00  0.00    -0.282 N 
ATOM     19  H   LIG    1       27.391 -27.554   5.199  0.00  0.00    +0.189 HD
ATOM     20  N   LIG    1       26.284 -25.914   5.639  0.00  0.00    -0.179 NA
ATOM     21  C   LIG    1       24.979 -25.800   5.914  0.00  0.00    +0.064 A 
ATOM     22  C   LIG    1       24.333 -27.058   5.895  0.00  0.00    +0.047 A 
ENDBRANCH  15  21
ENDBRANCH  14  15
ENDBRANCH   1  14
TORSDOF 4
ENDMDL
MODEL 6
REMARK VINA RESULT:      -7.9      6.702     10.569
REMARK  Name = *****
REMARK                            x       y       z     vdW  Elec       q    Type
REMARK                         _______ _______ _______ _____ _____    ______ ____
ROOT
ATOM      1  N   LIG    1       25.739 -27.162   5.718  0.00  0.00    -0.299 NA
ATOM      2  C   LIG    1       25.630 -26.315   4.501  0.00  0.00    +0.103 C 
ATOM      3  C   LIG    1       24.774 -25.027   4.650  0.00  0.00    +0.120 C 
ATOM      4  N   LIG    1       25.232 -24.216   5.804  0.00  0.00    -0.327 N 
ATOM      5  C   LIG    1       25.383 -25.003   7.049  0.00  0.00    +0.120 C 
ATOM      6  C   LIG    1       26.218 -26.285   6.813  0.00  0.00    +0.103 C 
ENDROOT
BRANCH   4   7
ATOM      7  C   LIG    1       24.591 -22.965   5.908  0.00  0.00    +0.031 A 
ATOM      8  C   LIG    1       24.668 -22.053   4.840  0.00  0.00    +0.043 A 
ATOM      9  C   LIG    1       24.082 -20.784   4.928  0.00  0.00    +0.043 A 
ATOM     10 CL   LIG    1       24.219 -19.678   3.614  0.00  0.00    -0.084 Cl
ATOM     11  C   LIG    1       23.391 -20.397   6.071  0.00  0.00    +0.020 A 
ATOM     12  C   LIG    1       23.289 -21.288   7.133  0.00  0.00    +0.003 A 
ATOM     13  C   LIG    1       23.888 -22.552   7.051  0.00  0.00    +0.023 A 
ENDBRANCH   4   7
BRANCH   1  14
ATOM     14  C   LIG    1       24.455 -27.825   6.038  0.00  0.00    +0.090 C 
BRANCH  14  15
ATOM     15  C   LIG    1       24.604 -29.047   6.964  0.00  0.00    +0.072 C 
BRANCH  15  21
ATOM     16  C   LIG    1       25.831 -33.092   4.093  0.00  0.00    +0.065 C 
ATOM     17  C   LIG    1       25.218 -32.058   4.956  0.00  0.00    +0.033 A 
ATOM     18  N   LIG    1       23.942 -32.181   5.445  0.00  0.00    -0.282 N 
ATOM     19  H   LIG    1       23.286 -32.936   5.307  0.00  0.00    +0.189 HD
ATOM     20  N   LIG    1       23.562 -31.136   6.198  0.00  0.00    -0.179 NA
ATOM     21  C   LIG    1       24.629 -30.327   6.202  0.00  0.00    +0.064 A 
ATOM     22  C   LIG    1       25.689 -30.864   5.435  0.00  0.00    +0.047 A 
ENDBRANCH  15  21
ENDBRANCH  14  15
ENDBRANCH   1  14
TORSDOF 4
ENDMDL
MODEL 7
REMARK VINA RESULT:      -7.8      2.225      3.868
REMARK  Name = *****
REMARK                            x       y       z     vdW  Elec       q    Type
REMARK                         _______ _______ _______ _____ _____    ______ ____
ROOT
ATOM      1  N   LIG    1       26.297 -20.329   7.306  0.00  0.00    -0.299 NA
ATOM      2  C   LIG    1       25.296 -20.684   6.266  0.00  0.00    +0.103 C 
ATOM      3  C   LIG    1       25.407 -22.121   5.686  0.00  0.00    +0.120 C 
ATOM      4  N   LIG    1       25.407 -23.133   6.770  0.00  0.00    -0.327 N 
ATOM      5  C   LIG    1       26.370 -22.829   7.854  0.00  0.00    +0.120 C 
ATOM      6  C   LIG    1       26.219 -21.373   8.356  0.00  0.00    +0.103 C 
ENDROOT
BRANCH   4   7
ATOM      7  C   LIG    1       25.360 -24.462   6.305  0.00  0.00    +0.031 A 
ATOM      8  C   LIG    1       25.635 -25.519   7.191  0.00  0.00    +0.043 A 
ATOM      9  C   LIG    1       25.642 -26.849   6.752  0.00  0.00    +0.043 A 
ATOM     10 CL   LIG    1       26.011 -28.120   7.856  0.00  0.00    -0.084 Cl
ATOM     11  C   LIG    1       25.362 -27.162   5.426  0.00  0.00    +0.020 A 
ATOM     12  C   LIG    1       25.073 -26.134   4.536  0.00  0.00    +0.003 A 
ATOM     13  C   LIG    1       25.079 -24.803   4.972  0.00  0.00    +0.023 A 
ENDBRANCH   4   7
BRANCH   1  14
ATOM     14  C   LIG    1       27.655 -20.195   6.734  0.00  0.00    +0.090 C 
BRANCH  14  15
ATOM     15  C   LIG    1       28.706 -21.093   7.415  0.00  0.00    +0.072 C 
BRANCH  15  21
ATOM     16  C   LIG    1       31.928 -17.439   8.955  0.00  0.00    +0.065 C 
ATOM     17  C   LIG    1       31.172 -18.676   8.660  0.00  0.00    +0.033 A 
ATOM     18  N   LIG    1       31.558 -19.899   9.150  0.00  0.00    -0.282 N 
ATOM     19  H   LIG    1       32.346 -20.120   9.740  0.00  0.00    +0.189 HD
ATOM     20  N   LIG    1       30.750 -20.900   8.763  0.00  0.00    -0.179 NA
ATOM     21  C   LIG    1       29.814 -20.300   8.017  0.00  0.00    +0.064 A 
ATOM     22  C   LIG    1       30.040 -18.908   7.924  0.00  0.00    +0.047 A 
ENDBRANCH  15  21
ENDBRANCH  14  15
ENDBRANCH   1  14
TORSDOF 4
ENDMDL
MODEL 8
REMARK VINA RESULT:      -7.6      5.882     10.607
REMARK  Name = *****
REMARK                            x       y       z     vdW  Elec       q    Type
REMARK                         _______ _______ _______ _____ _____    ______ ____
ROOT
ATOM      1  N   LIG    1       25.526 -27.691   5.821  0.00  0.00    -0.299 NA
ATOM      2  C   LIG    1       24.261 -27.031   5.403  0.00  0.00    +0.103 C 
ATOM      3  C   LIG    1       23.926 -25.697   6.125  0.00  0.00    +0.120 C 
ATOM      4  N   LIG    1       25.060 -24.745   6.034  0.00  0.00    -0.327 N 
ATOM      5  C   LIG    1       26.359 -25.344   6.417  0.00  0.00    +0.120 C 
ATOM      6  C   LIG    1       26.606 -26.684   5.682  0.00  0.00    +0.103 C 
ENDROOT
BRANCH   4   7
ATOM      7  C   LIG    1       24.767 -23.464   6.544  0.00  0.00    +0.031 A 
ATOM      8  C   LIG    1       25.817 -22.621   6.949  0.00  0.00    +0.043 A 
ATOM      9  C   LIG    1       25.560 -21.360   7.502  0.00  0.00    +0.043 A 
ATOM     10 CL   LIG    1       26.867 -20.361   8.017  0.00  0.00    -0.084 Cl
ATOM     11  C   LIG    1       24.256 -20.901   7.652  0.00  0.00    +0.020 A 
ATOM     12  C   LIG    1       23.203 -21.711   7.243  0.00  0.00    +0.003 A 
ATOM     13  C   LIG    1       23.460 -22.978   6.703  0.00  0.00    +0.023 A 
ENDBRANCH   4   7
BRANCH   1  14
ATOM     14  C   LIG    1       25.429 -28.239   7.192  0.00  0.00    +0.090 C 
BRANCH  14  15
ATOM     15  C   LIG    1       24.316 -29.290   7.362  0.00  0.00    +0.072 C 
BRANCH  15  21
ATOM     16  C   LIG    1       26.159 -33.041   4.422  0.00  0.00    +0.065 C 
ATOM     17  C   LIG    1       25.363 -32.070   5.205  0.00  0.00    +0.033 A 
ATOM     18  N   LIG    1       23.994 -32.132   5.267  0.00  0.00    -0.282 N 
ATOM     19  H   LIG    1       23.375 -32.798   4.830  0.00  0.00    +0.189 HD
ATOM     20  N   LIG    1       23.455 -31.158   6.019  0.00  0.00    -0.179 NA
ATOM     21  C   LIG    1       24.509 -30.461   6.462  0.00  0.00    +0.064 A 
ATOM     22  C   LIG    1       25.725 -30.995   5.974  0.00  0.00    +0.047 A 
ENDBRANCH  15  21
ENDBRANCH  14  15
ENDBRANCH   1  14
TORSDOF 4
ENDMDL
MODEL 9
REMARK VINA RESULT:      -7.6      6.078      9.389
REMARK  Name = *****
REMARK                            x       y       z     vdW  Elec       q    Type
REMARK                         _______ _______ _______ _____ _____    ______ ____
ROOT
ATOM      1  N   LIG    1       24.987 -24.688   7.052  0.00  0.00    -0.299 NA
ATOM      2  C   LIG    1       25.831 -23.517   7.409  0.00  0.00    +0.103 C 
ATOM      3  C   LIG    1       25.826 -22.346   6.389  0.00  0.00    +0.120 C 
ATOM      4  N   LIG    1       24.441 -21.911   6.087  0.00  0.00    -0.327 N 
ATOM      5  C   LIG    1       23.538 -23.033   5.741  0.00  0.00    +0.120 C 
ATOM      6  C   LIG    1       23.623 -24.173   6.786  0.00  0.00    +0.103 C 
ENDROOT
BRANCH   4   7
ATOM      7  C   LIG    1       24.372 -20.758   5.279  0.00  0.00    +0.031 A 
ATOM      8  C   LIG    1       23.141 -20.101   5.109  0.00  0.00    +0.043 A 
ATOM      9  C   LIG    1       23.027 -18.979   4.277  0.00  0.00    +0.043 A 
ATOM     10 CL   LIG    1       21.498 -18.213   4.066  0.00  0.00    -0.084 Cl
ATOM     11  C   LIG    1       24.137 -18.476   3.607  0.00  0.00    +0.020 A 
ATOM     12  C   LIG    1       25.367 -19.100   3.772  0.00  0.00    +0.003 A 
ATOM     13  C   LIG    1       25.478 -20.230   4.593  0.00  0.00    +0.023 A 
ENDBRANCH   4   7
BRANCH   1  14
ATOM     14  C   LIG    1       25.549 -25.436   5.905  0.00  0.00    +0.090 C 
BRANCH  14  15
ATOM     15  C   LIG    1       26.221 -26.764   6.301  0.00  0.00    +0.072 C 
BRANCH  15  21
ATOM     16  C   LIG    1       23.825 -31.275   6.453  0.00  0.00    +0.065 C 
ATOM     17  C   LIG    1       24.317 -29.901   6.207  0.00  0.00    +0.033 A 
ATOM     18  N   LIG    1       23.709 -29.061   5.308  0.00  0.00    -0.282 N 
ATOM     19  H   LIG    1       22.899 -29.236   4.733  0.00  0.00    +0.189 HD
ATOM     20  N   LIG    1       24.309 -27.862   5.218  0.00  0.00    -0.179 NA
ATOM     21  C   LIG    1       25.319 -27.932   6.094  0.00  0.00    +0.064 A 
ATOM     22  C   LIG    1       25.364 -29.192   6.734  0.00  0.00    +0.047 A 
ENDBRANCH  15  21
ENDBRANCH  14  15
ENDBRANCH   1  14
TORSDOF 4
ENDMDL
