MODEL 1
REMARK VINA RESULT:      -6.6      0.000      0.000
REMARK  Name = *****
REMARK                            x       y       z     vdW  Elec       q    Type
REMARK                         _______ _______ _______ _____ _____    ______ ____
ROOT
ATOM      1  N   LIG    1       26.413 -22.800   6.878  0.00  0.00    -0.297 NA
ATOM      2  C   LIG    1       25.405 -21.823   7.406  0.00  0.00    +0.064 C 
ATOM      3  C   LIG    1       25.974 -20.393   7.480  0.00  0.00    +0.013 C 
ATOM      4  C   LIG    1       26.230 -19.802   6.076  0.00  0.00    +0.044 C 
ATOM      5  C   LIG    1       25.162 -20.074   5.040  0.00  0.00    -0.002 A 
ATOM      6  C   LIG    1       24.165 -21.037   5.293  0.00  0.00    -0.039 A 
ATOM      7  C   LIG    1       23.227 -21.352   4.296  0.00  0.00    +0.004 A 
ATOM      8  C   LIG    1       23.298 -20.753   3.039  0.00  0.00    +0.004 A 
ATOM      9  C   LIG    1       24.288 -19.812   2.777  0.00  0.00    +0.045 A 
ATOM     10  C   LIG    1       25.207 -19.476   3.769  0.00  0.00    +0.120 A 
ATOM     11  C   LIG    1       27.186 -20.388   8.417  0.00  0.00    +0.027 C 
ATOM     12  C   LIG    1       28.312 -21.297   7.940  0.00  0.00    +0.092 C 
ATOM     13  C   LIG    1       24.054 -21.685   6.651  0.00  0.00    +0.054 C 
ATOM     14  C   LIG    1       27.713 -22.697   7.610  0.00  0.00    +0.105 C 
ENDROOT
BRANCH  10  15
ATOM     15  O   LIG    1       26.149 -18.552   3.407  0.00  0.00    -0.506 OA
ATOM     16  H   LIG    1       25.906 -18.158   2.554  0.00  0.00    +0.292 HD
ENDBRANCH  10  15
BRANCH  12  17
ATOM     17  N   LIG    1       29.073 -20.735   6.806  0.00  0.00    -0.175 NA
ATOM     18  H   LIG    1       29.380 -21.392   6.077  0.00  0.00    +0.149 HD
BRANCH  17  19
ATOM     19  S   LIG    1       30.053 -19.392   6.957  0.00  0.00    +0.097 S 
ATOM     20  O   LIG    1       29.344 -18.223   6.515  0.00  0.00    -0.141 OA
ATOM     21  O   LIG    1       31.309 -19.760   6.383  0.00  0.00    -0.141 OA
BRANCH  19  22
ATOM     22  N   LIG    1       30.268 -19.331   8.660  0.00  0.00    -0.167 NA
BRANCH  22  23
ATOM     23  C   LIG    1       30.010 -17.986   9.255  0.00  0.00    +0.107 C 
ATOM     24  C   LIG    1       30.622 -17.811  10.635  0.00  0.00    +0.022 C 
ENDBRANCH  22  23
BRANCH  22  25
ATOM     25  C   LIG    1       31.507 -20.028   9.137  0.00  0.00    +0.107 C 
ATOM     26  C   LIG    1       31.355 -21.535   9.299  0.00  0.00    +0.022 C 
ENDBRANCH  22  25
ENDBRANCH  19  22
ENDBRANCH  17  19
ENDBRANCH  12  17
BRANCH   1  27
ATOM     27  C   LIG    1       25.903 -24.198   7.006  0.00  0.00    +0.084 C 
BRANCH  27  29
ATOM     28  C   LIG    1       24.112 -25.637   5.931  0.00  0.00    +0.005 C 
ATOM     29  C   LIG    1       25.385 -24.828   5.697  0.00  0.00    +0.012 C 
ENDBRANCH  27  29
ENDBRANCH   1  27
TORSDOF 8
ENDMDL
MODEL 2
REMARK VINA RESULT:      -6.3      1.639      2.216
REMARK  Name = *****
REMARK                            x       y       z     vdW  Elec       q    Type
REMARK                         _______ _______ _______ _____ _____    ______ ____
ROOT
ATOM      1  N   LIG    1       25.121 -23.297   6.718  0.00  0.00    -0.297 NA
ATOM      2  C   LIG    1       24.152 -22.229   7.132  0.00  0.00    +0.064 C 
ATOM      3  C   LIG    1       24.870 -20.929   7.543  0.00  0.00    +0.013 C 
ATOM      4  C   LIG    1       25.551 -20.241   6.339  0.00  0.00    +0.044 C 
ATOM      5  C   LIG    1       24.753 -20.219   5.054  0.00  0.00    -0.002 A 
ATOM      6  C   LIG    1       23.605 -21.025   4.925  0.00  0.00    -0.039 A 
ATOM      7  C   LIG    1       22.917 -21.071   3.701  0.00  0.00    +0.004 A 
ATOM      8  C   LIG    1       23.384 -20.360   2.596  0.00  0.00    +0.004 A 
ATOM      9  C   LIG    1       24.525 -19.574   2.712  0.00  0.00    +0.045 A 
ATOM     10  C   LIG    1       25.199 -19.503   3.930  0.00  0.00    +0.120 A 
ATOM     11  C   LIG    1       25.795 -21.226   8.729  0.00  0.00    +0.027 C 
ATOM     12  C   LIG    1       26.872 -22.253   8.401  0.00  0.00    +0.092 C 
ATOM     13  C   LIG    1       23.067 -21.788   6.111  0.00  0.00    +0.054 C 
ATOM     14  C   LIG    1       26.194 -23.490   7.741  0.00  0.00    +0.105 C 
ENDROOT
BRANCH  10  15
ATOM     15  O   LIG    1       26.317 -18.716   3.935  0.00  0.00    -0.506 OA
ATOM     16  H   LIG    1       26.555 -18.481   3.024  0.00  0.00    +0.292 HD
ENDBRANCH  10  15
BRANCH  12  17
ATOM     17  N   LIG    1       27.964 -21.706   7.571  0.00  0.00    -0.175 NA
ATOM     18  H   LIG    1       28.278 -22.276   6.775  0.00  0.00    +0.149 HD
BRANCH  17  19
ATOM     19  S   LIG    1       29.148 -20.703   8.187  0.00  0.00    +0.097 S 
ATOM     20  O   LIG    1       30.068 -21.470   8.981  0.00  0.00    -0.141 OA
ATOM     21  O   LIG    1       28.459 -19.576   8.732  0.00  0.00    -0.141 OA
BRANCH  19  22
ATOM     22  N   LIG    1       29.921 -20.182   6.746  0.00  0.00    -0.167 NA
BRANCH  22  23
ATOM     23  C   LIG    1       31.187 -19.424   6.977  0.00  0.00    +0.107 C 
ATOM     24  C   LIG    1       31.102 -18.453   8.145  0.00  0.00    +0.022 C 
ENDBRANCH  22  23
BRANCH  22  25
ATOM     25  C   LIG    1       28.982 -19.589   5.737  0.00  0.00    +0.107 C 
ATOM     26  C   LIG    1       29.338 -18.172   5.307  0.00  0.00    +0.022 C 
ENDBRANCH  22  25
ENDBRANCH  19  22
ENDBRANCH  17  19
ENDBRANCH  12  17
BRANCH   1  27
ATOM     27  C   LIG    1       24.411 -24.596   6.519  0.00  0.00    +0.084 C 
BRANCH  27  29
ATOM     28  C   LIG    1       25.871 -26.355   5.419  0.00  0.00    +0.005 C 
ATOM     29  C   LIG    1       24.755 -25.336   5.210  0.00  0.00    +0.012 C 
ENDBRANCH  27  29
ENDBRANCH   1  27
TORSDOF 8
ENDMDL
MODEL 3
REMARK VINA RESULT:      -6.1      8.983     12.159
REMARK  Name = *****
REMARK                            x       y       z     vdW  Elec       q    Type
REMARK                         _______ _______ _______ _____ _____    ______ ____
ROOT
ATOM      1  N   LIG    1       24.722 -29.586  10.941  0.00  0.00    -0.297 NA
ATOM      2  C   LIG    1       25.896 -30.041  10.126  0.00  0.00    +0.064 C 
ATOM      3  C   LIG    1       25.526 -31.200   9.181  0.00  0.00    +0.013 C 
ATOM      4  C   LIG    1       24.565 -30.744   8.060  0.00  0.00    +0.044 C 
ATOM      5  C   LIG    1       24.875 -29.403   7.431  0.00  0.00    -0.002 A 
ATOM      6  C   LIG    1       25.803 -28.537   8.041  0.00  0.00    -0.039 A 
ATOM      7  C   LIG    1       26.022 -27.257   7.506  0.00  0.00    +0.004 A 
ATOM      8  C   LIG    1       25.298 -26.816   6.398  0.00  0.00    +0.004 A 
ATOM      9  C   LIG    1       24.370 -27.661   5.800  0.00  0.00    +0.045 A 
ATOM     10  C   LIG    1       24.164 -28.941   6.310  0.00  0.00    +0.120 A 
ATOM     11  C   LIG    1       25.031 -32.385  10.017  0.00  0.00    +0.027 C 
ATOM     12  C   LIG    1       23.789 -32.057  10.837  0.00  0.00    +0.092 C 
ATOM     13  C   LIG    1       26.614 -28.997   9.228  0.00  0.00    +0.054 C 
ATOM     14  C   LIG    1       24.045 -30.734  11.618  0.00  0.00    +0.105 C 
ENDROOT
BRANCH  10  15
ATOM     15  O   LIG    1       23.220 -29.687   5.659  0.00  0.00    -0.506 OA
ATOM     16  H   LIG    1       23.143 -30.556   6.084  0.00  0.00    +0.292 HD
ENDBRANCH  10  15
BRANCH  12  17
ATOM     17  N   LIG    1       22.555 -31.997  10.028  0.00  0.00    -0.175 NA
ATOM     18  H   LIG    1       22.446 -31.191   9.400  0.00  0.00    +0.149 HD
BRANCH  17  19
ATOM     19  S   LIG    1       21.107 -32.647  10.545  0.00  0.00    +0.097 S 
ATOM     20  O   LIG    1       21.300 -33.329  11.795  0.00  0.00    -0.141 OA
ATOM     21  O   LIG    1       20.556 -33.320   9.410  0.00  0.00    -0.141 OA
BRANCH  19  22
ATOM     22  N   LIG    1       20.178 -31.226  10.796  0.00  0.00    -0.167 NA
BRANCH  22  23
ATOM     23  C   LIG    1       20.199 -30.730  12.205  0.00  0.00    +0.107 C 
ATOM     24  C   LIG    1       20.754 -29.320  12.339  0.00  0.00    +0.022 C 
ENDBRANCH  22  23
BRANCH  22  25
ATOM     25  C   LIG    1       18.831 -31.259  10.137  0.00  0.00    +0.107 C 
ATOM     26  C   LIG    1       17.683 -31.599  11.077  0.00  0.00    +0.022 C 
ENDBRANCH  22  25
ENDBRANCH  19  22
ENDBRANCH  17  19
ENDBRANCH  12  17
BRANCH   1  27
ATOM     27  C   LIG    1       25.156 -28.606  11.981  0.00  0.00    +0.084 C 
BRANCH  27  29
ATOM     28  C   LIG    1       23.639 -27.099  13.346  0.00  0.00    +0.005 C 
ATOM     29  C   LIG    1       24.229 -28.500  13.209  0.00  0.00    +0.012 C 
ENDBRANCH  27  29
ENDBRANCH   1  27
TORSDOF 8
ENDMDL
MODEL 4
REMARK VINA RESULT:      -5.8      3.527      6.858
REMARK  Name = *****
REMARK                            x       y       z     vdW  Elec       q    Type
REMARK                         _______ _______ _______ _____ _____    ______ ____
ROOT
ATOM      1  N   LIG    1       25.221 -21.984   5.074  0.00  0.00    -0.297 NA
ATOM      2  C   LIG    1       25.076 -21.161   6.319  0.00  0.00    +0.064 C 
ATOM      3  C   LIG    1       25.491 -21.944   7.578  0.00  0.00    +0.013 C 
ATOM      4  C   LIG    1       27.009 -22.230   7.605  0.00  0.00    +0.044 C 
ATOM      5  C   LIG    1       27.903 -21.091   7.168  0.00  0.00    -0.002 A 
ATOM      6  C   LIG    1       27.347 -19.969   6.521  0.00  0.00    -0.039 A 
ATOM      7  C   LIG    1       28.188 -18.954   6.036  0.00  0.00    +0.004 A 
ATOM      8  C   LIG    1       29.574 -19.064   6.149  0.00  0.00    +0.004 A 
ATOM      9  C   LIG    1       30.129 -20.175   6.774  0.00  0.00    +0.045 A 
ATOM     10  C   LIG    1       29.301 -21.175   7.280  0.00  0.00    +0.120 A 
ATOM     11  C   LIG    1       24.595 -23.181   7.712  0.00  0.00    +0.027 C 
ATOM     12  C   LIG    1       24.714 -24.133   6.528  0.00  0.00    +0.092 C 
ATOM     13  C   LIG    1       25.851 -19.816   6.403  0.00  0.00    +0.054 C 
ATOM     14  C   LIG    1       24.550 -23.314   5.214  0.00  0.00    +0.105 C 
ENDROOT
BRANCH  10  15
ATOM     15  O   LIG    1       29.946 -22.231   7.862  0.00  0.00    -0.506 OA
ATOM     16  H   LIG    1       30.784 -22.394   7.402  0.00  0.00    +0.292 HD
ENDBRANCH  10  15
BRANCH  12  17
ATOM     17  N   LIG    1       25.961 -24.924   6.540  0.00  0.00    -0.175 NA
ATOM     18  H   LIG    1       26.845 -24.404   6.614  0.00  0.00    +0.149 HD
BRANCH  17  19
ATOM     19  S   LIG    1       26.107 -26.387   5.751  0.00  0.00    +0.097 S 
ATOM     20  O   LIG    1       27.496 -26.720   5.598  0.00  0.00    -0.141 OA
ATOM     21  O   LIG    1       25.234 -26.309   4.621  0.00  0.00    -0.141 OA
BRANCH  19  22
ATOM     22  N   LIG    1       25.377 -27.448   6.886  0.00  0.00    -0.167 NA
BRANCH  22  23
ATOM     23  C   LIG    1       26.306 -27.926   7.953  0.00  0.00    +0.107 C 
ATOM     24  C   LIG    1       25.688 -28.973   8.866  0.00  0.00    +0.022 C 
ENDBRANCH  22  23
BRANCH  22  25
ATOM     25  C   LIG    1       24.509 -28.499   6.259  0.00  0.00    +0.107 C 
ATOM     26  C   LIG    1       25.269 -29.525   5.429  0.00  0.00    +0.022 C 
ENDBRANCH  22  25
ENDBRANCH  19  22
ENDBRANCH  17  19
ENDBRANCH  12  17
BRANCH   1  27
ATOM     27  C   LIG    1       24.627 -21.271   3.904  0.00  0.00    +0.084 C 
BRANCH  27  29
ATOM     28  C   LIG    1       23.338 -19.085   3.884  0.00  0.00    +0.005 C 
ATOM     29  C   LIG    1       23.273 -20.582   4.175  0.00  0.00    +0.012 C 
ENDBRANCH  27  29
ENDBRANCH   1  27
TORSDOF 8
ENDMDL
MODEL 5
REMARK VINA RESULT:      -5.6      2.965      4.890
REMARK  Name = *****
REMARK                            x       y       z     vdW  Elec       q    Type
REMARK                         _______ _______ _______ _____ _____    ______ ____
ROOT
ATOM      1  N   LIG    1       28.174 -18.281   5.414  0.00  0.00    -0.297 NA
ATOM      2  C   LIG    1       28.106 -19.743   5.082  0.00  0.00    +0.064 C 
ATOM      3  C   LIG    1       28.666 -20.617   6.220  0.00  0.00    +0.013 C 
ATOM      4  C   LIG    1       27.768 -20.571   7.477  0.00  0.00    +0.044 C 
ATOM      5  C   LIG    1       26.277 -20.626   7.225  0.00  0.00    -0.002 A 
ATOM      6  C   LIG    1       25.776 -20.443   5.921  0.00  0.00    -0.039 A 
ATOM      7  C   LIG    1       24.390 -20.405   5.703  0.00  0.00    +0.004 A 
ATOM      8  C   LIG    1       23.499 -20.504   6.772  0.00  0.00    +0.004 A 
ATOM      9  C   LIG    1       23.987 -20.670   8.063  0.00  0.00    +0.045 A 
ATOM     10  C   LIG    1       25.361 -20.734   8.285  0.00  0.00    +0.120 A 
ATOM     11  C   LIG    1       30.133 -20.245   6.458  0.00  0.00    +0.027 C 
ATOM     12  C   LIG    1       30.319 -18.790   6.873  0.00  0.00    +0.092 C 
ATOM     13  C   LIG    1       26.718 -20.354   4.745  0.00  0.00    +0.054 C 
ATOM     14  C   LIG    1       29.541 -17.885   5.872  0.00  0.00    +0.105 C 
ENDROOT
BRANCH  10  15
ATOM     15  O   LIG    1       25.737 -20.884   9.591  0.00  0.00    -0.506 OA
ATOM     16  H   LIG    1       25.720 -21.825   9.829  0.00  0.00    +0.292 HD
ENDBRANCH  10  15
BRANCH  12  17
ATOM     17  N   LIG    1       29.933 -18.531   8.274  0.00  0.00    -0.175 NA
ATOM     18  H   LIG    1       29.154 -17.879   8.433  0.00  0.00    +0.149 HD
BRANCH  17  19
ATOM     19  S   LIG    1       31.026 -18.591   9.535  0.00  0.00    +0.097 S 
ATOM     20  O   LIG    1       32.232 -19.239   9.100  0.00  0.00    -0.141 OA
ATOM     21  O   LIG    1       30.292 -19.071  10.664  0.00  0.00    -0.141 OA
BRANCH  19  22
ATOM     22  N   LIG    1       31.324 -16.921   9.793  0.00  0.00    -0.167 NA
BRANCH  22  23
ATOM     23  C   LIG    1       32.712 -16.493   9.445  0.00  0.00    +0.107 C 
ATOM     24  C   LIG    1       33.022 -15.062   9.858  0.00  0.00    +0.022 C 
ENDBRANCH  22  23
BRANCH  22  25
ATOM     25  C   LIG    1       30.791 -16.406  11.097  0.00  0.00    +0.107 C 
ATOM     26  C   LIG    1       31.738 -16.589  12.276  0.00  0.00    +0.022 C 
ENDBRANCH  22  25
ENDBRANCH  19  22
ENDBRANCH  17  19
ENDBRANCH  12  17
BRANCH   1  27
ATOM     27  C   LIG    1       27.813 -17.458   4.221  0.00  0.00    +0.084 C 
BRANCH  27  29
ATOM     28  C   LIG    1       26.904 -15.214   3.462  0.00  0.00    +0.005 C 
ATOM     29  C   LIG    1       27.817 -15.933   4.451  0.00  0.00    +0.012 C 
ENDBRANCH  27  29
ENDBRANCH   1  27
TORSDOF 8
ENDMDL
MODEL 6
REMARK VINA RESULT:      -5.6      8.569     11.816
REMARK  Name = *****
REMARK                            x       y       z     vdW  Elec       q    Type
REMARK                         _______ _______ _______ _____ _____    ______ ____
ROOT
ATOM      1  N   LIG    1       21.991 -29.237  12.379  0.00  0.00    -0.297 NA
ATOM      2  C   LIG    1       22.940 -29.970  13.279  0.00  0.00    +0.064 C 
ATOM      3  C   LIG    1       24.015 -30.733  12.482  0.00  0.00    +0.013 C 
ATOM      4  C   LIG    1       24.991 -29.772  11.765  0.00  0.00    +0.044 C 
ATOM      5  C   LIG    1       25.440 -28.570  12.566  0.00  0.00    -0.002 A 
ATOM      6  C   LIG    1       24.775 -28.232  13.762  0.00  0.00    -0.039 A 
ATOM      7  C   LIG    1       25.134 -27.066  14.457  0.00  0.00    +0.004 A 
ATOM      8  C   LIG    1       26.114 -26.211  13.952  0.00  0.00    +0.004 A 
ATOM      9  C   LIG    1       26.764 -26.531  12.765  0.00  0.00    +0.045 A 
ATOM     10  C   LIG    1       26.431 -27.699  12.083  0.00  0.00    +0.120 A 
ATOM     11  C   LIG    1       23.328 -31.756  11.572  0.00  0.00    +0.027 C 
ATOM     12  C   LIG    1       22.385 -31.114  10.560  0.00  0.00    +0.092 C 
ATOM     13  C   LIG    1       23.726 -29.150  14.339  0.00  0.00    +0.054 C 
ATOM     14  C   LIG    1       21.441 -30.132  11.314  0.00  0.00    +0.105 C 
ENDROOT
BRANCH  10  15
ATOM     15  O   LIG    1       27.117 -27.913  10.919  0.00  0.00    -0.506 OA
ATOM     16  H   LIG    1       26.504 -28.221  10.233  0.00  0.00    +0.292 HD
ENDBRANCH  10  15
BRANCH  12  17
ATOM     17  N   LIG    1       23.092 -30.460   9.441  0.00  0.00    -0.175 NA
ATOM     18  H   LIG    1       22.673 -29.601   9.061  0.00  0.00    +0.149 HD
BRANCH  17  19
ATOM     19  S   LIG    1       24.003 -31.310   8.331  0.00  0.00    +0.097 S 
ATOM     20  O   LIG    1       23.351 -32.552   8.018  0.00  0.00    -0.141 OA
ATOM     21  O   LIG    1       25.345 -31.280   8.824  0.00  0.00    -0.141 OA
BRANCH  19  22
ATOM     22  N   LIG    1       23.935 -30.260   6.974  0.00  0.00    -0.167 NA
BRANCH  22  23
ATOM     23  C   LIG    1       24.104 -30.954   5.662  0.00  0.00    +0.107 C 
ATOM     24  C   LIG    1       25.550 -31.313   5.354  0.00  0.00    +0.022 C 
ENDBRANCH  22  23
BRANCH  22  25
ATOM     25  C   LIG    1       24.722 -28.995   7.149  0.00  0.00    +0.107 C 
ATOM     26  C   LIG    1       24.370 -27.897   6.154  0.00  0.00    +0.022 C 
ENDBRANCH  22  25
ENDBRANCH  19  22
ENDBRANCH  17  19
ENDBRANCH  12  17
BRANCH   1  27
ATOM     27  C   LIG    1       20.852 -28.677  13.166  0.00  0.00    +0.084 C 
BRANCH  27  29
ATOM     28  C   LIG    1       21.806 -26.327  13.251  0.00  0.00    +0.005 C 
ATOM     29  C   LIG    1       20.576 -27.176  12.942  0.00  0.00    +0.012 C 
ENDBRANCH  27  29
ENDBRANCH   1  27
TORSDOF 8
ENDMDL
MODEL 7
REMARK VINA RESULT:      -5.5      7.660      9.993
REMARK  Name = *****
REMARK                            x       y       z     vdW  Elec       q    Type
REMARK                         _______ _______ _______ _____ _____    ______ ____
ROOT
ATOM      1  N   LIG    1       25.790 -32.031   7.630  0.00  0.00    -0.297 NA
ATOM      2  C   LIG    1       24.414 -31.435   7.624  0.00  0.00    +0.064 C 
ATOM      3  C   LIG    1       24.211 -30.444   8.785  0.00  0.00    +0.013 C 
ATOM      4  C   LIG    1       25.070 -29.172   8.613  0.00  0.00    +0.044 C 
ATOM      5  C   LIG    1       25.130 -28.601   7.213  0.00  0.00    -0.002 A 
ATOM      6  C   LIG    1       24.662 -29.361   6.123  0.00  0.00    -0.039 A 
ATOM      7  C   LIG    1       24.801 -28.867   4.815  0.00  0.00    +0.004 A 
ATOM      8  C   LIG    1       25.438 -27.649   4.579  0.00  0.00    +0.004 A 
ATOM      9  C   LIG    1       25.915 -26.901   5.650  0.00  0.00    +0.045 A 
ATOM     10  C   LIG    1       25.759 -27.372   6.952  0.00  0.00    +0.120 A 
ATOM     11  C   LIG    1       24.409 -31.185  10.112  0.00  0.00    +0.027 C 
ATOM     12  C   LIG    1       25.806 -31.776  10.261  0.00  0.00    +0.092 C 
ATOM     13  C   LIG    1       23.951 -30.672   6.352  0.00  0.00    +0.054 C 
ATOM     14  C   LIG    1       26.143 -32.585   8.973  0.00  0.00    +0.105 C 
ENDROOT
BRANCH  10  15
ATOM     15  O   LIG    1       26.276 -26.569   7.931  0.00  0.00    -0.506 OA
ATOM     16  H   LIG    1       27.157 -26.261   7.668  0.00  0.00    +0.292 HD
ENDBRANCH  10  15
BRANCH  12  17
ATOM     17  N   LIG    1       26.836 -30.764  10.569  0.00  0.00    -0.175 NA
ATOM     18  H   LIG    1       27.694 -30.783  10.004  0.00  0.00    +0.149 HD
BRANCH  17  19
ATOM     19  S   LIG    1       27.054 -30.139  12.102  0.00  0.00    +0.097 S 
ATOM     20  O   LIG    1       28.431 -29.774  12.285  0.00  0.00    -0.141 OA
ATOM     21  O   LIG    1       26.404 -31.051  12.990  0.00  0.00    -0.141 OA
BRANCH  19  22
ATOM     22  N   LIG    1       26.083 -28.726  12.023  0.00  0.00    -0.167 NA
BRANCH  22  23
ATOM     23  C   LIG    1       26.851 -27.481  11.719  0.00  0.00    +0.107 C 
ATOM     24  C   LIG    1       26.759 -26.434  12.818  0.00  0.00    +0.022 C 
ENDBRANCH  22  23
BRANCH  22  25
ATOM     25  C   LIG    1       25.080 -28.618  13.133  0.00  0.00    +0.107 C 
ATOM     26  C   LIG    1       23.633 -28.545  12.663  0.00  0.00    +0.022 C 
ENDBRANCH  22  25
ENDBRANCH  19  22
ENDBRANCH  17  19
ENDBRANCH  12  17
BRANCH   1  27
ATOM     27  C   LIG    1       25.889 -33.128   6.621  0.00  0.00    +0.084 C 
BRANCH  27  29
ATOM     28  C   LIG    1       26.215 -32.501   4.184  0.00  0.00    +0.005 C 
ATOM     29  C   LIG    1       26.908 -32.886   5.488  0.00  0.00    +0.012 C 
ENDBRANCH  27  29
ENDBRANCH   1  27
TORSDOF 8
ENDMDL
MODEL 8
REMARK VINA RESULT:      -5.5      8.528     11.341
REMARK  Name = *****
REMARK                            x       y       z     vdW  Elec       q    Type
REMARK                         _______ _______ _______ _____ _____    ______ ____
ROOT
ATOM      1  N   LIG    1       22.634 -28.782  12.479  0.00  0.00    -0.297 NA
ATOM      2  C   LIG    1       23.313 -29.173  13.758  0.00  0.00    +0.064 C 
ATOM      3  C   LIG    1       24.761 -29.643  13.521  0.00  0.00    +0.013 C 
ATOM      4  C   LIG    1       25.673 -28.485  13.060  0.00  0.00    +0.044 C 
ATOM      5  C   LIG    1       25.478 -27.166  13.775  0.00  0.00    -0.002 A 
ATOM      6  C   LIG    1       24.346 -26.969  14.591  0.00  0.00    -0.039 A 
ATOM      7  C   LIG    1       24.119 -25.715  15.181  0.00  0.00    +0.004 A 
ATOM      8  C   LIG    1       24.981 -24.647  14.934  0.00  0.00    +0.004 A 
ATOM      9  C   LIG    1       26.092 -24.830  14.119  0.00  0.00    +0.045 A 
ATOM     10  C   LIG    1       26.337 -26.078  13.549  0.00  0.00    +0.120 A 
ATOM     11  C   LIG    1       24.742 -30.863  12.593  0.00  0.00    +0.027 C 
ATOM     12  C   LIG    1       24.135 -30.563  11.228  0.00  0.00    +0.092 C 
ATOM     13  C   LIG    1       23.410 -28.114  14.890  0.00  0.00    +0.054 C 
ATOM     14  C   LIG    1       22.767 -29.848  11.438  0.00  0.00    +0.105 C 
ENDROOT
BRANCH  10  15
ATOM     15  O   LIG    1       27.446 -26.150  12.752  0.00  0.00    -0.506 OA
ATOM     16  H   LIG    1       28.130 -26.678  13.192  0.00  0.00    +0.292 HD
ENDBRANCH  10  15
BRANCH  12  17
ATOM     17  N   LIG    1       25.036 -29.793  10.346  0.00  0.00    -0.175 NA
ATOM     18  H   LIG    1       24.628 -28.997   9.841  0.00  0.00    +0.149 HD
BRANCH  17  19
ATOM     19  S   LIG    1       26.342 -30.485   9.570  0.00  0.00    +0.097 S 
ATOM     20  O   LIG    1       26.502 -31.844  10.006  0.00  0.00    -0.141 OA
ATOM     21  O   LIG    1       27.408 -29.539   9.683  0.00  0.00    -0.141 OA
BRANCH  19  22
ATOM     22  N   LIG    1       25.808 -30.458   7.938  0.00  0.00    -0.167 NA
BRANCH  22  23
ATOM     23  C   LIG    1       24.628 -29.573   7.702  0.00  0.00    +0.107 C 
ATOM     24  C   LIG    1       24.950 -28.356   6.848  0.00  0.00    +0.022 C 
ENDBRANCH  22  23
BRANCH  22  25
ATOM     25  C   LIG    1       25.743 -31.814   7.301  0.00  0.00    +0.107 C 
ATOM     26  C   LIG    1       26.170 -31.840   5.839  0.00  0.00    +0.022 C 
ENDBRANCH  22  25
ENDBRANCH  19  22
ENDBRANCH  17  19
ENDBRANCH  12  17
BRANCH   1  27
ATOM     27  C   LIG    1       21.182 -28.525  12.716  0.00  0.00    +0.084 C 
BRANCH  27  29
ATOM     28  C   LIG    1       19.844 -26.824  14.041  0.00  0.00    +0.005 C 
ATOM     29  C   LIG    1       20.796 -27.039  12.867  0.00  0.00    +0.012 C 
ENDBRANCH  27  29
ENDBRANCH   1  27
TORSDOF 8
ENDMDL
MODEL 9
REMARK VINA RESULT:      -5.2      9.226     11.825
REMARK  Name = *****
REMARK                            x       y       z     vdW  Elec       q    Type
REMARK                         _______ _______ _______ _____ _____    ______ ____
ROOT
ATOM      1  N   LIG    1       25.564 -28.226  12.565  0.00  0.00    -0.297 NA
ATOM      2  C   LIG    1       26.609 -29.104  11.943  0.00  0.00    +0.064 C 
ATOM      3  C   LIG    1       26.139 -30.566  11.829  0.00  0.00    +0.013 C 
ATOM      4  C   LIG    1       24.992 -30.725  10.807  0.00  0.00    +0.044 C 
ATOM      5  C   LIG    1       25.140 -29.939   9.522  0.00  0.00    -0.002 A 
ATOM      6  C   LIG    1       26.118 -28.930   9.423  0.00  0.00    -0.039 A 
ATOM      7  C   LIG    1       26.195 -28.142   8.263  0.00  0.00    +0.004 A 
ATOM      8  C   LIG    1       25.284 -28.318   7.222  0.00  0.00    +0.004 A 
ATOM      9  C   LIG    1       24.307 -29.303   7.319  0.00  0.00    +0.045 A 
ATOM     10  C   LIG    1       24.239 -30.105   8.456  0.00  0.00    +0.120 A 
ATOM     11  C   LIG    1       25.835 -31.101  13.233  0.00  0.00    +0.027 C 
ATOM     12  C   LIG    1       24.730 -30.325  13.939  0.00  0.00    +0.092 C 
ATOM     13  C   LIG    1       27.129 -28.733  10.526  0.00  0.00    +0.054 C 
ATOM     14  C   LIG    1       25.054 -28.804  13.846  0.00  0.00    +0.105 C 
ENDROOT
BRANCH  10  15
ATOM     15  O   LIG    1       23.234 -31.033   8.460  0.00  0.00    -0.506 OA
ATOM     16  H   LIG    1       22.852 -31.094   9.350  0.00  0.00    +0.292 HD
ENDBRANCH  10  15
BRANCH  12  17
ATOM     17  N   LIG    1       23.381 -30.639  13.429  0.00  0.00    -0.175 NA
ATOM     18  H   LIG    1       23.241 -30.590  12.412  0.00  0.00    +0.149 HD
BRANCH  17  19
ATOM     19  S   LIG    1       21.994 -30.348  14.312  0.00  0.00    +0.097 S 
ATOM     20  O   LIG    1       22.321 -29.601  15.496  0.00  0.00    -0.141 OA
ATOM     21  O   LIG    1       21.312 -31.601  14.391  0.00  0.00    -0.141 OA
BRANCH  19  22
ATOM     22  N   LIG    1       21.113 -29.355  13.224  0.00  0.00    -0.167 NA
BRANCH  22  23
ATOM     23  C   LIG    1       21.552 -29.477  11.802  0.00  0.00    +0.107 C 
ATOM     24  C   LIG    1       20.722 -30.466  10.998  0.00  0.00    +0.022 C 
ENDBRANCH  22  23
BRANCH  22  25
ATOM     25  C   LIG    1       20.896 -27.956  13.721  0.00  0.00    +0.107 C 
ATOM     26  C   LIG    1       21.883 -26.936  13.169  0.00  0.00    +0.022 C 
ENDBRANCH  22  25
ENDBRANCH  19  22
ENDBRANCH  17  19
ENDBRANCH  12  17
BRANCH   1  27
ATOM     27  C   LIG    1       26.121 -26.868  12.842  0.00  0.00    +0.084 C 
BRANCH  27  29
ATOM     28  C   LIG    1       25.088 -24.759  13.803  0.00  0.00    +0.005 C 
ATOM     29  C   LIG    1       25.565 -26.178  14.105  0.00  0.00    +0.012 C 
ENDBRANCH  27  29
ENDBRANCH   1  27
TORSDOF 8
ENDMDL
