MODEL 1
REMARK VINA RESULT:      13.1      0.000      0.000
REMARK  Name = *****
REMARK                            x       y       z     vdW  Elec       q    Type
REMARK                         _______ _______ _______ _____ _____    ______ ____
ROOT
ATOM      1  C   LIG    1       21.931 -21.571   6.373  0.00  0.00    +0.089 C 
ATOM      2  C   LIG    1       22.765 -20.521   5.682  0.00  0.00    +0.103 C 
ATOM      3  N   LIG    1       24.074 -20.398   6.125  0.00  0.00    -0.208 N 
ATOM      4  H   LIG    1       24.391 -21.038   6.847  0.00  0.00    +0.298 HD
ATOM      5  C   LIG    1       25.077 -19.787   5.402  0.00  0.00    +0.269 C 
ATOM      6  C   LIG    1       24.711 -18.942   4.409  0.00  0.00    +0.133 C 
ATOM      7  C   LIG    1       23.244 -18.601   4.169  0.00  0.00    +0.104 C 
ATOM      8  C   LIG    1       22.327 -19.705   4.692  0.00  0.00    +0.088 C 
ENDROOT
BRANCH   7   9
ATOM      9  C   LIG    1       22.840 -17.225   4.758  0.00  0.00    -0.028 A 
ATOM     10  C   LIG    1       23.723 -16.130   4.703  0.00  0.00    +0.088 A 
ATOM     11  C   LIG    1       23.316 -14.880   5.198  0.00  0.00    +0.273 A 
ATOM     12  C   LIG    1       22.042 -14.674   5.727  0.00  0.00    +0.084 A 
ATOM     13  C   LIG    1       21.164 -15.752   5.778  0.00  0.00    +0.007 A 
ATOM     14  C   LIG    1       21.561 -17.013   5.314  0.00  0.00    +0.005 A 
BRANCH  11  15
ATOM     15  N   LIG    1       24.244 -13.761   5.169  0.00  0.00    +0.080 N 
ATOM     16  O   LIG    1       23.764 -12.627   5.034  0.00  0.00    -0.576 OA
ATOM     17  O   LIG    1       25.448 -14.024   5.286  0.00  0.00    +0.041 OA
ENDBRANCH  11  15
ENDBRANCH   7   9
BRANCH   5  18
ATOM     18  N   LIG    1       26.369 -20.116   5.733  0.00  0.00    -0.251 N 
ATOM     19  H   LIG    1       26.889 -20.459   4.932  0.00  0.00    +0.288 HD
ATOM     20  H   LIG    1       26.874 -19.345   6.180  0.00  0.00    +0.288 HD
ENDBRANCH   5  18
BRANCH   6  21
ATOM     21  C   LIG    1       25.719 -18.414   3.459  0.00  0.00    +0.344 C 
ATOM     22  O   LIG    1       25.771 -18.668   2.275  0.00  0.00    -0.245 OA
BRANCH  21  23
ATOM     23  O   LIG    1       26.604 -17.652   4.146  0.00  0.00    -0.455 OA
BRANCH  23  24
ATOM     24  C   LIG    1       26.650 -16.267   3.751  0.00  0.00    +0.205 C 
ATOM     25  C   LIG    1       28.036 -15.830   3.225  0.00  0.00    +0.131 C 
ATOM     26  N   LIG    1       27.405 -15.220   2.036  0.00  0.00    -0.284 NA
ATOM     27  C   LIG    1       26.148 -15.929   2.331  0.00  0.00    +0.131 C 
BRANCH  26  28
ATOM     28  C   LIG    1       27.334 -13.743   2.200  0.00  0.00    +0.117 C 
BRANCH  28  29
ATOM     29  C   LIG    1       27.943 -13.259   3.519  0.00  0.00    -0.026 A 
ATOM     30  C   LIG    1       28.935 -12.262   3.522  0.00  0.00    +0.005 A 
ATOM     31  C   LIG    1       29.473 -11.796   4.724  0.00  0.00    +0.000 A 
ATOM     32  C   LIG    1       29.036 -12.326   5.937  0.00  0.00    +0.000 A 
ATOM     33  C   LIG    1       28.066 -13.325   5.948  0.00  0.00    +0.000 A 
ATOM     34  C   LIG    1       27.524 -13.788   4.750  0.00  0.00    +0.005 A 
ENDBRANCH  28  29
BRANCH  28  35
ATOM     35  C   LIG    1       25.875 -13.259   2.070  0.00  0.00    -0.026 A 
ATOM     36  C   LIG    1       25.569 -11.891   2.134  0.00  0.00    +0.005 A 
ATOM     37  C   LIG    1       24.244 -11.452   2.036  0.00  0.00    +0.000 A 
ATOM     38  C   LIG    1       23.207 -12.369   1.872  0.00  0.00    +0.000 A 
ATOM     39  C   LIG    1       23.491 -13.730   1.813  0.00  0.00    +0.000 A 
ATOM     40  C   LIG    1       24.811 -14.170   1.919  0.00  0.00    +0.005 A 
ENDBRANCH  28  35
ENDBRANCH  26  28
ENDBRANCH  23  24
ENDBRANCH  21  23
ENDBRANCH   6  21
BRANCH   8  41
ATOM     41  C   LIG    1       20.978 -19.844   4.080  0.00  0.00    +0.340 C 
ATOM     42  O   LIG    1       20.426 -20.906   3.866  0.00  0.00    -0.245 OA
BRANCH  41  43
ATOM     43  O   LIG    1       20.453 -18.617   3.834  0.00  0.00    -0.459 OA
BRANCH  43  44
ATOM     44  C   LIG    1       20.369 -18.228   2.453  0.00  0.00    +0.171 C 
ATOM     45  C   LIG    1       21.752 -18.223   1.818  0.00  0.00    +0.051 C 
ATOM     46  C   LIG    1       19.741 -16.839   2.411  0.00  0.00    +0.051 C 
ENDBRANCH  43  44
ENDBRANCH  41  43
ENDBRANCH   8  41
TORSDOF 12
ENDMDL
