MODEL 1
REMARK VINA RESULT:      -4.7      0.000      0.000
REMARK  Name = *****
REMARK                            x       y       z     vdW  Elec       q    Type
REMARK                         _______ _______ _______ _____ _____    ______ ____
ROOT
ATOM      1  C   LIG    1       25.923 -14.954   3.195  0.00  0.00    +0.095 C 
ENDROOT
BRANCH   1   2
ATOM      2  C   LIG    1       24.442 -14.367   3.323  0.00  0.00    +0.025 C 
ATOM      3  C   LIG    1       24.031 -13.828   4.721  0.00  0.00    +0.006 C 
ATOM      4  C   LIG    1       24.309 -12.349   4.982  0.00  0.00    +0.000 C 
ATOM      5  C   LIG    1       23.796 -11.452   3.866  0.00  0.00    +0.000 C 
ATOM      6  C   LIG    1       24.281 -11.908   2.498  0.00  0.00    +0.000 C 
ATOM      7  C   LIG    1       23.974 -13.381   2.229  0.00  0.00    +0.006 C 
ENDBRANCH   1   2
BRANCH   1   8
ATOM      8  C   LIG    1       26.886 -14.106   4.048  0.00  0.00    -0.016 A 
ATOM      9  C   LIG    1       27.862 -13.286   3.435  0.00  0.00    +0.006 A 
ATOM     10  C   LIG    1       28.690 -12.455   4.192  0.00  0.00    +0.000 A 
ATOM     11  C   LIG    1       28.577 -12.412   5.572  0.00  0.00    +0.000 A 
ATOM     12  C   LIG    1       27.626 -13.214   6.205  0.00  0.00    +0.000 A 
ATOM     13  C   LIG    1       26.793 -14.043   5.448  0.00  0.00    +0.006 A 
ENDBRANCH   1   8
BRANCH   1  14
ATOM     14  O   LIG    1       26.293 -14.775   1.812  0.00  0.00    -0.384 OA
ATOM     15  H   LIG    1       26.324 -15.660   1.401  0.00  0.00    +0.211 HD
ENDBRANCH   1  14
BRANCH   1  16
ATOM     16  C   LIG    1       26.010 -16.486   3.451  0.00  0.00    +0.055 C 
BRANCH  16  17
ATOM     17  C   LIG    1       24.763 -17.198   4.059  0.00  0.00    +0.087 C 
BRANCH  17  18
ATOM     18  N   LIG    1       24.496 -18.519   3.438  0.00  0.00    -0.302 NA
ATOM     19  C   LIG    1       25.490 -19.556   3.749  0.00  0.00    +0.084 C 
ATOM     20  C   LIG    1       25.388 -20.079   5.180  0.00  0.00    +0.015 C 
ATOM     21  C   LIG    1       24.027 -20.723   5.397  0.00  0.00    +0.002 C 
ATOM     22  C   LIG    1       22.907 -19.752   5.029  0.00  0.00    +0.015 C 
ATOM     23  C   LIG    1       23.136 -19.041   3.685  0.00  0.00    +0.084 C 
ENDBRANCH  17  18
ENDBRANCH  16  17
ENDBRANCH   1  16
TORSDOF 6
ENDMDL
MODEL 2
REMARK VINA RESULT:      -4.6      2.284      7.370
REMARK  Name = *****
REMARK                            x       y       z     vdW  Elec       q    Type
REMARK                         _______ _______ _______ _____ _____    ______ ____
ROOT
ATOM      1  C   LIG    1       25.880 -19.362   4.328  0.00  0.00    +0.095 C 
ENDROOT
BRANCH   1   2
ATOM      2  C   LIG    1       26.588 -19.262   5.757  0.00  0.00    +0.025 C 
ATOM      3  C   LIG    1       26.005 -20.161   6.881  0.00  0.00    +0.006 C 
ATOM      4  C   LIG    1       26.618 -21.554   7.018  0.00  0.00    +0.000 C 
ATOM      5  C   LIG    1       28.138 -21.521   7.062  0.00  0.00    +0.000 C 
ATOM      6  C   LIG    1       28.727 -20.731   5.902  0.00  0.00    +0.000 C 
ATOM      7  C   LIG    1       28.132 -19.329   5.788  0.00  0.00    +0.006 C 
ENDBRANCH   1   2
BRANCH   1   8
ATOM      8  C   LIG    1       24.381 -19.662   4.519  0.00  0.00    -0.016 A 
ATOM      9  C   LIG    1       23.413 -18.645   4.344  0.00  0.00    +0.006 A 
ATOM     10  C   LIG    1       22.048 -18.919   4.438  0.00  0.00    +0.000 A 
ATOM     11  C   LIG    1       21.602 -20.202   4.708  0.00  0.00    +0.000 A 
ATOM     12  C   LIG    1       22.533 -21.226   4.890  0.00  0.00    +0.000 A 
ATOM     13  C   LIG    1       23.900 -20.953   4.791  0.00  0.00    +0.006 A 
ENDBRANCH   1   8
BRANCH   1  14
ATOM     14  O   LIG    1       26.474 -20.506   3.679  0.00  0.00    -0.384 OA
ATOM     15  H   LIG    1       25.921 -20.723   2.905  0.00  0.00    +0.211 HD
ENDBRANCH   1  14
BRANCH   1  16
ATOM     16  C   LIG    1       26.184 -18.154   3.396  0.00  0.00    +0.055 C 
BRANCH  16  17
ATOM     17  C   LIG    1       26.882 -16.907   4.019  0.00  0.00    +0.087 C 
BRANCH  17  18
ATOM     18  N   LIG    1       26.717 -15.684   3.195  0.00  0.00    -0.302 NA
ATOM     19  C   LIG    1       25.334 -15.197   3.089  0.00  0.00    +0.084 C 
ATOM     20  C   LIG    1       24.827 -14.540   4.371  0.00  0.00    +0.015 C 
ATOM     21  C   LIG    1       25.678 -13.322   4.697  0.00  0.00    +0.002 C 
ATOM     22  C   LIG    1       27.156 -13.699   4.758  0.00  0.00    +0.015 C 
ATOM     23  C   LIG    1       27.611 -14.571   3.575  0.00  0.00    +0.084 C 
ENDBRANCH  17  18
ENDBRANCH  16  17
ENDBRANCH   1  16
TORSDOF 6
ENDMDL
MODEL 3
REMARK VINA RESULT:      -3.3      2.000      7.026
REMARK  Name = *****
REMARK                            x       y       z     vdW  Elec       q    Type
REMARK                         _______ _______ _______ _____ _____    ______ ____
ROOT
ATOM      1  C   LIG    1       25.618 -18.829   3.664  0.00  0.00    +0.095 C 
ENDROOT
BRANCH   1   2
ATOM      2  C   LIG    1       26.414 -20.088   4.242  0.00  0.00    +0.025 C 
ATOM      3  C   LIG    1       27.910 -19.859   4.589  0.00  0.00    +0.006 C 
ATOM      4  C   LIG    1       28.209 -19.404   6.017  0.00  0.00    +0.000 C 
ATOM      5  C   LIG    1       27.520 -20.268   7.062  0.00  0.00    +0.000 C 
ATOM      6  C   LIG    1       26.029 -20.413   6.791  0.00  0.00    +0.000 C 
ATOM      7  C   LIG    1       25.737 -20.897   5.372  0.00  0.00    +0.006 C 
ENDBRANCH   1   2
BRANCH   1   8
ATOM      8  C   LIG    1       24.124 -18.962   4.015  0.00  0.00    -0.016 A 
ATOM      9  C   LIG    1       23.288 -17.821   4.060  0.00  0.00    +0.006 A 
ATOM     10  C   LIG    1       21.918 -17.935   4.302  0.00  0.00    +0.000 A 
ATOM     11  C   LIG    1       21.337 -19.176   4.505  0.00  0.00    +0.000 A 
ATOM     12  C   LIG    1       22.137 -20.319   4.471  0.00  0.00    +0.000 A 
ATOM     13  C   LIG    1       23.508 -20.207   4.224  0.00  0.00    +0.006 A 
ENDBRANCH   1   8
BRANCH   1  14
ATOM     14  O   LIG    1       25.738 -18.918   2.230  0.00  0.00    -0.384 OA
ATOM     15  H   LIG    1       25.315 -19.753   1.951  0.00  0.00    +0.211 HD
ENDBRANCH   1  14
BRANCH   1  16
ATOM     16  C   LIG    1       26.252 -17.461   4.048  0.00  0.00    +0.055 C 
BRANCH  16  17
ATOM     17  C   LIG    1       25.887 -16.216   3.183  0.00  0.00    +0.087 C 
BRANCH  17  18
ATOM     18  N   LIG    1       25.938 -14.948   3.951  0.00  0.00    -0.302 NA
ATOM     19  C   LIG    1       26.750 -13.889   3.333  0.00  0.00    +0.084 C 
ATOM     20  C   LIG    1       26.088 -13.257   2.111  0.00  0.00    +0.015 C 
ATOM     21  C   LIG    1       24.777 -12.599   2.518  0.00  0.00    +0.002 C 
ATOM     22  C   LIG    1       23.877 -13.596   3.243  0.00  0.00    +0.015 C 
ATOM     23  C   LIG    1       24.613 -14.409   4.321  0.00  0.00    +0.084 C 
ENDBRANCH  17  18
ENDBRANCH  16  17
ENDBRANCH   1  16
TORSDOF 6
ENDMDL
MODEL 4
REMARK VINA RESULT:      -2.9      2.217      6.721
REMARK  Name = *****
REMARK                            x       y       z     vdW  Elec       q    Type
REMARK                         _______ _______ _______ _____ _____    ______ ____
ROOT
ATOM      1  C   LIG    1       25.611 -19.124   4.349  0.00  0.00    +0.095 C 
ENDROOT
BRANCH   1   2
ATOM      2  C   LIG    1       24.690 -20.270   3.722  0.00  0.00    +0.025 C 
ATOM      3  C   LIG    1       24.517 -21.558   4.572  0.00  0.00    +0.006 C 
ATOM      4  C   LIG    1       23.339 -21.572   5.544  0.00  0.00    +0.000 C 
ATOM      5  C   LIG    1       22.032 -21.159   4.884  0.00  0.00    +0.000 C 
ATOM      6  C   LIG    1       22.161 -19.840   4.136  0.00  0.00    +0.000 C 
ATOM      7  C   LIG    1       23.322 -19.842   3.143  0.00  0.00    +0.006 C 
ENDBRANCH   1   2
BRANCH   1   8
ATOM      8  C   LIG    1       26.700 -19.766   5.229  0.00  0.00    -0.016 A 
ATOM      9  C   LIG    1       28.046 -19.342   5.137  0.00  0.00    +0.006 A 
ATOM     10  C   LIG    1       29.030 -19.860   5.981  0.00  0.00    +0.000 A 
ATOM     11  C   LIG    1       28.710 -20.809   6.939  0.00  0.00    +0.000 A 
ATOM     12  C   LIG    1       27.391 -21.251   7.050  0.00  0.00    +0.000 A 
ATOM     13  C   LIG    1       26.405 -20.729   6.209  0.00  0.00    +0.006 A 
ENDBRANCH   1   8
BRANCH   1  14
ATOM     14  O   LIG    1       24.745 -18.360   5.213  0.00  0.00    -0.384 OA
ATOM     15  H   LIG    1       25.309 -17.755   5.732  0.00  0.00    +0.211 HD
ENDBRANCH   1  14
BRANCH   1  16
ATOM     16  C   LIG    1       26.145 -18.110   3.297  0.00  0.00    +0.055 C 
BRANCH  16  17
ATOM     17  C   LIG    1       25.625 -16.641   3.367  0.00  0.00    +0.087 C 
BRANCH  17  18
ATOM     18  N   LIG    1       26.671 -15.644   3.029  0.00  0.00    -0.302 NA
ATOM     19  C   LIG    1       26.180 -14.459   2.311  0.00  0.00    +0.084 C 
ATOM     20  C   LIG    1       25.390 -13.500   3.199  0.00  0.00    +0.015 C 
ATOM     21  C   LIG    1       26.284 -12.976   4.313  0.00  0.00    +0.002 C 
ATOM     22  C   LIG    1       26.915 -14.132   5.086  0.00  0.00    +0.015 C 
ATOM     23  C   LIG    1       27.502 -15.224   4.176  0.00  0.00    +0.084 C 
ENDBRANCH  17  18
ENDBRANCH  16  17
ENDBRANCH   1  16
TORSDOF 6
ENDMDL
MODEL 5
REMARK VINA RESULT:      -2.3      1.205      3.279
REMARK  Name = *****
REMARK                            x       y       z     vdW  Elec       q    Type
REMARK                         _______ _______ _______ _____ _____    ______ ____
ROOT
ATOM      1  C   LIG    1       25.354 -15.216   4.185  0.00  0.00    +0.095 C 
ENDROOT
BRANCH   1   2
ATOM      2  C   LIG    1       26.810 -15.037   4.818  0.00  0.00    +0.025 C 
ATOM      3  C   LIG    1       27.995 -14.968   3.816  0.00  0.00    +0.006 C 
ATOM      4  C   LIG    1       28.377 -13.577   3.317  0.00  0.00    +0.000 C 
ATOM      5  C   LIG    1       28.547 -12.575   4.449  0.00  0.00    +0.000 C 
ATOM      6  C   LIG    1       27.342 -12.556   5.380  0.00  0.00    +0.000 C 
ATOM      7  C   LIG    1       26.983 -13.947   5.900  0.00  0.00    +0.006 C 
ENDBRANCH   1   2
BRANCH   1   8
ATOM      8  C   LIG    1       24.860 -13.861   3.644  0.00  0.00    -0.016 A 
ATOM      9  C   LIG    1       25.216 -13.429   2.344  0.00  0.00    +0.006 A 
ATOM     10  C   LIG    1       24.714 -12.240   1.812  0.00  0.00    +0.000 A 
ATOM     11  C   LIG    1       23.848 -11.447   2.547  0.00  0.00    +0.000 A 
ATOM     12  C   LIG    1       23.483 -11.844   3.834  0.00  0.00    +0.000 A 
ATOM     13  C   LIG    1       23.981 -13.037   4.366  0.00  0.00    +0.006 A 
ENDBRANCH   1   8
BRANCH   1  14
ATOM     14  O   LIG    1       24.496 -15.586   5.283  0.00  0.00    -0.384 OA
ATOM     15  H   LIG    1       25.066 -15.752   6.058  0.00  0.00    +0.211 HD
ENDBRANCH   1  14
BRANCH   1  16
ATOM     16  C   LIG    1       25.256 -16.391   3.171  0.00  0.00    +0.055 C 
BRANCH  16  17
ATOM     17  C   LIG    1       25.583 -17.828   3.681  0.00  0.00    +0.087 C 
BRANCH  17  18
ATOM     18  N   LIG    1       24.580 -18.833   3.252  0.00  0.00    -0.302 NA
ATOM     19  C   LIG    1       24.863 -20.208   3.688  0.00  0.00    +0.084 C 
ATOM     20  C   LIG    1       24.617 -20.430   5.179  0.00  0.00    +0.015 C 
ATOM     21  C   LIG    1       23.152 -20.179   5.502  0.00  0.00    +0.002 C 
ATOM     22  C   LIG    1       22.723 -18.796   5.020  0.00  0.00    +0.015 C 
ATOM     23  C   LIG    1       23.185 -18.480   3.588  0.00  0.00    +0.084 C 
ENDBRANCH  17  18
ENDBRANCH  16  17
ENDBRANCH   1  16
TORSDOF 6
ENDMDL
MODEL 6
REMARK VINA RESULT:      -2.2      1.997      3.700
REMARK  Name = *****
REMARK                            x       y       z     vdW  Elec       q    Type
REMARK                         _______ _______ _______ _____ _____    ______ ____
ROOT
ATOM      1  C   LIG    1       26.304 -17.305   3.690  0.00  0.00    +0.095 C 
ENDROOT
BRANCH   1   2
ATOM      2  C   LIG    1       26.242 -15.810   4.250  0.00  0.00    +0.025 C 
ATOM      3  C   LIG    1       27.415 -14.873   3.851  0.00  0.00    +0.006 C 
ATOM      4  C   LIG    1       27.229 -14.071   2.564  0.00  0.00    +0.000 C 
ATOM      5  C   LIG    1       25.894 -13.343   2.517  0.00  0.00    +0.000 C 
ATOM      6  C   LIG    1       24.725 -14.275   2.802  0.00  0.00    +0.000 C 
ATOM      7  C   LIG    1       24.902 -15.053   4.105  0.00  0.00    +0.006 C 
ENDBRANCH   1   2
BRANCH   1   8
ATOM      8  C   LIG    1       27.301 -18.126   4.529  0.00  0.00    -0.016 A 
ATOM      9  C   LIG    1       28.589 -17.618   4.821  0.00  0.00    +0.006 A 
ATOM     10  C   LIG    1       29.475 -18.317   5.642  0.00  0.00    +0.000 A 
ATOM     11  C   LIG    1       29.114 -19.534   6.197  0.00  0.00    +0.000 A 
ATOM     12  C   LIG    1       27.852 -20.063   5.923  0.00  0.00    +0.000 A 
ATOM     13  C   LIG    1       26.962 -19.361   5.104  0.00  0.00    +0.006 A 
ENDBRANCH   1   8
BRANCH   1  14
ATOM     14  O   LIG    1       26.841 -17.197   2.355  0.00  0.00    -0.384 OA
ATOM     15  H   LIG    1       26.947 -16.247   2.158  0.00  0.00    +0.211 HD
ENDBRANCH   1  14
BRANCH   1  16
ATOM     16  C   LIG    1       24.905 -17.964   3.520  0.00  0.00    +0.055 C 
BRANCH  16  17
ATOM     17  C   LIG    1       24.850 -19.480   3.158  0.00  0.00    +0.087 C 
BRANCH  17  18
ATOM     18  N   LIG    1       23.528 -20.091   3.441  0.00  0.00    -0.302 NA
ATOM     19  C   LIG    1       23.585 -21.470   3.947  0.00  0.00    +0.084 C 
ATOM     20  C   LIG    1       24.066 -21.563   5.393  0.00  0.00    +0.015 C 
ATOM     21  C   LIG    1       23.101 -20.820   6.305  0.00  0.00    +0.002 C 
ATOM     22  C   LIG    1       22.905 -19.384   5.826  0.00  0.00    +0.015 C 
ATOM     23  C   LIG    1       22.657 -19.276   4.312  0.00  0.00    +0.084 C 
ENDBRANCH  17  18
ENDBRANCH  16  17
ENDBRANCH   1  16
TORSDOF 6
ENDMDL
