MODEL 1
REMARK VINA RESULT:      -8.5      0.000      0.000
REMARK  Name = *****
REMARK                            x       y       z     vdW  Elec       q    Type
REMARK                         _______ _______ _______ _____ _____    ______ ____
ROOT
ATOM      1  C   LIG    1       25.436 -21.845   8.140  0.00  0.00    +0.084 C 
ATOM      2  C   LIG    1       26.690 -22.560   8.684  0.00  0.00    +0.038 C 
ATOM      3  C   LIG    1       27.964 -22.137   7.937  0.00  0.00    +0.086 C 
ATOM      4  N   LIG    1       28.250 -20.697   8.034  0.00  0.00    -0.302 NA
ATOM      5  C   LIG    1       27.052 -19.882   7.720  0.00  0.00    +0.086 C 
ATOM      6  C   LIG    1       25.711 -20.345   8.313  0.00  0.00    +0.038 C 
ENDROOT
BRANCH   1   8
ATOM      7  C   LIG    1       25.169 -23.692   6.353  0.00  0.00    +0.220 C 
ATOM      8  N   LIG    1       24.989 -22.370   6.792  0.00  0.00    -0.268 N 
ATOM      9  O   LIG    1       25.645 -24.592   7.071  0.00  0.00    -0.275 OA
BRANCH   8  10
ATOM     10  C   LIG    1       24.466 -21.377   5.896  0.00  0.00    +0.037 A 
ATOM     11  C   LIG    1       25.262 -20.819   4.885  0.00  0.00    +0.023 A 
ATOM     12  C   LIG    1       24.727 -19.870   4.006  0.00  0.00    +0.002 A 
ATOM     13  C   LIG    1       23.406 -19.448   4.151  0.00  0.00    +0.000 A 
ATOM     14  C   LIG    1       22.616 -19.979   5.167  0.00  0.00    +0.002 A 
ATOM     15  C   LIG    1       23.141 -20.946   6.029  0.00  0.00    +0.023 A 
ENDBRANCH   8  10
BRANCH   7  17
ATOM     16  C   LIG    1       25.095 -25.509   4.558  0.00  0.00    +0.013 C 
ATOM     17  C   LIG    1       24.765 -24.065   4.924  0.00  0.00    +0.093 C 
ENDBRANCH   7  17
ENDBRANCH   1   8
BRANCH   4  18
ATOM     18  C   LIG    1       29.344 -20.268   7.089  0.00  0.00    +0.089 C 
BRANCH  18  19
ATOM     19  C   LIG    1       29.749 -18.778   7.079  0.00  0.00    +0.050 C 
BRANCH  19  20
ATOM     20  C   LIG    1       30.472 -18.262   8.324  0.00  0.00    -0.046 A 
ATOM     21  C   LIG    1       31.835 -17.923   8.303  0.00  0.00    +0.003 A 
ATOM     22  C   LIG    1       32.424 -17.242   9.382  0.00  0.00    +0.000 A 
ATOM     23  C   LIG    1       31.665 -16.903  10.500  0.00  0.00    +0.000 A 
ATOM     24  C   LIG    1       30.335 -17.306  10.568  0.00  0.00    +0.000 A 
ATOM     25  C   LIG    1       29.748 -17.992   9.497  0.00  0.00    +0.003 A 
ENDBRANCH  19  20
ENDBRANCH  18  19
ENDBRANCH   4  18
TORSDOF 6
ENDMDL
MODEL 2
REMARK VINA RESULT:      -8.2      2.751      7.719
REMARK  Name = *****
REMARK                            x       y       z     vdW  Elec       q    Type
REMARK                         _______ _______ _______ _____ _____    ______ ____
ROOT
ATOM      1  C   LIG    1       24.968 -22.239   7.447  0.00  0.00    +0.084 C 
ATOM      2  C   LIG    1       23.648 -22.831   6.912  0.00  0.00    +0.038 C 
ATOM      3  C   LIG    1       23.884 -23.811   5.753  0.00  0.00    +0.086 C 
ATOM      4  N   LIG    1       24.721 -24.965   6.122  0.00  0.00    -0.302 NA
ATOM      5  C   LIG    1       25.951 -24.540   6.831  0.00  0.00    +0.086 C 
ATOM      6  C   LIG    1       25.806 -23.444   7.899  0.00  0.00    +0.038 C 
ENDROOT
BRANCH   1   8
ATOM      7  C   LIG    1       26.935 -20.838   6.527  0.00  0.00    +0.220 C 
ATOM      8  N   LIG    1       25.581 -21.213   6.517  0.00  0.00    -0.268 N 
ATOM      9  O   LIG    1       27.788 -21.378   7.255  0.00  0.00    -0.275 OA
BRANCH   8  10
ATOM     10  C   LIG    1       24.646 -20.520   5.676  0.00  0.00    +0.037 A 
ATOM     11  C   LIG    1       23.411 -20.078   6.171  0.00  0.00    +0.023 A 
ATOM     12  C   LIG    1       22.523 -19.383   5.342  0.00  0.00    +0.002 A 
ATOM     13  C   LIG    1       22.848 -19.154   4.005  0.00  0.00    +0.000 A 
ATOM     14  C   LIG    1       24.063 -19.610   3.499  0.00  0.00    +0.002 A 
ATOM     15  C   LIG    1       24.961 -20.281   4.333  0.00  0.00    +0.023 A 
ENDBRANCH   8  10
BRANCH   7  17
ATOM     16  C   LIG    1       28.850 -19.290   5.845  0.00  0.00    +0.013 C 
ATOM     17  C   LIG    1       27.403 -19.709   5.605  0.00  0.00    +0.093 C 
ENDBRANCH   7  17
ENDBRANCH   1   8
BRANCH   4  18
ATOM     18  C   LIG    1       25.150 -25.766   4.919  0.00  0.00    +0.089 C 
BRANCH  18  19
ATOM     19  C   LIG    1       25.957 -27.060   5.160  0.00  0.00    +0.050 C 
BRANCH  19  20
ATOM     20  C   LIG    1       25.284 -28.129   6.022  0.00  0.00    -0.046 A 
ATOM     21  C   LIG    1       24.461 -29.122   5.466  0.00  0.00    +0.003 A 
ATOM     22  C   LIG    1       24.039 -30.221   6.233  0.00  0.00    +0.000 A 
ATOM     23  C   LIG    1       24.421 -30.337   7.567  0.00  0.00    +0.000 A 
ATOM     24  C   LIG    1       25.167 -29.319   8.154  0.00  0.00    +0.000 A 
ATOM     25  C   LIG    1       25.581 -28.218   7.392  0.00  0.00    +0.003 A 
ENDBRANCH  19  20
ENDBRANCH  18  19
ENDBRANCH   4  18
TORSDOF 6
ENDMDL
MODEL 3
REMARK VINA RESULT:      -7.8      2.698      7.837
REMARK  Name = *****
REMARK                            x       y       z     vdW  Elec       q    Type
REMARK                         _______ _______ _______ _____ _____    ______ ____
ROOT
ATOM      1  C   LIG    1       24.340 -22.206   7.512  0.00  0.00    +0.084 C 
ATOM      2  C   LIG    1       23.189 -23.117   7.037  0.00  0.00    +0.038 C 
ATOM      3  C   LIG    1       23.602 -23.992   5.844  0.00  0.00    +0.086 C 
ATOM      4  N   LIG    1       24.729 -24.892   6.139  0.00  0.00    -0.302 NA
ATOM      5  C   LIG    1       25.847 -24.167   6.789  0.00  0.00    +0.086 C 
ATOM      6  C   LIG    1       25.486 -23.155   7.889  0.00  0.00    +0.038 C 
ENDROOT
BRANCH   1   8
ATOM      7  C   LIG    1       23.670 -20.519   5.673  0.00  0.00    +0.220 C 
ATOM      8  N   LIG    1       24.609 -21.048   6.575  0.00  0.00    -0.268 N 
ATOM      9  O   LIG    1       22.487 -20.902   5.615  0.00  0.00    -0.275 OA
BRANCH   8  10
ATOM     10  C   LIG    1       25.967 -20.581   6.559  0.00  0.00    +0.037 A 
ATOM     11  C   LIG    1       26.628 -20.307   5.354  0.00  0.00    +0.023 A 
ATOM     12  C   LIG    1       27.944 -19.829   5.361  0.00  0.00    +0.002 A 
ATOM     13  C   LIG    1       28.619 -19.655   6.568  0.00  0.00    +0.000 A 
ATOM     14  C   LIG    1       27.978 -19.948   7.769  0.00  0.00    +0.002 A 
ATOM     15  C   LIG    1       26.655 -20.400   7.765  0.00  0.00    +0.023 A 
ENDBRANCH   8  10
BRANCH   7  17
ATOM     16  C   LIG    1       22.937 -18.701   4.034  0.00  0.00    +0.013 C 
ATOM     17  C   LIG    1       24.106 -19.416   4.705  0.00  0.00    +0.093 C 
ENDBRANCH   7  17
ENDBRANCH   1   8
BRANCH   4  18
ATOM     18  C   LIG    1       25.279 -25.543   4.896  0.00  0.00    +0.089 C 
BRANCH  18  19
ATOM     19  C   LIG    1       26.005 -26.897   5.049  0.00  0.00    +0.050 C 
BRANCH  19  20
ATOM     20  C   LIG    1       25.328 -27.933   5.947  0.00  0.00    -0.046 A 
ATOM     21  C   LIG    1       24.432 -28.887   5.435  0.00  0.00    +0.003 A 
ATOM     22  C   LIG    1       24.000 -29.965   6.226  0.00  0.00    +0.000 A 
ATOM     23  C   LIG    1       24.444 -30.099   7.539  0.00  0.00    +0.000 A 
ATOM     24  C   LIG    1       25.267 -29.117   8.084  0.00  0.00    +0.000 A 
ATOM     25  C   LIG    1       25.692 -28.036   7.300  0.00  0.00    +0.003 A 
ENDBRANCH  19  20
ENDBRANCH  18  19
ENDBRANCH   4  18
TORSDOF 6
ENDMDL
MODEL 4
REMARK VINA RESULT:      -7.7      1.460      2.965
REMARK  Name = *****
REMARK                            x       y       z     vdW  Elec       q    Type
REMARK                         _______ _______ _______ _____ _____    ______ ____
ROOT
ATOM      1  C   LIG    1       25.233 -22.153   8.375  0.00  0.00    +0.084 C 
ATOM      2  C   LIG    1       26.565 -22.906   8.184  0.00  0.00    +0.038 C 
ATOM      3  C   LIG    1       27.548 -22.124   7.299  0.00  0.00    +0.086 C 
ATOM      4  N   LIG    1       27.909 -20.806   7.847  0.00  0.00    -0.302 NA
ATOM      5  C   LIG    1       26.707 -20.043   8.260  0.00  0.00    +0.086 C 
ATOM      6  C   LIG    1       25.610 -20.809   9.015  0.00  0.00    +0.038 C 
ENDROOT
BRANCH   1   8
ATOM      7  C   LIG    1       23.461 -21.147   6.787  0.00  0.00    +0.220 C 
ATOM      8  N   LIG    1       24.356 -22.170   7.141  0.00  0.00    -0.268 N 
ATOM      9  O   LIG    1       23.360 -20.077   7.417  0.00  0.00    -0.275 OA
BRANCH   8  10
ATOM     10  C   LIG    1       24.391 -23.391   6.387  0.00  0.00    +0.037 A 
ATOM     11  C   LIG    1       24.995 -23.448   5.123  0.00  0.00    +0.023 A 
ATOM     12  C   LIG    1       25.041 -24.654   4.414  0.00  0.00    +0.002 A 
ATOM     13  C   LIG    1       24.455 -25.802   4.947  0.00  0.00    +0.000 A 
ATOM     14  C   LIG    1       23.832 -25.749   6.191  0.00  0.00    +0.002 A 
ATOM     15  C   LIG    1       23.809 -24.552   6.912  0.00  0.00    +0.023 A 
ENDBRANCH   8  10
BRANCH   7  17
ATOM     16  C   LIG    1       22.239 -20.037   4.836  0.00  0.00    +0.013 C 
ATOM     17  C   LIG    1       22.554 -21.338   5.568  0.00  0.00    +0.093 C 
ENDBRANCH   7  17
ENDBRANCH   1   8
BRANCH   4  18
ATOM     18  C   LIG    1       28.658 -19.961   6.849  0.00  0.00    +0.089 C 
BRANCH  18  19
ATOM     19  C   LIG    1       30.183 -19.803   7.033  0.00  0.00    +0.050 C 
BRANCH  19  20
ATOM     20  C   LIG    1       30.638 -18.851   8.140  0.00  0.00    -0.046 A 
ATOM     21  C   LIG    1       31.945 -18.338   8.186  0.00  0.00    +0.003 A 
ATOM     22  C   LIG    1       32.279 -17.297   9.069  0.00  0.00    +0.000 A 
ATOM     23  C   LIG    1       31.318 -16.763   9.923  0.00  0.00    +0.000 A 
ATOM     24  C   LIG    1       30.041 -17.316   9.945  0.00  0.00    +0.000 A 
ATOM     25  C   LIG    1       29.709 -18.361   9.073  0.00  0.00    +0.003 A 
ENDBRANCH  19  20
ENDBRANCH  18  19
ENDBRANCH   4  18
TORSDOF 6
ENDMDL
MODEL 5
REMARK VINA RESULT:      -7.2      6.609      9.950
REMARK  Name = *****
REMARK                            x       y       z     vdW  Elec       q    Type
REMARK                         _______ _______ _______ _____ _____    ______ ____
ROOT
ATOM      1  C   LIG    1       25.730 -30.228  10.270  0.00  0.00    +0.084 C 
ATOM      2  C   LIG    1       25.204 -30.851   8.961  0.00  0.00    +0.038 C 
ATOM      3  C   LIG    1       24.631 -29.791   8.008  0.00  0.00    +0.086 C 
ATOM      4  N   LIG    1       25.616 -28.775   7.600  0.00  0.00    -0.302 NA
ATOM      5  C   LIG    1       26.344 -28.226   8.769  0.00  0.00    +0.086 C 
ATOM      6  C   LIG    1       26.809 -29.223   9.842  0.00  0.00    +0.038 C 
ENDROOT
BRANCH   1   8
ATOM      7  C   LIG    1       24.731 -28.711  12.109  0.00  0.00    +0.220 C 
ATOM      8  N   LIG    1       24.625 -29.781  11.203  0.00  0.00    -0.268 N 
ATOM      9  O   LIG    1       25.728 -27.967  12.174  0.00  0.00    -0.275 OA
BRANCH   8  10
ATOM     10  C   LIG    1       23.459 -30.619  11.210  0.00  0.00    +0.037 A 
ATOM     11  C   LIG    1       23.474 -31.881  11.819  0.00  0.00    +0.023 A 
ATOM     12  C   LIG    1       22.320 -32.673  11.837  0.00  0.00    +0.002 A 
ATOM     13  C   LIG    1       21.154 -32.225  11.217  0.00  0.00    +0.000 A 
ATOM     14  C   LIG    1       21.137 -30.982  10.590  0.00  0.00    +0.002 A 
ATOM     15  C   LIG    1       22.281 -30.179  10.594  0.00  0.00    +0.023 A 
ENDBRANCH   8  10
BRANCH   7  17
ATOM     16  C   LIG    1       23.302 -26.945  13.276  0.00  0.00    +0.013 C 
ATOM     17  C   LIG    1       23.574 -28.432  13.072  0.00  0.00    +0.093 C 
ENDBRANCH   7  17
ENDBRANCH   1   8
BRANCH   4  18
ATOM     18  C   LIG    1       24.974 -27.614   6.885  0.00  0.00    +0.089 C 
BRANCH  18  19
ATOM     19  C   LIG    1       25.857 -26.392   6.551  0.00  0.00    +0.050 C 
BRANCH  19  20
ATOM     20  C   LIG    1       25.178 -25.023   6.627  0.00  0.00    -0.046 A 
ATOM     21  C   LIG    1       23.803 -24.862   6.392  0.00  0.00    +0.003 A 
ATOM     22  C   LIG    1       23.159 -23.649   6.687  0.00  0.00    +0.000 A 
ATOM     23  C   LIG    1       23.881 -22.577   7.207  0.00  0.00    +0.000 A 
ATOM     24  C   LIG    1       25.258 -22.695   7.367  0.00  0.00    +0.000 A 
ATOM     25  C   LIG    1       25.903 -23.902   7.065  0.00  0.00    +0.003 A 
ENDBRANCH  19  20
ENDBRANCH  18  19
ENDBRANCH   4  18
TORSDOF 6
ENDMDL
MODEL 6
REMARK VINA RESULT:      -6.9      1.872      2.952
REMARK  Name = *****
REMARK                            x       y       z     vdW  Elec       q    Type
REMARK                         _______ _______ _______ _____ _____    ______ ____
ROOT
ATOM      1  C   LIG    1       27.787 -21.422   6.733  0.00  0.00    +0.084 C 
ATOM      2  C   LIG    1       28.626 -20.649   5.695  0.00  0.00    +0.038 C 
ATOM      3  C   LIG    1       28.997 -19.242   6.186  0.00  0.00    +0.086 C 
ATOM      4  N   LIG    1       29.795 -19.244   7.423  0.00  0.00    -0.302 NA
ATOM      5  C   LIG    1       29.193 -20.120   8.456  0.00  0.00    +0.086 C 
ATOM      6  C   LIG    1       28.656 -21.486   7.997  0.00  0.00    +0.038 C 
ENDROOT
BRANCH   1   8
ATOM      7  C   LIG    1       25.654 -20.776   8.040  0.00  0.00    +0.220 C 
ATOM      8  N   LIG    1       26.360 -20.927   6.835  0.00  0.00    -0.268 N 
ATOM      9  O   LIG    1       26.167 -20.960   9.160  0.00  0.00    -0.275 OA
BRANCH   8  10
ATOM     10  C   LIG    1       25.693 -20.732   5.578  0.00  0.00    +0.037 A 
ATOM     11  C   LIG    1       24.927 -21.752   4.997  0.00  0.00    +0.023 A 
ATOM     12  C   LIG    1       24.264 -21.535   3.783  0.00  0.00    +0.002 A 
ATOM     13  C   LIG    1       24.389 -20.311   3.126  0.00  0.00    +0.000 A 
ATOM     14  C   LIG    1       25.168 -19.301   3.685  0.00  0.00    +0.002 A 
ATOM     15  C   LIG    1       25.809 -19.507   4.910  0.00  0.00    +0.023 A 
ENDBRANCH   8  10
BRANCH   7  17
ATOM     16  C   LIG    1       23.230 -21.544   7.790  0.00  0.00    +0.013 C 
ATOM     17  C   LIG    1       24.179 -20.368   7.994  0.00  0.00    +0.093 C 
ENDBRANCH   7  17
ENDBRANCH   1   8
BRANCH   4  18
ATOM     18  C   LIG    1       29.923 -17.866   8.022  0.00  0.00    +0.089 C 
BRANCH  18  19
ATOM     19  C   LIG    1       29.823 -17.732   9.557  0.00  0.00    +0.050 C 
BRANCH  19  20
ATOM     20  C   LIG    1       31.039 -17.135  10.267  0.00  0.00    -0.046 A 
ATOM     21  C   LIG    1       32.000 -16.374   9.581  0.00  0.00    +0.003 A 
ATOM     22  C   LIG    1       32.978 -15.649  10.282  0.00  0.00    +0.000 A 
ATOM     23  C   LIG    1       33.018 -15.683  11.673  0.00  0.00    +0.000 A 
ATOM     24  C   LIG    1       32.124 -16.497  12.362  0.00  0.00    +0.000 A 
ATOM     25  C   LIG    1       31.153 -17.228  11.664  0.00  0.00    +0.003 A 
ENDBRANCH  19  20
ENDBRANCH  18  19
ENDBRANCH   4  18
TORSDOF 6
ENDMDL
MODEL 7
REMARK VINA RESULT:      -6.7      6.964     10.837
REMARK  Name = *****
REMARK                            x       y       z     vdW  Elec       q    Type
REMARK                         _______ _______ _______ _____ _____    ______ ____
ROOT
ATOM      1  C   LIG    1       24.654 -33.015   8.027  0.00  0.00    +0.084 C 
ATOM      2  C   LIG    1       23.636 -32.826   6.883  0.00  0.00    +0.038 C 
ATOM      3  C   LIG    1       23.836 -31.491   6.149  0.00  0.00    +0.086 C 
ATOM      4  N   LIG    1       25.165 -31.356   5.529  0.00  0.00    -0.302 NA
ATOM      5  C   LIG    1       26.246 -31.705   6.482  0.00  0.00    +0.086 C 
ATOM      6  C   LIG    1       26.036 -32.947   7.362  0.00  0.00    +0.038 C 
ENDROOT
BRANCH   1   8
ATOM      7  C   LIG    1       23.247 -32.297  10.072  0.00  0.00    +0.220 C 
ATOM      8  N   LIG    1       24.364 -32.146   9.232  0.00  0.00    -0.268 N 
ATOM      9  O   LIG    1       22.423 -33.223   9.953  0.00  0.00    -0.275 OA
BRANCH   8  10
ATOM     10  C   LIG    1       25.253 -31.033   9.408  0.00  0.00    +0.037 A 
ATOM     11  C   LIG    1       26.421 -31.150  10.174  0.00  0.00    +0.023 A 
ATOM     12  C   LIG    1       27.289 -30.060  10.314  0.00  0.00    +0.002 A 
ATOM     13  C   LIG    1       26.979 -28.838   9.718  0.00  0.00    +0.000 A 
ATOM     14  C   LIG    1       25.809 -28.707   8.974  0.00  0.00    +0.002 A 
ATOM     15  C   LIG    1       24.955 -29.801   8.812  0.00  0.00    +0.023 A 
ENDBRANCH   8  10
BRANCH   7  17
ATOM     16  C   LIG    1       21.875 -30.311  10.910  0.00  0.00    +0.013 C 
ATOM     17  C   LIG    1       23.017 -31.283  11.196  0.00  0.00    +0.093 C 
ENDBRANCH   7  17
ENDBRANCH   1   8
BRANCH   4  18
ATOM     18  C   LIG    1       25.428 -29.953   5.046  0.00  0.00    +0.089 C 
BRANCH  18  19
ATOM     19  C   LIG    1       24.340 -28.885   5.295  0.00  0.00    +0.050 C 
BRANCH  19  20
ATOM     20  C   LIG    1       24.834 -27.466   5.582  0.00  0.00    -0.046 A 
ATOM     21  C   LIG    1       23.952 -26.428   5.924  0.00  0.00    +0.003 A 
ATOM     22  C   LIG    1       24.437 -25.199   6.402  0.00  0.00    +0.000 A 
ATOM     23  C   LIG    1       25.807 -24.986   6.533  0.00  0.00    +0.000 A 
ATOM     24  C   LIG    1       26.694 -25.976   6.119  0.00  0.00    +0.000 A 
ATOM     25  C   LIG    1       26.212 -27.198   5.634  0.00  0.00    +0.003 A 
ENDBRANCH  19  20
ENDBRANCH  18  19
ENDBRANCH   4  18
TORSDOF 6
ENDMDL
MODEL 8
REMARK VINA RESULT:      -6.6      2.366      7.931
REMARK  Name = *****
REMARK                            x       y       z     vdW  Elec       q    Type
REMARK                         _______ _______ _______ _____ _____    ______ ____
ROOT
ATOM      1  C   LIG    1       26.088 -20.633   7.966  0.00  0.00    +0.084 C 
ATOM      2  C   LIG    1       24.744 -20.667   7.210  0.00  0.00    +0.038 C 
ATOM      3  C   LIG    1       24.667 -21.842   6.224  0.00  0.00    +0.086 C 
ATOM      4  N   LIG    1       24.796 -23.159   6.869  0.00  0.00    -0.302 NA
ATOM      5  C   LIG    1       25.957 -23.200   7.789  0.00  0.00    +0.086 C 
ATOM      6  C   LIG    1       26.182 -21.980   8.697  0.00  0.00    +0.038 C 
ENDROOT
BRANCH   1   8
ATOM      7  C   LIG    1       27.145 -19.863   5.737  0.00  0.00    +0.220 C 
ATOM      8  N   LIG    1       27.244 -20.171   7.105  0.00  0.00    -0.268 N 
ATOM      9  O   LIG    1       26.067 -19.861   5.114  0.00  0.00    -0.275 OA
BRANCH   8  10
ATOM     10  C   LIG    1       28.527 -20.187   7.749  0.00  0.00    +0.037 A 
ATOM     11  C   LIG    1       29.271 -21.371   7.860  0.00  0.00    +0.023 A 
ATOM     12  C   LIG    1       30.530 -21.361   8.471  0.00  0.00    +0.002 A 
ATOM     13  C   LIG    1       31.040 -20.178   9.004  0.00  0.00    +0.000 A 
ATOM     14  C   LIG    1       30.298 -19.003   8.919  0.00  0.00    +0.002 A 
ATOM     15  C   LIG    1       29.052 -19.006   8.287  0.00  0.00    +0.023 A 
ENDBRANCH   8  10
BRANCH   7  17
ATOM     16  C   LIG    1       28.752 -18.022   4.991  0.00  0.00    +0.013 C 
ATOM     17  C   LIG    1       28.415 -19.509   4.958  0.00  0.00    +0.093 C 
ENDBRANCH   7  17
ENDBRANCH   1   8
BRANCH   4  18
ATOM     18  C   LIG    1       24.977 -24.269   5.866  0.00  0.00    +0.089 C 
BRANCH  18  19
ATOM     19  C   LIG    1       26.097 -25.301   6.123  0.00  0.00    +0.050 C 
BRANCH  19  20
ATOM     20  C   LIG    1       25.661 -26.762   6.238  0.00  0.00    -0.046 A 
ATOM     21  C   LIG    1       25.834 -27.497   7.423  0.00  0.00    +0.003 A 
ATOM     22  C   LIG    1       25.227 -28.754   7.585  0.00  0.00    +0.000 A 
ATOM     23  C   LIG    1       24.452 -29.299   6.565  0.00  0.00    +0.000 A 
ATOM     24  C   LIG    1       24.340 -28.619   5.356  0.00  0.00    +0.000 A 
ATOM     25  C   LIG    1       24.952 -27.370   5.189  0.00  0.00    +0.003 A 
ENDBRANCH  19  20
ENDBRANCH  18  19
ENDBRANCH   4  18
TORSDOF 6
ENDMDL
MODEL 9
REMARK VINA RESULT:      -6.6      3.001      5.821
REMARK  Name = *****
REMARK                            x       y       z     vdW  Elec       q    Type
REMARK                         _______ _______ _______ _____ _____    ______ ____
ROOT
ATOM      1  C   LIG    1       22.962 -22.523   6.989  0.00  0.00    +0.084 C 
ATOM      2  C   LIG    1       23.006 -21.123   7.636  0.00  0.00    +0.038 C 
ATOM      3  C   LIG    1       23.389 -20.033   6.624  0.00  0.00    +0.086 C 
ATOM      4  N   LIG    1       22.451 -19.924   5.495  0.00  0.00    -0.302 NA
ATOM      5  C   LIG    1       22.165 -21.249   4.897  0.00  0.00    +0.086 C 
ATOM      6  C   LIG    1       21.926 -22.422   5.861  0.00  0.00    +0.038 C 
ENDROOT
BRANCH   1   8
ATOM      7  C   LIG    1       24.597 -24.433   6.392  0.00  0.00    +0.220 C 
ATOM      8  N   LIG    1       24.336 -23.085   6.691  0.00  0.00    -0.268 N 
ATOM      9  O   LIG    1       23.702 -25.290   6.261  0.00  0.00    -0.275 OA
BRANCH   8  10
ATOM     10  C   LIG    1       25.421 -22.160   6.861  0.00  0.00    +0.037 A 
ATOM     11  C   LIG    1       25.883 -21.378   5.794  0.00  0.00    +0.023 A 
ATOM     12  C   LIG    1       26.927 -20.464   5.986  0.00  0.00    +0.002 A 
ATOM     13  C   LIG    1       27.537 -20.351   7.235  0.00  0.00    +0.000 A 
ATOM     14  C   LIG    1       27.099 -21.142   8.294  0.00  0.00    +0.002 A 
ATOM     15  C   LIG    1       26.041 -22.035   8.111  0.00  0.00    +0.023 A 
ENDBRANCH   8  10
BRANCH   7  17
ATOM     16  C   LIG    1       26.216 -26.405   6.273  0.00  0.00    +0.013 C 
ATOM     17  C   LIG    1       26.047 -24.890   6.214  0.00  0.00    +0.093 C 
ENDBRANCH   7  17
ENDBRANCH   1   8
BRANCH   4  18
ATOM     18  C   LIG    1       22.981 -19.039   4.396  0.00  0.00    +0.089 C 
BRANCH  18  19
ATOM     19  C   LIG    1       22.464 -17.586   4.324  0.00  0.00    +0.050 C 
BRANCH  19  20
ATOM     20  C   LIG    1       23.528 -16.491   4.216  0.00  0.00    -0.046 A 
ATOM     21  C   LIG    1       24.799 -16.743   3.675  0.00  0.00    +0.003 A 
ATOM     22  C   LIG    1       25.676 -15.686   3.376  0.00  0.00    +0.000 A 
ATOM     23  C   LIG    1       25.301 -14.368   3.624  0.00  0.00    +0.000 A 
ATOM     24  C   LIG    1       24.078 -14.110   4.236  0.00  0.00    +0.000 A 
ATOM     25  C   LIG    1       23.206 -15.164   4.543  0.00  0.00    +0.003 A 
ENDBRANCH  19  20
ENDBRANCH  18  19
ENDBRANCH   4  18
TORSDOF 6
ENDMDL
