MODEL 1
REMARK VINA RESULT:      -5.8      0.000      0.000
REMARK  Name = *****
REMARK                            x       y       z     vdW  Elec       q    Type
REMARK                         _______ _______ _______ _____ _____    ______ ____
ROOT
ATOM      1  C   LIG    1       26.670 -21.007   6.492  0.00  0.00    +0.223 A 
ATOM      2  N   LIG    1       25.842 -20.295   5.734  0.00  0.00    -0.181 NA
ATOM      3  C   LIG    1       24.724 -20.879   5.332  0.00  0.00    +0.223 A 
ATOM      4  N   LIG    1       24.399 -22.113   5.687  0.00  0.00    -0.181 NA
ATOM      5  C   LIG    1       25.238 -22.765   6.485  0.00  0.00    +0.223 A 
ATOM      6  N   LIG    1       26.392 -22.243   6.893  0.00  0.00    -0.181 NA
ENDROOT
BRANCH   1   8
ATOM      7  C   LIG    1       28.743 -21.284   7.663  0.00  0.00    +0.132 C 
ATOM      8  N   LIG    1       27.877 -20.412   6.885  0.00  0.00    -0.306 N 
ATOM      9  C   LIG    1       28.517 -19.631   5.836  0.00  0.00    +0.132 C 
ENDBRANCH   1   8
BRANCH   3  10
ATOM     10  N   LIG    1       23.846 -20.161   4.509  0.00  0.00    -0.306 N 
ATOM     11  C   LIG    1       22.638 -19.707   5.178  0.00  0.00    +0.132 C 
ATOM     12  C   LIG    1       24.512 -19.201   3.640  0.00  0.00    +0.132 C 
ENDBRANCH   3  10
BRANCH   5  13
ATOM     13  N   LIG    1       24.902 -24.071   6.870  0.00  0.00    -0.306 N 
ATOM     14  C   LIG    1       25.910 -25.060   6.515  0.00  0.00    +0.132 C 
ATOM     15  C   LIG    1       23.518 -24.434   6.608  0.00  0.00    +0.132 C 
ENDBRANCH   5  13
TORSDOF 3
ENDMDL
MODEL 2
REMARK VINA RESULT:      -5.7      0.021      3.795
REMARK  Name = *****
REMARK                            x       y       z     vdW  Elec       q    Type
REMARK                         _______ _______ _______ _____ _____    ______ ____
ROOT
ATOM      1  C   LIG    1       25.251 -22.777   6.462  0.00  0.00    +0.223 A 
ATOM      2  N   LIG    1       24.405 -22.124   5.671  0.00  0.00    -0.181 NA
ATOM      3  C   LIG    1       24.716 -20.882   5.334  0.00  0.00    +0.223 A 
ATOM      4  N   LIG    1       25.838 -20.299   5.724  0.00  0.00    -0.181 NA
ATOM      5  C   LIG    1       26.672 -21.010   6.476  0.00  0.00    +0.223 A 
ATOM      6  N   LIG    1       26.399 -22.249   6.875  0.00  0.00    -0.181 NA
ENDROOT
BRANCH   1   8
ATOM      7  C   LIG    1       23.521 -24.429   6.609  0.00  0.00    +0.132 C 
ATOM      8  N   LIG    1       24.909 -24.076   6.861  0.00  0.00    -0.306 N 
ATOM      9  C   LIG    1       25.906 -25.079   6.515  0.00  0.00    +0.132 C 
ENDBRANCH   1   8
BRANCH   3  10
ATOM     10  N   LIG    1       23.829 -20.162   4.522  0.00  0.00    -0.306 N 
ATOM     11  C   LIG    1       22.631 -19.706   5.206  0.00  0.00    +0.132 C 
ATOM     12  C   LIG    1       24.486 -19.203   3.645  0.00  0.00    +0.132 C 
ENDBRANCH   3  10
BRANCH   5  13
ATOM     13  N   LIG    1       27.865 -20.403   6.893  0.00  0.00    -0.306 N 
ATOM     14  C   LIG    1       28.514 -19.617   5.853  0.00  0.00    +0.132 C 
ATOM     15  C   LIG    1       28.729 -21.263   7.687  0.00  0.00    +0.132 C 
ENDBRANCH   5  13
TORSDOF 3
ENDMDL
MODEL 3
REMARK VINA RESULT:      -5.7      0.083      3.643
REMARK  Name = *****
REMARK                            x       y       z     vdW  Elec       q    Type
REMARK                         _______ _______ _______ _____ _____    ______ ____
ROOT
ATOM      1  C   LIG    1       24.662 -20.871   5.264  0.00  0.00    +0.223 A 
ATOM      2  N   LIG    1       25.808 -20.304   5.625  0.00  0.00    -0.181 NA
ATOM      3  C   LIG    1       26.604 -20.990   6.430  0.00  0.00    +0.223 A 
ATOM      4  N   LIG    1       26.313 -22.213   6.846  0.00  0.00    -0.181 NA
ATOM      5  C   LIG    1       25.177 -22.754   6.417  0.00  0.00    +0.223 A 
ATOM      6  N   LIG    1       24.321 -22.101   5.637  0.00  0.00    -0.181 NA
ENDROOT
BRANCH   1   8
ATOM      7  C   LIG    1       22.569 -19.712   5.113  0.00  0.00    +0.132 C 
ATOM      8  N   LIG    1       23.792 -20.134   4.448  0.00  0.00    -0.306 N 
ATOM      9  C   LIG    1       24.460 -19.137   3.625  0.00  0.00    +0.132 C 
ENDBRANCH   1   8
BRANCH   3  10
ATOM     10  N   LIG    1       27.807 -20.405   6.849  0.00  0.00    -0.306 N 
ATOM     11  C   LIG    1       28.647 -21.276   7.654  0.00  0.00    +0.132 C 
ATOM     12  C   LIG    1       28.474 -19.631   5.810  0.00  0.00    +0.132 C 
ENDBRANCH   3  10
BRANCH   5  13
ATOM     13  N   LIG    1       24.860 -24.050   6.849  0.00  0.00    -0.306 N 
ATOM     14  C   LIG    1       25.879 -25.038   6.523  0.00  0.00    +0.132 C 
ATOM     15  C   LIG    1       23.480 -24.440   6.607  0.00  0.00    +0.132 C 
ENDBRANCH   5  13
TORSDOF 3
ENDMDL
MODEL 4
REMARK VINA RESULT:      -5.7      0.059      4.545
REMARK  Name = *****
REMARK                            x       y       z     vdW  Elec       q    Type
REMARK                         _______ _______ _______ _____ _____    ______ ____
ROOT
ATOM      1  C   LIG    1       25.185 -22.745   6.450  0.00  0.00    +0.223 A 
ATOM      2  N   LIG    1       26.324 -22.209   6.876  0.00  0.00    -0.181 NA
ATOM      3  C   LIG    1       26.622 -20.989   6.457  0.00  0.00    +0.223 A 
ATOM      4  N   LIG    1       25.817 -20.290   5.671  0.00  0.00    -0.181 NA
ATOM      5  C   LIG    1       24.668 -20.853   5.312  0.00  0.00    +0.223 A 
ATOM      6  N   LIG    1       24.330 -22.087   5.673  0.00  0.00    -0.181 NA
ENDROOT
BRANCH   1   8
ATOM      7  C   LIG    1       23.504 -24.445   6.606  0.00  0.00    +0.132 C 
ATOM      8  N   LIG    1       24.882 -24.053   6.853  0.00  0.00    -0.306 N 
ATOM      9  C   LIG    1       25.906 -25.027   6.506  0.00  0.00    +0.132 C 
ENDBRANCH   1   8
BRANCH   3  10
ATOM     10  N   LIG    1       27.831 -20.411   6.868  0.00  0.00    -0.306 N 
ATOM     11  C   LIG    1       28.671 -21.288   7.667  0.00  0.00    +0.132 C 
ATOM     12  C   LIG    1       28.496 -19.640   5.826  0.00  0.00    +0.132 C 
ENDBRANCH   3  10
BRANCH   5  13
ATOM     13  N   LIG    1       23.807 -20.121   4.483  0.00  0.00    -0.306 N 
ATOM     14  C   LIG    1       24.495 -19.167   3.624  0.00  0.00    +0.132 C 
ATOM     15  C   LIG    1       22.603 -19.642   5.144  0.00  0.00    +0.132 C 
ENDBRANCH   5  13
TORSDOF 3
ENDMDL
MODEL 5
REMARK VINA RESULT:      -5.7      0.044      3.695
REMARK  Name = *****
REMARK                            x       y       z     vdW  Elec       q    Type
REMARK                         _______ _______ _______ _____ _____    ______ ____
ROOT
ATOM      1  C   LIG    1       26.664 -20.994   6.480  0.00  0.00    +0.223 A 
ATOM      2  N   LIG    1       26.383 -22.237   6.855  0.00  0.00    -0.181 NA
ATOM      3  C   LIG    1       25.224 -22.747   6.467  0.00  0.00    +0.223 A 
ATOM      4  N   LIG    1       24.374 -22.079   5.702  0.00  0.00    -0.181 NA
ATOM      5  C   LIG    1       24.724 -20.857   5.315  0.00  0.00    +0.223 A 
ATOM      6  N   LIG    1       25.858 -20.280   5.701  0.00  0.00    -0.181 NA
ENDROOT
BRANCH   1   8
ATOM      7  C   LIG    1       28.689 -21.329   7.720  0.00  0.00    +0.132 C 
ATOM      8  N   LIG    1       27.869 -20.429   6.924  0.00  0.00    -0.306 N 
ATOM      9  C   LIG    1       28.561 -19.648   5.908  0.00  0.00    +0.132 C 
ENDBRANCH   1   8
BRANCH   3  10
ATOM     10  N   LIG    1       24.890 -24.046   6.871  0.00  0.00    -0.306 N 
ATOM     11  C   LIG    1       23.505 -24.410   6.625  0.00  0.00    +0.132 C 
ATOM     12  C   LIG    1       25.898 -25.042   6.531  0.00  0.00    +0.132 C 
ENDBRANCH   3  10
BRANCH   5  13
ATOM     13  N   LIG    1       23.833 -20.142   4.503  0.00  0.00    -0.306 N 
ATOM     14  C   LIG    1       24.485 -19.171   3.635  0.00  0.00    +0.132 C 
ATOM     15  C   LIG    1       22.629 -19.694   5.185  0.00  0.00    +0.132 C 
ENDBRANCH   5  13
TORSDOF 3
ENDMDL
MODEL 6
REMARK VINA RESULT:      -5.7      0.060      4.538
REMARK  Name = *****
REMARK                            x       y       z     vdW  Elec       q    Type
REMARK                         _______ _______ _______ _____ _____    ______ ____
ROOT
ATOM      1  C   LIG    1       24.734 -20.838   5.294  0.00  0.00    +0.223 A 
ATOM      2  N   LIG    1       24.381 -22.056   5.689  0.00  0.00    -0.181 NA
ATOM      3  C   LIG    1       25.229 -22.722   6.457  0.00  0.00    +0.223 A 
ATOM      4  N   LIG    1       26.378 -22.204   6.863  0.00  0.00    -0.181 NA
ATOM      5  C   LIG    1       26.664 -20.964   6.478  0.00  0.00    +0.223 A 
ATOM      6  N   LIG    1       25.867 -20.260   5.679  0.00  0.00    -0.181 NA
ENDROOT
BRANCH   1   8
ATOM      7  C   LIG    1       22.617 -19.737   5.074  0.00  0.00    +0.132 C 
ATOM      8  N   LIG    1       23.863 -20.143   4.444  0.00  0.00    -0.306 N 
ATOM      9  C   LIG    1       24.523 -19.147   3.611  0.00  0.00    +0.132 C 
ENDBRANCH   1   8
BRANCH   3  10
ATOM     10  N   LIG    1       24.893 -24.020   6.866  0.00  0.00    -0.306 N 
ATOM     11  C   LIG    1       23.507 -24.383   6.622  0.00  0.00    +0.132 C 
ATOM     12  C   LIG    1       25.899 -25.018   6.529  0.00  0.00    +0.132 C 
ENDBRANCH   3  10
BRANCH   5  13
ATOM     13  N   LIG    1       27.877 -20.405   6.904  0.00  0.00    -0.306 N 
ATOM     14  C   LIG    1       28.560 -19.638   5.872  0.00  0.00    +0.132 C 
ATOM     15  C   LIG    1       28.704 -21.302   7.697  0.00  0.00    +0.132 C 
ENDBRANCH   5  13
TORSDOF 3
ENDMDL
MODEL 7
REMARK VINA RESULT:      -5.6      1.438      4.146
REMARK  Name = *****
REMARK                            x       y       z     vdW  Elec       q    Type
REMARK                         _______ _______ _______ _____ _____    ______ ____
ROOT
ATOM      1  C   LIG    1       26.038 -22.226   6.975  0.00  0.00    +0.223 A 
ATOM      2  N   LIG    1       26.078 -23.540   6.781  0.00  0.00    -0.181 NA
ATOM      3  C   LIG    1       25.342 -24.037   5.798  0.00  0.00    +0.223 A 
ATOM      4  N   LIG    1       24.613 -23.273   5.000  0.00  0.00    -0.181 NA
ATOM      5  C   LIG    1       24.645 -21.960   5.206  0.00  0.00    +0.223 A 
ATOM      6  N   LIG    1       25.337 -21.407   6.198  0.00  0.00    -0.181 NA
ENDROOT
BRANCH   1   8
ATOM      7  C   LIG    1       28.186 -21.488   7.741  0.00  0.00    +0.132 C 
ATOM      8  N   LIG    1       26.779 -21.696   8.041  0.00  0.00    -0.306 N 
ATOM      9  C   LIG    1       26.101 -20.619   8.750  0.00  0.00    +0.132 C 
ENDBRANCH   1   8
BRANCH   3  10
ATOM     10  N   LIG    1       25.344 -25.422   5.589  0.00  0.00    -0.306 N 
ATOM     11  C   LIG    1       26.482 -26.113   6.172  0.00  0.00    +0.132 C 
ATOM     12  C   LIG    1       24.039 -26.043   5.770  0.00  0.00    +0.132 C 
ENDBRANCH   3  10
BRANCH   5  13
ATOM     13  N   LIG    1       23.878 -21.142   4.365  0.00  0.00    -0.306 N 
ATOM     14  C   LIG    1       24.661 -20.137   3.658  0.00  0.00    +0.132 C 
ATOM     15  C   LIG    1       22.624 -20.691   4.947  0.00  0.00    +0.132 C 
ENDBRANCH   5  13
TORSDOF 3
ENDMDL
MODEL 8
REMARK VINA RESULT:      -5.4      1.032      4.744
REMARK  Name = *****
REMARK                            x       y       z     vdW  Elec       q    Type
REMARK                         _______ _______ _______ _____ _____    ______ ____
ROOT
ATOM      1  C   LIG    1       25.582 -22.036   6.400  0.00  0.00    +0.223 A 
ATOM      2  N   LIG    1       26.681 -21.577   6.990  0.00  0.00    -0.181 NA
ATOM      3  C   LIG    1       27.262 -20.513   6.459  0.00  0.00    +0.223 A 
ATOM      4  N   LIG    1       26.768 -19.886   5.402  0.00  0.00    -0.181 NA
ATOM      5  C   LIG    1       25.641 -20.357   4.879  0.00  0.00    +0.223 A 
ATOM      6  N   LIG    1       25.031 -21.442   5.347  0.00  0.00    -0.181 NA
ENDROOT
BRANCH   1   8
ATOM      7  C   LIG    1       23.553 -23.281   6.687  0.00  0.00    +0.132 C 
ATOM      8  N   LIG    1       24.985 -23.190   6.928  0.00  0.00    -0.306 N 
ATOM      9  C   LIG    1       25.757 -24.404   6.711  0.00  0.00    +0.132 C 
ENDBRANCH   1   8
BRANCH   3  10
ATOM     10  N   LIG    1       28.438 -20.024   7.044  0.00  0.00    -0.306 N 
ATOM     11  C   LIG    1       29.200 -21.021   7.776  0.00  0.00    +0.132 C 
ATOM     12  C   LIG    1       29.194 -19.129   6.178  0.00  0.00    +0.132 C 
ENDBRANCH   3  10
BRANCH   5  13
ATOM     13  N   LIG    1       25.108 -19.698   3.761  0.00  0.00    -0.306 N 
ATOM     14  C   LIG    1       25.770 -18.438   3.456  0.00  0.00    +0.132 C 
ATOM     15  C   LIG    1       23.654 -19.695   3.706  0.00  0.00    +0.132 C 
ENDBRANCH   5  13
TORSDOF 3
ENDMDL
MODEL 9
REMARK VINA RESULT:      -5.1      1.449      3.982
REMARK  Name = *****
REMARK                            x       y       z     vdW  Elec       q    Type
REMARK                         _______ _______ _______ _____ _____    ______ ____
ROOT
ATOM      1  C   LIG    1       25.670 -21.555   6.120  0.00  0.00    +0.223 A 
ATOM      2  N   LIG    1       25.082 -20.878   5.139  0.00  0.00    -0.181 NA
ATOM      3  C   LIG    1       25.748 -19.865   4.607  0.00  0.00    +0.223 A 
ATOM      4  N   LIG    1       26.971 -19.538   4.993  0.00  0.00    -0.181 NA
ATOM      5  C   LIG    1       27.534 -20.275   5.946  0.00  0.00    +0.223 A 
ATOM      6  N   LIG    1       26.902 -21.282   6.540  0.00  0.00    -0.181 NA
ENDROOT
BRANCH   1   8
ATOM      7  C   LIG    1       25.792 -23.592   7.377  0.00  0.00    +0.132 C 
ATOM      8  N   LIG    1       24.955 -22.601   6.719  0.00  0.00    -0.306 N 
ATOM      9  C   LIG    1       23.774 -22.163   7.449  0.00  0.00    +0.132 C 
ENDBRANCH   1   8
BRANCH   3  10
ATOM     10  N   LIG    1       25.140 -19.118   3.590  0.00  0.00    -0.306 N 
ATOM     11  C   LIG    1       23.690 -19.065   3.672  0.00  0.00    +0.132 C 
ATOM     12  C   LIG    1       25.824 -17.866   3.295  0.00  0.00    +0.132 C 
ENDBRANCH   3  10
BRANCH   5  13
ATOM     13  N   LIG    1       28.831 -19.939   6.360  0.00  0.00    -0.306 N 
ATOM     14  C   LIG    1       29.066 -20.164   7.779  0.00  0.00    +0.132 C 
ATOM     15  C   LIG    1       29.328 -18.686   5.813  0.00  0.00    +0.132 C 
ENDBRANCH   5  13
TORSDOF 3
ENDMDL
