MODEL 1
REMARK VINA RESULT:      -9.1      0.000      0.000
REMARK  Name = *****
REMARK                            x       y       z     vdW  Elec       q    Type
REMARK                         _______ _______ _______ _____ _____    ______ ____
ROOT
ATOM      1  C   LIG    1       24.944 -21.376   6.499  0.00  0.00    +0.095 C 
ATOM      2  C   LIG    1       24.841 -20.855   7.965  0.00  0.00    +0.038 C 
ATOM      3  C   LIG    1       25.838 -21.496   8.932  0.00  0.00    +0.086 C 
ATOM      4  N   LIG    1       27.225 -21.398   8.480  0.00  0.00    -0.302 NA
ATOM      5  C   LIG    1       27.347 -22.099   7.195  0.00  0.00    +0.086 C 
ATOM      6  C   LIG    1       26.440 -21.535   6.099  0.00  0.00    +0.038 C 
ENDROOT
BRANCH   1   7
ATOM      7  C   LIG    1       24.242 -20.401   5.498  0.00  0.00    -0.030 A 
ATOM      8  C   LIG    1       24.908 -19.868   4.378  0.00  0.00    +0.005 A 
ATOM      9  C   LIG    1       24.270 -18.977   3.504  0.00  0.00    +0.000 A 
ATOM     10  C   LIG    1       22.959 -18.580   3.740  0.00  0.00    +0.000 A 
ATOM     11  C   LIG    1       22.272 -19.100   4.829  0.00  0.00    +0.000 A 
ATOM     12  C   LIG    1       22.903 -20.001   5.692  0.00  0.00    +0.005 A 
ENDBRANCH   1   7
BRANCH   1  13
ATOM     13  C   LIG    1       24.254 -22.776   6.430  0.00  0.00    +0.318 C 
ATOM     14  O   LIG    1       23.285 -23.121   7.112  0.00  0.00    -0.250 OA
BRANCH  13  15
ATOM     15  O   LIG    1       24.833 -23.553   5.463  0.00  0.00    -0.464 OA
BRANCH  15  17
ATOM     16  C   LIG    1       25.903 -25.448   6.522  0.00  0.00    +0.048 C 
ATOM     17  C   LIG    1       24.761 -24.974   5.640  0.00  0.00    +0.229 C 
ENDBRANCH  15  17
ENDBRANCH  13  15
ENDBRANCH   1  13
BRANCH   4  18
ATOM     18  C   LIG    1       27.754 -20.020   8.406  0.00  0.00    +0.089 C 
BRANCH  18  19
ATOM     19  C   LIG    1       29.025 -19.842   7.546  0.00  0.00    +0.050 C 
BRANCH  19  20
ATOM     20  C   LIG    1       30.020 -18.967   8.274  0.00  0.00    -0.046 A 
ATOM     21  C   LIG    1       31.353 -18.908   7.858  0.00  0.00    +0.005 A 
ATOM     22  C   LIG    1       32.214 -17.944   8.387  0.00  0.00    +0.023 A 
ATOM     23  C   LIG    1       31.749 -17.006   9.311  0.00  0.00    +0.025 A 
ATOM     24  C   LIG    1       30.468 -17.168   9.840  0.00  0.00    +0.023 A 
ATOM     25  C   LIG    1       29.597 -18.122   9.308  0.00  0.00    +0.005 A 
BRANCH  23  26
ATOM     26  N   LIG    1       32.618 -16.044   9.842  0.00  0.00    -0.358 N 
ATOM     27  H   LIG    1       33.168 -15.580   9.124  0.00  0.00    +0.142 HD
ATOM     28  H   LIG    1       32.141 -15.371  10.436  0.00  0.00    +0.142 HD
ENDBRANCH  23  26
ENDBRANCH  19  20
ENDBRANCH  18  19
ENDBRANCH   4  18
TORSDOF 8
ENDMDL
MODEL 2
REMARK VINA RESULT:      -9.1      1.184      3.913
REMARK  Name = *****
REMARK                            x       y       z     vdW  Elec       q    Type
REMARK                         _______ _______ _______ _____ _____    ______ ____
ROOT
ATOM      1  C   LIG    1       25.072 -22.499   6.915  0.00  0.00    +0.095 C 
ATOM      2  C   LIG    1       25.904 -21.683   5.878  0.00  0.00    +0.038 C 
ATOM      3  C   LIG    1       26.308 -20.287   6.353  0.00  0.00    +0.086 C 
ATOM      4  N   LIG    1       27.007 -20.293   7.637  0.00  0.00    -0.302 NA
ATOM      5  C   LIG    1       26.111 -20.860   8.653  0.00  0.00    +0.086 C 
ATOM      6  C   LIG    1       25.656 -22.289   8.343  0.00  0.00    +0.038 C 
ENDROOT
BRANCH   1   7
ATOM      7  C   LIG    1       25.075 -24.024   6.574  0.00  0.00    -0.030 A 
ATOM      8  C   LIG    1       23.886 -24.749   6.366  0.00  0.00    +0.005 A 
ATOM      9  C   LIG    1       23.907 -26.121   6.084  0.00  0.00    +0.000 A 
ATOM     10  C   LIG    1       25.114 -26.808   6.025  0.00  0.00    +0.000 A 
ATOM     11  C   LIG    1       26.303 -26.117   6.213  0.00  0.00    +0.000 A 
ATOM     12  C   LIG    1       26.284 -24.745   6.478  0.00  0.00    +0.005 A 
ENDBRANCH   1   7
BRANCH   1  13
ATOM     13  C   LIG    1       23.604 -21.963   6.889  0.00  0.00    +0.318 C 
ATOM     14  O   LIG    1       22.888 -21.814   7.884  0.00  0.00    -0.250 OA
BRANCH  13  15
ATOM     15  O   LIG    1       23.236 -21.623   5.616  0.00  0.00    -0.464 OA
BRANCH  15  17
ATOM     16  C   LIG    1       23.185 -19.518   4.422  0.00  0.00    +0.048 C 
ATOM     17  C   LIG    1       22.504 -20.401   5.454  0.00  0.00    +0.229 C 
ENDBRANCH  15  17
ENDBRANCH  13  15
ENDBRANCH   1  13
BRANCH   4  18
ATOM     18  C   LIG    1       28.319 -20.973   7.621  0.00  0.00    +0.089 C 
BRANCH  18  19
ATOM     19  C   LIG    1       29.440 -20.233   6.855  0.00  0.00    +0.050 C 
BRANCH  19  20
ATOM     20  C   LIG    1       30.181 -19.310   7.796  0.00  0.00    -0.046 A 
ATOM     21  C   LIG    1       31.540 -19.042   7.602  0.00  0.00    +0.005 A 
ATOM     22  C   LIG    1       32.168 -18.030   8.333  0.00  0.00    +0.023 A 
ATOM     23  C   LIG    1       31.443 -17.252   9.238  0.00  0.00    +0.025 A 
ATOM     24  C   LIG    1       30.134 -17.626   9.542  0.00  0.00    +0.023 A 
ATOM     25  C   LIG    1       29.495 -18.630   8.810  0.00  0.00    +0.005 A 
BRANCH  23  26
ATOM     26  N   LIG    1       32.079 -16.241   9.970  0.00  0.00    -0.358 N 
ATOM     27  H   LIG    1       32.179 -15.381   9.439  0.00  0.00    +0.142 HD
ATOM     28  H   LIG    1       31.636 -16.070  10.869  0.00  0.00    +0.142 HD
ENDBRANCH  23  26
ENDBRANCH  19  20
ENDBRANCH  18  19
ENDBRANCH   4  18
TORSDOF 8
ENDMDL
MODEL 3
REMARK VINA RESULT:      -8.7      0.599      1.464
REMARK  Name = *****
REMARK                            x       y       z     vdW  Elec       q    Type
REMARK                         _______ _______ _______ _____ _____    ______ ____
ROOT
ATOM      1  C   LIG    1       25.151 -21.205   6.569  0.00  0.00    +0.095 C 
ATOM      2  C   LIG    1       25.208 -20.560   7.988  0.00  0.00    +0.038 C 
ATOM      3  C   LIG    1       26.286 -21.146   8.902  0.00  0.00    +0.086 C 
ATOM      4  N   LIG    1       27.620 -21.127   8.307  0.00  0.00    -0.302 NA
ATOM      5  C   LIG    1       27.597 -21.937   7.082  0.00  0.00    +0.086 C 
ATOM      6  C   LIG    1       26.594 -21.441   6.037  0.00  0.00    +0.038 C 
ENDROOT
BRANCH   1   7
ATOM      7  C   LIG    1       24.371 -20.298   5.563  0.00  0.00    -0.030 A 
ATOM      8  C   LIG    1       23.005 -19.997   5.727  0.00  0.00    +0.005 A 
ATOM      9  C   LIG    1       22.316 -19.201   4.802  0.00  0.00    +0.000 A 
ATOM     10  C   LIG    1       22.968 -18.704   3.679  0.00  0.00    +0.000 A 
ATOM     11  C   LIG    1       24.318 -18.973   3.498  0.00  0.00    +0.000 A 
ATOM     12  C   LIG    1       25.010 -19.755   4.429  0.00  0.00    +0.005 A 
ENDBRANCH   1   7
BRANCH   1  13
ATOM     13  C   LIG    1       24.429 -22.586   6.691  0.00  0.00    +0.318 C 
ATOM     14  O   LIG    1       23.436 -22.806   7.391  0.00  0.00    -0.250 OA
BRANCH  13  15
ATOM     15  O   LIG    1       25.011 -23.510   5.865  0.00  0.00    -0.464 OA
BRANCH  15  17
ATOM     16  C   LIG    1       25.405 -25.776   5.114  0.00  0.00    +0.048 C 
ATOM     17  C   LIG    1       24.550 -24.863   5.976  0.00  0.00    +0.229 C 
ENDBRANCH  15  17
ENDBRANCH  13  15
ENDBRANCH   1  13
BRANCH   4  18
ATOM     18  C   LIG    1       28.167 -19.776   8.062  0.00  0.00    +0.089 C 
BRANCH  18  19
ATOM     19  C   LIG    1       29.684 -19.716   7.770  0.00  0.00    +0.050 C 
BRANCH  19  20
ATOM     20  C   LIG    1       30.314 -18.590   8.558  0.00  0.00    -0.046 A 
ATOM     21  C   LIG    1       29.655 -18.040   9.661  0.00  0.00    +0.005 A 
ATOM     22  C   LIG    1       30.324 -17.157  10.512  0.00  0.00    +0.023 A 
ATOM     23  C   LIG    1       31.666 -16.840  10.295  0.00  0.00    +0.025 A 
ATOM     24  C   LIG    1       32.269 -17.264   9.111  0.00  0.00    +0.023 A 
ATOM     25  C   LIG    1       31.611 -18.155   8.259  0.00  0.00    +0.005 A 
BRANCH  23  26
ATOM     26  N   LIG    1       32.331 -15.952  11.150  0.00  0.00    -0.358 N 
ATOM     27  H   LIG    1       32.853 -15.242  10.644  0.00  0.00    +0.142 HD
ATOM     28  H   LIG    1       31.712 -15.534  11.840  0.00  0.00    +0.142 HD
ENDBRANCH  23  26
ENDBRANCH  19  20
ENDBRANCH  18  19
ENDBRANCH   4  18
TORSDOF 8
ENDMDL
MODEL 4
REMARK VINA RESULT:      -8.3      3.633      7.664
REMARK  Name = *****
REMARK                            x       y       z     vdW  Elec       q    Type
REMARK                         _______ _______ _______ _____ _____    ______ ____
ROOT
ATOM      1  C   LIG    1       24.322 -21.952   6.352  0.00  0.00    +0.095 C 
ATOM      2  C   LIG    1       25.675 -22.725   6.286  0.00  0.00    +0.038 C 
ATOM      3  C   LIG    1       25.645 -24.103   6.949  0.00  0.00    +0.086 C 
ATOM      4  N   LIG    1       24.573 -24.961   6.448  0.00  0.00    -0.302 NA
ATOM      5  C   LIG    1       23.286 -24.312   6.729  0.00  0.00    +0.086 C 
ATOM      6  C   LIG    1       23.142 -22.931   6.085  0.00  0.00    +0.038 C 
ENDROOT
BRANCH   1   7
ATOM      7  C   LIG    1       24.278 -20.791   5.306  0.00  0.00    -0.030 A 
ATOM      8  C   LIG    1       25.432 -20.342   4.635  0.00  0.00    +0.005 A 
ATOM      9  C   LIG    1       25.377 -19.285   3.717  0.00  0.00    +0.000 A 
ATOM     10  C   LIG    1       24.174 -18.635   3.463  0.00  0.00    +0.000 A 
ATOM     11  C   LIG    1       23.018 -19.065   4.101  0.00  0.00    +0.000 A 
ATOM     12  C   LIG    1       23.069 -20.130   5.005  0.00  0.00    +0.005 A 
ENDBRANCH   1   7
BRANCH   1  13
ATOM     13  C   LIG    1       24.168 -21.361   7.791  0.00  0.00    +0.318 C 
ATOM     14  O   LIG    1       23.138 -20.850   8.239  0.00  0.00    -0.250 OA
BRANCH  13  15
ATOM     15  O   LIG    1       25.317 -21.542   8.512  0.00  0.00    -0.464 OA
BRANCH  15  17
ATOM     16  C   LIG    1       27.299 -20.279   7.934  0.00  0.00    +0.048 C 
ATOM     17  C   LIG    1       26.077 -20.369   8.831  0.00  0.00    +0.229 C 
ENDBRANCH  15  17
ENDBRANCH  13  15
ENDBRANCH   1  13
BRANCH   4  18
ATOM     18  C   LIG    1       24.699 -25.338   5.025  0.00  0.00    +0.089 C 
BRANCH  18  19
ATOM     19  C   LIG    1       25.675 -26.500   4.730  0.00  0.00    +0.050 C 
BRANCH  19  20
ATOM     20  C   LIG    1       25.357 -27.677   5.625  0.00  0.00    -0.046 A 
ATOM     21  C   LIG    1       25.894 -27.753   6.914  0.00  0.00    +0.005 A 
ATOM     22  C   LIG    1       25.433 -28.718   7.812  0.00  0.00    +0.023 A 
ATOM     23  C   LIG    1       24.409 -29.596   7.449  0.00  0.00    +0.025 A 
ATOM     24  C   LIG    1       23.991 -29.620   6.118  0.00  0.00    +0.023 A 
ATOM     25  C   LIG    1       24.439 -28.652   5.217  0.00  0.00    +0.005 A 
BRANCH  23  26
ATOM     26  N   LIG    1       23.953 -30.564   8.353  0.00  0.00    -0.358 N 
ATOM     27  H   LIG    1       24.410 -31.462   8.224  0.00  0.00    +0.142 HD
ATOM     28  H   LIG    1       24.010 -30.255   9.320  0.00  0.00    +0.142 HD
ENDBRANCH  23  26
ENDBRANCH  19  20
ENDBRANCH  18  19
ENDBRANCH   4  18
TORSDOF 8
ENDMDL
MODEL 5
REMARK VINA RESULT:      -8.0      3.319      8.060
REMARK  Name = *****
REMARK                            x       y       z     vdW  Elec       q    Type
REMARK                         _______ _______ _______ _____ _____    ______ ____
ROOT
ATOM      1  C   LIG    1       25.398 -21.591   6.456  0.00  0.00    +0.095 C 
ATOM      2  C   LIG    1       25.343 -22.751   7.497  0.00  0.00    +0.038 C 
ATOM      3  C   LIG    1       24.335 -23.851   7.161  0.00  0.00    +0.086 C 
ATOM      4  N   LIG    1       24.516 -24.410   5.822  0.00  0.00    -0.302 NA
ATOM      5  C   LIG    1       24.335 -23.334   4.839  0.00  0.00    +0.086 C 
ATOM      6  C   LIG    1       25.314 -22.171   5.014  0.00  0.00    +0.038 C 
ENDROOT
BRANCH   1   7
ATOM      7  C   LIG    1       26.711 -20.755   6.602  0.00  0.00    -0.030 A 
ATOM      8  C   LIG    1       27.290 -20.071   5.516  0.00  0.00    +0.005 A 
ATOM      9  C   LIG    1       28.480 -19.346   5.661  0.00  0.00    +0.000 A 
ATOM     10  C   LIG    1       29.133 -19.304   6.888  0.00  0.00    +0.000 A 
ATOM     11  C   LIG    1       28.579 -19.959   7.980  0.00  0.00    +0.000 A 
ATOM     12  C   LIG    1       27.382 -20.670   7.840  0.00  0.00    +0.005 A 
ENDBRANCH   1   7
BRANCH   1  13
ATOM     13  C   LIG    1       24.162 -20.663   6.695  0.00  0.00    +0.318 C 
ATOM     14  O   LIG    1       23.598 -20.503   7.782  0.00  0.00    -0.250 OA
BRANCH  13  15
ATOM     15  O   LIG    1       23.825 -20.001   5.546  0.00  0.00    -0.464 OA
BRANCH  15  17
ATOM     16  C   LIG    1       22.315 -18.497   4.400  0.00  0.00    +0.048 C 
ATOM     17  C   LIG    1       22.445 -19.654   5.375  0.00  0.00    +0.229 C 
ENDBRANCH  15  17
ENDBRANCH  13  15
ENDBRANCH   1  13
BRANCH   4  18
ATOM     18  C   LIG    1       25.792 -25.129   5.622  0.00  0.00    +0.089 C 
BRANCH  18  19
ATOM     19  C   LIG    1       25.686 -26.468   4.857  0.00  0.00    +0.050 C 
BRANCH  19  20
ATOM     20  C   LIG    1       25.194 -27.553   5.789  0.00  0.00    -0.046 A 
ATOM     21  C   LIG    1       24.351 -28.565   5.319  0.00  0.00    +0.005 A 
ATOM     22  C   LIG    1       24.075 -29.678   6.117  0.00  0.00    +0.023 A 
ATOM     23  C   LIG    1       24.662 -29.813   7.377  0.00  0.00    +0.025 A 
ATOM     24  C   LIG    1       25.370 -28.732   7.903  0.00  0.00    +0.023 A 
ATOM     25  C   LIG    1       25.660 -27.620   7.108  0.00  0.00    +0.005 A 
BRANCH  23  26
ATOM     26  N   LIG    1       24.378 -30.929   8.173  0.00  0.00    -0.358 N 
ATOM     27  H   LIG    1       24.701 -30.816   9.130  0.00  0.00    +0.142 HD
ATOM     28  H   LIG    1       23.397 -31.194   8.143  0.00  0.00    +0.142 HD
ENDBRANCH  23  26
ENDBRANCH  19  20
ENDBRANCH  18  19
ENDBRANCH   4  18
TORSDOF 8
ENDMDL
MODEL 6
REMARK VINA RESULT:      -7.5      5.444      8.466
REMARK  Name = *****
REMARK                            x       y       z     vdW  Elec       q    Type
REMARK                         _______ _______ _______ _____ _____    ______ ____
ROOT
ATOM      1  C   LIG    1       25.163 -28.220   6.630  0.00  0.00    +0.095 C 
ATOM      2  C   LIG    1       26.449 -27.675   5.934  0.00  0.00    +0.038 C 
ATOM      3  C   LIG    1       26.178 -26.778   4.725  0.00  0.00    +0.086 C 
ATOM      4  N   LIG    1       25.278 -25.665   5.022  0.00  0.00    -0.302 NA
ATOM      5  C   LIG    1       23.988 -26.211   5.460  0.00  0.00    +0.086 C 
ATOM      6  C   LIG    1       24.087 -27.097   6.704  0.00  0.00    +0.038 C 
ENDROOT
BRANCH   1   7
ATOM      7  C   LIG    1       25.473 -28.737   8.072  0.00  0.00    -0.030 A 
ATOM      8  C   LIG    1       26.528 -28.217   8.845  0.00  0.00    +0.005 A 
ATOM      9  C   LIG    1       26.805 -28.709  10.128  0.00  0.00    +0.000 A 
ATOM     10  C   LIG    1       26.049 -29.746  10.661  0.00  0.00    +0.000 A 
ATOM     11  C   LIG    1       24.993 -30.270   9.927  0.00  0.00    +0.000 A 
ATOM     12  C   LIG    1       24.706 -29.769   8.653  0.00  0.00    +0.005 A 
ENDBRANCH   1   7
BRANCH   1  13
ATOM     13  C   LIG    1       24.603 -29.395   5.765  0.00  0.00    +0.318 C 
ATOM     14  O   LIG    1       23.406 -29.620   5.568  0.00  0.00    -0.250 OA
BRANCH  13  15
ATOM     15  O   LIG    1       25.626 -30.111   5.202  0.00  0.00    -0.464 OA
BRANCH  15  17
ATOM     16  C   LIG    1       26.549 -32.040   6.336  0.00  0.00    +0.048 C 
ATOM     17  C   LIG    1       25.554 -31.538   5.303  0.00  0.00    +0.229 C 
ENDBRANCH  15  17
ENDBRANCH  13  15
ENDBRANCH   1  13
BRANCH   4  18
ATOM     18  C   LIG    1       25.814 -24.680   5.985  0.00  0.00    +0.089 C 
BRANCH  18  19
ATOM     19  C   LIG    1       24.765 -24.006   6.898  0.00  0.00    +0.050 C 
BRANCH  19  20
ATOM     20  C   LIG    1       24.400 -22.647   6.345  0.00  0.00    -0.046 A 
ATOM     21  C   LIG    1       24.717 -22.309   5.026  0.00  0.00    +0.005 A 
ATOM     22  C   LIG    1       24.193 -21.149   4.452  0.00  0.00    +0.023 A 
ATOM     23  C   LIG    1       23.320 -20.330   5.173  0.00  0.00    +0.025 A 
ATOM     24  C   LIG    1       23.135 -20.585   6.532  0.00  0.00    +0.023 A 
ATOM     25  C   LIG    1       23.647 -21.749   7.111  0.00  0.00    +0.005 A 
BRANCH  23  26
ATOM     26  N   LIG    1       22.801 -19.166   4.593  0.00  0.00    -0.358 N 
ATOM     27  H   LIG    1       21.799 -19.225   4.433  0.00  0.00    +0.142 HD
ATOM     28  H   LIG    1       23.043 -18.327   5.114  0.00  0.00    +0.142 HD
ENDBRANCH  23  26
ENDBRANCH  19  20
ENDBRANCH  18  19
ENDBRANCH   4  18
TORSDOF 8
ENDMDL
MODEL 7
REMARK VINA RESULT:      -7.2      4.396      8.231
REMARK  Name = *****
REMARK                            x       y       z     vdW  Elec       q    Type
REMARK                         _______ _______ _______ _____ _____    ______ ____
ROOT
ATOM      1  C   LIG    1       25.165 -28.295   6.672  0.00  0.00    +0.095 C 
ATOM      2  C   LIG    1       26.493 -27.797   6.023  0.00  0.00    +0.038 C 
ATOM      3  C   LIG    1       26.297 -26.847   4.840  0.00  0.00    +0.086 C 
ATOM      4  N   LIG    1       25.452 -25.698   5.156  0.00  0.00    -0.302 NA
ATOM      5  C   LIG    1       24.124 -26.189   5.548  0.00  0.00    +0.086 C 
ATOM      6  C   LIG    1       24.148 -27.120   6.763  0.00  0.00    +0.038 C 
ENDROOT
BRANCH   1   7
ATOM      7  C   LIG    1       25.413 -28.876   8.103  0.00  0.00    -0.030 A 
ATOM      8  C   LIG    1       24.613 -29.899   8.646  0.00  0.00    +0.005 A 
ATOM      9  C   LIG    1       24.836 -30.391   9.939  0.00  0.00    +0.000 A 
ATOM     10  C   LIG    1       25.849 -29.859  10.729  0.00  0.00    +0.000 A 
ATOM     11  C   LIG    1       26.662 -28.858  10.214  0.00  0.00    +0.000 A 
ATOM     12  C   LIG    1       26.451 -28.377   8.918  0.00  0.00    +0.005 A 
ENDBRANCH   1   7
BRANCH   1  13
ATOM     13  C   LIG    1       24.564 -29.410   5.756  0.00  0.00    +0.318 C 
ATOM     14  O   LIG    1       23.358 -29.631   5.610  0.00  0.00    -0.250 OA
BRANCH  13  15
ATOM     15  O   LIG    1       25.557 -30.073   5.087  0.00  0.00    -0.464 OA
BRANCH  15  17
ATOM     16  C   LIG    1       25.772 -32.327   4.233  0.00  0.00    +0.048 C 
ATOM     17  C   LIG    1       25.797 -31.435   5.462  0.00  0.00    +0.229 C 
ENDBRANCH  15  17
ENDBRANCH  13  15
ENDBRANCH   1  13
BRANCH   4  18
ATOM     18  C   LIG    1       26.016 -24.776   6.164  0.00  0.00    +0.089 C 
BRANCH  18  19
ATOM     19  C   LIG    1       25.011 -23.784   6.792  0.00  0.00    +0.050 C 
BRANCH  19  20
ATOM     20  C   LIG    1       25.108 -22.445   6.097  0.00  0.00    -0.046 A 
ATOM     21  C   LIG    1       26.001 -21.471   6.553  0.00  0.00    +0.005 A 
ATOM     22  C   LIG    1       26.246 -20.328   5.788  0.00  0.00    +0.023 A 
ATOM     23  C   LIG    1       25.632 -20.158   4.546  0.00  0.00    +0.025 A 
ATOM     24  C   LIG    1       24.627 -21.050   4.170  0.00  0.00    +0.023 A 
ATOM     25  C   LIG    1       24.383 -22.201   4.924  0.00  0.00    +0.005 A 
BRANCH  23  26
ATOM     26  N   LIG    1       25.879 -19.008   3.785  0.00  0.00    -0.358 N 
ATOM     27  H   LIG    1       25.500 -18.169   4.214  0.00  0.00    +0.142 HD
ATOM     28  H   LIG    1       26.863 -18.894   3.556  0.00  0.00    +0.142 HD
ENDBRANCH  23  26
ENDBRANCH  19  20
ENDBRANCH  18  19
ENDBRANCH   4  18
TORSDOF 8
ENDMDL
MODEL 8
REMARK VINA RESULT:      -7.2      5.384      9.450
REMARK  Name = *****
REMARK                            x       y       z     vdW  Elec       q    Type
REMARK                         _______ _______ _______ _____ _____    ______ ____
ROOT
ATOM      1  C   LIG    1       25.219 -29.701   8.784  0.00  0.00    +0.095 C 
ATOM      2  C   LIG    1       25.836 -28.269   8.744  0.00  0.00    +0.038 C 
ATOM      3  C   LIG    1       26.401 -27.864   7.382  0.00  0.00    +0.086 C 
ATOM      4  N   LIG    1       25.437 -28.007   6.292  0.00  0.00    -0.302 NA
ATOM      5  C   LIG    1       25.042 -29.419   6.201  0.00  0.00    +0.086 C 
ATOM      6  C   LIG    1       24.406 -29.962   7.483  0.00  0.00    +0.038 C 
ENDROOT
BRANCH   1   7
ATOM      7  C   LIG    1       24.285 -29.885  10.024  0.00  0.00    -0.030 A 
ATOM      8  C   LIG    1       23.011 -30.475   9.922  0.00  0.00    +0.005 A 
ATOM      9  C   LIG    1       22.178 -30.611  11.041  0.00  0.00    +0.000 A 
ATOM     10  C   LIG    1       22.588 -30.142  12.284  0.00  0.00    +0.000 A 
ATOM     11  C   LIG    1       23.845 -29.567  12.417  0.00  0.00    +0.000 A 
ATOM     12  C   LIG    1       24.683 -29.446  11.304  0.00  0.00    +0.005 A 
ENDBRANCH   1   7
BRANCH   1  13
ATOM     13  C   LIG    1       26.391 -30.733   8.858  0.00  0.00    +0.318 C 
ATOM     14  O   LIG    1       27.465 -30.544   9.438  0.00  0.00    -0.250 OA
BRANCH  13  15
ATOM     15  O   LIG    1       26.042 -31.905   8.244  0.00  0.00    -0.464 OA
BRANCH  15  17
ATOM     16  C   LIG    1       27.009 -32.639   6.149  0.00  0.00    +0.048 C 
ATOM     17  C   LIG    1       27.103 -32.677   7.665  0.00  0.00    +0.229 C 
ENDBRANCH  15  17
ENDBRANCH  13  15
ENDBRANCH   1  13
BRANCH   4  18
ATOM     18  C   LIG    1       24.264 -27.113   6.385  0.00  0.00    +0.089 C 
BRANCH  18  19
ATOM     19  C   LIG    1       24.326 -25.845   5.502  0.00  0.00    +0.050 C 
BRANCH  19  20
ATOM     20  C   LIG    1       24.434 -24.616   6.376  0.00  0.00    -0.046 A 
ATOM     21  C   LIG    1       25.673 -24.216   6.887  0.00  0.00    +0.005 A 
ATOM     22  C   LIG    1       25.809 -22.972   7.508  0.00  0.00    +0.023 A 
ATOM     23  C   LIG    1       24.723 -22.099   7.596  0.00  0.00    +0.025 A 
ATOM     24  C   LIG    1       23.460 -22.564   7.230  0.00  0.00    +0.023 A 
ATOM     25  C   LIG    1       23.316 -23.803   6.599  0.00  0.00    +0.005 A 
BRANCH  23  26
ATOM     26  N   LIG    1       24.864 -20.854   8.223  0.00  0.00    -0.358 N 
ATOM     27  H   LIG    1       25.027 -20.938   9.222  0.00  0.00    +0.142 HD
ATOM     28  H   LIG    1       25.571 -20.271   7.781  0.00  0.00    +0.142 HD
ENDBRANCH  23  26
ENDBRANCH  19  20
ENDBRANCH  18  19
ENDBRANCH   4  18
TORSDOF 8
ENDMDL
MODEL 9
REMARK VINA RESULT:      -7.2      5.910     10.328
REMARK  Name = *****
REMARK                            x       y       z     vdW  Elec       q    Type
REMARK                         _______ _______ _______ _____ _____    ______ ____
ROOT
ATOM      1  C   LIG    1       25.224 -31.147   6.630  0.00  0.00    +0.095 C 
ATOM      2  C   LIG    1       24.701 -30.144   5.555  0.00  0.00    +0.038 C 
ATOM      3  C   LIG    1       23.947 -28.944   6.129  0.00  0.00    +0.086 C 
ATOM      4  N   LIG    1       24.706 -28.215   7.142  0.00  0.00    -0.302 NA
ATOM      5  C   LIG    1       24.992 -29.127   8.258  0.00  0.00    +0.086 C 
ATOM      6  C   LIG    1       25.794 -30.365   7.848  0.00  0.00    +0.038 C 
ENDROOT
BRANCH   1   7
ATOM      7  C   LIG    1       26.335 -32.078   6.046  0.00  0.00    -0.030 A 
ATOM      8  C   LIG    1       26.328 -32.507   4.705  0.00  0.00    +0.005 A 
ATOM      9  C   LIG    1       27.320 -33.360   4.206  0.00  0.00    +0.000 A 
ATOM     10  C   LIG    1       28.332 -33.825   5.038  0.00  0.00    +0.000 A 
ATOM     11  C   LIG    1       28.373 -33.409   6.362  0.00  0.00    +0.000 A 
ATOM     12  C   LIG    1       27.391 -32.544   6.857  0.00  0.00    +0.005 A 
ENDBRANCH   1   7
BRANCH   1  13
ATOM     13  C   LIG    1       24.017 -32.016   7.111  0.00  0.00    +0.318 C 
ATOM     14  O   LIG    1       23.105 -32.423   6.386  0.00  0.00    -0.250 OA
BRANCH  13  15
ATOM     15  O   LIG    1       24.141 -32.320   8.440  0.00  0.00    -0.464 OA
BRANCH  15  17
ATOM     16  C   LIG    1       23.272 -31.602  10.582  0.00  0.00    +0.048 C 
ATOM     17  C   LIG    1       22.954 -32.237   9.240  0.00  0.00    +0.229 C 
ENDBRANCH  15  17
ENDBRANCH  13  15
ENDBRANCH   1  13
BRANCH   4  18
ATOM     18  C   LIG    1       25.933 -27.560   6.641  0.00  0.00    +0.089 C 
BRANCH  18  19
ATOM     19  C   LIG    1       25.707 -26.423   5.618  0.00  0.00    +0.050 C 
BRANCH  19  20
ATOM     20  C   LIG    1       25.115 -25.218   6.312  0.00  0.00    -0.046 A 
ATOM     21  C   LIG    1       25.944 -24.270   6.918  0.00  0.00    +0.005 A 
ATOM     22  C   LIG    1       25.415 -23.057   7.366  0.00  0.00    +0.023 A 
ATOM     23  C   LIG    1       24.063 -22.760   7.184  0.00  0.00    +0.025 A 
ATOM     24  C   LIG    1       23.214 -23.767   6.726  0.00  0.00    +0.023 A 
ATOM     25  C   LIG    1       23.735 -24.979   6.266  0.00  0.00    +0.005 A 
BRANCH  23  26
ATOM     26  N   LIG    1       23.538 -21.543   7.638  0.00  0.00    -0.358 N 
ATOM     27  H   LIG    1       22.725 -21.247   7.104  0.00  0.00    +0.142 HD
ATOM     28  H   LIG    1       23.343 -21.548   8.636  0.00  0.00    +0.142 HD
ENDBRANCH  23  26
ENDBRANCH  19  20
ENDBRANCH  18  19
ENDBRANCH   4  18
TORSDOF 8
ENDMDL
