MODEL 1
REMARK VINA RESULT:      -6.2      0.000      0.000
REMARK  Name = *****
REMARK                            x       y       z     vdW  Elec       q    Type
REMARK                         _______ _______ _______ _____ _____    ______ ____
ROOT
ATOM      1  C   LIG    1       23.389 -21.194   3.162  0.00  0.00    +0.019 C 
ATOM      2  C   LIG    1       23.802 -20.340   4.393  0.00  0.00    +0.029 C 
ATOM      3  C   LIG    1       23.653 -18.866   4.020  0.00  0.00    +0.140 C 
ATOM      4  O   LIG    1       22.707 -18.170   4.270  0.00  0.00    -0.297 OA
ATOM      5  C   LIG    1       24.844 -18.377   3.252  0.00  0.00    +0.075 C 
ATOM      6  C   LIG    1       25.886 -19.460   3.519  0.00  0.00    +0.012 C 
ATOM      7  C   LIG    1       25.358 -20.409   4.640  0.00  0.00    +0.006 C 
ATOM      8  C   LIG    1       25.797 -20.159   6.143  0.00  0.00    +0.001 C 
ATOM      9  C   LIG    1       27.216 -20.642   6.590  0.00  0.00    +0.031 C 
ATOM     10  C   LIG    1       27.328 -22.109   6.924  0.00  0.00    -0.027 C 
ATOM     11  C   LIG    1       26.276 -22.866   7.281  0.00  0.00    -0.065 C 
ATOM     12  C   LIG    1       24.910 -22.241   7.654  0.00  0.00    -0.008 C 
ATOM     13  C   LIG    1       24.636 -22.324   9.183  0.00  0.00    +0.016 C 
ATOM     14  C   LIG    1       23.855 -23.156   6.993  0.00  0.00    +0.013 C 
ATOM     15  C   LIG    1       24.325 -23.444   5.576  0.00  0.00    +0.032 C 
ATOM     16  C   LIG    1       25.349 -24.559   5.625  0.00  0.00    +0.119 C 
ATOM     17  C   LIG    1       26.269 -24.367   6.878  0.00  0.00    +0.062 C 
ATOM     18  C   LIG    1       24.798 -20.695   7.223  0.00  0.00    +0.003 C 
ATOM     19  C   LIG    1       23.378 -20.204   6.924  0.00  0.00    +0.005 C 
ATOM     20  C   LIG    1       22.842 -20.603   5.555  0.00  0.00    +0.015 C 
ENDROOT
BRANCH  16  21
ATOM     21  O   LIG    1       24.598 -25.770   5.656  0.00  0.00    -0.392 OA
ATOM     22  H   LIG    1       24.820 -26.219   6.496  0.00  0.00    +0.210 HD
ENDBRANCH  16  21
TORSDOF 1
ENDMDL
MODEL 2
REMARK VINA RESULT:      -5.5      9.057     10.696
REMARK  Name = *****
REMARK                            x       y       z     vdW  Elec       q    Type
REMARK                         _______ _______ _______ _____ _____    ______ ____
ROOT
ATOM      1  C   LIG    1       21.731 -29.279  12.203  0.00  0.00    +0.019 C 
ATOM      2  C   LIG    1       22.611 -28.853  13.412  0.00  0.00    +0.029 C 
ATOM      3  C   LIG    1       21.685 -28.378  14.529  0.00  0.00    +0.140 C 
ATOM      4  O   LIG    1       21.308 -29.038  15.459  0.00  0.00    -0.297 OA
ATOM      5  C   LIG    1       21.256 -26.957  14.312  0.00  0.00    +0.075 C 
ATOM      6  C   LIG    1       22.256 -26.458  13.272  0.00  0.00    +0.012 C 
ATOM      7  C   LIG    1       23.391 -27.518  13.109  0.00  0.00    +0.006 C 
ATOM      8  C   LIG    1       24.741 -27.345  13.923  0.00  0.00    +0.001 C 
ATOM      9  C   LIG    1       25.801 -26.325  13.390  0.00  0.00    +0.031 C 
ATOM     10  C   LIG    1       26.677 -26.824  12.269  0.00  0.00    -0.027 C 
ATOM     11  C   LIG    1       26.902 -28.128  12.033  0.00  0.00    -0.065 C 
ATOM     12  C   LIG    1       26.511 -29.221  13.058  0.00  0.00    -0.008 C 
ATOM     13  C   LIG    1       27.759 -29.822  13.765  0.00  0.00    +0.016 C 
ATOM     14  C   LIG    1       25.920 -30.371  12.212  0.00  0.00    +0.013 C 
ATOM     15  C   LIG    1       24.976 -29.750  11.195  0.00  0.00    +0.032 C 
ATOM     16  C   LIG    1       25.793 -29.234  10.029  0.00  0.00    +0.119 C 
ATOM     17  C   LIG    1       27.118 -28.593  10.566  0.00  0.00    +0.062 C 
ATOM     18  C   LIG    1       25.522 -28.673  14.201  0.00  0.00    +0.003 C 
ATOM     19  C   LIG    1       24.585 -29.722  14.809  0.00  0.00    +0.005 C 
ATOM     20  C   LIG    1       23.373 -30.065  13.953  0.00  0.00    +0.015 C 
ENDROOT
BRANCH  16  21
ATOM     21  O   LIG    1       26.013 -30.361   9.185  0.00  0.00    -0.392 OA
ATOM     22  H   LIG    1       25.972 -31.154   9.756  0.00  0.00    +0.210 HD
ENDBRANCH  16  21
TORSDOF 1
ENDMDL
MODEL 3
REMARK VINA RESULT:      -5.1      8.412     10.903
REMARK  Name = *****
REMARK                            x       y       z     vdW  Elec       q    Type
REMARK                         _______ _______ _______ _____ _____    ______ ____
ROOT
ATOM      1  C   LIG    1       21.486 -30.293  11.228  0.00  0.00    +0.019 C 
ATOM      2  C   LIG    1       22.871 -30.563  11.881  0.00  0.00    +0.029 C 
ATOM      3  C   LIG    1       22.674 -30.653  13.393  0.00  0.00    +0.140 C 
ATOM      4  O   LIG    1       22.547 -31.665  14.027  0.00  0.00    -0.297 OA
ATOM      5  C   LIG    1       22.621 -29.290  14.016  0.00  0.00    +0.075 C 
ATOM      6  C   LIG    1       23.193 -28.395  12.919  0.00  0.00    +0.012 C 
ATOM      7  C   LIG    1       23.801 -29.293  11.796  0.00  0.00    +0.006 C 
ATOM      8  C   LIG    1       25.354 -29.613  11.809  0.00  0.00    +0.001 C 
ATOM      9  C   LIG    1       26.340 -28.518  11.281  0.00  0.00    +0.031 C 
ATOM     10  C   LIG    1       26.486 -28.445   9.782  0.00  0.00    -0.027 C 
ATOM     11  C   LIG    1       26.207 -29.474   8.962  0.00  0.00    -0.065 C 
ATOM     12  C   LIG    1       25.983 -30.908   9.501  0.00  0.00    -0.008 C 
ATOM     13  C   LIG    1       27.183 -31.841   9.171  0.00  0.00    +0.016 C 
ATOM     14  C   LIG    1       24.791 -31.460   8.688  0.00  0.00    +0.013 C 
ATOM     15  C   LIG    1       23.731 -30.372   8.635  0.00  0.00    +0.032 C 
ATOM     16  C   LIG    1       24.099 -29.391   7.542  0.00  0.00    +0.119 C 
ATOM     17  C   LIG    1       25.649 -29.166   7.544  0.00  0.00    +0.062 C 
ATOM     18  C   LIG    1       25.763 -30.944  11.093  0.00  0.00    +0.003 C 
ATOM     19  C   LIG    1       24.907 -32.107  11.606  0.00  0.00    +0.005 C 
ATOM     20  C   LIG    1       23.406 -31.921  11.422  0.00  0.00    +0.015 C 
ENDROOT
BRANCH  16  21
ATOM     21  O   LIG    1       23.614 -29.965   6.331  0.00  0.00    -0.392 OA
ATOM     22  H   LIG    1       23.864 -30.911   6.347  0.00  0.00    +0.210 HD
ENDBRANCH  16  21
TORSDOF 1
ENDMDL
MODEL 4
REMARK VINA RESULT:      -5.1      9.015     11.109
REMARK  Name = *****
REMARK                            x       y       z     vdW  Elec       q    Type
REMARK                         _______ _______ _______ _____ _____    ______ ____
ROOT
ATOM      1  C   LIG    1       26.651 -28.338  10.453  0.00  0.00    +0.019 C 
ATOM      2  C   LIG    1       25.952 -29.701  10.722  0.00  0.00    +0.029 C 
ATOM      3  C   LIG    1       26.502 -30.720   9.726  0.00  0.00    +0.140 C 
ATOM      4  O   LIG    1       27.385 -31.506   9.939  0.00  0.00    -0.297 OA
ATOM      5  C   LIG    1       25.816 -30.605   8.397  0.00  0.00    +0.075 C 
ATOM      6  C   LIG    1       24.574 -29.782   8.727  0.00  0.00    +0.012 C 
ATOM      7  C   LIG    1       24.440 -29.665  10.279  0.00  0.00    +0.006 C 
ATOM      8  C   LIG    1       23.502 -30.679  11.058  0.00  0.00    +0.001 C 
ATOM      9  C   LIG    1       21.958 -30.423  11.040  0.00  0.00    +0.031 C 
ATOM     10  C   LIG    1       21.460 -29.390  12.019  0.00  0.00    -0.027 C 
ATOM     11  C   LIG    1       22.131 -29.043  13.132  0.00  0.00    -0.065 C 
ATOM     12  C   LIG    1       23.332 -29.870  13.650  0.00  0.00    -0.008 C 
ATOM     13  C   LIG    1       22.967 -30.677  14.929  0.00  0.00    +0.016 C 
ATOM     14  C   LIG    1       24.375 -28.825  14.104  0.00  0.00    +0.013 C 
ATOM     15  C   LIG    1       24.451 -27.759  13.022  0.00  0.00    +0.032 C 
ATOM     16  C   LIG    1       23.306 -26.788  13.217  0.00  0.00    +0.119 C 
ATOM     17  C   LIG    1       22.021 -27.579  13.641  0.00  0.00    +0.062 C 
ATOM     18  C   LIG    1       23.883 -30.914  12.559  0.00  0.00    +0.003 C 
ATOM     19  C   LIG    1       25.371 -31.259  12.680  0.00  0.00    +0.005 C 
ATOM     20  C   LIG    1       26.316 -30.205  12.120  0.00  0.00    +0.015 C 
ENDROOT
BRANCH  16  21
ATOM     21  O   LIG    1       23.750 -25.863  14.205  0.00  0.00    -0.392 OA
ATOM     22  H   LIG    1       24.689 -26.069  14.385  0.00  0.00    +0.210 HD
ENDBRANCH  16  21
TORSDOF 1
ENDMDL
MODEL 5
REMARK VINA RESULT:      -4.9      9.124     11.200
REMARK  Name = *****
REMARK                            x       y       z     vdW  Elec       q    Type
REMARK                         _______ _______ _______ _____ _____    ______ ____
ROOT
ATOM      1  C   LIG    1       26.589 -27.277  12.152  0.00  0.00    +0.019 C 
ATOM      2  C   LIG    1       26.328 -28.808  12.083  0.00  0.00    +0.029 C 
ATOM      3  C   LIG    1       27.549 -29.470  11.447  0.00  0.00    +0.140 C 
ATOM      4  O   LIG    1       28.458 -29.986  12.039  0.00  0.00    -0.297 OA
ATOM      5  C   LIG    1       27.503 -29.372   9.951  0.00  0.00    +0.075 C 
ATOM      6  C   LIG    1       26.046 -29.003   9.681  0.00  0.00    +0.012 C 
ATOM      7  C   LIG    1       25.231 -29.153  11.005  0.00  0.00    +0.006 C 
ATOM      8  C   LIG    1       24.436 -30.497  11.282  0.00  0.00    +0.001 C 
ATOM      9  C   LIG    1       23.059 -30.703  10.568  0.00  0.00    +0.031 C 
ATOM     10  C   LIG    1       21.883 -30.011  11.212  0.00  0.00    -0.027 C 
ATOM     11  C   LIG    1       21.860 -29.646  12.506  0.00  0.00    -0.065 C 
ATOM     12  C   LIG    1       22.920 -30.152  13.515  0.00  0.00    -0.008 C 
ATOM     13  C   LIG    1       22.327 -31.204  14.495  0.00  0.00    +0.016 C 
ATOM     14  C   LIG    1       23.266 -28.923  14.385  0.00  0.00    +0.013 C 
ATOM     15  C   LIG    1       23.447 -27.739  13.449  0.00  0.00    +0.032 C 
ATOM     16  C   LIG    1       22.082 -27.183  13.102  0.00  0.00    +0.119 C 
ATOM     17  C   LIG    1       21.074 -28.366  12.904  0.00  0.00    +0.062 C 
ATOM     18  C   LIG    1       24.191 -30.823  12.794  0.00  0.00    +0.003 C 
ATOM     19  C   LIG    1       25.506 -30.732  13.575  0.00  0.00    +0.005 C 
ATOM     20  C   LIG    1       26.201 -29.379  13.497  0.00  0.00    +0.015 C 
ENDROOT
BRANCH  16  21
ATOM     21  O   LIG    1       21.733 -26.319  14.180  0.00  0.00    -0.392 OA
ATOM     22  H   LIG    1       22.454 -25.663  14.261  0.00  0.00    +0.210 HD
ENDBRANCH  16  21
TORSDOF 1
ENDMDL
MODEL 6
REMARK VINA RESULT:      -4.8      8.908     11.010
REMARK  Name = *****
REMARK                            x       y       z     vdW  Elec       q    Type
REMARK                         _______ _______ _______ _____ _____    ______ ____
ROOT
ATOM      1  C   LIG    1       26.585 -28.697   9.632  0.00  0.00    +0.019 C 
ATOM      2  C   LIG    1       25.819 -30.043   9.776  0.00  0.00    +0.029 C 
ATOM      3  C   LIG    1       26.149 -30.909   8.562  0.00  0.00    +0.140 C 
ATOM      4  O   LIG    1       26.985 -31.770   8.519  0.00  0.00    -0.297 OA
ATOM      5  C   LIG    1       25.308 -30.530   7.380  0.00  0.00    +0.075 C 
ATOM      6  C   LIG    1       24.191 -29.704   8.010  0.00  0.00    +0.012 C 
ATOM      7  C   LIG    1       24.270 -29.844   9.564  0.00  0.00    +0.006 C 
ATOM      8  C   LIG    1       23.362 -30.918  10.296  0.00  0.00    +0.001 C 
ATOM      9  C   LIG    1       21.855 -30.572  10.539  0.00  0.00    +0.031 C 
ATOM     10  C   LIG    1       21.574 -29.693  11.731  0.00  0.00    -0.027 C 
ATOM     11  C   LIG    1       22.411 -29.580  12.778  0.00  0.00    -0.065 C 
ATOM     12  C   LIG    1       23.598 -30.553  12.982  0.00  0.00    -0.008 C 
ATOM     13  C   LIG    1       23.338 -31.542  14.153  0.00  0.00    +0.016 C 
ATOM     14  C   LIG    1       24.773 -29.662  13.444  0.00  0.00    +0.013 C 
ATOM     15  C   LIG    1       24.794 -28.435  12.546  0.00  0.00    +0.032 C 
ATOM     16  C   LIG    1       23.766 -27.446  13.056  0.00  0.00    +0.119 C 
ATOM     17  C   LIG    1       22.488 -28.220  13.526  0.00  0.00    +0.062 C 
ATOM     18  C   LIG    1       23.915 -31.427  11.670  0.00  0.00    +0.003 C 
ATOM     19  C   LIG    1       25.373 -31.874  11.522  0.00  0.00    +0.005 C 
ATOM     20  C   LIG    1       26.320 -30.798  11.009  0.00  0.00    +0.015 C 
ENDROOT
BRANCH  16  21
ATOM     21  O   LIG    1       24.410 -26.729  14.106  0.00  0.00    -0.392 OA
ATOM     22  H   LIG    1       23.759 -26.646  14.832  0.00  0.00    +0.210 HD
ENDBRANCH  16  21
TORSDOF 1
ENDMDL
MODEL 7
REMARK VINA RESULT:      -4.7      9.461     10.947
REMARK  Name = *****
REMARK                            x       y       z     vdW  Elec       q    Type
REMARK                         _______ _______ _______ _____ _____    ______ ____
ROOT
ATOM      1  C   LIG    1       20.486 -28.694  12.220  0.00  0.00    +0.019 C 
ATOM      2  C   LIG    1       21.655 -28.846  13.235  0.00  0.00    +0.029 C 
ATOM      3  C   LIG    1       21.242 -28.165  14.538  0.00  0.00    +0.140 C 
ATOM      4  O   LIG    1       20.774 -28.710  15.500  0.00  0.00    -0.297 OA
ATOM      5  C   LIG    1       21.463 -26.683  14.470  0.00  0.00    +0.075 C 
ATOM      6  C   LIG    1       22.388 -26.534  13.265  0.00  0.00    +0.012 C 
ATOM      7  C   LIG    1       22.885 -27.949  12.828  0.00  0.00    +0.006 C 
ATOM      8  C   LIG    1       24.286 -28.478  13.350  0.00  0.00    +0.001 C 
ATOM      9  C   LIG    1       25.583 -27.954  12.649  0.00  0.00    +0.031 C 
ATOM     10  C   LIG    1       25.941 -28.634  11.352  0.00  0.00    -0.027 C 
ATOM     11  C   LIG    1       25.515 -29.867  11.024  0.00  0.00    -0.065 C 
ATOM     12  C   LIG    1       24.857 -30.806  12.064  0.00  0.00    -0.008 C 
ATOM     13  C   LIG    1       25.805 -31.969  12.472  0.00  0.00    +0.016 C 
ATOM     14  C   LIG    1       23.681 -31.473  11.315  0.00  0.00    +0.013 C 
ATOM     15  C   LIG    1       22.957 -30.382  10.542  0.00  0.00    +0.032 C 
ATOM     16  C   LIG    1       23.708 -30.124   9.252  0.00  0.00    +0.119 C 
ATOM     17  C   LIG    1       25.249 -30.189   9.527  0.00  0.00    +0.062 C 
ATOM     18  C   LIG    1       24.426 -30.036  13.408  0.00  0.00    +0.003 C 
ATOM     19  C   LIG    1       23.237 -30.648  14.156  0.00  0.00    +0.005 C 
ATOM     20  C   LIG    1       21.874 -30.325  13.558  0.00  0.00    +0.015 C 
ENDROOT
BRANCH  16  21
ATOM     21  O   LIG    1       23.256 -31.118   8.337  0.00  0.00    -0.392 OA
ATOM     22  H   LIG    1       22.393 -31.438   8.671  0.00  0.00    +0.210 HD
ENDBRANCH  16  21
TORSDOF 1
ENDMDL
MODEL 8
REMARK VINA RESULT:      -4.6      9.511     11.804
REMARK  Name = *****
REMARK                            x       y       z     vdW  Elec       q    Type
REMARK                         _______ _______ _______ _____ _____    ______ ____
ROOT
ATOM      1  C   LIG    1       24.472 -30.011   8.352  0.00  0.00    +0.019 C 
ATOM      2  C   LIG    1       25.135 -30.519   9.664  0.00  0.00    +0.029 C 
ATOM      3  C   LIG    1       26.640 -30.624   9.424  0.00  0.00    +0.140 C 
ATOM      4  O   LIG    1       27.460 -29.798   9.720  0.00  0.00    -0.297 OA
ATOM      5  C   LIG    1       26.990 -31.904   8.724  0.00  0.00    +0.075 C 
ATOM      6  C   LIG    1       25.731 -32.746   8.910  0.00  0.00    +0.012 C 
ATOM      7  C   LIG    1       24.789 -32.033   9.931  0.00  0.00    +0.006 C 
ATOM      8  C   LIG    1       24.831 -32.458  11.458  0.00  0.00    +0.001 C 
ATOM      9  C   LIG    1       24.081 -33.764  11.884  0.00  0.00    +0.031 C 
ATOM     10  C   LIG    1       22.593 -33.623  12.084  0.00  0.00    -0.027 C 
ATOM     11  C   LIG    1       21.992 -32.450  12.352  0.00  0.00    -0.065 C 
ATOM     12  C   LIG    1       22.801 -31.194  12.756  0.00  0.00    -0.008 C 
ATOM     13  C   LIG    1       22.632 -30.861  14.266  0.00  0.00    +0.016 C 
ATOM     14  C   LIG    1       22.135 -30.025  11.997  0.00  0.00    +0.013 C 
ATOM     15  C   LIG    1       21.896 -30.488  10.568  0.00  0.00    +0.032 C 
ATOM     16  C   LIG    1       20.627 -31.313  10.532  0.00  0.00    +0.119 C 
ATOM     17  C   LIG    1       20.554 -32.211  11.814  0.00  0.00    +0.062 C 
ATOM     18  C   LIG    1       24.375 -31.351  12.467  0.00  0.00    +0.003 C 
ATOM     19  C   LIG    1       25.120 -30.041  12.188  0.00  0.00    +0.005 C 
ATOM     20  C   LIG    1       24.935 -29.491  10.780  0.00  0.00    +0.015 C 
ENDROOT
BRANCH  16  21
ATOM     21  O   LIG    1       19.560 -30.374  10.440  0.00  0.00    -0.392 OA
ATOM     22  H   LIG    1       18.794 -30.769  10.904  0.00  0.00    +0.210 HD
ENDBRANCH  16  21
TORSDOF 1
ENDMDL
MODEL 9
REMARK VINA RESULT:      -4.6      8.943     10.895
REMARK  Name = *****
REMARK                            x       y       z     vdW  Elec       q    Type
REMARK                         _______ _______ _______ _____ _____    ______ ____
ROOT
ATOM      1  C   LIG    1       25.562 -31.931  10.419  0.00  0.00    +0.019 C 
ATOM      2  C   LIG    1       24.975 -30.508  10.631  0.00  0.00    +0.029 C 
ATOM      3  C   LIG    1       24.433 -30.013   9.291  0.00  0.00    +0.140 C 
ATOM      4  O   LIG    1       23.289 -30.072   8.929  0.00  0.00    -0.297 OA
ATOM      5  C   LIG    1       25.531 -29.457   8.433  0.00  0.00    +0.075 C 
ATOM      6  C   LIG    1       26.668 -29.252   9.431  0.00  0.00    +0.012 C 
ATOM      7  C   LIG    1       26.116 -29.449  10.878  0.00  0.00    +0.006 C 
ATOM      8  C   LIG    1       25.667 -28.182  11.719  0.00  0.00    +0.001 C 
ATOM      9  C   LIG    1       26.777 -27.318  12.405  0.00  0.00    +0.031 C 
ATOM     10  C   LIG    1       27.304 -27.854  13.712  0.00  0.00    -0.027 C 
ATOM     11  C   LIG    1       26.614 -28.706  14.491  0.00  0.00    -0.065 C 
ATOM     12  C   LIG    1       25.111 -28.991  14.257  0.00  0.00    -0.008 C 
ATOM     13  C   LIG    1       24.222 -28.327  15.347  0.00  0.00    +0.016 C 
ATOM     14  C   LIG    1       24.953 -30.514  14.463  0.00  0.00    +0.013 C 
ATOM     15  C   LIG    1       26.096 -31.194  13.726  0.00  0.00    +0.032 C 
ATOM     16  C   LIG    1       27.333 -31.144  14.599  0.00  0.00    +0.119 C 
ATOM     17  C   LIG    1       27.402 -29.756  15.323  0.00  0.00    +0.062 C 
ATOM     18  C   LIG    1       24.597 -28.467  12.826  0.00  0.00    +0.003 C 
ATOM     19  C   LIG    1       23.416 -29.243  12.235  0.00  0.00    +0.005 C 
ATOM     20  C   LIG    1       23.786 -30.573  11.592  0.00  0.00    +0.015 C 
ENDROOT
BRANCH  16  21
ATOM     21  O   LIG    1       27.215 -32.244  15.497  0.00  0.00    -0.392 OA
ATOM     22  H   LIG    1       28.026 -32.251  16.044  0.00  0.00    +0.210 HD
ENDBRANCH  16  21
TORSDOF 1
ENDMDL
