MODEL 1
REMARK VINA RESULT:      -7.2      0.000      0.000
REMARK  Name = *****
REMARK                            x       y       z     vdW  Elec       q    Type
REMARK                         _______ _______ _______ _____ _____    ______ ____
ROOT
ATOM      1  C   LIG    1       29.822 -20.654   7.661  0.00  0.00    +0.150 A 
ATOM      2  C   LIG    1       28.464 -20.995   7.769  0.00  0.00    +0.147 A 
ATOM      3  N   LIG    1       27.779 -21.818   8.636  0.00  0.00    -0.231 NA
ATOM      4  C   LIG    1       26.520 -21.726   8.260  0.00  0.00    +0.203 A 
ATOM      5  N   LIG    1       26.362 -20.878   7.196  0.00  0.00    -0.285 N 
ATOM      6  C   LIG    1       27.599 -20.392   6.871  0.00  0.00    +0.170 A 
ATOM      7  N   LIG    1       27.912 -19.515   5.906  0.00  0.00    -0.182 NA
ATOM      8  C   LIG    1       29.238 -19.258   5.899  0.00  0.00    +0.313 A 
ATOM      9  F   LIG    1       29.660 -18.375   4.980  0.00  0.00    -0.161 F 
ATOM     10  N   LIG    1       30.190 -19.761   6.718  0.00  0.00    -0.185 NA
ENDROOT
BRANCH   5  11
ATOM     11  C1* LIG    1       25.126 -20.522   6.536  0.00  0.00    +0.253 C 
ATOM     12  C2* LIG    1       24.853 -21.235   5.206  0.00  0.00    +0.195 C 
ATOM     13  C3* LIG    1       23.329 -21.270   5.188  0.00  0.00    +0.178 C 
ATOM     14  C4* LIG    1       22.939 -21.379   6.665  0.00  0.00    +0.177 C 
ATOM     15  O4* LIG    1       24.009 -20.771   7.422  0.00  0.00    -0.346 OA
BRANCH  12  16
ATOM     16  O2* LIG    1       25.391 -22.557   5.127  0.00  0.00    -0.385 OA
ATOM     17  H2* LIG    1       26.328 -22.528   5.419  0.00  0.00    +0.210 HD
ENDBRANCH  12  16
BRANCH  13  18
ATOM     18  O3* LIG    1       22.817 -20.047   4.638  0.00  0.00    -0.386 OA
ATOM     19  H3* LIG    1       22.782 -20.113   3.667  0.00  0.00    +0.210 HD
ENDBRANCH  13  18
BRANCH  14  20
ATOM     20  C5* LIG    1       22.731 -22.813   7.170  0.00  0.00    +0.190 C 
BRANCH  20  21
ATOM     21  O5* LIG    1       22.899 -23.767   6.122  0.00  0.00    -0.392 OA
ATOM     22  H5* LIG    1       23.330 -23.295   5.382  0.00  0.00    +0.209 HD
ENDBRANCH  20  21
ENDBRANCH  14  20
ENDBRANCH   5  11
BRANCH   1  23
ATOM     23  N   LIG    1       30.800 -21.172   8.499  0.00  0.00    -0.341 N 
ATOM     24  H   LIG    1       31.280 -20.465   9.044  0.00  0.00    +0.144 HD
ATOM     25  H   LIG    1       31.361 -21.882   8.049  0.00  0.00    +0.144 HD
ENDBRANCH   1  23
TORSDOF 6
ENDMDL
MODEL 2
REMARK VINA RESULT:      -7.0      2.208      3.574
REMARK  Name = *****
REMARK                            x       y       z     vdW  Elec       q    Type
REMARK                         _______ _______ _______ _____ _____    ______ ____
ROOT
ATOM      1  C   LIG    1       31.272 -19.350   8.233  0.00  0.00    +0.150 A 
ATOM      2  C   LIG    1       30.063 -19.570   7.554  0.00  0.00    +0.147 A 
ATOM      3  N   LIG    1       29.348 -18.804   6.660  0.00  0.00    -0.231 NA
ATOM      4  C   LIG    1       28.301 -19.543   6.350  0.00  0.00    +0.203 A 
ATOM      5  N   LIG    1       28.314 -20.750   6.998  0.00  0.00    -0.285 N 
ATOM      6  C   LIG    1       29.442 -20.789   7.771  0.00  0.00    +0.170 A 
ATOM      7  N   LIG    1       29.868 -21.789   8.557  0.00  0.00    -0.182 NA
ATOM      8  C   LIG    1       31.038 -21.471   9.152  0.00  0.00    +0.313 A 
ATOM      9  F   LIG    1       31.566 -22.412   9.950  0.00  0.00    -0.161 F 
ATOM     10  N   LIG    1       31.757 -20.331   9.023  0.00  0.00    -0.185 NA
ENDROOT
BRANCH   5  11
ATOM     11  C1* LIG    1       27.343 -21.815   6.884  0.00  0.00    +0.253 C 
ATOM     12  C2* LIG    1       26.574 -22.154   8.167  0.00  0.00    +0.195 C 
ATOM     13  C3* LIG    1       25.249 -22.654   7.604  0.00  0.00    +0.178 C 
ATOM     14  C4* LIG    1       25.060 -21.845   6.317  0.00  0.00    +0.177 C 
ATOM     15  O4* LIG    1       26.382 -21.493   5.850  0.00  0.00    -0.346 OA
BRANCH  12  16
ATOM     16  O2* LIG    1       26.367 -21.040   9.038  0.00  0.00    -0.385 OA
ATOM     17  H2* LIG    1       27.034 -21.081   9.758  0.00  0.00    +0.210 HD
ENDBRANCH  12  16
BRANCH  13  18
ATOM     18  O3* LIG    1       25.345 -24.051   7.291  0.00  0.00    -0.386 OA
ATOM     19  H3* LIG    1       26.198 -24.400   7.607  0.00  0.00    +0.210 HD
ENDBRANCH  13  18
BRANCH  14  20
ATOM     20  C5* LIG    1       24.236 -20.561   6.480  0.00  0.00    +0.190 C 
BRANCH  20  21
ATOM     21  O5* LIG    1       23.537 -20.542   7.724  0.00  0.00    -0.392 OA
ATOM     22  H5* LIG    1       22.669 -20.126   7.550  0.00  0.00    +0.209 HD
ENDBRANCH  20  21
ENDBRANCH  14  20
ENDBRANCH   5  11
BRANCH   1  23
ATOM     23  N   LIG    1       32.009 -18.180   8.104  0.00  0.00    -0.341 N 
ATOM     24  H   LIG    1       32.795 -18.266   7.470  0.00  0.00    +0.144 HD
ATOM     25  H   LIG    1       32.167 -17.721   8.991  0.00  0.00    +0.144 HD
ENDBRANCH   1  23
TORSDOF 6
ENDMDL
MODEL 3
REMARK VINA RESULT:      -6.7      4.001      6.612
REMARK  Name = *****
REMARK                            x       y       z     vdW  Elec       q    Type
REMARK                         _______ _______ _______ _____ _____    ______ ____
ROOT
ATOM      1  C   LIG    1       25.565 -20.943   5.384  0.00  0.00    +0.150 A 
ATOM      2  C   LIG    1       26.792 -20.324   5.673  0.00  0.00    +0.147 A 
ATOM      3  N   LIG    1       27.451 -19.259   5.100  0.00  0.00    -0.231 NA
ATOM      4  C   LIG    1       28.553 -19.126   5.811  0.00  0.00    +0.203 A 
ATOM      5  N   LIG    1       28.629 -20.053   6.817  0.00  0.00    -0.285 N 
ATOM      6  C   LIG    1       27.504 -20.826   6.749  0.00  0.00    +0.170 A 
ATOM      7  N   LIG    1       27.151 -21.842   7.553  0.00  0.00    -0.182 NA
ATOM      8  C   LIG    1       25.957 -22.355   7.187  0.00  0.00    +0.313 A 
ATOM      9  F   LIG    1       25.499 -23.368   7.939  0.00  0.00    -0.161 F 
ATOM     10  N   LIG    1       25.153 -21.958   6.173  0.00  0.00    -0.185 NA
ENDROOT
BRANCH   5  11
ATOM     11  C1* LIG    1       29.680 -20.192   7.800  0.00  0.00    +0.253 C 
ATOM     12  C2* LIG    1       31.085 -19.790   7.333  0.00  0.00    +0.195 C 
ATOM     13  C3* LIG    1       31.717 -19.324   8.639  0.00  0.00    +0.178 C 
ATOM     14  C4* LIG    1       30.546 -18.738   9.434  0.00  0.00    +0.177 C 
ATOM     15  O4* LIG    1       29.354 -19.417   8.978  0.00  0.00    -0.346 OA
BRANCH  12  16
ATOM     16  O2* LIG    1       31.103 -18.745   6.360  0.00  0.00    -0.385 OA
ATOM     17  H2* LIG    1       31.072 -17.882   6.829  0.00  0.00    +0.210 HD
ENDBRANCH  12  16
BRANCH  13  18
ATOM     18  O3* LIG    1       32.270 -20.445   9.344  0.00  0.00    -0.386 OA
ATOM     19  H3* LIG    1       32.992 -20.144   9.925  0.00  0.00    +0.210 HD
ENDBRANCH  13  18
BRANCH  14  20
ATOM     20  C5* LIG    1       30.347 -17.226   9.264  0.00  0.00    +0.190 C 
BRANCH  20  21
ATOM     21  O5* LIG    1       30.026 -16.597  10.504  0.00  0.00    -0.392 OA
ATOM     22  H5* LIG    1       30.045 -17.299  11.185  0.00  0.00    +0.209 HD
ENDBRANCH  20  21
ENDBRANCH  14  20
ENDBRANCH   5  11
BRANCH   1  23
ATOM     23  N   LIG    1       24.741 -20.539   4.342  0.00  0.00    -0.341 N 
ATOM     24  H   LIG    1       24.581 -19.538   4.319  0.00  0.00    +0.144 HD
ATOM     25  H   LIG    1       23.942 -21.147   4.221  0.00  0.00    +0.144 HD
ENDBRANCH   1  23
TORSDOF 6
ENDMDL
MODEL 4
REMARK VINA RESULT:      -6.5      3.472      5.893
REMARK  Name = *****
REMARK                            x       y       z     vdW  Elec       q    Type
REMARK                         _______ _______ _______ _____ _____    ______ ____
ROOT
ATOM      1  C   LIG    1       24.017 -21.893   5.776  0.00  0.00    +0.150 A 
ATOM      2  C   LIG    1       25.255 -21.890   6.439  0.00  0.00    +0.147 A 
ATOM      3  N   LIG    1       25.769 -22.673   7.449  0.00  0.00    -0.231 NA
ATOM      4  C   LIG    1       26.988 -22.211   7.642  0.00  0.00    +0.203 A 
ATOM      5  N   LIG    1       27.283 -21.171   6.800  0.00  0.00    -0.285 N 
ATOM      6  C   LIG    1       26.185 -20.956   6.014  0.00  0.00    +0.170 A 
ATOM      7  N   LIG    1       26.036 -20.050   5.036  0.00  0.00    -0.182 NA
ATOM      8  C   LIG    1       24.815 -20.149   4.467  0.00  0.00    +0.313 A 
ATOM      9  F   LIG    1       24.567 -19.297   3.460  0.00  0.00    -0.161 F 
ATOM     10  N   LIG    1       23.821 -21.015   4.771  0.00  0.00    -0.185 NA
ENDROOT
BRANCH   5  11
ATOM     11  C1* LIG    1       28.526 -20.438   6.716  0.00  0.00    +0.253 C 
ATOM     12  C2* LIG    1       28.701 -19.307   7.737  0.00  0.00    +0.195 C 
ATOM     13  C3* LIG    1       30.215 -19.286   7.911  0.00  0.00    +0.178 C 
ATOM     14  C4* LIG    1       30.635 -20.745   7.713  0.00  0.00    +0.177 C 
ATOM     15  O4* LIG    1       29.642 -21.350   6.854  0.00  0.00    -0.346 OA
BRANCH  12  16
ATOM     16  O2* LIG    1       28.050 -19.539   8.988  0.00  0.00    -0.385 OA
ATOM     17  H2* LIG    1       27.204 -20.007   8.816  0.00  0.00    +0.210 HD
ENDBRANCH  12  16
BRANCH  13  18
ATOM     18  O3* LIG    1       30.813 -18.466   6.898  0.00  0.00    -0.386 OA
ATOM     19  H3* LIG    1       31.662 -18.112   7.220  0.00  0.00    +0.210 HD
ENDBRANCH  13  18
BRANCH  14  20
ATOM     20  C5* LIG    1       30.734 -21.566   9.006  0.00  0.00    +0.190 C 
BRANCH  20  21
ATOM     21  O5* LIG    1       32.063 -21.566   9.525  0.00  0.00    -0.392 OA
ATOM     22  H5* LIG    1       32.097 -22.268  10.205  0.00  0.00    +0.209 HD
ENDBRANCH  20  21
ENDBRANCH  14  20
ENDBRANCH   5  11
BRANCH   1  23
ATOM     23  N   LIG    1       22.995 -22.780   6.089  0.00  0.00    -0.341 N 
ATOM     24  H   LIG    1       22.147 -22.323   6.406  0.00  0.00    +0.144 HD
ATOM     25  H   LIG    1       23.322 -23.580   6.612  0.00  0.00    +0.144 HD
ENDBRANCH   1  23
TORSDOF 6
ENDMDL
MODEL 5
REMARK VINA RESULT:      -6.2      2.162      3.178
REMARK  Name = *****
REMARK                            x       y       z     vdW  Elec       q    Type
REMARK                         _______ _______ _______ _____ _____    ______ ____
ROOT
ATOM      1  C   LIG    1       28.911 -19.500   6.074  0.00  0.00    +0.150 A 
ATOM      2  C   LIG    1       27.599 -19.920   5.800  0.00  0.00    +0.147 A 
ATOM      3  N   LIG    1       26.668 -19.509   4.872  0.00  0.00    -0.231 NA
ATOM      4  C   LIG    1       25.623 -20.285   5.081  0.00  0.00    +0.203 A 
ATOM      5  N   LIG    1       25.842 -21.179   6.095  0.00  0.00    -0.285 N 
ATOM      6  C   LIG    1       27.109 -20.965   6.565  0.00  0.00    +0.170 A 
ATOM      7  N   LIG    1       27.749 -21.627   7.541  0.00  0.00    -0.182 NA
ATOM      8  C   LIG    1       28.999 -21.144   7.712  0.00  0.00    +0.313 A 
ATOM      9  F   LIG    1       29.736 -21.749   8.656  0.00  0.00    -0.161 F 
ATOM     10  N   LIG    1       29.607 -20.144   7.035  0.00  0.00    -0.185 NA
ENDROOT
BRANCH   5  11
ATOM     11  C1* LIG    1       24.932 -22.191   6.582  0.00  0.00    +0.253 C 
ATOM     12  C2* LIG    1       24.069 -22.877   5.515  0.00  0.00    +0.195 C 
ATOM     13  C3* LIG    1       23.863 -24.256   6.132  0.00  0.00    +0.178 C 
ATOM     14  C4* LIG    1       25.150 -24.509   6.922  0.00  0.00    +0.177 C 
ATOM     15  O4* LIG    1       25.671 -23.213   7.294  0.00  0.00    -0.346 OA
BRANCH  12  16
ATOM     16  O2* LIG    1       24.693 -22.983   4.234  0.00  0.00    -0.385 OA
ATOM     17  H2* LIG    1       25.619 -23.284   4.364  0.00  0.00    +0.210 HD
ENDBRANCH  12  16
BRANCH  13  18
ATOM     18  O3* LIG    1       22.740 -24.230   7.025  0.00  0.00    -0.386 OA
ATOM     19  H3* LIG    1       22.987 -24.638   7.874  0.00  0.00    +0.210 HD
ENDBRANCH  13  18
BRANCH  14  20
ATOM     20  C5* LIG    1       26.235 -25.275   6.154  0.00  0.00    +0.190 C 
BRANCH  20  21
ATOM     21  O5* LIG    1       25.744 -25.772   4.910  0.00  0.00    -0.392 OA
ATOM     22  H5* LIG    1       26.528 -25.999   4.371  0.00  0.00    +0.209 HD
ENDBRANCH  20  21
ENDBRANCH  14  20
ENDBRANCH   5  11
BRANCH   1  23
ATOM     23  N   LIG    1       29.535 -18.472   5.381  0.00  0.00    -0.341 N 
ATOM     24  H   LIG    1       30.370 -18.124   5.841  0.00  0.00    +0.144 HD
ATOM     25  H   LIG    1       28.879 -17.793   5.019  0.00  0.00    +0.144 HD
ENDBRANCH   1  23
TORSDOF 6
ENDMDL
MODEL 6
REMARK VINA RESULT:      -6.1      3.948      5.473
REMARK  Name = *****
REMARK                            x       y       z     vdW  Elec       q    Type
REMARK                         _______ _______ _______ _____ _____    ______ ____
ROOT
ATOM      1  C   LIG    1       24.260 -21.146   7.424  0.00  0.00    +0.150 A 
ATOM      2  C   LIG    1       24.038 -22.455   6.968  0.00  0.00    +0.147 A 
ATOM      3  N   LIG    1       22.915 -23.253   6.947  0.00  0.00    -0.231 NA
ATOM      4  C   LIG    1       23.314 -24.375   6.382  0.00  0.00    +0.203 A 
ATOM      5  N   LIG    1       24.638 -24.333   6.033  0.00  0.00    -0.285 N 
ATOM      6  C   LIG    1       25.118 -23.105   6.395  0.00  0.00    +0.170 A 
ATOM      7  N   LIG    1       26.358 -22.622   6.223  0.00  0.00    -0.182 NA
ATOM      8  C   LIG    1       26.453 -21.358   6.691  0.00  0.00    +0.313 A 
ATOM      9  F   LIG    1       27.652 -20.770   6.552  0.00  0.00    -0.161 F 
ATOM     10  N   LIG    1       25.485 -20.604   7.259  0.00  0.00    -0.185 NA
ENDROOT
BRANCH   5  11
ATOM     11  C1* LIG    1       25.404 -25.369   5.378  0.00  0.00    +0.253 C 
ATOM     12  C2* LIG    1       26.434 -26.090   6.255  0.00  0.00    +0.195 C 
ATOM     13  C3* LIG    1       26.473 -27.469   5.608  0.00  0.00    +0.178 C 
ATOM     14  C4* LIG    1       25.050 -27.676   5.081  0.00  0.00    +0.177 C 
ATOM     15  O4* LIG    1       24.509 -26.361   4.820  0.00  0.00    -0.346 OA
BRANCH  12  16
ATOM     16  O2* LIG    1       26.066 -26.187   7.633  0.00  0.00    -0.385 OA
ATOM     17  H2* LIG    1       25.412 -25.482   7.830  0.00  0.00    +0.210 HD
ENDBRANCH  12  16
BRANCH  13  18
ATOM     18  O3* LIG    1       27.401 -27.472   4.514  0.00  0.00    -0.386 OA
ATOM     19  H3* LIG    1       26.915 -27.497   3.671  0.00  0.00    +0.210 HD
ENDBRANCH  13  18
BRANCH  14  20
ATOM     20  C5* LIG    1       24.109 -28.414   6.044  0.00  0.00    +0.190 C 
BRANCH  20  21
ATOM     21  O5* LIG    1       23.297 -29.364   5.357  0.00  0.00    -0.392 OA
ATOM     22  H5* LIG    1       22.425 -28.943   5.225  0.00  0.00    +0.209 HD
ENDBRANCH  20  21
ENDBRANCH  14  20
ENDBRANCH   5  11
BRANCH   1  23
ATOM     23  N   LIG    1       23.267 -20.372   8.010  0.00  0.00    -0.341 N 
ATOM     24  H   LIG    1       22.955 -20.727   8.907  0.00  0.00    +0.144 HD
ATOM     25  H   LIG    1       22.561 -20.079   7.348  0.00  0.00    +0.144 HD
ENDBRANCH   1  23
TORSDOF 6
ENDMDL
MODEL 7
REMARK VINA RESULT:      -5.9      1.538      2.771
REMARK  Name = *****
REMARK                            x       y       z     vdW  Elec       q    Type
REMARK                         _______ _______ _______ _____ _____    ______ ____
ROOT
ATOM      1  C   LIG    1       30.679 -19.153   7.237  0.00  0.00    +0.150 A 
ATOM      2  C   LIG    1       29.917 -20.229   7.719  0.00  0.00    +0.147 A 
ATOM      3  N   LIG    1       30.107 -21.107   8.763  0.00  0.00    -0.231 NA
ATOM      4  C   LIG    1       29.046 -21.889   8.739  0.00  0.00    +0.203 A 
ATOM      5  N   LIG    1       28.181 -21.550   7.733  0.00  0.00    -0.285 N 
ATOM      6  C   LIG    1       28.719 -20.482   7.071  0.00  0.00    +0.170 A 
ATOM      7  N   LIG    1       28.201 -19.810   6.031  0.00  0.00    -0.182 NA
ATOM      8  C   LIG    1       29.013 -18.797   5.658  0.00  0.00    +0.313 A 
ATOM      9  F   LIG    1       28.580 -18.046   4.634  0.00  0.00    -0.161 F 
ATOM     10  N   LIG    1       30.196 -18.431   6.204  0.00  0.00    -0.185 NA
ENDROOT
BRANCH   5  11
ATOM     11  C1* LIG    1       26.913 -22.172   7.422  0.00  0.00    +0.253 C 
ATOM     12  C2* LIG    1       25.711 -21.672   8.233  0.00  0.00    +0.195 C 
ATOM     13  C3* LIG    1       24.570 -21.880   7.244  0.00  0.00    +0.178 C 
ATOM     14  C4* LIG    1       25.217 -21.662   5.873  0.00  0.00    +0.177 C 
ATOM     15  O4* LIG    1       26.615 -22.000   6.016  0.00  0.00    -0.346 OA
BRANCH  12  16
ATOM     16  O2* LIG    1       25.797 -20.301   8.625  0.00  0.00    -0.385 OA
ATOM     17  H2* LIG    1       26.585 -20.192   9.202  0.00  0.00    +0.210 HD
ENDBRANCH  12  16
BRANCH  13  18
ATOM     18  O3* LIG    1       24.077 -23.224   7.340  0.00  0.00    -0.386 OA
ATOM     19  H3* LIG    1       24.794 -23.852   7.141  0.00  0.00    +0.210 HD
ENDBRANCH  13  18
BRANCH  14  20
ATOM     20  C5* LIG    1       25.110 -20.229   5.334  0.00  0.00    +0.190 C 
BRANCH  20  21
ATOM     21  O5* LIG    1       25.972 -20.025   4.216  0.00  0.00    -0.392 OA
ATOM     22  H5* LIG    1       26.599 -19.319   4.472  0.00  0.00    +0.209 HD
ENDBRANCH  20  21
ENDBRANCH  14  20
ENDBRANCH   5  11
BRANCH   1  23
ATOM     23  N   LIG    1       31.895 -18.778   7.794  0.00  0.00    -0.341 N 
ATOM     24  H   LIG    1       31.837 -17.939   8.360  0.00  0.00    +0.144 HD
ATOM     25  H   LIG    1       32.662 -18.855   7.140  0.00  0.00    +0.144 HD
ENDBRANCH   1  23
TORSDOF 6
ENDMDL
MODEL 8
REMARK VINA RESULT:      -5.9      1.675      3.031
REMARK  Name = *****
REMARK                            x       y       z     vdW  Elec       q    Type
REMARK                         _______ _______ _______ _____ _____    ______ ____
ROOT
ATOM      1  C   LIG    1       29.619 -19.527   6.782  0.00  0.00    +0.150 A 
ATOM      2  C   LIG    1       28.366 -19.799   6.211  0.00  0.00    +0.147 A 
ATOM      3  N   LIG    1       27.652 -19.187   5.205  0.00  0.00    -0.231 NA
ATOM      4  C   LIG    1       26.550 -19.902   5.094  0.00  0.00    +0.203 A 
ATOM      5  N   LIG    1       26.526 -20.948   5.978  0.00  0.00    -0.285 N 
ATOM      6  C   LIG    1       27.687 -20.904   6.699  0.00  0.00    +0.170 A 
ATOM      7  N   LIG    1       28.094 -21.747   7.660  0.00  0.00    -0.182 NA
ATOM      8  C   LIG    1       29.310 -21.393   8.130  0.00  0.00    +0.313 A 
ATOM      9  F   LIG    1       29.822 -22.183   9.086  0.00  0.00    -0.161 F 
ATOM     10  N   LIG    1       30.085 -20.355   7.741  0.00  0.00    -0.185 NA
ENDROOT
BRANCH   5  11
ATOM     11  C1* LIG    1       25.491 -21.947   6.125  0.00  0.00    +0.253 C 
ATOM     12  C2* LIG    1       24.708 -21.905   7.443  0.00  0.00    +0.195 C 
ATOM     13  C3* LIG    1       23.352 -22.448   7.010  0.00  0.00    +0.178 C 
ATOM     14  C4* LIG    1       23.207 -21.979   5.559  0.00  0.00    +0.177 C 
ATOM     15  O4* LIG    1       24.546 -21.837   5.033  0.00  0.00    -0.346 OA
BRANCH  12  16
ATOM     16  O2* LIG    1       24.574 -20.597   8.005  0.00  0.00    -0.385 OA
ATOM     17  H2* LIG    1       24.157 -20.013   7.335  0.00  0.00    +0.210 HD
ENDBRANCH  12  16
BRANCH  13  18
ATOM     18  O3* LIG    1       23.360 -23.882   7.059  0.00  0.00    -0.386 OA
ATOM     19  H3* LIG    1       24.250 -24.213   6.843  0.00  0.00    +0.210 HD
ENDBRANCH  13  18
BRANCH  14  20
ATOM     20  C5* LIG    1       22.465 -20.648   5.385  0.00  0.00    +0.190 C 
BRANCH  20  21
ATOM     21  O5* LIG    1       23.171 -19.764   4.517  0.00  0.00    -0.392 OA
ATOM     22  H5* LIG    1       22.978 -18.856   4.825  0.00  0.00    +0.209 HD
ENDBRANCH  20  21
ENDBRANCH  14  20
ENDBRANCH   5  11
BRANCH   1  23
ATOM     23  N   LIG    1       30.415 -18.460   6.385  0.00  0.00    -0.341 N 
ATOM     24  H   LIG    1       31.330 -18.741   6.054  0.00  0.00    +0.144 HD
ATOM     25  H   LIG    1       30.365 -17.679   7.026  0.00  0.00    +0.144 HD
ENDBRANCH   1  23
TORSDOF 6
ENDMDL
MODEL 9
REMARK VINA RESULT:      -5.9      4.018      6.535
REMARK  Name = *****
REMARK                            x       y       z     vdW  Elec       q    Type
REMARK                         _______ _______ _______ _____ _____    ______ ____
ROOT
ATOM      1  C   LIG    1       26.587 -20.425   5.308  0.00  0.00    +0.150 A 
ATOM      2  C   LIG    1       27.694 -19.568   5.411  0.00  0.00    +0.147 A 
ATOM      3  N   LIG    1       28.110 -18.494   4.655  0.00  0.00    -0.231 NA
ATOM      4  C   LIG    1       29.211 -18.075   5.248  0.00  0.00    +0.203 A 
ATOM      5  N   LIG    1       29.517 -18.825   6.352  0.00  0.00    -0.285 N 
ATOM      6  C   LIG    1       28.551 -19.784   6.478  0.00  0.00    +0.170 A 
ATOM      7  N   LIG    1       28.440 -20.724   7.430  0.00  0.00    -0.182 NA
ATOM      8  C   LIG    1       27.340 -21.482   7.234  0.00  0.00    +0.313 A 
ATOM      9  F   LIG    1       27.123 -22.445   8.143  0.00  0.00    -0.161 F 
ATOM     10  N   LIG    1       26.418 -21.377   6.251  0.00  0.00    -0.185 NA
ENDROOT
BRANCH   5  11
ATOM     11  C1* LIG    1       30.633 -18.642   7.252  0.00  0.00    +0.253 C 
ATOM     12  C2* LIG    1       30.270 -18.266   8.694  0.00  0.00    +0.195 C 
ATOM     13  C3* LIG    1       31.432 -18.876   9.469  0.00  0.00    +0.178 C 
ATOM     14  C4* LIG    1       31.816 -20.114   8.655  0.00  0.00    +0.177 C 
ATOM     15  O4* LIG    1       31.437 -19.845   7.286  0.00  0.00    -0.346 OA
BRANCH  12  16
ATOM     16  O2* LIG    1       29.024 -18.801   9.144  0.00  0.00    -0.385 OA
ATOM     17  H2* LIG    1       28.331 -18.115   9.027  0.00  0.00    +0.210 HD
ENDBRANCH  12  16
BRANCH  13  18
ATOM     18  O3* LIG    1       32.533 -17.957   9.506  0.00  0.00    -0.386 OA
ATOM     19  H3* LIG    1       33.112 -18.106   8.737  0.00  0.00    +0.210 HD
ENDBRANCH  13  18
BRANCH  14  20
ATOM     20  C5* LIG    1       31.140 -21.415   9.107  0.00  0.00    +0.190 C 
BRANCH  20  21
ATOM     21  O5* LIG    1       31.933 -22.557   8.788  0.00  0.00    -0.392 OA
ATOM     22  H5* LIG    1       32.728 -22.224   8.326  0.00  0.00    +0.209 HD
ENDBRANCH  20  21
ENDBRANCH  14  20
ENDBRANCH   5  11
BRANCH   1  23
ATOM     23  N   LIG    1       25.641 -20.319   4.297  0.00  0.00    -0.341 N 
ATOM     24  H   LIG    1       25.375 -19.363   4.092  0.00  0.00    +0.144 HD
ATOM     25  H   LIG    1       24.903 -21.005   4.383  0.00  0.00    +0.144 HD
ENDBRANCH   1  23
TORSDOF 6
ENDMDL
