MODEL 1
REMARK VINA RESULT:      -8.7      0.000      0.000
REMARK  Name = *****
REMARK                            x       y       z     vdW  Elec       q    Type
REMARK                         _______ _______ _______ _____ _____    ______ ____
ROOT
ATOM      1  C   LIG    1       30.158 -21.238   8.310  0.00  0.00    +0.044 C 
ATOM      2  C   LIG    1       29.357 -20.144   7.648  0.00  0.00    -0.050 C 
ATOM      3  C   LIG    1       29.608 -18.832   7.813  0.00  0.00    +0.003 C 
ENDROOT
BRANCH   3   4
ATOM      4  C   LIG    1       30.608 -18.302   8.702  0.00  0.00    +0.001 C 
ATOM      5  C   LIG    1       30.323 -17.432   9.681  0.00  0.00    +0.003 C 
BRANCH   5   6
ATOM      6  C   LIG    1       31.326 -16.831  10.549  0.00  0.00    -0.044 C 
ATOM      7  C   LIG    1       31.125 -16.884  11.879  0.00  0.00    +0.094 C 
ATOM      8  C   LIG    1       32.512 -16.166   9.890  0.00  0.00    +0.044 C 
BRANCH   7   9
ATOM      9  C   LIG    1       32.063 -16.343  12.889  0.00  0.00    +0.330 C 
ATOM     10  O   LIG    1       33.020 -16.926  13.347  0.00  0.00    -0.246 OA
BRANCH   9  11
ATOM     11  O   LIG    1       31.718 -15.088  13.256  0.00  0.00    -0.477 OA
ATOM     12  H   LIG    1       31.174 -15.020  14.063  0.00  0.00    +0.295 HD
ENDBRANCH   9  11
ENDBRANCH   7   9
ENDBRANCH   5   6
ENDBRANCH   3   4
BRANCH   2  13
ATOM     13  C   LIG    1       28.316 -20.526   6.710  0.00  0.00    +0.003 C 
ATOM     14  C   LIG    1       27.003 -20.313   6.886  0.00  0.00    +0.004 C 
BRANCH  14  15
ATOM     15  C   LIG    1       25.997 -20.690   5.902  0.00  0.00    -0.043 C 
ATOM     16  C   LIG    1       25.098 -21.885   6.295  0.00  0.00    -0.010 C 
ATOM     17  C   LIG    1       25.901 -23.091   6.840  0.00  0.00    +0.016 C 
ATOM     18  C   LIG    1       24.114 -21.429   7.397  0.00  0.00    +0.016 C 
ATOM     19  C   LIG    1       24.296 -22.408   5.075  0.00  0.00    +0.011 C 
ATOM     20  C   LIG    1       23.694 -21.282   4.252  0.00  0.00    +0.005 C 
ATOM     21  C   LIG    1       24.788 -20.367   3.721  0.00  0.00    +0.031 C 
ATOM     22  C   LIG    1       25.857 -20.018   4.732  0.00  0.00    -0.069 C 
ATOM     23  C   LIG    1       26.716 -18.860   4.279  0.00  0.00    +0.039 C 
ENDBRANCH  14  15
ENDBRANCH   2  13
TORSDOF 6
ENDMDL
MODEL 2
REMARK VINA RESULT:      -7.5      6.762      9.889
REMARK  Name = *****
REMARK                            x       y       z     vdW  Elec       q    Type
REMARK                         _______ _______ _______ _____ _____    ______ ____
ROOT
ATOM      1  C   LIG    1       25.171 -25.776   4.724  0.00  0.00    +0.044 C 
ATOM      2  C   LIG    1       25.623 -25.947   6.154  0.00  0.00    -0.050 C 
ATOM      3  C   LIG    1       25.656 -24.942   7.049  0.00  0.00    +0.003 C 
ENDROOT
BRANCH   3   4
ATOM      4  C   LIG    1       25.350 -23.570   6.743  0.00  0.00    +0.001 C 
ATOM      5  C   LIG    1       24.121 -23.053   6.867  0.00  0.00    +0.003 C 
BRANCH   5   6
ATOM      6  C   LIG    1       23.773 -21.687   6.499  0.00  0.00    -0.044 C 
ATOM      7  C   LIG    1       23.642 -21.398   5.191  0.00  0.00    +0.094 C 
ATOM      8  C   LIG    1       23.610 -20.683   7.617  0.00  0.00    +0.044 C 
BRANCH   7   9
ATOM      9  C   LIG    1       23.268 -20.067   4.662  0.00  0.00    +0.330 C 
ATOM     10  O   LIG    1       22.190 -19.532   4.794  0.00  0.00    -0.246 OA
BRANCH   9  11
ATOM     11  O   LIG    1       24.296 -19.500   3.991  0.00  0.00    -0.477 OA
ATOM     12  H   LIG    1       24.386 -18.534   4.095  0.00  0.00    +0.295 HD
ENDBRANCH   9  11
ENDBRANCH   7   9
ENDBRANCH   5   6
ENDBRANCH   3   4
BRANCH   2  13
ATOM     13  C   LIG    1       25.955 -27.283   6.615  0.00  0.00    +0.003 C 
ATOM     14  C   LIG    1       25.089 -28.145   7.168  0.00  0.00    +0.004 C 
BRANCH  14  15
ATOM     15  C   LIG    1       25.464 -29.488   7.590  0.00  0.00    -0.043 C 
ATOM     16  C   LIG    1       25.714 -29.662   9.106  0.00  0.00    -0.010 C 
ATOM     17  C   LIG    1       26.625 -28.560   9.698  0.00  0.00    +0.016 C 
ATOM     18  C   LIG    1       24.357 -29.610   9.846  0.00  0.00    +0.016 C 
ATOM     19  C   LIG    1       26.412 -31.015   9.407  0.00  0.00    +0.011 C 
ATOM     20  C   LIG    1       25.798 -32.168   8.632  0.00  0.00    +0.005 C 
ATOM     21  C   LIG    1       25.909 -31.921   7.134  0.00  0.00    +0.031 C 
ATOM     22  C   LIG    1       25.565 -30.512   6.706  0.00  0.00    -0.069 C 
ATOM     23  C   LIG    1       25.358 -30.403   5.212  0.00  0.00    +0.039 C 
ENDBRANCH  14  15
ENDBRANCH   2  13
TORSDOF 6
ENDMDL
MODEL 3
REMARK VINA RESULT:      -7.3      6.846     10.030
REMARK  Name = *****
REMARK                            x       y       z     vdW  Elec       q    Type
REMARK                         _______ _______ _______ _____ _____    ______ ____
ROOT
ATOM      1  C   LIG    1       24.115 -26.466   5.490  0.00  0.00    +0.044 C 
ATOM      2  C   LIG    1       25.338 -26.520   6.372  0.00  0.00    -0.050 C 
ATOM      3  C   LIG    1       25.981 -25.427   6.822  0.00  0.00    +0.003 C 
ENDROOT
BRANCH   3   4
ATOM      4  C   LIG    1       25.645 -24.077   6.454  0.00  0.00    +0.001 C 
ATOM      5  C   LIG    1       25.340 -23.133   7.353  0.00  0.00    +0.003 C 
BRANCH   5   6
ATOM      6  C   LIG    1       24.931 -21.780   7.002  0.00  0.00    -0.044 C 
ATOM      7  C   LIG    1       24.154 -21.615   5.915  0.00  0.00    +0.094 C 
ATOM      8  C   LIG    1       25.431 -20.650   7.874  0.00  0.00    +0.044 C 
BRANCH   7   9
ATOM      9  C   LIG    1       23.637 -20.309   5.446  0.00  0.00    +0.330 C 
ATOM     10  O   LIG    1       22.630 -19.767   5.841  0.00  0.00    -0.246 OA
BRANCH   9  11
ATOM     11  O   LIG    1       24.438 -19.778   4.496  0.00  0.00    -0.477 OA
ATOM     12  H   LIG    1       24.750 -18.870   4.668  0.00  0.00    +0.295 HD
ENDBRANCH   9  11
ENDBRANCH   7   9
ENDBRANCH   5   6
ENDBRANCH   3   4
BRANCH   2  13
ATOM     13  C   LIG    1       25.793 -27.819   6.837  0.00  0.00    +0.003 C 
ATOM     14  C   LIG    1       25.001 -28.783   7.329  0.00  0.00    +0.004 C 
BRANCH  14  15
ATOM     15  C   LIG    1       25.502 -30.082   7.757  0.00  0.00    -0.043 C 
ATOM     16  C   LIG    1       25.173 -31.264   6.815  0.00  0.00    -0.010 C 
ATOM     17  C   LIG    1       23.688 -31.295   6.381  0.00  0.00    +0.016 C 
ATOM     18  C   LIG    1       26.042 -31.144   5.541  0.00  0.00    +0.016 C 
ATOM     19  C   LIG    1       25.457 -32.625   7.504  0.00  0.00    +0.011 C 
ATOM     20  C   LIG    1       26.781 -32.632   8.249  0.00  0.00    +0.005 C 
ATOM     21  C   LIG    1       26.788 -31.562   9.332  0.00  0.00    +0.031 C 
ATOM     22  C   LIG    1       26.222 -30.229   8.897  0.00  0.00    -0.069 C 
ATOM     23  C   LIG    1       26.556 -29.122   9.871  0.00  0.00    +0.039 C 
ENDBRANCH  14  15
ENDBRANCH   2  13
TORSDOF 6
ENDMDL
MODEL 4
REMARK VINA RESULT:      -7.3      7.425     10.795
REMARK  Name = *****
REMARK                            x       y       z     vdW  Elec       q    Type
REMARK                         _______ _______ _______ _____ _____    ______ ____
ROOT
ATOM      1  C   LIG    1       26.238 -27.202   5.038  0.00  0.00    +0.044 C 
ATOM      2  C   LIG    1       25.051 -27.421   5.944  0.00  0.00    -0.050 C 
ATOM      3  C   LIG    1       24.284 -26.424   6.422  0.00  0.00    +0.003 C 
ENDROOT
BRANCH   3   4
ATOM      4  C   LIG    1       24.543 -25.025   6.206  0.00  0.00    +0.001 C 
ATOM      5  C   LIG    1       23.701 -24.060   6.600  0.00  0.00    +0.003 C 
BRANCH   5   6
ATOM      6  C   LIG    1       23.909 -22.643   6.334  0.00  0.00    -0.044 C 
ATOM      7  C   LIG    1       24.561 -22.300   5.207  0.00  0.00    +0.094 C 
ATOM      8  C   LIG    1       23.397 -21.658   7.359  0.00  0.00    +0.044 C 
BRANCH   7   9
ATOM      9  C   LIG    1       24.826 -20.905   4.786  0.00  0.00    +0.330 C 
ATOM     10  O   LIG    1       24.031 -20.169   4.247  0.00  0.00    -0.246 OA
BRANCH   9  11
ATOM     11  O   LIG    1       26.095 -20.539   5.076  0.00  0.00    -0.477 OA
ATOM     12  H   LIG    1       26.247 -20.236   5.990  0.00  0.00    +0.295 HD
ENDBRANCH   9  11
ENDBRANCH   7   9
ENDBRANCH   5   6
ENDBRANCH   3   4
BRANCH   2  13
ATOM     13  C   LIG    1       24.659 -28.787   6.244  0.00  0.00    +0.003 C 
ATOM     14  C   LIG    1       25.360 -29.641   7.004  0.00  0.00    +0.004 C 
BRANCH  14  15
ATOM     15  C   LIG    1       24.911 -30.995   7.301  0.00  0.00    -0.043 C 
ATOM     16  C   LIG    1       25.494 -32.102   6.393  0.00  0.00    -0.010 C 
ATOM     17  C   LIG    1       25.420 -31.750   4.888  0.00  0.00    +0.016 C 
ATOM     18  C   LIG    1       26.981 -32.319   6.760  0.00  0.00    +0.016 C 
ATOM     19  C   LIG    1       24.722 -33.436   6.569  0.00  0.00    +0.011 C 
ATOM     20  C   LIG    1       24.449 -33.758   8.029  0.00  0.00    +0.005 C 
ATOM     21  C   LIG    1       23.612 -32.659   8.668  0.00  0.00    +0.031 C 
ATOM     22  C   LIG    1       24.053 -31.255   8.318  0.00  0.00    -0.069 C 
ATOM     23  C   LIG    1       23.430 -30.218   9.225  0.00  0.00    +0.039 C 
ENDBRANCH  14  15
ENDBRANCH   2  13
TORSDOF 6
ENDMDL
MODEL 5
REMARK VINA RESULT:      -7.2      1.629      2.810
REMARK  Name = *****
REMARK                            x       y       z     vdW  Elec       q    Type
REMARK                         _______ _______ _______ _____ _____    ______ ____
ROOT
ATOM      1  C   LIG    1       29.704 -21.826   7.865  0.00  0.00    +0.044 C 
ATOM      2  C   LIG    1       28.445 -21.003   7.990  0.00  0.00    -0.050 C 
ATOM      3  C   LIG    1       28.439 -19.659   8.076  0.00  0.00    +0.003 C 
ENDROOT
BRANCH   3   4
ATOM      4  C   LIG    1       29.623 -18.845   8.146  0.00  0.00    +0.001 C 
ATOM      5  C   LIG    1       30.131 -18.398   9.303  0.00  0.00    +0.003 C 
BRANCH   5   6
ATOM      6  C   LIG    1       31.287 -17.518   9.396  0.00  0.00    -0.044 C 
ATOM      7  C   LIG    1       31.376 -16.698  10.460  0.00  0.00    +0.094 C 
ATOM      8  C   LIG    1       32.297 -17.571   8.272  0.00  0.00    +0.044 C 
BRANCH   7   9
ATOM      9  C   LIG    1       32.500 -15.768  10.709  0.00  0.00    +0.330 C 
ATOM     10  O   LIG    1       33.024 -15.058   9.880  0.00  0.00    -0.246 OA
BRANCH   9  11
ATOM     11  O   LIG    1       32.888 -15.803  12.003  0.00  0.00    -0.477 OA
ATOM     12  H   LIG    1       33.773 -15.436  12.187  0.00  0.00    +0.295 HD
ENDBRANCH   9  11
ENDBRANCH   7   9
ENDBRANCH   5   6
ENDBRANCH   3   4
BRANCH   2  13
ATOM     13  C   LIG    1       27.166 -21.688   7.924  0.00  0.00    +0.003 C 
ATOM     14  C   LIG    1       26.331 -21.662   6.874  0.00  0.00    +0.004 C 
BRANCH  14  15
ATOM     15  C   LIG    1       25.069 -22.390   6.844  0.00  0.00    -0.043 C 
ATOM     16  C   LIG    1       23.797 -21.516   6.934  0.00  0.00    -0.010 C 
ATOM     17  C   LIG    1       23.867 -20.462   8.065  0.00  0.00    +0.016 C 
ATOM     18  C   LIG    1       23.608 -20.768   5.594  0.00  0.00    +0.016 C 
ATOM     19  C   LIG    1       22.542 -22.382   7.220  0.00  0.00    +0.011 C 
ATOM     20  C   LIG    1       22.503 -23.643   6.372  0.00  0.00    +0.005 C 
ATOM     21  C   LIG    1       23.726 -24.507   6.647  0.00  0.00    +0.031 C 
ATOM     22  C   LIG    1       25.027 -23.740   6.726  0.00  0.00    -0.069 C 
ATOM     23  C   LIG    1       26.232 -24.652   6.658  0.00  0.00    +0.039 C 
ENDBRANCH  14  15
ENDBRANCH   2  13
TORSDOF 6
ENDMDL
MODEL 6
REMARK VINA RESULT:      -7.0      3.704      6.122
REMARK  Name = *****
REMARK                            x       y       z     vdW  Elec       q    Type
REMARK                         _______ _______ _______ _____ _____    ______ ____
ROOT
ATOM      1  C   LIG    1       24.746 -21.988   7.605  0.00  0.00    +0.044 C 
ATOM      2  C   LIG    1       25.788 -23.008   7.218  0.00  0.00    -0.050 C 
ATOM      3  C   LIG    1       27.107 -22.743   7.166  0.00  0.00    +0.003 C 
ENDROOT
BRANCH   3   4
ATOM      4  C   LIG    1       27.683 -21.443   7.385  0.00  0.00    +0.001 C 
ATOM      5  C   LIG    1       28.724 -20.981   6.679  0.00  0.00    +0.003 C 
BRANCH   5   6
ATOM      6  C   LIG    1       29.367 -19.698   6.927  0.00  0.00    -0.044 C 
ATOM      7  C   LIG    1       29.976 -19.514   8.114  0.00  0.00    +0.094 C 
ATOM      8  C   LIG    1       29.282 -18.652   5.840  0.00  0.00    +0.044 C 
BRANCH   7   9
ATOM      9  C   LIG    1       30.693 -18.279   8.504  0.00  0.00    +0.330 C 
ATOM     10  O   LIG    1       31.788 -17.945   8.110  0.00  0.00    -0.246 OA
BRANCH   9  11
ATOM     11  O   LIG    1       29.968 -17.547   9.379  0.00  0.00    -0.477 OA
ATOM     12  H   LIG    1       30.442 -16.808   9.803  0.00  0.00    +0.295 HD
ENDBRANCH   9  11
ENDBRANCH   7   9
ENDBRANCH   5   6
ENDBRANCH   3   4
BRANCH   2  13
ATOM     13  C   LIG    1       25.357 -24.373   6.976  0.00  0.00    +0.003 C 
ATOM     14  C   LIG    1       26.147 -25.455   7.041  0.00  0.00    +0.004 C 
BRANCH  14  15
ATOM     15  C   LIG    1       25.661 -26.810   6.817  0.00  0.00    -0.043 C 
ATOM     16  C   LIG    1       24.928 -27.039   5.476  0.00  0.00    -0.010 C 
ATOM     17  C   LIG    1       23.868 -25.953   5.174  0.00  0.00    +0.016 C 
ATOM     18  C   LIG    1       25.966 -27.026   4.329  0.00  0.00    +0.016 C 
ATOM     19  C   LIG    1       24.177 -28.397   5.472  0.00  0.00    +0.011 C 
ATOM     20  C   LIG    1       25.018 -29.525   6.046  0.00  0.00    +0.005 C 
ATOM     21  C   LIG    1       25.404 -29.221   7.487  0.00  0.00    +0.031 C 
ATOM     22  C   LIG    1       25.861 -27.799   7.724  0.00  0.00    -0.069 C 
ATOM     23  C   LIG    1       26.548 -27.635   9.061  0.00  0.00    +0.039 C 
ENDBRANCH  14  15
ENDBRANCH   2  13
TORSDOF 6
ENDMDL
MODEL 7
REMARK VINA RESULT:      -6.9      7.614     11.317
REMARK  Name = *****
REMARK                            x       y       z     vdW  Elec       q    Type
REMARK                         _______ _______ _______ _____ _____    ______ ____
ROOT
ATOM      1  C   LIG    1       26.707 -26.641   5.790  0.00  0.00    +0.044 C 
ATOM      2  C   LIG    1       25.254 -26.341   6.066  0.00  0.00    -0.050 C 
ATOM      3  C   LIG    1       24.273 -27.258   5.969  0.00  0.00    +0.003 C 
ENDROOT
BRANCH   3   4
ATOM      4  C   LIG    1       24.464 -28.608   5.510  0.00  0.00    +0.001 C 
ATOM      5  C   LIG    1       24.395 -29.669   6.324  0.00  0.00    +0.003 C 
BRANCH   5   6
ATOM      6  C   LIG    1       24.651 -31.038   5.897  0.00  0.00    -0.044 C 
ATOM      7  C   LIG    1       25.540 -31.236   4.905  0.00  0.00    +0.094 C 
ATOM      8  C   LIG    1       23.878 -32.140   6.584  0.00  0.00    +0.044 C 
BRANCH   7   9
ATOM      9  C   LIG    1       25.926 -32.565   4.380  0.00  0.00    +0.330 C 
ATOM     10  O   LIG    1       26.782 -33.284   4.842  0.00  0.00    -0.246 OA
BRANCH   9  11
ATOM     11  O   LIG    1       25.194 -32.892   3.291  0.00  0.00    -0.477 OA
ATOM     12  H   LIG    1       24.272 -32.574   3.292  0.00  0.00    +0.295 HD
ENDBRANCH   9  11
ENDBRANCH   7   9
ENDBRANCH   5   6
ENDBRANCH   3   4
BRANCH   2  13
ATOM     13  C   LIG    1       24.906 -25.017   6.550  0.00  0.00    +0.003 C 
ATOM     14  C   LIG    1       25.260 -23.864   5.963  0.00  0.00    +0.004 C 
BRANCH  14  15
ATOM     15  C   LIG    1       24.862 -22.558   6.471  0.00  0.00    -0.043 C 
ATOM     16  C   LIG    1       23.685 -21.886   5.727  0.00  0.00    -0.010 C 
ATOM     17  C   LIG    1       23.847 -21.918   4.188  0.00  0.00    +0.016 C 
ATOM     18  C   LIG    1       22.377 -22.628   6.086  0.00  0.00    +0.016 C 
ATOM     19  C   LIG    1       23.552 -20.391   6.122  0.00  0.00    +0.011 C 
ATOM     20  C   LIG    1       23.687 -20.174   7.620  0.00  0.00    +0.005 C 
ATOM     21  C   LIG    1       25.047 -20.656   8.106  0.00  0.00    +0.031 C 
ATOM     22  C   LIG    1       25.478 -21.989   7.538  0.00  0.00    -0.069 C 
ATOM     23  C   LIG    1       26.646 -22.581   8.292  0.00  0.00    +0.039 C 
ENDBRANCH  14  15
ENDBRANCH   2  13
TORSDOF 6
ENDMDL
MODEL 8
REMARK VINA RESULT:      -6.8      7.775     11.471
REMARK  Name = *****
REMARK                            x       y       z     vdW  Elec       q    Type
REMARK                         _______ _______ _______ _____ _____    ______ ____
ROOT
ATOM      1  C   LIG    1       26.889 -26.755   5.550  0.00  0.00    +0.044 C 
ATOM      2  C   LIG    1       25.451 -26.596   5.977  0.00  0.00    -0.050 C 
ATOM      3  C   LIG    1       24.546 -27.592   5.931  0.00  0.00    +0.003 C 
ENDROOT
BRANCH   3   4
ATOM      4  C   LIG    1       24.805 -28.901   5.392  0.00  0.00    +0.001 C 
ATOM      5  C   LIG    1       25.132 -29.950   6.158  0.00  0.00    +0.003 C 
BRANCH   5   6
ATOM      6  C   LIG    1       25.464 -31.267   5.631  0.00  0.00    -0.044 C 
ATOM      7  C   LIG    1       25.631 -31.393   4.301  0.00  0.00    +0.094 C 
ATOM      8  C   LIG    1       25.573 -32.407   6.617  0.00  0.00    +0.044 C 
BRANCH   7   9
ATOM      9  C   LIG    1       25.995 -32.656   3.619  0.00  0.00    +0.330 C 
ATOM     10  O   LIG    1       27.099 -33.150   3.593  0.00  0.00    -0.246 OA
BRANCH   9  11
ATOM     11  O   LIG    1       24.924 -33.208   3.006  0.00  0.00    -0.477 OA
ATOM     12  H   LIG    1       24.671 -32.804   2.156  0.00  0.00    +0.295 HD
ENDBRANCH   9  11
ENDBRANCH   7   9
ENDBRANCH   5   6
ENDBRANCH   3   4
BRANCH   2  13
ATOM     13  C   LIG    1       25.041 -25.328   6.554  0.00  0.00    +0.003 C 
ATOM     14  C   LIG    1       25.207 -24.129   5.977  0.00  0.00    +0.004 C 
BRANCH  14  15
ATOM     15  C   LIG    1       24.752 -22.885   6.583  0.00  0.00    -0.043 C 
ATOM     16  C   LIG    1       25.845 -21.812   6.798  0.00  0.00    -0.010 C 
ATOM     17  C   LIG    1       27.127 -22.379   7.454  0.00  0.00    +0.016 C 
ATOM     18  C   LIG    1       26.235 -21.215   5.426  0.00  0.00    +0.016 C 
ATOM     19  C   LIG    1       25.342 -20.677   7.728  0.00  0.00    +0.011 C 
ATOM     20  C   LIG    1       23.934 -20.225   7.379  0.00  0.00    +0.005 C 
ATOM     21  C   LIG    1       22.956 -21.385   7.505  0.00  0.00    +0.031 C 
ATOM     22  C   LIG    1       23.453 -22.686   6.917  0.00  0.00    -0.069 C 
ATOM     23  C   LIG    1       22.343 -23.701   6.756  0.00  0.00    +0.039 C 
ENDBRANCH  14  15
ENDBRANCH   2  13
TORSDOF 6
ENDMDL
MODEL 9
REMARK VINA RESULT:      -6.8      7.791      9.856
REMARK  Name = *****
REMARK                            x       y       z     vdW  Elec       q    Type
REMARK                         _______ _______ _______ _____ _____    ______ ____
ROOT
ATOM      1  C   LIG    1       25.983 -23.957   7.310  0.00  0.00    +0.044 C 
ATOM      2  C   LIG    1       25.111 -23.724   6.100  0.00  0.00    -0.050 C 
ATOM      3  C   LIG    1       24.684 -24.710   5.289  0.00  0.00    +0.003 C 
ENDROOT
BRANCH   3   4
ATOM      4  C   LIG    1       25.069 -26.091   5.416  0.00  0.00    +0.001 C 
ATOM      5  C   LIG    1       24.394 -26.968   6.171  0.00  0.00    +0.003 C 
BRANCH   5   6
ATOM      6  C   LIG    1       24.802 -28.352   6.369  0.00  0.00    -0.044 C 
ATOM      7  C   LIG    1       24.670 -29.205   5.336  0.00  0.00    +0.094 C 
ATOM      8  C   LIG    1       25.323 -28.738   7.734  0.00  0.00    +0.044 C 
BRANCH   7   9
ATOM      9  C   LIG    1       25.064 -30.631   5.373  0.00  0.00    +0.330 C 
ATOM     10  O   LIG    1       26.183 -31.059   5.200  0.00  0.00    -0.246 OA
BRANCH   9  11
ATOM     11  O   LIG    1       24.000 -31.427   5.624  0.00  0.00    -0.477 OA
ATOM     12  H   LIG    1       23.971 -31.821   6.516  0.00  0.00    +0.295 HD
ENDBRANCH   9  11
ENDBRANCH   7   9
ENDBRANCH   5   6
ENDBRANCH   3   4
BRANCH   2  13
ATOM     13  C   LIG    1       24.632 -22.377   5.847  0.00  0.00    +0.003 C 
ATOM     14  C   LIG    1       24.465 -21.834   4.632  0.00  0.00    +0.004 C 
BRANCH  14  15
ATOM     15  C   LIG    1       23.953 -20.485   4.427  0.00  0.00    -0.043 C 
ATOM     16  C   LIG    1       22.577 -20.192   5.069  0.00  0.00    -0.010 C 
ATOM     17  C   LIG    1       21.529 -21.293   4.779  0.00  0.00    +0.016 C 
ATOM     18  C   LIG    1       22.752 -20.091   6.602  0.00  0.00    +0.016 C 
ATOM     19  C   LIG    1       21.979 -18.865   4.531  0.00  0.00    +0.011 C 
ATOM     20  C   LIG    1       23.008 -17.749   4.471  0.00  0.00    +0.005 C 
ATOM     21  C   LIG    1       24.159 -18.136   3.552  0.00  0.00    +0.031 C 
ATOM     22  C   LIG    1       24.654 -19.554   3.734  0.00  0.00    -0.069 C 
ATOM     23  C   LIG    1       25.990 -19.783   3.064  0.00  0.00    +0.039 C 
ENDBRANCH  14  15
ENDBRANCH   2  13
TORSDOF 6
ENDMDL
