MODEL 1
REMARK VINA RESULT:      -5.0      0.000      0.000
REMARK  Name = *****
REMARK                            x       y       z     vdW  Elec       q    Type
REMARK                         _______ _______ _______ _____ _____    ______ ____
ROOT
ATOM      1  CA  LYS A  1       25.752 -14.466   3.301  0.00  0.00    +0.147 A 
ATOM      2  N   LYS A  1       25.796 -13.858   2.077  0.00  0.00    -0.248 NA
ATOM      3  CE  LYS A  1       24.987 -12.786   1.923  0.00  0.00    +0.112 A 
ATOM      4  CD  LYS A  1       24.149 -12.301   2.918  0.00  0.00    +0.020 A 
ATOM      5  CG  LYS A  1       24.131 -12.948   4.152  0.00  0.00    +0.004 A 
ATOM      6  CB  LYS A  1       24.948 -14.056   4.354  0.00  0.00    +0.035 A 
ENDROOT
BRANCH   1   8
ATOM      7  O   LYS A  1       26.356 -16.795   3.173  0.00  0.00    -0.243 OA
ATOM      8  C   LYS A  1       26.650 -15.647   3.453  0.00  0.00    +0.355 C 
BRANCH   8   9
ATOM      9  OXT LYS A  1       27.850 -15.260   3.953  0.00  0.00    -0.476 OA
ATOM     10  HXT LYS A  1       27.957 -15.663   4.848  0.00  0.00    +0.295 HD
ENDBRANCH   8   9
ENDBRANCH   1   8
TORSDOF 2
ENDMDL
MODEL 2
REMARK VINA RESULT:      -4.9      6.441      6.982
REMARK  Name = *****
REMARK                            x       y       z     vdW  Elec       q    Type
REMARK                         _______ _______ _______ _____ _____    ______ ____
ROOT
ATOM      1  CA  LYS A  1       25.499 -20.465   5.963  0.00  0.00    +0.147 A 
ATOM      2  N   LYS A  1       25.000 -20.134   4.733  0.00  0.00    -0.248 NA
ATOM      3  CE  LYS A  1       23.654 -20.152   4.621  0.00  0.00    +0.112 A 
ATOM      4  CD  LYS A  1       22.795 -20.480   5.662  0.00  0.00    +0.020 A 
ATOM      5  CG  LYS A  1       23.341 -20.812   6.900  0.00  0.00    +0.004 A 
ATOM      6  CB  LYS A  1       24.723 -20.806   7.060  0.00  0.00    +0.035 A 
ENDROOT
BRANCH   1   8
ATOM      7  O   LYS A  1       27.625 -20.747   7.060  0.00  0.00    -0.243 OA
ATOM      8  C   LYS A  1       26.986 -20.441   6.070  0.00  0.00    +0.355 C 
BRANCH   8   9
ATOM      9  OXT LYS A  1       27.533 -20.026   4.899  0.00  0.00    -0.476 OA
ATOM     10  HXT LYS A  1       28.409 -20.469   4.793  0.00  0.00    +0.295 HD
ENDBRANCH   8   9
ENDBRANCH   1   8
TORSDOF 2
ENDMDL
MODEL 3
REMARK VINA RESULT:      -4.9      1.185      1.708
REMARK  Name = *****
REMARK                            x       y       z     vdW  Elec       q    Type
REMARK                         _______ _______ _______ _____ _____    ______ ____
ROOT
ATOM      1  CA  LYS A  1       26.437 -13.627   3.561  0.00  0.00    +0.147 A 
ATOM      2  N   LYS A  1       26.156 -13.151   2.310  0.00  0.00    -0.248 NA
ATOM      3  CE  LYS A  1       24.870 -12.797   2.090  0.00  0.00    +0.112 A 
ATOM      4  CD  LYS A  1       23.867 -12.897   3.044  0.00  0.00    +0.020 A 
ATOM      5  CG  LYS A  1       24.192 -13.387   4.307  0.00  0.00    +0.004 A 
ATOM      6  CB  LYS A  1       25.503 -13.763   4.577  0.00  0.00    +0.035 A 
ENDROOT
BRANCH   1   8
ATOM      7  O   LYS A  1       28.808 -13.252   3.751  0.00  0.00    -0.243 OA
ATOM      8  C   LYS A  1       27.859 -14.013   3.786  0.00  0.00    +0.355 C 
BRANCH   8   9
ATOM      9  OXT LYS A  1       27.948 -15.344   4.038  0.00  0.00    -0.476 OA
ATOM     10  HXT LYS A  1       27.036 -15.721   4.033  0.00  0.00    +0.295 HD
ENDBRANCH   8   9
ENDBRANCH   1   8
TORSDOF 2
ENDMDL
MODEL 4
REMARK VINA RESULT:      -4.8      1.506      2.353
REMARK  Name = *****
REMARK                            x       y       z     vdW  Elec       q    Type
REMARK                         _______ _______ _______ _____ _____    ______ ____
ROOT
ATOM      1  CA  LYS A  1       26.481 -13.518   3.549  0.00  0.00    +0.147 A 
ATOM      2  N   LYS A  1       25.729 -13.349   4.680  0.00  0.00    -0.248 NA
ATOM      3  CE  LYS A  1       24.459 -12.931   4.485  0.00  0.00    +0.112 A 
ATOM      4  CD  LYS A  1       23.912 -12.676   3.235  0.00  0.00    +0.020 A 
ATOM      5  CG  LYS A  1       24.709 -12.859   2.107  0.00  0.00    +0.004 A 
ATOM      6  CB  LYS A  1       26.023 -13.289   2.260  0.00  0.00    +0.035 A 
ENDROOT
BRANCH   1   8
ATOM      7  O   LYS A  1       28.868 -13.268   3.753  0.00  0.00    -0.243 OA
ATOM      8  C   LYS A  1       27.880 -13.979   3.782  0.00  0.00    +0.355 C 
BRANCH   8   9
ATOM      9  OXT LYS A  1       27.897 -15.312   4.031  0.00  0.00    -0.476 OA
ATOM     10  HXT LYS A  1       28.266 -15.770   3.238  0.00  0.00    +0.295 HD
ENDBRANCH   8   9
ENDBRANCH   1   8
TORSDOF 2
ENDMDL
MODEL 5
REMARK VINA RESULT:      -4.8      1.001      1.643
REMARK  Name = *****
REMARK                            x       y       z     vdW  Elec       q    Type
REMARK                         _______ _______ _______ _____ _____    ______ ____
ROOT
ATOM      1  CA  LYS A  1       25.711 -14.163   3.343  0.00  0.00    +0.147 A 
ATOM      2  N   LYS A  1       25.020 -13.870   4.486  0.00  0.00    -0.248 NA
ATOM      3  CE  LYS A  1       24.171 -12.822   4.407  0.00  0.00    +0.112 A 
ATOM      4  CD  LYS A  1       23.982 -12.064   3.259  0.00  0.00    +0.020 A 
ATOM      5  CG  LYS A  1       24.705 -12.393   2.114  0.00  0.00    +0.004 A 
ATOM      6  CB  LYS A  1       25.591 -13.465   2.151  0.00  0.00    +0.035 A 
ENDROOT
BRANCH   1   8
ATOM      7  O   LYS A  1       26.367 -16.475   3.173  0.00  0.00    -0.243 OA
ATOM      8  C   LYS A  1       26.644 -15.322   3.447  0.00  0.00    +0.355 C 
BRANCH   8   9
ATOM      9  OXT LYS A  1       27.856 -14.907   3.895  0.00  0.00    -0.476 OA
ATOM     10  HXT LYS A  1       27.775 -13.965   4.179  0.00  0.00    +0.295 HD
ENDBRANCH   8   9
ENDBRANCH   1   8
TORSDOF 2
ENDMDL
MODEL 6
REMARK VINA RESULT:      -4.7      5.897      6.614
REMARK  Name = *****
REMARK                            x       y       z     vdW  Elec       q    Type
REMARK                         _______ _______ _______ _____ _____    ______ ____
ROOT
ATOM      1  CA  LYS A  1       25.032 -20.257   5.316  0.00  0.00    +0.147 A 
ATOM      2  N   LYS A  1       24.008 -20.550   6.174  0.00  0.00    -0.248 NA
ATOM      3  CE  LYS A  1       22.783 -20.127   5.793  0.00  0.00    +0.112 A 
ATOM      4  CD  LYS A  1       22.535 -19.436   4.615  0.00  0.00    +0.020 A 
ATOM      5  CG  LYS A  1       23.604 -19.156   3.767  0.00  0.00    +0.004 A 
ATOM      6  CB  LYS A  1       24.883 -19.573   4.119  0.00  0.00    +0.035 A 
ENDROOT
BRANCH   1   8
ATOM      7  O   LYS A  1       26.590 -21.487   6.682  0.00  0.00    -0.243 OA
ATOM      8  C   LYS A  1       26.378 -20.730   5.752  0.00  0.00    +0.355 C 
BRANCH   8   9
ATOM      9  OXT LYS A  1       27.341 -20.194   4.960  0.00  0.00    -0.476 OA
ATOM     10  HXT LYS A  1       27.663 -20.897   4.346  0.00  0.00    +0.295 HD
ENDBRANCH   8   9
ENDBRANCH   1   8
TORSDOF 2
ENDMDL
MODEL 7
REMARK VINA RESULT:      -4.6      2.501      3.168
REMARK  Name = *****
REMARK                            x       y       z     vdW  Elec       q    Type
REMARK                         _______ _______ _______ _____ _____    ______ ____
ROOT
ATOM      1  CA  LYS A  1       25.446 -13.938   3.774  0.00  0.00    +0.147 A 
ATOM      2  N   LYS A  1       26.120 -14.222   2.619  0.00  0.00    -0.248 NA
ATOM      3  CE  LYS A  1       27.462 -14.067   2.666  0.00  0.00    +0.112 A 
ATOM      4  CD  LYS A  1       28.152 -13.647   3.796  0.00  0.00    +0.020 A 
ATOM      5  CG  LYS A  1       27.431 -13.366   4.954  0.00  0.00    +0.004 A 
ATOM      6  CB  LYS A  1       26.047 -13.512   4.950  0.00  0.00    +0.035 A 
ENDROOT
BRANCH   1   8
ATOM      7  O   LYS A  1       23.316 -14.876   4.394  0.00  0.00    -0.243 OA
ATOM      8  C   LYS A  1       23.967 -14.113   3.705  0.00  0.00    +0.355 C 
BRANCH   8   9
ATOM      9  OXT LYS A  1       23.444 -13.296   2.756  0.00  0.00    -0.476 OA
ATOM     10  HXT LYS A  1       23.331 -12.398   3.149  0.00  0.00    +0.295 HD
ENDBRANCH   8   9
ENDBRANCH   1   8
TORSDOF 2
ENDMDL
MODEL 8
REMARK VINA RESULT:      -4.6      6.702      7.446
REMARK  Name = *****
REMARK                            x       y       z     vdW  Elec       q    Type
REMARK                         _______ _______ _______ _____ _____    ______ ____
ROOT
ATOM      1  CA  LYS A  1       23.812 -20.308   5.371  0.00  0.00    +0.147 A 
ATOM      2  N   LYS A  1       24.776 -19.987   4.456  0.00  0.00    -0.248 NA
ATOM      3  CE  LYS A  1       26.054 -20.104   4.880  0.00  0.00    +0.112 A 
ATOM      4  CD  LYS A  1       26.409 -20.520   6.156  0.00  0.00    +0.020 A 
ATOM      5  CG  LYS A  1       25.399 -20.839   7.061  0.00  0.00    +0.004 A 
ATOM      6  CB  LYS A  1       24.070 -20.732   6.667  0.00  0.00    +0.035 A 
ENDROOT
BRANCH   1   8
ATOM      7  O   LYS A  1       21.892 -19.137   4.511  0.00  0.00    -0.243 OA
ATOM      8  C   LYS A  1       22.409 -20.173   4.887  0.00  0.00    +0.355 C 
BRANCH   8   9
ATOM      9  OXT LYS A  1       21.782 -21.376   4.926  0.00  0.00    -0.476 OA
ATOM     10  HXT LYS A  1       21.953 -21.841   4.071  0.00  0.00    +0.295 HD
ENDBRANCH   8   9
ENDBRANCH   1   8
TORSDOF 2
ENDMDL
MODEL 9
REMARK VINA RESULT:      -4.5      2.828      3.668
REMARK  Name = *****
REMARK                            x       y       z     vdW  Elec       q    Type
REMARK                         _______ _______ _______ _____ _____    ______ ____
ROOT
ATOM      1  CA  LYS A  1       25.369 -13.062   3.456  0.00  0.00    +0.147 A 
ATOM      2  N   LYS A  1       26.041 -13.615   2.401  0.00  0.00    -0.248 NA
ATOM      3  CE  LYS A  1       27.159 -14.307   2.712  0.00  0.00    +0.112 A 
ATOM      4  CD  LYS A  1       27.631 -14.470   4.008  0.00  0.00    +0.020 A 
ATOM      5  CG  LYS A  1       26.919 -13.893   5.057  0.00  0.00    +0.004 A 
ATOM      6  CB  LYS A  1       25.762 -13.171   4.782  0.00  0.00    +0.035 A 
ENDROOT
BRANCH   1   8
ATOM      7  O   LYS A  1       23.538 -11.543   3.834  0.00  0.00    -0.243 OA
ATOM      8  C   LYS A  1       24.138 -12.302   3.095  0.00  0.00    +0.355 C 
BRANCH   8   9
ATOM      9  OXT LYS A  1       23.777 -12.577   1.816  0.00  0.00    -0.476 OA
ATOM     10  HXT LYS A  1       22.793 -12.519   1.754  0.00  0.00    +0.295 HD
ENDBRANCH   8   9
ENDBRANCH   1   8
TORSDOF 2
ENDMDL
