MODEL 1
REMARK VINA RESULT:      -3.9      0.000      0.000
REMARK  Name = *****
REMARK                            x       y       z     vdW  Elec       q    Type
REMARK                         _______ _______ _______ _____ _____    ______ ____
ROOT
ATOM      1  C   LIG    1       25.805 -30.136  14.215  0.00  0.00    +0.163 C 
ATOM      2  C   LIG    1       24.513 -29.819  13.460  0.00  0.00    +0.209 C 
ATOM      3  N   LIG    1       24.696 -30.482  12.163  0.00  0.00    -0.281 N 
ATOM      4  C   LIG    1       24.498 -29.688  11.022  0.00  0.00    +0.269 C 
ATOM      5  C   LIG    1       25.213 -30.020   9.787  0.00  0.00    +0.164 A 
ATOM      6  N   LIG    1       25.582 -31.288   9.349  0.00  0.00    -0.208 NA
ATOM      7  C   LIG    1       26.113 -31.070   8.155  0.00  0.00    +0.203 A 
ATOM      8  C   LIG    1       26.506 -32.058   7.121  0.00  0.00    +0.170 C 
ATOM      9  C   LIG    1       25.349 -32.237   6.153  0.00  0.00    +0.145 C 
ATOM     10  C   LIG    1       24.281 -33.287   6.440  0.00  0.00    +0.110 C 
ATOM     11  C   LIG    1       23.711 -33.138   7.845  0.00  0.00    +0.145 C 
ATOM     12  C   LIG    1       22.321 -33.665   8.049  0.00  0.00    +0.007 C 
ATOM     13  C   LIG    1       21.574 -33.423   9.149  0.00  0.00    -0.052 C 
ATOM     14  C   LIG    1       20.156 -33.763   9.144  0.00  0.00    +0.000 C 
ATOM     15  C   LIG    1       19.390 -33.792  10.244  0.00  0.00    -0.008 C 
ATOM     16  C   LIG    1       17.892 -33.731  10.240  0.00  0.00    +0.132 C 
ATOM     17  N   LIG    1       17.599 -32.416  10.782  0.00  0.00    -0.308 N 
ATOM     18  H   LIG    1       18.107 -31.668  10.330  0.00  0.00    +0.149 HD
ATOM     19  C   LIG    1       17.450 -32.323  12.145  0.00  0.00    +0.237 C 
ATOM     20  C   LIG    1       18.300 -31.252  12.738  0.00  0.00    +0.063 C 
ATOM     21  C   LIG    1       19.067 -31.663  13.760  0.00  0.00    -0.015 C 
ATOM     22  C   LIG    1       20.055 -30.926  14.642  0.00  0.00    +0.050 C 
ATOM     23  C   LIG    1       21.466 -31.615  14.805  0.00  0.00    +0.186 C 
ATOM     24  O   LIG    1       22.451 -31.098  13.855  0.00  0.00    -0.459 OA
ATOM     25  C   LIG    1       20.159 -29.433  14.318  0.00  0.00    +0.015 C 
ATOM     26  O   LIG    1       16.868 -33.152  12.835  0.00  0.00    -0.271 OA
ATOM     27  C   LIG    1       22.084 -32.659  10.355  0.00  0.00    +0.043 C 
ATOM     28  O   LIG    1       25.290 -31.572   5.114  0.00  0.00    -0.297 OA
ATOM     29  O   LIG    1       26.192 -29.752   7.806  0.00  0.00    -0.447 OA
ATOM     30  C   LIG    1       25.612 -29.096   8.845  0.00  0.00    +0.230 A 
ATOM     31  O   LIG    1       23.791 -28.680  11.081  0.00  0.00    -0.268 OA
ATOM     32  C   LIG    1       25.729 -31.512  12.250  0.00  0.00    +0.111 C 
ATOM     33  C   LIG    1       23.339 -30.201  14.369  0.00  0.00    +0.330 C 
ATOM     34  O   LIG    1       23.259 -29.725  15.500  0.00  0.00    -0.249 OA
ATOM     35  C   LIG    1       26.152 -31.537  13.712  0.00  0.00    +0.047 C 
ENDROOT
BRANCH   1  36
ATOM     36  S   LIG    1       27.105 -28.963  13.818  0.00  0.00    -0.025 S 
ATOM     37  O   LIG    1       28.295 -29.744  13.503  0.00  0.00    -0.174 OA
ATOM     38  O   LIG    1       26.601 -28.016  12.851  0.00  0.00    -0.174 OA
BRANCH  36  39
ATOM     39  C   LIG    1       27.446 -28.044  15.305  0.00  0.00    +0.181 C 
BRANCH  39  40
ATOM     40  C   LIG    1       27.743 -26.576  15.045  0.00  0.00    +0.107 C 
BRANCH  40  41
ATOM     41  N   LIG    1       26.682 -25.633  15.439  0.00  0.00    -0.301 NA
BRANCH  41  43
ATOM     42  C   LIG    1       28.059 -23.483  15.426  0.00  0.00    +0.020 C 
ATOM     43  C   LIG    1       26.868 -24.270  14.892  0.00  0.00    +0.081 C 
ENDBRANCH  41  43
BRANCH  41  44
ATOM     44  C   LIG    1       25.304 -26.062  15.114  0.00  0.00    +0.081 C 
ATOM     45  C   LIG    1       24.515 -25.234  14.105  0.00  0.00    +0.020 C 
ENDBRANCH  41  44
ENDBRANCH  40  41
ENDBRANCH  39  40
ENDBRANCH  36  39
ENDBRANCH   1  36
BRANCH  23  46
ATOM     46  C   LIG    1       21.484 -33.172  14.731  0.00  0.00    +0.024 C 
ATOM     47  C   LIG    1       22.689 -33.804  15.443  0.00  0.00    +0.011 C 
ATOM     48  C   LIG    1       21.499 -33.663  13.276  0.00  0.00    +0.011 C 
ENDBRANCH  23  46
BRANCH  11  49
ATOM     49  O   LIG    1       24.574 -33.825   8.744  0.00  0.00    -0.387 OA
ATOM     50  H   LIG    1       25.190 -33.149   9.094  0.00  0.00    +0.210 HD
ENDBRANCH  11  49
TORSDOF 8
ENDMDL
MODEL 2
REMARK VINA RESULT:      -3.7      2.386      7.335
REMARK  Name = *****
REMARK                            x       y       z     vdW  Elec       q    Type
REMARK                         _______ _______ _______ _____ _____    ______ ____
ROOT
ATOM      1  C   LIG    1       24.736 -32.116   9.145  0.00  0.00    +0.163 C 
ATOM      2  C   LIG    1       24.154 -32.182  10.558  0.00  0.00    +0.209 C 
ATOM      3  N   LIG    1       24.490 -30.875  11.135  0.00  0.00    -0.281 N 
ATOM      4  C   LIG    1       25.149 -30.890  12.375  0.00  0.00    +0.269 C 
ATOM      5  C   LIG    1       26.038 -29.779  12.725  0.00  0.00    +0.164 A 
ATOM      6  N   LIG    1       25.905 -28.448  12.344  0.00  0.00    -0.208 NA
ATOM      7  C   LIG    1       26.892 -27.835  12.981  0.00  0.00    +0.203 A 
ATOM      8  C   LIG    1       27.140 -26.379  13.123  0.00  0.00    +0.170 C 
ATOM      9  C   LIG    1       26.513 -25.902  14.422  0.00  0.00    +0.145 C 
ATOM     10  C   LIG    1       25.062 -25.435  14.433  0.00  0.00    +0.110 C 
ATOM     11  C   LIG    1       24.135 -26.469  13.806  0.00  0.00    +0.145 C 
ATOM     12  C   LIG    1       22.706 -26.432  14.262  0.00  0.00    +0.007 C 
ATOM     13  C   LIG    1       21.801 -27.400  13.993  0.00  0.00    -0.052 C 
ATOM     14  C   LIG    1       20.519 -27.397  14.687  0.00  0.00    +0.000 C 
ATOM     15  C   LIG    1       19.471 -28.152  14.326  0.00  0.00    -0.008 C 
ATOM     16  C   LIG    1       18.313 -28.484  15.219  0.00  0.00    +0.132 C 
ATOM     17  N   LIG    1       18.489 -29.898  15.498  0.00  0.00    -0.308 N 
ATOM     18  H   LIG    1       19.418 -30.137  15.816  0.00  0.00    +0.149 HD
ATOM     19  C   LIG    1       17.886 -30.783  14.637  0.00  0.00    +0.237 C 
ATOM     20  C   LIG    1       18.833 -31.814  14.126  0.00  0.00    +0.063 C 
ATOM     21  C   LIG    1       18.853 -31.927  12.789  0.00  0.00    -0.015 C 
ATOM     22  C   LIG    1       19.640 -32.831  11.862  0.00  0.00    +0.050 C 
ATOM     23  C   LIG    1       20.372 -32.107  10.666  0.00  0.00    +0.186 C 
ATOM     24  O   LIG    1       21.765 -31.785  10.978  0.00  0.00    -0.459 OA
ATOM     25  C   LIG    1       20.549 -33.814  12.604  0.00  0.00    +0.015 C 
ATOM     26  O   LIG    1       16.768 -30.630  14.160  0.00  0.00    -0.271 OA
ATOM     27  C   LIG    1       22.096 -28.603  13.119  0.00  0.00    +0.043 C 
ATOM     28  O   LIG    1       27.182 -25.847  15.459  0.00  0.00    -0.297 OA
ATOM     29  O   LIG    1       27.709 -28.669  13.689  0.00  0.00    -0.447 OA
ATOM     30  C   LIG    1       27.154 -29.899  13.526  0.00  0.00    +0.230 A 
ATOM     31  O   LIG    1       25.039 -31.861  13.125  0.00  0.00    -0.268 OA
ATOM     32  C   LIG    1       24.792 -29.907  10.082  0.00  0.00    +0.111 C 
ATOM     33  C   LIG    1       22.691 -32.624  10.436  0.00  0.00    +0.330 C 
ATOM     34  O   LIG    1       22.412 -33.667   9.848  0.00  0.00    -0.249 OA
ATOM     35  C   LIG    1       24.548 -30.646   8.773  0.00  0.00    +0.047 C 
ENDROOT
BRANCH   1  36
ATOM     36  S   LIG    1       26.472 -32.574   9.126  0.00  0.00    -0.025 S 
ATOM     37  O   LIG    1       27.221 -31.375   8.770  0.00  0.00    -0.174 OA
ATOM     38  O   LIG    1       26.787 -33.267  10.354  0.00  0.00    -0.174 OA
BRANCH  36  39
ATOM     39  C   LIG    1       26.685 -33.750   7.806  0.00  0.00    +0.181 C 
BRANCH  39  40
ATOM     40  C   LIG    1       25.677 -33.575   6.682  0.00  0.00    +0.107 C 
BRANCH  40  41
ATOM     41  N   LIG    1       26.064 -32.628   5.623  0.00  0.00    -0.301 NA
BRANCH  41  43
ATOM     42  C   LIG    1       25.091 -33.177   3.327  0.00  0.00    +0.020 C 
ATOM     43  C   LIG    1       26.259 -33.265   4.300  0.00  0.00    +0.081 C 
ENDBRANCH  41  43
BRANCH  41  44
ATOM     44  C   LIG    1       25.148 -31.482   5.437  0.00  0.00    +0.081 C 
ATOM     45  C   LIG    1       25.760 -30.108   5.184  0.00  0.00    +0.020 C 
ENDBRANCH  41  44
ENDBRANCH  40  41
ENDBRANCH  39  40
ENDBRANCH  36  39
ENDBRANCH   1  36
BRANCH  23  46
ATOM     46  C   LIG    1       19.683 -30.820  10.115  0.00  0.00    +0.024 C 
ATOM     47  C   LIG    1       19.612 -29.679  11.139  0.00  0.00    +0.011 C 
ATOM     48  C   LIG    1       18.250 -31.110   9.646  0.00  0.00    +0.011 C 
ENDBRANCH  23  46
BRANCH  11  49
ATOM     49  O   LIG    1       24.148 -26.274  12.396  0.00  0.00    -0.387 OA
ATOM     50  H   LIG    1       24.640 -25.440  12.245  0.00  0.00    +0.210 HD
ENDBRANCH  11  49
TORSDOF 8
ENDMDL
MODEL 3
REMARK VINA RESULT:      -1.2      2.574      8.241
REMARK  Name = *****
REMARK                            x       y       z     vdW  Elec       q    Type
REMARK                         _______ _______ _______ _____ _____    ______ ____
ROOT
ATOM      1  C   LIG    1       26.871 -32.206   9.432  0.00  0.00    +0.163 C 
ATOM      2  C   LIG    1       26.057 -30.919   9.569  0.00  0.00    +0.209 C 
ATOM      3  N   LIG    1       24.801 -31.365  10.185  0.00  0.00    -0.281 N 
ATOM      4  C   LIG    1       23.617 -30.982   9.536  0.00  0.00    +0.269 C 
ATOM      5  C   LIG    1       22.425 -31.824   9.667  0.00  0.00    +0.164 A 
ATOM      6  N   LIG    1       22.063 -32.597  10.766  0.00  0.00    -0.208 NA
ATOM      7  C   LIG    1       20.879 -33.088  10.432  0.00  0.00    +0.203 A 
ATOM      8  C   LIG    1       19.908 -33.823  11.280  0.00  0.00    +0.170 C 
ATOM      9  C   LIG    1       18.911 -32.831  11.853  0.00  0.00    +0.145 C 
ATOM     10  C   LIG    1       19.211 -32.138  13.177  0.00  0.00    +0.110 C 
ATOM     11  C   LIG    1       20.587 -31.483  13.168  0.00  0.00    +0.145 C 
ATOM     12  C   LIG    1       20.768 -30.323  14.102  0.00  0.00    +0.007 C 
ATOM     13  C   LIG    1       21.828 -29.485  14.071  0.00  0.00    -0.052 C 
ATOM     14  C   LIG    1       21.791 -28.251  14.846  0.00  0.00    +0.000 C 
ATOM     15  C   LIG    1       22.864 -27.480  15.078  0.00  0.00    -0.008 C 
ATOM     16  C   LIG    1       22.804 -26.042  15.498  0.00  0.00    +0.132 C 
ATOM     17  N   LIG    1       23.271 -25.322  14.326  0.00  0.00    -0.308 N 
ATOM     18  H   LIG    1       22.800 -25.588  13.472  0.00  0.00    +0.149 HD
ATOM     19  C   LIG    1       24.621 -25.085  14.237  0.00  0.00    +0.237 C 
ATOM     20  C   LIG    1       25.190 -25.522  12.931  0.00  0.00    +0.063 C 
ATOM     21  C   LIG    1       26.257 -26.330  13.040  0.00  0.00    -0.015 C 
ATOM     22  C   LIG    1       27.136 -26.989  11.996  0.00  0.00    +0.050 C 
ATOM     23  C   LIG    1       27.382 -28.536  12.193  0.00  0.00    +0.186 C 
ATOM     24  O   LIG    1       26.443 -29.352  11.423  0.00  0.00    -0.459 OA
ATOM     25  C   LIG    1       26.744 -26.631  10.560  0.00  0.00    +0.015 C 
ATOM     26  O   LIG    1       25.330 -24.763  15.183  0.00  0.00    -0.271 OA
ATOM     27  C   LIG    1       23.013 -29.668  13.143  0.00  0.00    +0.043 C 
ATOM     28  O   LIG    1       17.840 -32.615  11.278  0.00  0.00    -0.297 OA
ATOM     29  O   LIG    1       20.469 -32.763   9.171  0.00  0.00    -0.447 OA
ATOM     30  C   LIG    1       21.454 -31.955   8.697  0.00  0.00    +0.230 A 
ATOM     31  O   LIG    1       23.602 -29.990   8.805  0.00  0.00    -0.268 OA
ATOM     32  C   LIG    1       24.974 -32.666  10.829  0.00  0.00    +0.111 C 
ATOM     33  C   LIG    1       26.942 -29.884  10.273  0.00  0.00    +0.330 C 
ATOM     34  O   LIG    1       28.045 -29.602   9.808  0.00  0.00    -0.249 OA
ATOM     35  C   LIG    1       26.450 -33.003  10.666  0.00  0.00    +0.047 C 
ENDROOT
BRANCH   1  36
ATOM     36  S   LIG    1       26.463 -33.086   7.921  0.00  0.00    -0.025 S 
ATOM     37  O   LIG    1       27.667 -33.797   7.509  0.00  0.00    -0.174 OA
ATOM     38  O   LIG    1       25.239 -33.824   8.125  0.00  0.00    -0.174 OA
BRANCH  36  39
ATOM     39  C   LIG    1       26.118 -31.855   6.681  0.00  0.00    +0.181 C 
BRANCH  39  40
ATOM     40  C   LIG    1       26.567 -32.267   5.288  0.00  0.00    +0.107 C 
BRANCH  40  41
ATOM     41  N   LIG    1       25.490 -32.454   4.302  0.00  0.00    -0.301 NA
BRANCH  41  43
ATOM     42  C   LIG    1       26.943 -33.808   2.697  0.00  0.00    +0.020 C 
ATOM     43  C   LIG    1       25.981 -32.647   2.918  0.00  0.00    +0.081 C 
ENDBRANCH  41  43
BRANCH  41  44
ATOM     44  C   LIG    1       24.546 -33.553   4.600  0.00  0.00    +0.081 C 
ATOM     45  C   LIG    1       23.294 -33.223   5.407  0.00  0.00    +0.020 C 
ENDBRANCH  41  44
ENDBRANCH  40  41
ENDBRANCH  39  40
ENDBRANCH  36  39
ENDBRANCH   1  36
BRANCH  23  46
ATOM     46  C   LIG    1       27.385 -29.050  13.666  0.00  0.00    +0.024 C 
ATOM     47  C   LIG    1       28.792 -29.169  14.269  0.00  0.00    +0.011 C 
ATOM     48  C   LIG    1       26.717 -30.429  13.779  0.00  0.00    +0.011 C 
ENDBRANCH  23  46
BRANCH  11  49
ATOM     49  O   LIG    1       21.548 -32.474  13.511  0.00  0.00    -0.387 OA
ATOM     50  H   LIG    1       21.595 -32.475  14.490  0.00  0.00    +0.210 HD
ENDBRANCH  11  49
TORSDOF 8
ENDMDL
