MODEL 1
REMARK VINA RESULT:      -3.7      0.000      0.000
REMARK  Name = *****
REMARK                            x       y       z     vdW  Elec       q    Type
REMARK                         _______ _______ _______ _____ _____    ______ ____
ROOT
ATOM      1  O   LIG    1       26.772 -14.254   1.981  0.00  0.00    -0.147 OA
ATOM      2  S   LIG    1       26.596 -15.006   3.203  0.00  0.00    +0.081 S 
ATOM      3  O   LIG    1       26.173 -16.384   3.216  0.00  0.00    -0.147 OA
ENDROOT
BRANCH   2   4
ATOM      4  O   LIG    1       28.007 -14.907   3.980  0.00  0.00    -0.254 OA
ATOM      5  H   LIG    1       27.819 -14.778   4.936  0.00  0.00    +0.244 HD
ENDBRANCH   2   4
BRANCH   2   6
ATOM      6  C   LIG    1       25.611 -14.065   4.353  0.00  0.00    +0.208 C 
BRANCH   6   7
ATOM      7  C   LIG    1       24.217 -13.876   3.788  0.00  0.00    +0.090 C 
BRANCH   7   8
ATOM      8  S   LIG    1       24.020 -12.191   3.131  0.00  0.00    -0.177 S 
ATOM      9  H   LIG    1       23.597 -11.620   4.270  0.00  0.00    +0.102 HD
ENDBRANCH   7   8
ENDBRANCH   6   7
ENDBRANCH   2   6
TORSDOF 4
ENDMDL
MODEL 2
REMARK VINA RESULT:      -3.6      0.956      1.511
REMARK  Name = *****
REMARK                            x       y       z     vdW  Elec       q    Type
REMARK                         _______ _______ _______ _____ _____    ______ ____
ROOT
ATOM      1  O   LIG    1       28.581 -13.326   3.613  0.00  0.00    -0.147 OA
ATOM      2  S   LIG    1       27.400 -14.118   3.355  0.00  0.00    +0.081 S 
ATOM      3  O   LIG    1       26.826 -14.255   2.039  0.00  0.00    -0.147 OA
ENDROOT
BRANCH   2   4
ATOM      4  O   LIG    1       27.737 -15.595   3.912  0.00  0.00    -0.254 OA
ATOM      5  H   LIG    1       28.446 -15.978   3.349  0.00  0.00    +0.244 HD
ENDBRANCH   2   4
BRANCH   2   6
ATOM      6  C   LIG    1       26.122 -13.695   4.525  0.00  0.00    +0.208 C 
BRANCH   6   7
ATOM      7  C   LIG    1       24.764 -13.950   3.903  0.00  0.00    +0.090 C 
BRANCH   7   8
ATOM      8  S   LIG    1       24.021 -12.389   3.336  0.00  0.00    -0.177 S 
ATOM      9  H   LIG    1       25.160 -11.799   2.941  0.00  0.00    +0.102 HD
ENDBRANCH   7   8
ENDBRANCH   6   7
ENDBRANCH   2   6
TORSDOF 4
ENDMDL
MODEL 3
REMARK VINA RESULT:      -3.4      0.486      1.789
REMARK  Name = *****
REMARK                            x       y       z     vdW  Elec       q    Type
REMARK                         _______ _______ _______ _____ _____    ______ ____
ROOT
ATOM      1  O   LIG    1       26.673 -16.158   3.310  0.00  0.00    -0.147 OA
ATOM      2  S   LIG    1       26.875 -14.727   3.360  0.00  0.00    +0.081 S 
ATOM      3  O   LIG    1       28.139 -14.131   3.712  0.00  0.00    -0.147 OA
ENDROOT
BRANCH   2   4
ATOM      4  O   LIG    1       26.448 -14.178   1.903  0.00  0.00    -0.254 OA
ATOM      5  H   LIG    1       25.695 -14.721   1.583  0.00  0.00    +0.244 HD
ENDBRANCH   2   4
BRANCH   2   6
ATOM      6  C   LIG    1       25.568 -13.967   4.306  0.00  0.00    +0.208 C 
BRANCH   6   7
ATOM      7  C   LIG    1       24.375 -13.715   3.407  0.00  0.00    +0.090 C 
BRANCH   7   8
ATOM      8  S   LIG    1       23.938 -11.949   3.408  0.00  0.00    -0.177 S 
ATOM      9  H   LIG    1       22.632 -12.104   3.676  0.00  0.00    +0.102 HD
ENDBRANCH   7   8
ENDBRANCH   6   7
ENDBRANCH   2   6
TORSDOF 4
ENDMDL
MODEL 4
REMARK VINA RESULT:      -3.2      1.773      2.275
REMARK  Name = *****
REMARK                            x       y       z     vdW  Elec       q    Type
REMARK                         _______ _______ _______ _____ _____    ______ ____
ROOT
ATOM      1  O   LIG    1       27.543 -15.322   3.788  0.00  0.00    -0.147 OA
ATOM      2  S   LIG    1       27.336 -13.897   3.921  0.00  0.00    +0.081 S 
ATOM      3  O   LIG    1       27.128 -13.256   5.195  0.00  0.00    -0.147 OA
ENDROOT
BRANCH   2   4
ATOM      4  O   LIG    1       28.611 -13.206   3.213  0.00  0.00    -0.254 OA
ATOM      5  H   LIG    1       29.383 -13.805   3.326  0.00  0.00    +0.244 HD
ENDBRANCH   2   4
BRANCH   2   6
ATOM      6  C   LIG    1       26.088 -13.359   2.767  0.00  0.00    +0.208 C 
BRANCH   6   7
ATOM      7  C   LIG    1       24.843 -12.945   3.526  0.00  0.00    +0.090 C 
BRANCH   7   8
ATOM      8  S   LIG    1       23.939 -14.410   4.114  0.00  0.00    -0.177 S 
ATOM      9  H   LIG    1       23.352 -13.827   5.171  0.00  0.00    +0.102 HD
ENDBRANCH   7   8
ENDBRANCH   6   7
ENDBRANCH   2   6
TORSDOF 4
ENDMDL
MODEL 5
REMARK VINA RESULT:      -3.2      6.750      7.590
REMARK  Name = *****
REMARK                            x       y       z     vdW  Elec       q    Type
REMARK                         _______ _______ _______ _____ _____    ______ ____
ROOT
ATOM      1  O   LIG    1       22.448 -19.228   4.894  0.00  0.00    -0.147 OA
ATOM      2  S   LIG    1       22.858 -20.506   5.430  0.00  0.00    +0.081 S 
ATOM      3  O   LIG    1       23.079 -20.727   6.837  0.00  0.00    -0.147 OA
ENDROOT
BRANCH   2   4
ATOM      4  O   LIG    1       21.749 -21.565   4.923  0.00  0.00    -0.254 OA
ATOM      5  H   LIG    1       21.720 -21.527   3.942  0.00  0.00    +0.244 HD
ENDBRANCH   2   4
BRANCH   2   6
ATOM      6  C   LIG    1       24.244 -21.133   4.500  0.00  0.00    +0.208 C 
BRANCH   6   7
ATOM      7  C   LIG    1       25.386 -20.138   4.563  0.00  0.00    +0.090 C 
BRANCH   7   8
ATOM      8  S   LIG    1       26.472 -20.504   5.976  0.00  0.00    -0.177 S 
ATOM      9  H   LIG    1       26.777 -19.232   6.281  0.00  0.00    +0.102 HD
ENDBRANCH   7   8
ENDBRANCH   6   7
ENDBRANCH   2   6
TORSDOF 4
ENDMDL
MODEL 6
REMARK VINA RESULT:      -3.1      2.722      3.455
REMARK  Name = *****
REMARK                            x       y       z     vdW  Elec       q    Type
REMARK                         _______ _______ _______ _____ _____    ______ ____
ROOT
ATOM      1  O   LIG    1       24.678 -12.731   4.724  0.00  0.00    -0.147 OA
ATOM      2  S   LIG    1       24.297 -13.871   3.922  0.00  0.00    +0.081 S 
ATOM      3  O   LIG    1       23.341 -14.854   4.368  0.00  0.00    -0.147 OA
ENDROOT
BRANCH   2   4
ATOM      4  O   LIG    1       23.774 -13.261   2.521  0.00  0.00    -0.254 OA
ATOM      5  H   LIG    1       23.435 -12.355   2.693  0.00  0.00    +0.244 HD
ENDBRANCH   2   4
BRANCH   2   6
ATOM      6  C   LIG    1       25.757 -14.691   3.308  0.00  0.00    +0.208 C 
BRANCH   6   7
ATOM      7  C   LIG    1       26.690 -13.667   2.692  0.00  0.00    +0.090 C 
BRANCH   7   8
ATOM      8  S   LIG    1       28.149 -13.419   3.749  0.00  0.00    -0.177 S 
ATOM      9  H   LIG    1       28.176 -14.650   4.284  0.00  0.00    +0.102 HD
ENDBRANCH   7   8
ENDBRANCH   6   7
ENDBRANCH   2   6
TORSDOF 4
ENDMDL
MODEL 7
REMARK VINA RESULT:      -3.0      6.989      7.624
REMARK  Name = *****
REMARK                            x       y       z     vdW  Elec       q    Type
REMARK                         _______ _______ _______ _____ _____    ______ ____
ROOT
ATOM      1  O   LIG    1       23.889 -20.470   3.837  0.00  0.00    -0.147 OA
ATOM      2  S   LIG    1       22.987 -20.239   4.942  0.00  0.00    +0.081 S 
ATOM      3  O   LIG    1       22.347 -18.968   5.173  0.00  0.00    -0.147 OA
ENDROOT
BRANCH   2   4
ATOM      4  O   LIG    1       21.837 -21.363   4.806  0.00  0.00    -0.254 OA
ATOM      5  H   LIG    1       21.538 -21.379   3.870  0.00  0.00    +0.244 HD
ENDBRANCH   2   4
BRANCH   2   6
ATOM      6  C   LIG    1       23.727 -20.821   6.456  0.00  0.00    +0.208 C 
BRANCH   6   7
ATOM      7  C   LIG    1       25.013 -21.558   6.139  0.00  0.00    +0.090 C 
BRANCH   7   8
ATOM      8  S   LIG    1       26.454 -20.577   6.662  0.00  0.00    -0.177 S 
ATOM      9  H   LIG    1       25.773 -19.616   7.306  0.00  0.00    +0.102 HD
ENDBRANCH   7   8
ENDBRANCH   6   7
ENDBRANCH   2   6
TORSDOF 4
ENDMDL
MODEL 8
REMARK VINA RESULT:      -3.0      1.611      1.666
REMARK  Name = *****
REMARK                            x       y       z     vdW  Elec       q    Type
REMARK                         _______ _______ _______ _____ _____    ______ ____
ROOT
ATOM      1  O   LIG    1       26.215 -12.721   2.188  0.00  0.00    -0.147 OA
ATOM      2  S   LIG    1       26.833 -13.730   3.018  0.00  0.00    +0.081 S 
ATOM      3  O   LIG    1       26.854 -15.127   2.662  0.00  0.00    -0.147 OA
ENDROOT
BRANCH   2   4
ATOM      4  O   LIG    1       28.357 -13.242   3.231  0.00  0.00    -0.254 OA
ATOM      5  H   LIG    1       28.905 -13.642   2.521  0.00  0.00    +0.244 HD
ENDBRANCH   2   4
BRANCH   2   6
ATOM      6  C   LIG    1       26.275 -13.549   4.702  0.00  0.00    +0.208 C 
BRANCH   6   7
ATOM      7  C   LIG    1       24.827 -13.103   4.710  0.00  0.00    +0.090 C 
BRANCH   7   8
ATOM      8  S   LIG    1       23.734 -14.480   4.243  0.00  0.00    -0.177 S 
ATOM      9  H   LIG    1       22.603 -13.974   4.760  0.00  0.00    +0.102 HD
ENDBRANCH   7   8
ENDBRANCH   6   7
ENDBRANCH   2   6
TORSDOF 4
ENDMDL
MODEL 9
REMARK VINA RESULT:      -2.9      2.656      3.443
REMARK  Name = *****
REMARK                            x       y       z     vdW  Elec       q    Type
REMARK                         _______ _______ _______ _____ _____    ______ ____
ROOT
ATOM      1  O   LIG    1       23.445 -14.741   4.414  0.00  0.00    -0.147 OA
ATOM      2  S   LIG    1       24.398 -13.899   3.728  0.00  0.00    +0.081 S 
ATOM      3  O   LIG    1       24.079 -13.187   2.515  0.00  0.00    -0.147 OA
ENDROOT
BRANCH   2   4
ATOM      4  O   LIG    1       24.894 -12.823   4.826  0.00  0.00    -0.254 OA
ATOM      5  H   LIG    1       24.101 -12.476   5.290  0.00  0.00    +0.244 HD
ENDBRANCH   2   4
BRANCH   2   6
ATOM      6  C   LIG    1       25.938 -14.774   3.523  0.00  0.00    +0.208 C 
BRANCH   6   7
ATOM      7  C   LIG    1       26.899 -13.924   2.715  0.00  0.00    +0.090 C 
BRANCH   7   8
ATOM      8  S   LIG    1       28.283 -13.365   3.755  0.00  0.00    -0.177 S 
ATOM      9  H   LIG    1       29.098 -14.404   3.515  0.00  0.00    +0.102 HD
ENDBRANCH   7   8
ENDBRANCH   6   7
ENDBRANCH   2   6
TORSDOF 4
ENDMDL
