MODEL 1
REMARK VINA RESULT:      -5.7      0.000      0.000
REMARK  Name = *****
REMARK                            x       y       z     vdW  Elec       q    Type
REMARK                         _______ _______ _______ _____ _____    ______ ____
ROOT
ATOM      1  C   LIG    1       23.250 -23.995   6.613  0.00  0.00    +0.138 A 
ATOM      2  C   LIG    1       24.464 -23.324   6.689  0.00  0.00    +0.107 A 
ATOM      3  C   LIG    1       24.776 -21.949   7.000  0.00  0.00    +0.221 C 
ATOM      4  C   LIG    1       26.300 -21.811   6.949  0.00  0.00    +0.231 C 
ATOM      5  C   LIG    1       26.901 -21.473   8.335  0.00  0.00    +0.053 C 
ATOM      6  C   LIG    1       26.251 -20.270   9.035  0.00  0.00    +0.013 C 
ATOM      7  C   LIG    1       28.411 -21.239   8.193  0.00  0.00    +0.087 C 
ATOM      8  C   LIG    1       28.714 -20.180   7.159  0.00  0.00    +0.160 C 
ATOM      9  O   LIG    1       29.706 -19.458   7.234  0.00  0.00    -0.293 OA
ATOM     10  C   LIG    1       27.825 -20.067   5.976  0.00  0.00    +0.091 C 
ATOM     11  C   LIG    1       26.733 -20.840   5.851  0.00  0.00    +0.152 C 
ATOM     12  O   LIG    1       26.780 -23.134   6.567  0.00  0.00    -0.467 OA
ATOM     13  O   LIG    1       23.956 -21.079   7.245  0.00  0.00    -0.287 OA
ATOM     14  C   LIG    1       25.676 -23.943   6.451  0.00  0.00    +0.159 A 
ATOM     15  C   LIG    1       25.724 -25.290   6.122  0.00  0.00    +0.125 A 
ATOM     16 CL   LIG    1       27.250 -26.048   5.837  0.00  0.00    -0.076 Cl
ATOM     17  C   LIG    1       24.519 -26.011   6.034  0.00  0.00    +0.145 A 
ATOM     18  C   LIG    1       23.296 -25.353   6.277  0.00  0.00    +0.093 A 
ENDROOT
BRANCH   1  20
ATOM     19  C   LIG    1       21.535 -22.552   5.811  0.00  0.00    +0.277 C 
ATOM     20  O   LIG    1       22.118 -23.289   6.880  0.00  0.00    -0.494 OA
ENDBRANCH   1  20
BRANCH  11  21
ATOM     21  O   LIG    1       25.913 -20.857   4.734  0.00  0.00    -0.495 OA
ATOM     22  C   LIG    1       25.526 -19.602   4.185  0.00  0.00    +0.277 C 
ENDBRANCH  11  21
BRANCH  17  23
ATOM     23  O   LIG    1       24.616 -27.344   5.717  0.00  0.00    -0.493 OA
ATOM     24  C   LIG    1       24.582 -28.284   6.784  0.00  0.00    +0.277 C 
ENDBRANCH  17  23
TORSDOF 3
ENDMDL
MODEL 2
REMARK VINA RESULT:      -5.7      6.530      9.466
REMARK  Name = *****
REMARK                            x       y       z     vdW  Elec       q    Type
REMARK                         _______ _______ _______ _____ _____    ______ ____
ROOT
ATOM      1  C   LIG    1       25.295 -29.080  11.715  0.00  0.00    +0.138 A 
ATOM      2  C   LIG    1       25.080 -29.743  10.513  0.00  0.00    +0.107 A 
ATOM      3  C   LIG    1       25.982 -30.091   9.440  0.00  0.00    +0.221 C 
ATOM      4  C   LIG    1       25.162 -30.840   8.387  0.00  0.00    +0.231 C 
ATOM      5  C   LIG    1       25.615 -32.313   8.236  0.00  0.00    +0.053 C 
ATOM      6  C   LIG    1       27.123 -32.495   8.007  0.00  0.00    +0.013 C 
ATOM      7  C   LIG    1       24.832 -32.973   7.092  0.00  0.00    +0.087 C 
ATOM      8  C   LIG    1       24.965 -32.192   5.805  0.00  0.00    +0.160 C 
ATOM      9  O   LIG    1       24.915 -32.735   4.704  0.00  0.00    -0.293 OA
ATOM     10  C   LIG    1       25.079 -30.714   5.879  0.00  0.00    +0.091 C 
ATOM     11  C   LIG    1       25.130 -30.079   7.063  0.00  0.00    +0.152 C 
ATOM     12  O   LIG    1       23.801 -30.846   8.912  0.00  0.00    -0.467 OA
ATOM     13  O   LIG    1       27.171 -29.817   9.404  0.00  0.00    -0.287 OA
ATOM     14  C   LIG    1       23.838 -30.215  10.131  0.00  0.00    +0.159 A 
ATOM     15  C   LIG    1       22.737 -30.040  10.956  0.00  0.00    +0.125 A 
ATOM     16 CL   LIG    1       21.195 -30.644  10.466  0.00  0.00    -0.076 Cl
ATOM     17  C   LIG    1       22.907 -29.374  12.184  0.00  0.00    +0.145 A 
ATOM     18  C   LIG    1       24.184 -28.898  12.546  0.00  0.00    +0.093 A 
ENDROOT
BRANCH   1  20
ATOM     19  C   LIG    1       26.796 -27.269  12.078  0.00  0.00    +0.277 C 
ATOM     20  O   LIG    1       26.562 -28.670  11.994  0.00  0.00    -0.494 OA
ENDBRANCH   1  20
BRANCH  11  21
ATOM     21  O   LIG    1       25.140 -28.702   7.209  0.00  0.00    -0.495 OA
ATOM     22  C   LIG    1       24.511 -27.929   6.191  0.00  0.00    +0.277 C 
ENDBRANCH  11  21
BRANCH  17  23
ATOM     23  O   LIG    1       21.791 -29.234  12.973  0.00  0.00    -0.493 OA
ATOM     24  C   LIG    1       21.145 -27.967  12.989  0.00  0.00    +0.277 C 
ENDBRANCH  17  23
TORSDOF 3
ENDMDL
MODEL 3
REMARK VINA RESULT:      -5.1      8.142      9.886
REMARK  Name = *****
REMARK                            x       y       z     vdW  Elec       q    Type
REMARK                         _______ _______ _______ _____ _____    ______ ____
ROOT
ATOM      1  C   LIG    1       21.292 -29.693  12.301  0.00  0.00    +0.138 A 
ATOM      2  C   LIG    1       22.663 -29.488  12.211  0.00  0.00    +0.107 A 
ATOM      3  C   LIG    1       23.722 -30.326  11.698  0.00  0.00    +0.221 C 
ATOM      4  C   LIG    1       25.029 -29.543  11.847  0.00  0.00    +0.231 C 
ATOM      5  C   LIG    1       25.661 -29.199  10.476  0.00  0.00    +0.053 C 
ATOM      6  C   LIG    1       25.830 -30.400   9.533  0.00  0.00    +0.013 C 
ATOM      7  C   LIG    1       27.017 -28.515  10.696  0.00  0.00    +0.087 C 
ATOM      8  C   LIG    1       27.930 -29.358  11.558  0.00  0.00    +0.160 C 
ATOM      9  O   LIG    1       29.152 -29.323  11.442  0.00  0.00    -0.293 OA
ATOM     10  C   LIG    1       27.328 -30.189  12.630  0.00  0.00    +0.091 C 
ATOM     11  C   LIG    1       25.995 -30.250  12.797  0.00  0.00    +0.152 C 
ATOM     12  O   LIG    1       24.640 -28.290  12.484  0.00  0.00    -0.467 OA
ATOM     13  O   LIG    1       23.573 -31.450  11.245  0.00  0.00    -0.287 OA
ATOM     14  C   LIG    1       23.276 -28.328  12.646  0.00  0.00    +0.159 A 
ATOM     15  C   LIG    1       22.525 -27.303  13.200  0.00  0.00    +0.125 A 
ATOM     16 CL   LIG    1       23.308 -25.857  13.730  0.00  0.00    -0.076 Cl
ATOM     17  C   LIG    1       21.131 -27.466  13.312  0.00  0.00    +0.145 A 
ATOM     18  C   LIG    1       20.533 -28.662  12.865  0.00  0.00    +0.093 A 
ENDROOT
BRANCH   1  20
ATOM     19  C   LIG    1       20.114 -30.841  10.580  0.00  0.00    +0.277 C 
ATOM     20  O   LIG    1       20.795 -30.869  11.830  0.00  0.00    -0.494 OA
ENDBRANCH   1  20
BRANCH  11  21
ATOM     21  O   LIG    1       25.368 -30.926  13.831  0.00  0.00    -0.495 OA
ATOM     22  C   LIG    1       25.529 -30.407  15.147  0.00  0.00    +0.277 C 
ENDBRANCH  11  21
BRANCH  17  23
ATOM     23  O   LIG    1       20.427 -26.420  13.856  0.00  0.00    -0.493 OA
ATOM     24  C   LIG    1       19.014 -26.551  13.956  0.00  0.00    +0.277 C 
ENDBRANCH  17  23
TORSDOF 3
ENDMDL
MODEL 4
REMARK VINA RESULT:      -5.1      7.438      8.746
REMARK  Name = *****
REMARK                            x       y       z     vdW  Elec       q    Type
REMARK                         _______ _______ _______ _____ _____    ______ ____
ROOT
ATOM      1  C   LIG    1       25.434 -31.130  12.145  0.00  0.00    +0.138 A 
ATOM      2  C   LIG    1       25.592 -29.773  12.393  0.00  0.00    +0.107 A 
ATOM      3  C   LIG    1       25.479 -29.006  13.612  0.00  0.00    +0.221 C 
ATOM      4  C   LIG    1       25.789 -27.549  13.258  0.00  0.00    +0.231 C 
ATOM      5  C   LIG    1       27.080 -27.044  13.949  0.00  0.00    +0.053 C 
ATOM      6  C   LIG    1       27.122 -27.275  15.467  0.00  0.00    +0.013 C 
ATOM      7  C   LIG    1       27.272 -25.552  13.643  0.00  0.00    +0.087 C 
ATOM      8  C   LIG    1       26.055 -24.745  14.032  0.00  0.00    +0.160 C 
ATOM      9  O   LIG    1       26.136 -23.572  14.389  0.00  0.00    -0.293 OA
ATOM     10  C   LIG    1       24.715 -25.370  13.898  0.00  0.00    +0.091 C 
ATOM     11  C   LIG    1       24.580 -26.648  13.505  0.00  0.00    +0.152 C 
ATOM     12  O   LIG    1       26.031 -27.560  11.820  0.00  0.00    -0.467 OA
ATOM     13  O   LIG    1       25.182 -29.461  14.704  0.00  0.00    -0.287 OA
ATOM     14  C   LIG    1       25.913 -28.864  11.403  0.00  0.00    +0.159 A 
ATOM     15  C   LIG    1       26.096 -29.286  10.095  0.00  0.00    +0.125 A 
ATOM     16 CL   LIG    1       26.506 -28.137   8.872  0.00  0.00    -0.076 Cl
ATOM     17  C   LIG    1       25.947 -30.653   9.795  0.00  0.00    +0.145 A 
ATOM     18  C   LIG    1       25.613 -31.558  10.824  0.00  0.00    +0.093 A 
ENDROOT
BRANCH   1  20
ATOM     19  C   LIG    1       23.804 -32.450  13.272  0.00  0.00    +0.277 C 
ATOM     20  O   LIG    1       25.130 -31.936  13.198  0.00  0.00    -0.494 OA
ENDBRANCH   1  20
BRANCH  11  21
ATOM     21  O   LIG    1       23.364 -27.267  13.267  0.00  0.00    -0.495 OA
ATOM     22  C   LIG    1       22.197 -26.450  13.284  0.00  0.00    +0.277 C 
ENDBRANCH  11  21
BRANCH  17  23
ATOM     23  O   LIG    1       26.148 -31.027   8.489  0.00  0.00    -0.493 OA
ATOM     24  C   LIG    1       25.005 -31.369   7.713  0.00  0.00    +0.277 C 
ENDBRANCH  17  23
TORSDOF 3
ENDMDL
MODEL 5
REMARK VINA RESULT:      -5.0      7.294      9.784
REMARK  Name = *****
REMARK                            x       y       z     vdW  Elec       q    Type
REMARK                         _______ _______ _______ _____ _____    ______ ____
ROOT
ATOM      1  C   LIG    1       24.782 -31.046   6.408  0.00  0.00    +0.138 A 
ATOM      2  C   LIG    1       25.002 -31.279   7.759  0.00  0.00    +0.107 A 
ATOM      3  C   LIG    1       24.326 -30.783   8.935  0.00  0.00    +0.221 C 
ATOM      4  C   LIG    1       25.011 -31.415  10.150  0.00  0.00    +0.231 C 
ATOM      5  C   LIG    1       24.062 -32.362  10.925  0.00  0.00    +0.053 C 
ATOM      6  C   LIG    1       22.710 -31.738  11.304  0.00  0.00    +0.013 C 
ATOM      7  C   LIG    1       24.771 -32.873  12.187  0.00  0.00    +0.087 C 
ATOM      8  C   LIG    1       25.275 -31.733  13.041  0.00  0.00    +0.160 C 
ATOM      9  O   LIG    1       25.372 -31.825  14.262  0.00  0.00    -0.293 OA
ATOM     10  C   LIG    1       25.743 -30.495  12.370  0.00  0.00    +0.091 C 
ATOM     11  C   LIG    1       25.662 -30.354  11.035  0.00  0.00    +0.152 C 
ATOM     12  O   LIG    1       26.086 -32.226   9.589  0.00  0.00    -0.467 OA
ATOM     13  O   LIG    1       23.391 -29.998   8.931  0.00  0.00    -0.287 OA
ATOM     14  C   LIG    1       26.007 -32.107   8.222  0.00  0.00    +0.159 A 
ATOM     15  C   LIG    1       26.851 -32.752   7.331  0.00  0.00    +0.125 A 
ATOM     16 CL   LIG    1       28.096 -33.791   7.928  0.00  0.00    -0.076 Cl
ATOM     17  C   LIG    1       26.666 -32.547   5.951  0.00  0.00    +0.145 A 
ATOM     18  C   LIG    1       25.636 -31.692   5.506  0.00  0.00    +0.093 A 
ENDROOT
BRANCH   1  20
ATOM     19  C   LIG    1       24.083 -28.900   5.650  0.00  0.00    +0.277 C 
ATOM     20  O   LIG    1       23.756 -30.222   6.065  0.00  0.00    -0.494 OA
ENDBRANCH   1  20
BRANCH  11  21
ATOM     21  O   LIG    1       26.164 -29.271  10.333  0.00  0.00    -0.495 OA
ATOM     22  C   LIG    1       26.998 -28.359  11.041  0.00  0.00    +0.277 C 
ENDBRANCH  11  21
BRANCH  17  23
ATOM     23  O   LIG    1       27.518 -33.215   5.105  0.00  0.00    -0.493 OA
ATOM     24  C   LIG    1       27.051 -33.520   3.797  0.00  0.00    +0.277 C 
ENDBRANCH  17  23
TORSDOF 3
ENDMDL
MODEL 6
REMARK VINA RESULT:      -4.9      8.097      9.913
REMARK  Name = *****
REMARK                            x       y       z     vdW  Elec       q    Type
REMARK                         _______ _______ _______ _____ _____    ______ ____
ROOT
ATOM      1  C   LIG    1       26.592 -29.231  10.669  0.00  0.00    +0.138 A 
ATOM      2  C   LIG    1       25.431 -29.106  11.421  0.00  0.00    +0.107 A 
ATOM      3  C   LIG    1       25.158 -28.386  12.643  0.00  0.00    +0.221 C 
ATOM      4  C   LIG    1       23.680 -28.608  12.976  0.00  0.00    +0.231 C 
ATOM      5  C   LIG    1       22.864 -27.294  12.907  0.00  0.00    +0.053 C 
ATOM      6  C   LIG    1       23.455 -26.133  13.721  0.00  0.00    +0.013 C 
ATOM      7  C   LIG    1       21.421 -27.565  13.358  0.00  0.00    +0.087 C 
ATOM      8  C   LIG    1       21.379 -28.200  14.729  0.00  0.00    +0.160 C 
ATOM      9  O   LIG    1       20.439 -28.025  15.500  0.00  0.00    -0.293 OA
ATOM     10  C   LIG    1       22.471 -29.127  15.117  0.00  0.00    +0.091 C 
ATOM     11  C   LIG    1       23.515 -29.352  14.301  0.00  0.00    +0.152 C 
ATOM     12  O   LIG    1       23.191 -29.491  11.924  0.00  0.00    -0.467 OA
ATOM     13  O   LIG    1       25.976 -27.737  13.275  0.00  0.00    -0.287 OA
ATOM     14  C   LIG    1       24.242 -29.718  11.069  0.00  0.00    +0.159 A 
ATOM     15  C   LIG    1       24.166 -30.497   9.924  0.00  0.00    +0.125 A 
ATOM     16 CL   LIG    1       22.670 -31.247   9.496  0.00  0.00    -0.076 Cl
ATOM     17  C   LIG    1       25.318 -30.653   9.130  0.00  0.00    +0.145 A 
ATOM     18  C   LIG    1       26.519 -30.021   9.516  0.00  0.00    +0.093 A 
ENDROOT
BRANCH   1  20
ATOM     19  C   LIG    1       28.699 -29.338  11.772  0.00  0.00    +0.277 C 
ATOM     20  O   LIG    1       27.701 -28.574  11.103  0.00  0.00    -0.494 OA
ENDBRANCH   1  20
BRANCH  11  21
ATOM     21  O   LIG    1       24.519 -30.273  14.554  0.00  0.00    -0.495 OA
ATOM     22  C   LIG    1       24.185 -31.653  14.450  0.00  0.00    +0.277 C 
ENDBRANCH  11  21
BRANCH  17  23
ATOM     23  O   LIG    1       25.193 -31.423   8.000  0.00  0.00    -0.493 OA
ATOM     24  C   LIG    1       25.157 -30.757   6.744  0.00  0.00    +0.277 C 
ENDBRANCH  17  23
TORSDOF 3
ENDMDL
MODEL 7
REMARK VINA RESULT:      -4.9      7.167      8.931
REMARK  Name = *****
REMARK                            x       y       z     vdW  Elec       q    Type
REMARK                         _______ _______ _______ _____ _____    ______ ____
ROOT
ATOM      1  C   LIG    1       25.989 -32.117   8.608  0.00  0.00    +0.138 A 
ATOM      2  C   LIG    1       25.884 -30.983   9.402  0.00  0.00    +0.107 A 
ATOM      3  C   LIG    1       26.033 -30.797  10.827  0.00  0.00    +0.221 C 
ATOM      4  C   LIG    1       25.822 -29.308  11.112  0.00  0.00    +0.231 C 
ATOM      5  C   LIG    1       27.106 -28.630  11.650  0.00  0.00    +0.053 C 
ATOM      6  C   LIG    1       27.750 -29.346  12.847  0.00  0.00    +0.013 C 
ATOM      7  C   LIG    1       26.798 -27.172  12.018  0.00  0.00    +0.087 C 
ATOM      8  C   LIG    1       25.644 -27.078  12.990  0.00  0.00    +0.160 C 
ATOM      9  O   LIG    1       25.555 -26.168  13.811  0.00  0.00    -0.293 OA
ATOM     10  C   LIG    1       24.547 -28.072  12.890  0.00  0.00    +0.091 C 
ATOM     11  C   LIG    1       24.601 -29.080  12.002  0.00  0.00    +0.152 C 
ATOM     12  O   LIG    1       25.522 -28.720   9.811  0.00  0.00    -0.467 OA
ATOM     13  O   LIG    1       26.274 -31.683  11.630  0.00  0.00    -0.287 OA
ATOM     14  C   LIG    1       25.589 -29.734   8.887  0.00  0.00    +0.159 A 
ATOM     15  C   LIG    1       25.385 -29.567   7.526  0.00  0.00    +0.125 A 
ATOM     16 CL   LIG    1       25.026 -27.998   6.899  0.00  0.00    -0.076 Cl
ATOM     17  C   LIG    1       25.482 -30.689   6.681  0.00  0.00    +0.145 A 
ATOM     18  C   LIG    1       25.779 -31.952   7.235  0.00  0.00    +0.093 A 
ENDROOT
BRANCH   1  20
ATOM     19  C   LIG    1       27.600 -33.824   9.009  0.00  0.00    +0.277 C 
ATOM     20  O   LIG    1       26.296 -33.293   9.221  0.00  0.00    -0.494 OA
ENDBRANCH   1  20
BRANCH  11  21
ATOM     21  O   LIG    1       23.576 -29.986  11.787  0.00  0.00    -0.495 OA
ATOM     22  C   LIG    1       22.243 -29.531  11.998  0.00  0.00    +0.277 C 
ENDBRANCH  11  21
BRANCH  17  23
ATOM     23  O   LIG    1       25.283 -30.474   5.339  0.00  0.00    -0.493 OA
ATOM     24  C   LIG    1       25.510 -31.563   4.452  0.00  0.00    +0.277 C 
ENDBRANCH  17  23
TORSDOF 3
ENDMDL
MODEL 8
REMARK VINA RESULT:      -4.8      8.055     10.281
REMARK  Name = *****
REMARK                            x       y       z     vdW  Elec       q    Type
REMARK                         _______ _______ _______ _____ _____    ______ ____
ROOT
ATOM      1  C   LIG    1       22.456 -27.270  13.226  0.00  0.00    +0.138 A 
ATOM      2  C   LIG    1       23.299 -28.228  12.678  0.00  0.00    +0.107 A 
ATOM      3  C   LIG    1       23.030 -29.357  11.819  0.00  0.00    +0.221 C 
ATOM      4  C   LIG    1       24.373 -30.033  11.528  0.00  0.00    +0.231 C 
ATOM      5  C   LIG    1       24.757 -29.945  10.031  0.00  0.00    +0.053 C 
ATOM      6  C   LIG    1       23.665 -30.427   9.064  0.00  0.00    +0.013 C 
ATOM      7  C   LIG    1       26.051 -30.733   9.789  0.00  0.00    +0.087 C 
ATOM      8  C   LIG    1       25.930 -32.160  10.272  0.00  0.00    +0.160 C 
ATOM      9  O   LIG    1       26.550 -33.082   9.747  0.00  0.00    -0.293 OA
ATOM     10  C   LIG    1       25.098 -32.438  11.469  0.00  0.00    +0.091 C 
ATOM     11  C   LIG    1       24.408 -31.458  12.078  0.00  0.00    +0.152 C 
ATOM     12  O   LIG    1       25.350 -29.256  12.283  0.00  0.00    -0.467 OA
ATOM     13  O   LIG    1       21.926 -29.692  11.422  0.00  0.00    -0.287 OA
ATOM     14  C   LIG    1       24.664 -28.238  12.900  0.00  0.00    +0.159 A 
ATOM     15  C   LIG    1       25.252 -27.268  13.696  0.00  0.00    +0.125 A 
ATOM     16 CL   LIG    1       26.961 -27.292  13.955  0.00  0.00    -0.076 Cl
ATOM     17  C   LIG    1       24.437 -26.276  14.273  0.00  0.00    +0.145 A 
ATOM     18  C   LIG    1       23.048 -26.292  14.034  0.00  0.00    +0.093 A 
ENDROOT
BRANCH   1  20
ATOM     19  C   LIG    1       20.205 -27.041  13.967  0.00  0.00    +0.277 C 
ATOM     20  O   LIG    1       21.130 -27.348  12.930  0.00  0.00    -0.494 OA
ENDBRANCH   1  20
BRANCH  11  21
ATOM     21  O   LIG    1       23.690 -31.622  13.251  0.00  0.00    -0.495 OA
ATOM     22  C   LIG    1       24.424 -31.925  14.434  0.00  0.00    +0.277 C 
ENDBRANCH  11  21
BRANCH  17  23
ATOM     23  O   LIG    1       25.065 -25.329  15.045  0.00  0.00    -0.493 OA
ATOM     24  C   LIG    1       25.389 -24.085  14.436  0.00  0.00    +0.277 C 
ENDBRANCH  17  23
TORSDOF 3
ENDMDL
MODEL 9
REMARK VINA RESULT:      -4.8      5.768      9.905
REMARK  Name = *****
REMARK                            x       y       z     vdW  Elec       q    Type
REMARK                         _______ _______ _______ _____ _____    ______ ____
ROOT
ATOM      1  C   LIG    1       24.008 -31.190   6.251  0.00  0.00    +0.138 A 
ATOM      2  C   LIG    1       24.099 -31.100   7.634  0.00  0.00    +0.107 A 
ATOM      3  C   LIG    1       23.606 -31.963   8.682  0.00  0.00    +0.221 C 
ATOM      4  C   LIG    1       24.040 -31.348  10.015  0.00  0.00    +0.231 C 
ATOM      5  C   LIG    1       25.041 -32.253  10.775  0.00  0.00    +0.053 C 
ATOM      6  C   LIG    1       24.577 -33.707  10.952  0.00  0.00    +0.013 C 
ATOM      7  C   LIG    1       25.349 -31.634  12.145  0.00  0.00    +0.087 C 
ATOM      8  C   LIG    1       24.086 -31.378  12.935  0.00  0.00    +0.160 C 
ATOM      9  O   LIG    1       24.066 -31.412  14.163  0.00  0.00    -0.293 OA
ATOM     10  C   LIG    1       22.854 -30.996  12.202  0.00  0.00    +0.091 C 
ATOM     11  C   LIG    1       22.834 -30.941  10.859  0.00  0.00    +0.152 C 
ATOM     12  O   LIG    1       24.741 -30.122   9.647  0.00  0.00    -0.467 OA
ATOM     13  O   LIG    1       22.957 -32.982   8.507  0.00  0.00    -0.287 OA
ATOM     14  C   LIG    1       24.744 -30.058   8.275  0.00  0.00    +0.159 A 
ATOM     15  C   LIG    1       25.339 -29.044   7.540  0.00  0.00    +0.125 A 
ATOM     16 CL   LIG    1       26.149 -27.755   8.358  0.00  0.00    -0.076 Cl
ATOM     17  C   LIG    1       25.272 -29.093   6.135  0.00  0.00    +0.145 A 
ATOM     18  C   LIG    1       24.603 -30.165   5.508  0.00  0.00    +0.093 A 
ENDROOT
BRANCH   1  20
ATOM     19  C   LIG    1       24.155 -33.297   5.153  0.00  0.00    +0.277 C 
ATOM     20  O   LIG    1       23.360 -32.266   5.728  0.00  0.00    -0.494 OA
ENDBRANCH   1  20
BRANCH  11  21
ATOM     21  O   LIG    1       21.752 -30.501  10.113  0.00  0.00    -0.495 OA
ATOM     22  C   LIG    1       20.453 -30.885  10.551  0.00  0.00    +0.277 C 
ENDBRANCH  11  21
BRANCH  17  23
ATOM     23  O   LIG    1       25.885 -28.073   5.449  0.00  0.00    -0.493 OA
ATOM     24  C   LIG    1       25.099 -26.937   5.107  0.00  0.00    +0.277 C 
ENDBRANCH  17  23
TORSDOF 3
ENDMDL
