MODEL 1
REMARK VINA RESULT:       4.4      0.000      0.000
REMARK  Name = *****
REMARK                            x       y       z     vdW  Elec       q    Type
REMARK                         _______ _______ _______ _____ _____    ______ ____
ROOT
ATOM      1  C   LIG    1       27.427 -18.935   5.243  0.00  0.00    +0.087 C 
ATOM      2  C   LIG    1       26.594 -18.275   4.125  0.00  0.00    +0.169 C 
ATOM      3  C   LIG    1       25.704 -19.345   3.453  0.00  0.00    +0.175 C 
ATOM      4  C   LIG    1       25.020 -20.439   4.323  0.00  0.00    +0.170 C 
ATOM      5  C   LIG    1       25.210 -20.170   5.881  0.00  0.00    +0.084 C 
ATOM      6  C   LIG    1       26.471 -19.390   6.347  0.00  0.00    +0.042 C 
ENDROOT
BRANCH   5   7
ATOM      7  N   LIG    1       25.094 -21.380   6.722  0.00  0.00    -0.325 NA
ATOM      8  H   LIG    1       24.119 -21.505   6.992  0.00  0.00    +0.118 HD
ATOM      9  H   LIG    1       25.605 -21.223   7.594  0.00  0.00    +0.118 HD
ENDBRANCH   5   7
BRANCH   1  10
ATOM     10  N   LIG    1       28.221 -20.123   4.818  0.00  0.00    -0.311 NA
ATOM     11  H   LIG    1       28.575 -20.003   3.866  0.00  0.00    +0.122 HD
BRANCH  10  13
ATOM     12  C   LIG    1       28.813 -21.299   6.901  0.00  0.00    +0.020 C 
ATOM     13  C   LIG    1       29.324 -20.508   5.699  0.00  0.00    +0.078 C 
ENDBRANCH  10  13
ENDBRANCH   1  10
BRANCH   3  14
ATOM     14  O   LIG    1       26.382 -20.110   2.425  0.00  0.00    -0.387 OA
ATOM     15  H   LIG    1       25.898 -20.935   2.266  0.00  0.00    +0.210 HD
ENDBRANCH   3  14
BRANCH   2  16
ATOM     16  O   LIG    1       25.983 -16.954   4.332  0.00  0.00    -0.341 OA
BRANCH  16  17
ATOM     17  C   LIG    1       25.814 -15.886   3.355  0.00  0.00    +0.284 C 
ATOM     18  C   LIG    1       26.838 -14.681   3.414  0.00  0.00    +0.131 C 
ATOM     19  C   LIG    1       27.253 -14.156   2.018  0.00  0.00    +0.048 C 
ATOM     20  C   LIG    1       26.418 -13.451   4.350  0.00  0.00    +0.121 C 
ATOM     21  C   LIG    1       24.950 -13.427   4.627  0.00  0.00    +0.160 C 
ATOM     22  C   LIG    1       24.254 -14.024   3.438  0.00  0.00    +0.196 C 
ATOM     23  O   LIG    1       24.443 -15.437   3.407  0.00  0.00    -0.346 OA
BRANCH  20  24
ATOM     24  N   LIG    1       27.070 -13.362   5.656  0.00  0.00    -0.311 NA
ATOM     25  H   LIG    1       27.352 -14.323   5.640  0.00  0.00    +0.122 HD
ATOM     26  C   LIG    1       28.333 -12.700   5.958  0.00  0.00    +0.101 C 
ENDBRANCH  20  24
BRANCH  18  27
ATOM     27  O   LIG    1       28.032 -15.232   3.859  0.00  0.00    -0.382 OA
ATOM     28  H   LIG    1       28.279 -16.104   3.501  0.00  0.00    +0.210 HD
ENDBRANCH  18  27
BRANCH  21  29
ATOM     29  O   LIG    1       24.582 -12.067   4.835  0.00  0.00    -0.388 OA
ATOM     30  H   LIG    1       23.621 -12.054   4.689  0.00  0.00    +0.210 HD
ENDBRANCH  21  29
ENDBRANCH  16  17
ENDBRANCH   2  16
BRANCH   4  31
ATOM     31  O   LIG    1       23.582 -20.556   4.020  0.00  0.00    -0.333 OA
BRANCH  31  32
ATOM     32  C   LIG    1       22.539 -20.243   4.983  0.00  0.00    +0.324 C 
ATOM     33  C   LIG    1       20.963 -20.367   4.660  0.00  0.00    +0.124 C 
ATOM     34  C   LIG    1       20.696 -19.420   3.560  0.00  0.00    +0.055 C 
ATOM     35  C   LIG    1       21.310 -18.079   3.739  0.00  0.00    +0.017 C 
ATOM     36  C   LIG    1       22.239 -17.815   4.594  0.00  0.00    +0.111 C 
ATOM     37  O   LIG    1       22.809 -18.820   5.399  0.00  0.00    -0.465 OA
BRANCH  33  38
ATOM     38  N   LIG    1       20.212 -21.570   4.210  0.00  0.00    -0.322 NA
ATOM     39  H   LIG    1       20.817 -22.136   3.612  0.00  0.00    +0.119 HD
ATOM     40  H   LIG    1       19.447 -21.295   3.570  0.00  0.00    +0.119 HD
ENDBRANCH  33  38
BRANCH  36  41
ATOM     41  C   LIG    1       22.586 -16.348   4.871  0.00  0.00    +0.152 C 
BRANCH  41  42
ATOM     42  N   LIG    1       21.799 -15.804   6.006  0.00  0.00    -0.324 NA
ATOM     43  H   LIG    1       22.001 -16.332   6.855  0.00  0.00    +0.119 HD
ATOM     44  H   LIG    1       22.138 -14.856   6.186  0.00  0.00    +0.119 HD
ENDBRANCH  41  42
ENDBRANCH  36  41
ENDBRANCH  31  32
ENDBRANCH   4  31
TORSDOF 14
ENDMDL
MODEL 2
REMARK VINA RESULT:       5.1      1.098      1.422
REMARK  Name = *****
REMARK                            x       y       z     vdW  Elec       q    Type
REMARK                         _______ _______ _______ _____ _____    ______ ____
ROOT
ATOM      1  C   LIG    1       27.762 -18.705   5.255  0.00  0.00    +0.087 C 
ATOM      2  C   LIG    1       27.049 -18.063   4.046  0.00  0.00    +0.169 C 
ATOM      3  C   LIG    1       26.078 -19.092   3.421  0.00  0.00    +0.175 C 
ATOM      4  C   LIG    1       25.248 -20.030   4.344  0.00  0.00    +0.170 C 
ATOM      5  C   LIG    1       25.402 -19.646   5.882  0.00  0.00    +0.084 C 
ATOM      6  C   LIG    1       26.719 -18.961   6.343  0.00  0.00    +0.042 C 
ENDROOT
BRANCH   5   7
ATOM      7  N   LIG    1       25.125 -20.760   6.814  0.00  0.00    -0.325 NA
ATOM      8  H   LIG    1       24.161 -21.067   6.687  0.00  0.00    +0.118 HD
ATOM      9  H   LIG    1       25.177 -20.406   7.772  0.00  0.00    +0.118 HD
ENDBRANCH   5   7
BRANCH   1  10
ATOM     10  N   LIG    1       28.442 -20.001   4.969  0.00  0.00    -0.311 NA
ATOM     11  H   LIG    1       28.862 -19.994   4.036  0.00  0.00    +0.122 HD
BRANCH  10  13
ATOM     12  C   LIG    1       28.826 -21.375   6.978  0.00  0.00    +0.020 C 
ATOM     13  C   LIG    1       29.441 -20.431   5.947  0.00  0.00    +0.078 C 
ENDBRANCH  10  13
ENDBRANCH   1  10
BRANCH   3  14
ATOM     14  O   LIG    1       26.712 -20.009   2.495  0.00  0.00    -0.387 OA
ATOM     15  H   LIG    1       26.509 -19.741   1.586  0.00  0.00    +0.210 HD
ENDBRANCH   3  14
BRANCH   2  16
ATOM     16  O   LIG    1       26.574 -16.674   4.112  0.00  0.00    -0.341 OA
BRANCH  16  17
ATOM     17  C   LIG    1       27.149 -15.503   3.464  0.00  0.00    +0.284 C 
ATOM     18  C   LIG    1       27.209 -14.164   4.306  0.00  0.00    +0.131 C 
ATOM     19  C   LIG    1       28.502 -13.346   4.071  0.00  0.00    +0.048 C 
ATOM     20  C   LIG    1       25.933 -13.204   4.184  0.00  0.00    +0.121 C 
ATOM     21  C   LIG    1       25.127 -13.485   2.958  0.00  0.00    +0.160 C 
ATOM     22  C   LIG    1       26.071 -13.984   1.900  0.00  0.00    +0.196 C 
ATOM     23  O   LIG    1       26.487 -15.316   2.194  0.00  0.00    -0.346 OA
BRANCH  20  24
ATOM     24  N   LIG    1       24.983 -13.224   5.296  0.00  0.00    -0.311 NA
ATOM     25  H   LIG    1       25.660 -12.885   5.951  0.00  0.00    +0.122 HD
ATOM     26  C   LIG    1       23.881 -12.297   5.520  0.00  0.00    +0.101 C 
ENDBRANCH  20  24
BRANCH  18  27
ATOM     27  O   LIG    1       27.380 -14.565   5.623  0.00  0.00    -0.382 OA
ATOM     28  H   LIG    1       26.851 -15.325   5.929  0.00  0.00    +0.210 HD
ENDBRANCH  18  27
BRANCH  21  29
ATOM     29  O   LIG    1       24.497 -12.266   2.578  0.00  0.00    -0.388 OA
ATOM     30  H   LIG    1       24.128 -11.919   3.409  0.00  0.00    +0.210 HD
ENDBRANCH  21  29
ENDBRANCH  16  17
ENDBRANCH   2  16
BRANCH   4  31
ATOM     31  O   LIG    1       23.819 -20.025   3.982  0.00  0.00    -0.333 OA
BRANCH  31  32
ATOM     32  C   LIG    1       22.750 -19.959   4.964  0.00  0.00    +0.324 C 
ATOM     33  C   LIG    1       21.210 -20.303   4.629  0.00  0.00    +0.124 C 
ATOM     34  C   LIG    1       20.785 -19.324   3.609  0.00  0.00    +0.055 C 
ATOM     35  C   LIG    1       21.183 -17.922   3.898  0.00  0.00    +0.017 C 
ATOM     36  C   LIG    1       22.068 -17.585   4.775  0.00  0.00    +0.111 C 
ATOM     37  O   LIG    1       22.797 -18.549   5.496  0.00  0.00    -0.465 OA
BRANCH  33  38
ATOM     38  N   LIG    1       20.652 -21.569   4.081  0.00  0.00    -0.322 NA
ATOM     39  H   LIG    1       20.610 -21.501   3.062  0.00  0.00    +0.119 HD
ATOM     40  H   LIG    1       19.657 -21.665   4.346  0.00  0.00    +0.119 HD
ENDBRANCH  33  38
BRANCH  36  41
ATOM     41  C   LIG    1       22.183 -16.109   5.171  0.00  0.00    +0.152 C 
BRANCH  41  42
ATOM     42  N   LIG    1       23.057 -15.358   4.235  0.00  0.00    -0.324 NA
ATOM     43  H   LIG    1       23.300 -15.946   3.438  0.00  0.00    +0.119 HD
ATOM     44  H   LIG    1       22.501 -14.590   3.849  0.00  0.00    +0.119 HD
ENDBRANCH  41  42
ENDBRANCH  36  41
ENDBRANCH  31  32
ENDBRANCH   4  31
TORSDOF 14
ENDMDL
MODEL 3
REMARK VINA RESULT:       6.1      1.936      5.018
REMARK  Name = *****
REMARK                            x       y       z     vdW  Elec       q    Type
REMARK                         _______ _______ _______ _____ _____    ______ ____
ROOT
ATOM      1  C   LIG    1       22.407 -18.450   3.309  0.00  0.00    +0.087 C 
ATOM      2  C   LIG    1       23.046 -17.607   4.433  0.00  0.00    +0.169 C 
ATOM      3  C   LIG    1       23.554 -18.548   5.549  0.00  0.00    +0.175 C 
ATOM      4  C   LIG    1       24.233 -19.897   5.173  0.00  0.00    +0.170 C 
ATOM      5  C   LIG    1       24.471 -20.030   3.604  0.00  0.00    +0.084 C 
ATOM      6  C   LIG    1       23.510 -19.275   2.645  0.00  0.00    +0.042 C 
ENDROOT
BRANCH   5   7
ATOM      7  N   LIG    1       24.581 -21.424   3.126  0.00  0.00    -0.325 NA
ATOM      8  H   LIG    1       25.563 -21.643   2.961  0.00  0.00    +0.118 HD
ATOM      9  H   LIG    1       24.126 -21.493   2.212  0.00  0.00    +0.118 HD
ENDBRANCH   5   7
BRANCH   1  10
ATOM     10  N   LIG    1       21.345 -19.395   3.758  0.00  0.00    -0.311 NA
ATOM     11  H   LIG    1       21.503 -19.687   4.725  0.00  0.00    +0.122 HD
BRANCH  10  13
ATOM     12  C   LIG    1       19.856 -17.890   2.497  0.00  0.00    +0.020 C 
ATOM     13  C   LIG    1       19.966 -18.929   3.610  0.00  0.00    +0.078 C 
ENDBRANCH  10  13
ENDBRANCH   1  10
BRANCH   3  14
ATOM     14  O   LIG    1       22.530 -18.941   6.497  0.00  0.00    -0.387 OA
ATOM     15  H   LIG    1       22.554 -19.902   6.616  0.00  0.00    +0.210 HD
ENDBRANCH   3  14
BRANCH   2  16
ATOM     16  O   LIG    1       23.902 -16.457   4.108  0.00  0.00    -0.341 OA
BRANCH  16  17
ATOM     17  C   LIG    1       23.496 -15.075   3.893  0.00  0.00    +0.284 C 
ATOM     18  C   LIG    1       24.508 -14.133   3.124  0.00  0.00    +0.131 C 
ATOM     19  C   LIG    1       23.815 -13.146   2.153  0.00  0.00    +0.048 C 
ATOM     20  C   LIG    1       25.560 -13.342   4.037  0.00  0.00    +0.121 C 
ATOM     21  C   LIG    1       25.117 -13.249   5.461  0.00  0.00    +0.160 C 
ATOM     22  C   LIG    1       23.615 -13.225   5.467  0.00  0.00    +0.196 C 
ATOM     23  O   LIG    1       23.094 -14.518   5.164  0.00  0.00    -0.346 OA
BRANCH  20  24
ATOM     24  N   LIG    1       26.924 -13.869   4.080  0.00  0.00    -0.311 NA
ATOM     25  H   LIG    1       26.749 -14.528   3.347  0.00  0.00    +0.122 HD
ATOM     26  C   LIG    1       28.129 -13.212   3.590  0.00  0.00    +0.101 C 
ENDBRANCH  20  24
BRANCH  18  27
ATOM     27  O   LIG    1       25.178 -14.960   2.233  0.00  0.00    -0.382 OA
ATOM     28  H   LIG    1       25.214 -14.674   1.302  0.00  0.00    +0.210 HD
ENDBRANCH  18  27
BRANCH  21  29
ATOM     29  O   LIG    1       25.673 -12.054   5.999  0.00  0.00    -0.388 OA
ATOM     30  H   LIG    1       26.230 -12.360   6.735  0.00  0.00    +0.210 HD
ENDBRANCH  21  29
ENDBRANCH  16  17
ENDBRANCH   2  16
BRANCH   4  31
ATOM     31  O   LIG    1       25.515 -20.077   5.879  0.00  0.00    -0.333 OA
BRANCH  31  32
ATOM     32  C   LIG    1       26.755 -20.416   5.200  0.00  0.00    +0.324 C 
ATOM     33  C   LIG    1       28.161 -20.617   5.963  0.00  0.00    +0.124 C 
ATOM     34  C   LIG    1       28.472 -19.320   6.595  0.00  0.00    +0.055 C 
ATOM     35  C   LIG    1       28.273 -18.142   5.714  0.00  0.00    +0.017 C 
ATOM     36  C   LIG    1       27.609 -18.168   4.607  0.00  0.00    +0.111 C 
ATOM     37  O   LIG    1       26.944 -19.330   4.172  0.00  0.00    -0.465 OA
BRANCH  33  38
ATOM     38  N   LIG    1       28.480 -21.571   7.061  0.00  0.00    -0.322 NA
ATOM     39  H   LIG    1       27.807 -21.443   7.819  0.00  0.00    +0.119 HD
ATOM     40  H   LIG    1       29.379 -21.315   7.505  0.00  0.00    +0.119 HD
ENDBRANCH  33  38
BRANCH  36  41
ATOM     41  C   LIG    1       27.713 -16.967   3.660  0.00  0.00    +0.152 C 
BRANCH  41  42
ATOM     42  N   LIG    1       26.410 -16.663   3.017  0.00  0.00    -0.324 NA
ATOM     43  H   LIG    1       25.655 -16.766   3.696  0.00  0.00    +0.119 HD
ATOM     44  H   LIG    1       26.418 -15.672   2.765  0.00  0.00    +0.119 HD
ENDBRANCH  41  42
ENDBRANCH  36  41
ENDBRANCH  31  32
ENDBRANCH   4  31
TORSDOF 14
ENDMDL
