MODEL 1
REMARK VINA RESULT:      -7.2      0.000      0.000
REMARK  Name = *****
REMARK                            x       y       z     vdW  Elec       q    Type
REMARK                         _______ _______ _______ _____ _____    ______ ____
ROOT
ATOM      1  C   LIG    1       25.099 -23.572   7.263  0.00  0.00    +0.122 C 
ATOM      2  C   LIG    1       25.527 -22.337   6.943  0.00  0.00    +0.079 C 
ATOM      3  N   LIG    1       25.382 -21.587   5.797  0.00  0.00    -0.267 N 
ATOM      4  C   LIG    1       24.411 -21.854   4.754  0.00  0.00    +0.139 C 
ATOM      5  C   LIG    1       26.182 -20.437   5.699  0.00  0.00    +0.248 C 
ATOM      6  O   LIG    1       26.126 -19.630   4.772  0.00  0.00    -0.273 OA
ATOM      7  C   LIG    1       27.160 -20.299   6.899  0.00  0.00    +0.208 C 
ATOM      8  S   LIG    1       26.404 -21.430   8.140  0.00  0.00    -0.081 S 
ENDROOT
BRANCH   7   9
ATOM      9  N   LIG    1       28.546 -20.709   6.554  0.00  0.00    -0.283 NA
ATOM     10  C   LIG    1       29.219 -19.803   5.605  0.00  0.00    +0.086 C 
ATOM     11  C   LIG    1       29.642 -18.459   6.204  0.00  0.00    +0.015 C 
ATOM     12  C   LIG    1       30.523 -18.651   7.432  0.00  0.00    +0.002 C 
ATOM     13  C   LIG    1       29.888 -19.625   8.416  0.00  0.00    +0.015 C 
ATOM     14  C   LIG    1       29.419 -20.909   7.727  0.00  0.00    +0.086 C 
ENDBRANCH   7   9
BRANCH   1  15
ATOM     15  C   LIG    1       24.433 -24.592   6.442  0.00  0.00    +0.334 C 
ATOM     16  O   LIG    1       23.262 -24.933   6.517  0.00  0.00    -0.245 OA
BRANCH  15  17
ATOM     17  O   LIG    1       25.346 -25.051   5.547  0.00  0.00    -0.462 OA
BRANCH  17  19
ATOM     18  C   LIG    1       26.282 -27.201   4.938  0.00  0.00    +0.048 C 
ATOM     19  C   LIG    1       26.206 -26.115   5.994  0.00  0.00    +0.229 C 
ENDBRANCH  17  19
ENDBRANCH  15  17
ENDBRANCH   1  15
TORSDOF 4
ENDMDL
MODEL 2
REMARK VINA RESULT:      -6.7      2.799      6.966
REMARK  Name = *****
REMARK                            x       y       z     vdW  Elec       q    Type
REMARK                         _______ _______ _______ _____ _____    ______ ____
ROOT
ATOM      1  C   LIG    1       30.351 -19.472   8.395  0.00  0.00    +0.122 C 
ATOM      2  C   LIG    1       29.453 -19.912   7.495  0.00  0.00    +0.079 C 
ATOM      3  N   LIG    1       28.907 -19.316   6.380  0.00  0.00    -0.267 N 
ATOM      4  C   LIG    1       29.453 -18.146   5.720  0.00  0.00    +0.139 C 
ATOM      5  C   LIG    1       27.796 -19.958   5.811  0.00  0.00    +0.248 C 
ATOM      6  O   LIG    1       27.235 -19.589   4.779  0.00  0.00    -0.273 OA
ATOM      7  C   LIG    1       27.344 -21.193   6.638  0.00  0.00    +0.208 C 
ATOM      8  S   LIG    1       28.833 -21.528   7.669  0.00  0.00    -0.081 S 
ENDROOT
BRANCH   7   9
ATOM      9  N   LIG    1       26.149 -20.912   7.475  0.00  0.00    -0.283 NA
ATOM     10  C   LIG    1       24.955 -20.525   6.702  0.00  0.00    +0.086 C 
ATOM     11  C   LIG    1       24.293 -21.676   5.939  0.00  0.00    +0.015 C 
ATOM     12  C   LIG    1       23.941 -22.830   6.871  0.00  0.00    +0.002 C 
ATOM     13  C   LIG    1       25.135 -23.225   7.730  0.00  0.00    +0.015 C 
ATOM     14  C   LIG    1       25.790 -22.011   8.393  0.00  0.00    +0.086 C 
ENDBRANCH   7   9
BRANCH   1  15
ATOM     15  C   LIG    1       30.964 -18.147   8.559  0.00  0.00    +0.334 C 
ATOM     16  O   LIG    1       32.002 -17.758   8.045  0.00  0.00    -0.245 OA
BRANCH  15  17
ATOM     17  O   LIG    1       30.137 -17.413   9.350  0.00  0.00    -0.462 OA
BRANCH  17  19
ATOM     18  C   LIG    1       31.204 -16.445  11.298  0.00  0.00    +0.048 C 
ATOM     19  C   LIG    1       30.313 -17.554  10.771  0.00  0.00    +0.229 C 
ENDBRANCH  17  19
ENDBRANCH  15  17
ENDBRANCH   1  15
TORSDOF 4
ENDMDL
MODEL 3
REMARK VINA RESULT:      -6.2      3.298      6.289
REMARK  Name = *****
REMARK                            x       y       z     vdW  Elec       q    Type
REMARK                         _______ _______ _______ _____ _____    ______ ____
ROOT
ATOM      1  C   LIG    1       22.644 -21.358   5.454  0.00  0.00    +0.122 C 
ATOM      2  C   LIG    1       23.452 -22.126   6.209  0.00  0.00    +0.079 C 
ATOM      3  N   LIG    1       24.664 -21.866   6.807  0.00  0.00    -0.267 N 
ATOM      4  C   LIG    1       25.206 -20.540   7.033  0.00  0.00    +0.139 C 
ATOM      5  C   LIG    1       25.365 -22.977   7.304  0.00  0.00    +0.248 C 
ATOM      6  O   LIG    1       26.428 -22.907   7.920  0.00  0.00    -0.273 OA
ATOM      7  C   LIG    1       24.646 -24.316   6.983  0.00  0.00    +0.208 C 
ATOM      8  S   LIG    1       22.942 -23.748   6.578  0.00  0.00    -0.081 S 
ENDROOT
BRANCH   7   9
ATOM      9  N   LIG    1       25.270 -25.037   5.843  0.00  0.00    -0.283 NA
ATOM     10  C   LIG    1       26.507 -25.756   6.195  0.00  0.00    +0.086 C 
ATOM     11  C   LIG    1       26.290 -27.023   7.027  0.00  0.00    +0.015 C 
ATOM     12  C   LIG    1       25.326 -27.981   6.338  0.00  0.00    +0.002 C 
ATOM     13  C   LIG    1       24.053 -27.264   5.908  0.00  0.00    +0.015 C 
ATOM     14  C   LIG    1       24.355 -25.968   5.153  0.00  0.00    +0.086 C 
ENDBRANCH   7   9
BRANCH   1  15
ATOM     15  C   LIG    1       22.849 -20.010   4.908  0.00  0.00    +0.334 C 
ATOM     16  O   LIG    1       22.498 -18.958   5.420  0.00  0.00    -0.245 OA
BRANCH  15  17
ATOM     17  O   LIG    1       23.548 -20.144   3.750  0.00  0.00    -0.462 OA
BRANCH  17  19
ATOM     18  C   LIG    1       25.205 -18.411   3.398  0.00  0.00    +0.048 C 
ATOM     19  C   LIG    1       24.956 -19.849   3.811  0.00  0.00    +0.229 C 
ENDBRANCH  17  19
ENDBRANCH  15  17
ENDBRANCH   1  15
TORSDOF 4
ENDMDL
MODEL 4
REMARK VINA RESULT:      -5.9      0.911      1.919
REMARK  Name = *****
REMARK                            x       y       z     vdW  Elec       q    Type
REMARK                         _______ _______ _______ _____ _____    ______ ____
ROOT
ATOM      1  C   LIG    1       25.302 -23.739   6.967  0.00  0.00    +0.122 C 
ATOM      2  C   LIG    1       25.713 -22.470   6.793  0.00  0.00    +0.079 C 
ATOM      3  N   LIG    1       25.597 -21.608   5.725  0.00  0.00    -0.267 N 
ATOM      4  C   LIG    1       24.676 -21.784   4.619  0.00  0.00    +0.139 C 
ATOM      5  C   LIG    1       26.374 -20.439   5.781  0.00  0.00    +0.248 C 
ATOM      6  O   LIG    1       26.336 -19.541   4.939  0.00  0.00    -0.273 OA
ATOM      7  C   LIG    1       27.298 -20.407   7.029  0.00  0.00    +0.208 C 
ATOM      8  S   LIG    1       26.520 -21.675   8.114  0.00  0.00    -0.081 S 
ENDROOT
BRANCH   7   9
ATOM      9  N   LIG    1       28.706 -20.752   6.703  0.00  0.00    -0.283 NA
ATOM     10  C   LIG    1       29.318 -19.877   5.687  0.00  0.00    +0.086 C 
ATOM     11  C   LIG    1       29.656 -18.469   6.183  0.00  0.00    +0.015 C 
ATOM     12  C   LIG    1       30.552 -18.515   7.415  0.00  0.00    +0.002 C 
ATOM     13  C   LIG    1       29.983 -19.454   8.472  0.00  0.00    +0.015 C 
ATOM     14  C   LIG    1       29.594 -20.811   7.880  0.00  0.00    +0.086 C 
ENDBRANCH   7   9
BRANCH   1  15
ATOM     15  C   LIG    1       24.693 -24.681   6.018  0.00  0.00    +0.334 C 
ATOM     16  O   LIG    1       25.272 -25.306   5.142  0.00  0.00    -0.245 OA
BRANCH  15  17
ATOM     17  O   LIG    1       23.372 -24.770   6.326  0.00  0.00    -0.462 OA
BRANCH  17  19
ATOM     18  C   LIG    1       21.871 -22.881   6.104  0.00  0.00    +0.048 C 
ATOM     19  C   LIG    1       22.799 -23.650   7.025  0.00  0.00    +0.229 C 
ENDBRANCH  17  19
ENDBRANCH  15  17
ENDBRANCH   1  15
TORSDOF 4
ENDMDL
MODEL 5
REMARK VINA RESULT:      -5.7      3.381      5.051
REMARK  Name = *****
REMARK                            x       y       z     vdW  Elec       q    Type
REMARK                         _______ _______ _______ _____ _____    ______ ____
ROOT
ATOM      1  C   LIG    1       28.036 -20.438   7.193  0.00  0.00    +0.122 C 
ATOM      2  C   LIG    1       29.274 -20.008   7.498  0.00  0.00    +0.079 C 
ATOM      3  N   LIG    1       30.189 -20.442   8.431  0.00  0.00    -0.267 N 
ATOM      4  C   LIG    1       30.139 -21.728   9.100  0.00  0.00    +0.139 C 
ATOM      5  C   LIG    1       31.287 -19.599   8.667  0.00  0.00    +0.248 C 
ATOM      6  O   LIG    1       32.221 -19.871   9.421  0.00  0.00    -0.273 OA
ATOM      7  C   LIG    1       31.188 -18.269   7.870  0.00  0.00    +0.208 C 
ATOM      8  S   LIG    1       29.941 -18.688   6.581  0.00  0.00    -0.081 S 
ENDROOT
BRANCH   7   9
ATOM      9  N   LIG    1       30.743 -17.131   8.715  0.00  0.00    -0.283 NA
ATOM     10  C   LIG    1       30.048 -17.537   9.949  0.00  0.00    +0.086 C 
ATOM     11  C   LIG    1       30.961 -18.130  11.026  0.00  0.00    +0.015 C 
ATOM     12  C   LIG    1       32.097 -17.177  11.376  0.00  0.00    +0.002 C 
ATOM     13  C   LIG    1       32.810 -16.689  10.121  0.00  0.00    +0.015 C 
ATOM     14  C   LIG    1       31.824 -16.188   9.063  0.00  0.00    +0.086 C 
ENDBRANCH   7   9
BRANCH   1  15
ATOM     15  C   LIG    1       27.190 -21.447   7.844  0.00  0.00    +0.334 C 
ATOM     16  O   LIG    1       26.659 -21.351   8.940  0.00  0.00    -0.245 OA
BRANCH  15  17
ATOM     17  O   LIG    1       27.065 -22.488   6.980  0.00  0.00    -0.462 OA
BRANCH  17  19
ATOM     18  C   LIG    1       25.748 -24.521   6.897  0.00  0.00    +0.048 C 
ATOM     19  C   LIG    1       25.736 -23.008   6.788  0.00  0.00    +0.229 C 
ENDBRANCH  17  19
ENDBRANCH  15  17
ENDBRANCH   1  15
TORSDOF 4
ENDMDL
MODEL 6
REMARK VINA RESULT:      -5.3      5.751      9.538
REMARK  Name = *****
REMARK                            x       y       z     vdW  Elec       q    Type
REMARK                         _______ _______ _______ _____ _____    ______ ____
ROOT
ATOM      1  C   LIG    1       25.849 -27.071   7.165  0.00  0.00    +0.122 C 
ATOM      2  C   LIG    1       25.462 -28.335   7.418  0.00  0.00    +0.079 C 
ATOM      3  N   LIG    1       24.654 -29.202   6.717  0.00  0.00    -0.267 N 
ATOM      4  C   LIG    1       24.288 -29.043   5.323  0.00  0.00    +0.139 C 
ATOM      5  C   LIG    1       24.242 -30.359   7.398  0.00  0.00    +0.248 C 
ATOM      6  O   LIG    1       23.572 -31.259   6.892  0.00  0.00    -0.273 OA
ATOM      7  C   LIG    1       24.723 -30.373   8.875  0.00  0.00    +0.208 C 
ATOM      8  S   LIG    1       26.066 -29.113   8.852  0.00  0.00    -0.081 S 
ENDROOT
BRANCH   7   9
ATOM      9  N   LIG    1       23.643 -30.007   9.828  0.00  0.00    -0.283 NA
ATOM     10  C   LIG    1       22.600 -31.039   9.976  0.00  0.00    +0.086 C 
ATOM     11  C   LIG    1       23.038 -32.275  10.766  0.00  0.00    +0.015 C 
ATOM     12  C   LIG    1       23.571 -31.894  12.142  0.00  0.00    +0.002 C 
ATOM     13  C   LIG    1       24.615 -30.789  12.040  0.00  0.00    +0.015 C 
ATOM     14  C   LIG    1       24.133 -29.627  11.168  0.00  0.00    +0.086 C 
ENDBRANCH   7   9
BRANCH   1  15
ATOM     15  C   LIG    1       25.435 -26.141   6.106  0.00  0.00    +0.334 C 
ATOM     16  O   LIG    1       26.011 -25.943   5.047  0.00  0.00    -0.245 OA
BRANCH  15  17
ATOM     17  O   LIG    1       24.261 -25.579   6.498  0.00  0.00    -0.462 OA
BRANCH  17  19
ATOM     18  C   LIG    1       22.788 -23.674   6.767  0.00  0.00    +0.048 C 
ATOM     19  C   LIG    1       24.205 -24.141   6.496  0.00  0.00    +0.229 C 
ENDBRANCH  17  19
ENDBRANCH  15  17
ENDBRANCH   1  15
TORSDOF 4
ENDMDL
MODEL 7
REMARK VINA RESULT:      -5.2      2.259      5.709
REMARK  Name = *****
REMARK                            x       y       z     vdW  Elec       q    Type
REMARK                         _______ _______ _______ _____ _____    ______ ____
ROOT
ATOM      1  C   LIG    1       26.420 -20.568   7.462  0.00  0.00    +0.122 C 
ATOM      2  C   LIG    1       25.300 -21.289   7.272  0.00  0.00    +0.079 C 
ATOM      3  N   LIG    1       25.093 -22.645   7.151  0.00  0.00    -0.267 N 
ATOM      4  C   LIG    1       26.048 -23.663   7.546  0.00  0.00    +0.139 C 
ATOM      5  C   LIG    1       23.827 -23.045   6.695  0.00  0.00    +0.248 C 
ATOM      6  O   LIG    1       23.464 -24.217   6.594  0.00  0.00    -0.273 OA
ATOM      7  C   LIG    1       22.928 -21.834   6.322  0.00  0.00    +0.208 C 
ATOM      8  S   LIG    1       23.780 -20.446   7.182  0.00  0.00    -0.081 S 
ENDROOT
BRANCH   7   9
ATOM      9  N   LIG    1       22.856 -21.609   4.855  0.00  0.00    -0.283 NA
ATOM     10  C   LIG    1       21.877 -20.584   4.453  0.00  0.00    +0.086 C 
ATOM     11  C   LIG    1       22.298 -19.146   4.769  0.00  0.00    +0.015 C 
ATOM     12  C   LIG    1       23.654 -18.818   4.156  0.00  0.00    +0.002 C 
ATOM     13  C   LIG    1       24.685 -19.885   4.501  0.00  0.00    +0.015 C 
ATOM     14  C   LIG    1       24.158 -21.297   4.234  0.00  0.00    +0.086 C 
ENDBRANCH   7   9
BRANCH   1  15
ATOM     15  C   LIG    1       27.829 -20.985   7.480  0.00  0.00    +0.334 C 
ATOM     16  O   LIG    1       28.445 -21.419   8.441  0.00  0.00    -0.245 OA
BRANCH  15  17
ATOM     17  O   LIG    1       28.309 -20.846   6.216  0.00  0.00    -0.462 OA
BRANCH  17  19
ATOM     18  C   LIG    1       29.600 -18.797   6.271  0.00  0.00    +0.048 C 
ATOM     19  C   LIG    1       28.386 -19.504   5.701  0.00  0.00    +0.229 C 
ENDBRANCH  17  19
ENDBRANCH  15  17
ENDBRANCH   1  15
TORSDOF 4
ENDMDL
MODEL 8
REMARK VINA RESULT:      -5.2      2.954      4.326
REMARK  Name = *****
REMARK                            x       y       z     vdW  Elec       q    Type
REMARK                         _______ _______ _______ _____ _____    ______ ____
ROOT
ATOM      1  C   LIG    1       25.938 -20.836   4.783  0.00  0.00    +0.122 C 
ATOM      2  C   LIG    1       26.428 -20.826   6.036  0.00  0.00    +0.079 C 
ATOM      3  N   LIG    1       25.818 -20.629   7.255  0.00  0.00    -0.267 N 
ATOM      4  C   LIG    1       24.389 -20.713   7.486  0.00  0.00    +0.139 C 
ATOM      5  C   LIG    1       26.671 -20.421   8.352  0.00  0.00    +0.248 C 
ATOM      6  O   LIG    1       26.286 -20.293   9.514  0.00  0.00    -0.273 OA
ATOM      7  C   LIG    1       28.165 -20.364   7.931  0.00  0.00    +0.208 C 
ATOM      8  S   LIG    1       28.123 -21.144   6.264  0.00  0.00    -0.081 S 
ENDROOT
BRANCH   7   9
ATOM      9  N   LIG    1       28.687 -18.973   7.874  0.00  0.00    -0.283 NA
ATOM     10  C   LIG    1       29.463 -18.576   9.063  0.00  0.00    +0.086 C 
ATOM     11  C   LIG    1       30.851 -19.217   9.157  0.00  0.00    +0.015 C 
ATOM     12  C   LIG    1       31.673 -18.947   7.903  0.00  0.00    +0.002 C 
ATOM     13  C   LIG    1       30.885 -19.293   6.645  0.00  0.00    +0.015 C 
ATOM     14  C   LIG    1       29.482 -18.683   6.665  0.00  0.00    +0.086 C 
ENDBRANCH   7   9
BRANCH   1  15
ATOM     15  C   LIG    1       24.596 -20.512   4.282  0.00  0.00    +0.334 C 
ATOM     16  O   LIG    1       23.737 -21.310   3.938  0.00  0.00    -0.245 OA
BRANCH  15  17
ATOM     17  O   LIG    1       24.465 -19.160   4.321  0.00  0.00    -0.462 OA
BRANCH  17  19
ATOM     18  C   LIG    1       22.240 -18.242   4.607  0.00  0.00    +0.048 C 
ATOM     19  C   LIG    1       23.336 -18.603   3.622  0.00  0.00    +0.229 C 
ENDBRANCH  17  19
ENDBRANCH  15  17
ENDBRANCH   1  15
TORSDOF 4
ENDMDL
MODEL 9
REMARK VINA RESULT:      -5.0      3.535      5.509
REMARK  Name = *****
REMARK                            x       y       z     vdW  Elec       q    Type
REMARK                         _______ _______ _______ _____ _____    ______ ____
ROOT
ATOM      1  C   LIG    1       28.081 -20.091   7.096  0.00  0.00    +0.122 C 
ATOM      2  C   LIG    1       29.317 -19.800   7.539  0.00  0.00    +0.079 C 
ATOM      3  N   LIG    1       30.206 -20.516   8.310  0.00  0.00    -0.267 N 
ATOM      4  C   LIG    1       30.123 -21.944   8.551  0.00  0.00    +0.139 C 
ATOM      5  C   LIG    1       31.309 -19.807   8.811  0.00  0.00    +0.248 C 
ATOM      6  O   LIG    1       32.223 -20.316   9.461  0.00  0.00    -0.273 OA
ATOM      7  C   LIG    1       31.245 -18.296   8.458  0.00  0.00    +0.208 C 
ATOM      8  S   LIG    1       30.022 -18.276   7.082  0.00  0.00    -0.081 S 
ENDROOT
BRANCH   7   9
ATOM      9  N   LIG    1       30.798 -17.462   9.604  0.00  0.00    -0.283 NA
ATOM     10  C   LIG    1       31.502 -17.752  10.866  0.00  0.00    +0.086 C 
ATOM     11  C   LIG    1       32.947 -17.249  10.916  0.00  0.00    +0.015 C 
ATOM     12  C   LIG    1       33.025 -15.755  10.624  0.00  0.00    +0.002 C 
ATOM     13  C   LIG    1       32.261 -15.403   9.354  0.00  0.00    +0.015 C 
ATOM     14  C   LIG    1       30.856 -16.010   9.345  0.00  0.00    +0.086 C 
ENDBRANCH   7   9
BRANCH   1  15
ATOM     15  C   LIG    1       27.207 -21.234   7.392  0.00  0.00    +0.334 C 
ATOM     16  O   LIG    1       27.084 -21.793   8.471  0.00  0.00    -0.245 OA
BRANCH  15  17
ATOM     17  O   LIG    1       26.522 -21.525   6.255  0.00  0.00    -0.462 OA
BRANCH  17  19
ATOM     18  C   LIG    1       25.122 -20.396   4.631  0.00  0.00    +0.048 C 
ATOM     19  C   LIG    1       25.265 -20.849   6.072  0.00  0.00    +0.229 C 
ENDBRANCH  17  19
ENDBRANCH  15  17
ENDBRANCH   1  15
TORSDOF 4
ENDMDL
