MODEL 1
REMARK VINA RESULT:      -8.8      0.000      0.000
REMARK  Name = *****
REMARK                            x       y       z     vdW  Elec       q    Type
REMARK                         _______ _______ _______ _____ _____    ______ ____
ROOT
ATOM      1  C   LIG    1       26.237 -20.804   7.662  0.00  0.00    +0.061 C 
ATOM      2  C   LIG    1       26.649 -22.298   7.803  0.00  0.00    +0.054 C 
ATOM      3  C   LIG    1       25.629 -23.274   7.250  0.00  0.00    -0.039 A 
ATOM      4  C   LIG    1       24.271 -22.912   7.109  0.00  0.00    -0.003 A 
ATOM      5  C   LIG    1       23.379 -23.858   6.579  0.00  0.00    +0.120 A 
ATOM      6  C   LIG    1       23.794 -25.145   6.260  0.00  0.00    +0.045 A 
ATOM      7  C   LIG    1       25.124 -25.512   6.444  0.00  0.00    +0.004 A 
ATOM      8  C   LIG    1       23.800 -21.531   7.495  0.00  0.00    +0.041 C 
ATOM      9  C   LIG    1       26.036 -24.579   6.935  0.00  0.00    +0.004 A 
ATOM     10  C   LIG    1       24.828 -20.731   8.295  0.00  0.00    +0.024 C 
ENDROOT
BRANCH   5  11
ATOM     11  O   LIG    1       22.062 -23.573   6.340  0.00  0.00    -0.506 OA
ATOM     12  H   LIG    1       21.862 -23.772   5.414  0.00  0.00    +0.292 HD
ENDBRANCH   5  11
BRANCH   1  13
ATOM     13  N   LIG    1       26.323 -20.266   6.267  0.00  0.00    -0.299 NA
BRANCH  13  14
ATOM     14  C   LIG    1       25.251 -20.766   5.370  0.00  0.00    +0.084 C 
BRANCH  14  16
ATOM     15  C   LIG    1       23.602 -19.377   4.003  0.00  0.00    +0.005 C 
ATOM     16  C   LIG    1       25.008 -19.963   4.079  0.00  0.00    +0.012 C 
ENDBRANCH  14  16
ENDBRANCH  13  14
BRANCH  13  17
ATOM     17  C   LIG    1       27.672 -20.423   5.670  0.00  0.00    +0.090 C 
BRANCH  17  18
ATOM     18  C   LIG    1       28.653 -19.268   5.964  0.00  0.00    +0.058 C 
BRANCH  18  19
ATOM     19  C   LIG    1       29.626 -19.634   7.055  0.00  0.00    -0.009 A 
ATOM     20  S   LIG    1       30.545 -18.407   7.827  0.00  0.00    -0.102 S 
ATOM     21  C   LIG    1       31.288 -19.535   8.872  0.00  0.00    +0.045 A 
ATOM     22  C   LIG    1       30.864 -20.821   8.630  0.00  0.00    +0.008 A 
ATOM     23  C   LIG    1       29.907 -20.882   7.575  0.00  0.00    +0.011 A 
ENDBRANCH  18  19
ENDBRANCH  17  18
ENDBRANCH  13  17
ENDBRANCH   1  13
TORSDOF 7
ENDMDL
MODEL 2
REMARK VINA RESULT:      -8.4      3.385      6.380
REMARK  Name = *****
REMARK                            x       y       z     vdW  Elec       q    Type
REMARK                         _______ _______ _______ _____ _____    ______ ____
ROOT
ATOM      1  C   LIG    1       25.689 -22.097   7.283  0.00  0.00    +0.061 C 
ATOM      2  C   LIG    1       24.390 -21.242   7.335  0.00  0.00    +0.054 C 
ATOM      3  C   LIG    1       24.127 -20.442   6.075  0.00  0.00    -0.039 A 
ATOM      4  C   LIG    1       25.174 -20.105   5.190  0.00  0.00    -0.003 A 
ATOM      5  C   LIG    1       24.862 -19.373   4.033  0.00  0.00    +0.120 A 
ATOM      6  C   LIG    1       23.570 -18.925   3.786  0.00  0.00    +0.045 A 
ATOM      7  C   LIG    1       22.549 -19.219   4.685  0.00  0.00    +0.004 A 
ATOM      8  C   LIG    1       26.590 -20.547   5.470  0.00  0.00    +0.041 C 
ATOM      9  C   LIG    1       22.827 -19.976   5.823  0.00  0.00    +0.004 A 
ATOM     10  C   LIG    1       26.796 -21.091   6.884  0.00  0.00    +0.024 C 
ENDROOT
BRANCH   5  11
ATOM     11  O   LIG    1       25.799 -19.064   3.084  0.00  0.00    -0.506 OA
ATOM     12  H   LIG    1       25.376 -18.545   2.385  0.00  0.00    +0.292 HD
ENDBRANCH   5  11
BRANCH   1  13
ATOM     13  N   LIG    1       25.601 -23.308   6.408  0.00  0.00    -0.299 NA
BRANCH  13  14
ATOM     14  C   LIG    1       24.297 -23.442   5.710  0.00  0.00    +0.084 C 
BRANCH  14  16
ATOM     15  C   LIG    1       21.979 -23.396   6.779  0.00  0.00    +0.005 C 
ATOM     16  C   LIG    1       23.205 -24.239   6.447  0.00  0.00    +0.012 C 
ENDBRANCH  14  16
ENDBRANCH  13  14
BRANCH  13  17
ATOM     17  C   LIG    1       25.993 -24.555   7.108  0.00  0.00    +0.090 C 
BRANCH  17  18
ATOM     18  C   LIG    1       26.467 -25.698   6.184  0.00  0.00    +0.058 C 
BRANCH  18  19
ATOM     19  C   LIG    1       25.683 -26.963   6.424  0.00  0.00    -0.009 A 
ATOM     20  S   LIG    1       26.051 -27.952   7.777  0.00  0.00    -0.102 S 
ATOM     21  C   LIG    1       24.798 -29.049   7.394  0.00  0.00    +0.045 A 
ATOM     22  C   LIG    1       24.125 -28.685   6.252  0.00  0.00    +0.008 A 
ATOM     23  C   LIG    1       24.638 -27.482   5.684  0.00  0.00    +0.011 A 
ENDBRANCH  18  19
ENDBRANCH  17  18
ENDBRANCH  13  17
ENDBRANCH   1  13
TORSDOF 7
ENDMDL
MODEL 3
REMARK VINA RESULT:      -8.2      3.159      6.144
REMARK  Name = *****
REMARK                            x       y       z     vdW  Elec       q    Type
REMARK                         _______ _______ _______ _____ _____    ______ ____
ROOT
ATOM      1  C   LIG    1       25.130 -20.957   6.641  0.00  0.00    +0.061 C 
ATOM      2  C   LIG    1       26.059 -19.835   6.095  0.00  0.00    +0.054 C 
ATOM      3  C   LIG    1       27.518 -20.004   6.470  0.00  0.00    -0.039 A 
ATOM      4  C   LIG    1       27.901 -20.772   7.592  0.00  0.00    -0.003 A 
ATOM      5  C   LIG    1       29.270 -20.900   7.878  0.00  0.00    +0.120 A 
ATOM      6  C   LIG    1       30.232 -20.237   7.126  0.00  0.00    +0.045 A 
ATOM      7  C   LIG    1       29.847 -19.443   6.049  0.00  0.00    +0.004 A 
ATOM      8  C   LIG    1       26.862 -21.459   8.444  0.00  0.00    +0.041 C 
ATOM      9  C   LIG    1       28.496 -19.330   5.723  0.00  0.00    +0.004 A 
ATOM     10  C   LIG    1       25.431 -21.001   8.158  0.00  0.00    +0.024 C 
ENDROOT
BRANCH   5  11
ATOM     11  O   LIG    1       29.737 -21.681   8.901  0.00  0.00    -0.506 OA
ATOM     12  H   LIG    1       30.701 -21.735   8.837  0.00  0.00    +0.292 HD
ENDBRANCH   5  11
BRANCH   1  13
ATOM     13  N   LIG    1       25.267 -22.273   5.939  0.00  0.00    -0.299 NA
BRANCH  13  14
ATOM     14  C   LIG    1       24.514 -22.345   4.661  0.00  0.00    +0.084 C 
BRANCH  14  16
ATOM     15  C   LIG    1       22.356 -21.024   4.998  0.00  0.00    +0.005 C 
ATOM     16  C   LIG    1       23.697 -21.098   4.277  0.00  0.00    +0.012 C 
ENDBRANCH  14  16
ENDBRANCH  13  14
BRANCH  13  17
ATOM     17  C   LIG    1       24.983 -23.430   6.823  0.00  0.00    +0.090 C 
BRANCH  17  18
ATOM     18  C   LIG    1       26.097 -24.497   6.876  0.00  0.00    +0.058 C 
BRANCH  18  19
ATOM     19  C   LIG    1       25.552 -25.878   6.621  0.00  0.00    -0.009 A 
ATOM     20  S   LIG    1       24.285 -26.101   5.486  0.00  0.00    -0.102 S 
ATOM     21  C   LIG    1       24.284 -27.792   5.724  0.00  0.00    +0.045 A 
ATOM     22  C   LIG    1       25.213 -28.182   6.660  0.00  0.00    +0.008 A 
ATOM     23  C   LIG    1       25.943 -27.076   7.186  0.00  0.00    +0.011 A 
ENDBRANCH  18  19
ENDBRANCH  17  18
ENDBRANCH  13  17
ENDBRANCH   1  13
TORSDOF 7
ENDMDL
MODEL 4
REMARK VINA RESULT:      -8.0      1.418      1.987
REMARK  Name = *****
REMARK                            x       y       z     vdW  Elec       q    Type
REMARK                         _______ _______ _______ _____ _____    ______ ____
ROOT
ATOM      1  C   LIG    1       24.162 -21.339   7.488  0.00  0.00    +0.061 C 
ATOM      2  C   LIG    1       25.299 -22.310   7.920  0.00  0.00    +0.054 C 
ATOM      3  C   LIG    1       25.295 -23.633   7.179  0.00  0.00    -0.039 A 
ATOM      4  C   LIG    1       24.122 -24.127   6.569  0.00  0.00    -0.003 A 
ATOM      5  C   LIG    1       24.188 -25.353   5.888  0.00  0.00    +0.120 A 
ATOM      6  C   LIG    1       25.356 -26.106   5.864  0.00  0.00    +0.045 A 
ATOM      7  C   LIG    1       26.498 -25.637   6.507  0.00  0.00    +0.004 A 
ATOM      8  C   LIG    1       22.836 -23.339   6.627  0.00  0.00    +0.041 C 
ATOM      9  C   LIG    1       26.467 -24.405   7.159  0.00  0.00    +0.004 A 
ATOM     10  C   LIG    1       22.868 -22.179   7.622  0.00  0.00    +0.024 C 
ENDROOT
BRANCH   5  11
ATOM     11  O   LIG    1       23.121 -25.874   5.207  0.00  0.00    -0.506 OA
ATOM     12  H   LIG    1       23.451 -26.425   4.483  0.00  0.00    +0.292 HD
ENDBRANCH   5  11
BRANCH   1  13
ATOM     13  N   LIG    1       24.360 -20.708   6.145  0.00  0.00    -0.299 NA
BRANCH  13  14
ATOM     14  C   LIG    1       23.198 -20.871   5.235  0.00  0.00    +0.084 C 
BRANCH  14  16
ATOM     15  C   LIG    1       22.990 -18.647   3.999  0.00  0.00    +0.005 C 
ATOM     16  C   LIG    1       22.344 -19.614   4.984  0.00  0.00    +0.012 C 
ENDBRANCH  14  16
ENDBRANCH  13  14
BRANCH  13  17
ATOM     17  C   LIG    1       25.635 -21.108   5.503  0.00  0.00    +0.090 C 
BRANCH  17  18
ATOM     18  C   LIG    1       26.587 -19.942   5.164  0.00  0.00    +0.058 C 
BRANCH  18  19
ATOM     19  C   LIG    1       27.873 -20.032   5.945  0.00  0.00    -0.009 A 
ATOM     20  S   LIG    1       29.098 -18.854   5.714  0.00  0.00    -0.102 S 
ATOM     21  C   LIG    1       30.101 -19.574   6.894  0.00  0.00    +0.045 A 
ATOM     22  C   LIG    1       29.529 -20.699   7.441  0.00  0.00    +0.008 A 
ATOM     23  C   LIG    1       28.242 -20.971   6.889  0.00  0.00    +0.011 A 
ENDBRANCH  18  19
ENDBRANCH  17  18
ENDBRANCH  13  17
ENDBRANCH   1  13
TORSDOF 7
ENDMDL
MODEL 5
REMARK VINA RESULT:      -8.0      1.699      3.378
REMARK  Name = *****
REMARK                            x       y       z     vdW  Elec       q    Type
REMARK                         _______ _______ _______ _____ _____    ______ ____
ROOT
ATOM      1  C   LIG    1       27.191 -21.009   8.059  0.00  0.00    +0.061 C 
ATOM      2  C   LIG    1       26.782 -22.497   8.255  0.00  0.00    +0.054 C 
ATOM      3  C   LIG    1       26.045 -23.095   7.073  0.00  0.00    -0.039 A 
ATOM      4  C   LIG    1       25.361 -22.278   6.147  0.00  0.00    -0.003 A 
ATOM      5  C   LIG    1       24.709 -22.893   5.066  0.00  0.00    +0.120 A 
ATOM      6  C   LIG    1       24.671 -24.276   4.936  0.00  0.00    +0.045 A 
ATOM      7  C   LIG    1       25.308 -25.081   5.877  0.00  0.00    +0.004 A 
ATOM      8  C   LIG    1       25.356 -20.777   6.304  0.00  0.00    +0.041 C 
ATOM      9  C   LIG    1       25.993 -24.492   6.938  0.00  0.00    +0.004 A 
ATOM     10  C   LIG    1       25.875 -20.298   7.660  0.00  0.00    +0.024 C 
ENDROOT
BRANCH   5  11
ATOM     11  O   LIG    1       24.082 -22.178   4.082  0.00  0.00    -0.506 OA
ATOM     12  H   LIG    1       24.674 -21.474   3.782  0.00  0.00    +0.292 HD
ENDBRANCH   5  11
BRANCH   1  13
ATOM     13  N   LIG    1       28.328 -20.796   7.109  0.00  0.00    -0.299 NA
BRANCH  13  14
ATOM     14  C   LIG    1       29.530 -21.607   7.432  0.00  0.00    +0.084 C 
BRANCH  14  16
ATOM     15  C   LIG    1       31.422 -21.906   9.119  0.00  0.00    +0.005 C 
ATOM     16  C   LIG    1       29.928 -21.680   8.917  0.00  0.00    +0.012 C 
ENDBRANCH  14  16
ENDBRANCH  13  14
BRANCH  13  17
ATOM     17  C   LIG    1       28.655 -19.363   6.912  0.00  0.00    +0.090 C 
BRANCH  17  18
ATOM     18  C   LIG    1       30.160 -19.025   6.966  0.00  0.00    +0.058 C 
BRANCH  18  19
ATOM     19  C   LIG    1       30.526 -18.341   8.258  0.00  0.00    -0.009 A 
ATOM     20  S   LIG    1       32.160 -17.922   8.569  0.00  0.00    -0.102 S 
ATOM     21  C   LIG    1       31.758 -17.209  10.068  0.00  0.00    +0.045 A 
ATOM     22  C   LIG    1       30.413 -17.303  10.339  0.00  0.00    +0.008 A 
ATOM     23  C   LIG    1       29.698 -17.963   9.297  0.00  0.00    +0.011 A 
ENDBRANCH  18  19
ENDBRANCH  17  18
ENDBRANCH  13  17
ENDBRANCH   1  13
TORSDOF 7
ENDMDL
MODEL 6
REMARK VINA RESULT:      -7.8      1.988      4.825
REMARK  Name = *****
REMARK                            x       y       z     vdW  Elec       q    Type
REMARK                         _______ _______ _______ _____ _____    ______ ____
ROOT
ATOM      1  C   LIG    1       26.878 -21.345   7.568  0.00  0.00    +0.061 C 
ATOM      2  C   LIG    1       27.049 -22.889   7.671  0.00  0.00    +0.054 C 
ATOM      3  C   LIG    1       25.853 -23.676   7.174  0.00  0.00    -0.039 A 
ATOM      4  C   LIG    1       24.566 -23.097   7.120  0.00  0.00    -0.003 A 
ATOM      5  C   LIG    1       23.502 -23.877   6.638  0.00  0.00    +0.120 A 
ATOM      6  C   LIG    1       23.683 -25.208   6.283  0.00  0.00    +0.045 A 
ATOM      7  C   LIG    1       24.944 -25.789   6.382  0.00  0.00    +0.004 A 
ATOM      8  C   LIG    1       24.349 -21.666   7.546  0.00  0.00    +0.041 C 
ATOM      9  C   LIG    1       26.023 -25.025   6.824  0.00  0.00    +0.004 A 
ATOM     10  C   LIG    1       25.539 -21.057   8.288  0.00  0.00    +0.024 C 
ENDROOT
BRANCH   5  11
ATOM     11  O   LIG    1       22.237 -23.378   6.482  0.00  0.00    -0.506 OA
ATOM     12  H   LIG    1       22.276 -22.411   6.515  0.00  0.00    +0.292 HD
ENDBRANCH   5  11
BRANCH   1  13
ATOM     13  N   LIG    1       26.967 -20.803   6.175  0.00  0.00    -0.299 NA
BRANCH  13  14
ATOM     14  C   LIG    1       28.250 -20.112   5.888  0.00  0.00    +0.084 C 
BRANCH  14  16
ATOM     15  C   LIG    1       30.534 -19.288   6.675  0.00  0.00    +0.005 C 
ATOM     16  C   LIG    1       29.217 -19.943   7.074  0.00  0.00    +0.012 C 
ENDBRANCH  14  16
ENDBRANCH  13  14
BRANCH  13  17
ATOM     17  C   LIG    1       25.791 -19.980   5.800  0.00  0.00    +0.090 C 
BRANCH  17  18
ATOM     18  C   LIG    1       25.136 -20.356   4.454  0.00  0.00    +0.058 C 
BRANCH  18  19
ATOM     19  C   LIG    1       23.711 -19.871   4.379  0.00  0.00    -0.009 A 
ATOM     20  S   LIG    1       23.381 -18.265   3.873  0.00  0.00    -0.102 S 
ATOM     21  C   LIG    1       21.694 -18.506   3.997  0.00  0.00    +0.045 A 
ATOM     22  C   LIG    1       21.385 -19.773   4.433  0.00  0.00    +0.008 A 
ATOM     23  C   LIG    1       22.550 -20.563   4.661  0.00  0.00    +0.011 A 
ENDBRANCH  18  19
ENDBRANCH  17  18
ENDBRANCH  13  17
ENDBRANCH   1  13
TORSDOF 7
ENDMDL
MODEL 7
REMARK VINA RESULT:      -7.2      3.237      6.614
REMARK  Name = *****
REMARK                            x       y       z     vdW  Elec       q    Type
REMARK                         _______ _______ _______ _____ _____    ______ ____
ROOT
ATOM      1  C   LIG    1       27.634 -20.573   5.971  0.00  0.00    +0.061 C 
ATOM      2  C   LIG    1       28.678 -21.486   6.678  0.00  0.00    +0.054 C 
ATOM      3  C   LIG    1       29.666 -20.734   7.548  0.00  0.00    -0.039 A 
ATOM      4  C   LIG    1       29.937 -19.364   7.332  0.00  0.00    -0.003 A 
ATOM      5  C   LIG    1       30.854 -18.723   8.180  0.00  0.00    +0.120 A 
ATOM      6  C   LIG    1       31.536 -19.421   9.169  0.00  0.00    +0.045 A 
ATOM      7  C   LIG    1       31.301 -20.781   9.348  0.00  0.00    +0.004 A 
ATOM      8  C   LIG    1       29.236 -18.607   6.232  0.00  0.00    +0.041 C 
ATOM      9  C   LIG    1       30.368 -21.432   8.542  0.00  0.00    +0.004 A 
ATOM     10  C   LIG    1       28.487 -19.504   5.246  0.00  0.00    +0.024 C 
ENDROOT
BRANCH   5  11
ATOM     11  O   LIG    1       31.124 -17.384   8.092  0.00  0.00    -0.506 OA
ATOM     12  H   LIG    1       32.012 -17.221   8.442  0.00  0.00    +0.292 HD
ENDBRANCH   5  11
BRANCH   1  13
ATOM     13  N   LIG    1       26.578 -20.021   6.876  0.00  0.00    -0.299 NA
BRANCH  13  14
ATOM     14  C   LIG    1       26.749 -20.414   8.298  0.00  0.00    +0.084 C 
BRANCH  14  16
ATOM     15  C   LIG    1       26.149 -22.864   8.691  0.00  0.00    +0.005 C 
ATOM     16  C   LIG    1       25.719 -21.411   8.860  0.00  0.00    +0.012 C 
ENDBRANCH  14  16
ENDBRANCH  13  14
BRANCH  13  17
ATOM     17  C   LIG    1       25.203 -20.281   6.384  0.00  0.00    +0.090 C 
BRANCH  17  18
ATOM     18  C   LIG    1       25.109 -21.284   5.214  0.00  0.00    +0.058 C 
BRANCH  18  19
ATOM     19  C   LIG    1       24.578 -22.618   5.672  0.00  0.00    -0.009 A 
ATOM     20  S   LIG    1       23.115 -22.694   6.566  0.00  0.00    -0.102 S 
ATOM     21  C   LIG    1       23.178 -24.399   6.643  0.00  0.00    +0.045 A 
ATOM     22  C   LIG    1       24.296 -24.903   6.021  0.00  0.00    +0.008 A 
ATOM     23  C   LIG    1       25.111 -23.875   5.464  0.00  0.00    +0.011 A 
ENDBRANCH  18  19
ENDBRANCH  17  18
ENDBRANCH  13  17
ENDBRANCH   1  13
TORSDOF 7
ENDMDL
MODEL 8
REMARK VINA RESULT:      -7.2      2.885      6.512
REMARK  Name = *****
REMARK                            x       y       z     vdW  Elec       q    Type
REMARK                         _______ _______ _______ _____ _____    ______ ____
ROOT
ATOM      1  C   LIG    1       27.490 -21.579   6.735  0.00  0.00    +0.061 C 
ATOM      2  C   LIG    1       28.891 -22.108   7.158  0.00  0.00    +0.054 C 
ATOM      3  C   LIG    1       29.718 -21.108   7.943  0.00  0.00    -0.039 A 
ATOM      4  C   LIG    1       29.471 -19.721   7.849  0.00  0.00    -0.003 A 
ATOM      5  C   LIG    1       30.264 -18.849   8.612  0.00  0.00    +0.120 A 
ATOM      6  C   LIG    1       31.313 -19.319   9.392  0.00  0.00    +0.045 A 
ATOM      7  C   LIG    1       31.583 -20.684   9.445  0.00  0.00    +0.004 A 
ATOM      8  C   LIG    1       28.364 -19.195   6.970  0.00  0.00    +0.041 C 
ATOM      9  C   LIG    1       30.787 -21.573   8.725  0.00  0.00    +0.004 A 
ATOM     10  C   LIG    1       27.785 -20.241   6.016  0.00  0.00    +0.024 C 
ENDROOT
BRANCH   5  11
ATOM     11  O   LIG    1       30.051 -17.497   8.640  0.00  0.00    -0.506 OA
ATOM     12  H   LIG    1       29.098 -17.331   8.655  0.00  0.00    +0.292 HD
ENDBRANCH   5  11
BRANCH   1  13
ATOM     13  N   LIG    1       26.501 -21.481   7.854  0.00  0.00    -0.299 NA
BRANCH  13  14
ATOM     14  C   LIG    1       25.863 -22.777   8.199  0.00  0.00    +0.084 C 
BRANCH  14  16
ATOM     15  C   LIG    1       24.519 -24.257   6.611  0.00  0.00    +0.005 C 
ATOM     16  C   LIG    1       25.905 -23.870   7.114  0.00  0.00    +0.012 C 
ENDBRANCH  14  16
ENDBRANCH  13  14
BRANCH  13  17
ATOM     17  C   LIG    1       25.502 -20.403   7.649  0.00  0.00    +0.090 C 
BRANCH  17  18
ATOM     18  C   LIG    1       24.105 -20.886   7.204  0.00  0.00    +0.058 C 
BRANCH  18  19
ATOM     19  C   LIG    1       23.703 -20.276   5.886  0.00  0.00    -0.009 A 
ATOM     20  S   LIG    1       24.683 -20.519   4.499  0.00  0.00    -0.102 S 
ATOM     21  C   LIG    1       23.609 -19.634   3.508  0.00  0.00    +0.045 A 
ATOM     22  C   LIG    1       22.536 -19.146   4.218  0.00  0.00    +0.008 A 
ATOM     23  C   LIG    1       22.591 -19.510   5.595  0.00  0.00    +0.011 A 
ENDBRANCH  18  19
ENDBRANCH  17  18
ENDBRANCH  13  17
ENDBRANCH   1  13
TORSDOF 7
ENDMDL
MODEL 9
REMARK VINA RESULT:      -7.0      5.994      9.035
REMARK  Name = *****
REMARK                            x       y       z     vdW  Elec       q    Type
REMARK                         _______ _______ _______ _____ _____    ______ ____
ROOT
ATOM      1  C   LIG    1       24.540 -29.880   6.317  0.00  0.00    +0.061 C 
ATOM      2  C   LIG    1       24.283 -30.886   7.475  0.00  0.00    +0.054 C 
ATOM      3  C   LIG    1       25.442 -31.825   7.746  0.00  0.00    -0.039 A 
ATOM      4  C   LIG    1       26.406 -32.103   6.752  0.00  0.00    -0.003 A 
ATOM      5  C   LIG    1       27.462 -32.972   7.071  0.00  0.00    +0.120 A 
ATOM      6  C   LIG    1       27.533 -33.602   8.307  0.00  0.00    +0.045 A 
ATOM      7  C   LIG    1       26.556 -33.361   9.268  0.00  0.00    +0.004 A 
ATOM      8  C   LIG    1       26.313 -31.460   5.391  0.00  0.00    +0.041 C 
ATOM      9  C   LIG    1       25.517 -32.474   8.988  0.00  0.00    +0.004 A 
ATOM     10  C   LIG    1       24.977 -30.767   5.126  0.00  0.00    +0.024 C 
ENDROOT
BRANCH   5  11
ATOM     11  O   LIG    1       28.479 -33.244   6.196  0.00  0.00    -0.506 OA
ATOM     12  H   LIG    1       28.110 -33.334   5.306  0.00  0.00    +0.292 HD
ENDBRANCH   5  11
BRANCH   1  13
ATOM     13  N   LIG    1       25.492 -28.775   6.653  0.00  0.00    -0.299 NA
BRANCH  13  14
ATOM     14  C   LIG    1       25.375 -28.296   8.054  0.00  0.00    +0.084 C 
BRANCH  14  16
ATOM     15  C   LIG    1       26.164 -29.010  10.374  0.00  0.00    +0.005 C 
ATOM     16  C   LIG    1       26.579 -28.570   8.974  0.00  0.00    +0.012 C 
ENDBRANCH  14  16
ENDBRANCH  13  14
BRANCH  13  17
ATOM     17  C   LIG    1       25.453 -27.661   5.675  0.00  0.00    +0.090 C 
BRANCH  17  18
ATOM     18  C   LIG    1       26.219 -26.391   6.102  0.00  0.00    +0.058 C 
BRANCH  18  19
ATOM     19  C   LIG    1       25.279 -25.253   6.405  0.00  0.00    -0.009 A 
ATOM     20  S   LIG    1       25.905 -23.737   6.907  0.00  0.00    -0.102 S 
ATOM     21  C   LIG    1       24.344 -23.048   6.986  0.00  0.00    +0.045 A 
ATOM     22  C   LIG    1       23.363 -23.953   6.656  0.00  0.00    +0.008 A 
ATOM     23  C   LIG    1       23.900 -25.232   6.326  0.00  0.00    +0.011 A 
ENDBRANCH  18  19
ENDBRANCH  17  18
ENDBRANCH  13  17
ENDBRANCH   1  13
TORSDOF 7
ENDMDL
