MODEL 1
REMARK VINA RESULT:      -7.4      0.000      0.000
REMARK  Name = *****
REMARK                            x       y       z     vdW  Elec       q    Type
REMARK                         _______ _______ _______ _____ _____    ______ ____
ROOT
ATOM      1  C   LIG    1       24.698 -21.386   6.751  0.00  0.00    +0.216 C 
ENDROOT
BRANCH   1   2
ATOM      2  C   LIG    1       24.518 -20.465   5.498  0.00  0.00    -0.001 A 
ATOM      3  C   LIG    1       23.301 -19.793   5.264  0.00  0.00    +0.007 A 
ATOM      4  C   LIG    1       23.147 -18.946   4.162  0.00  0.00    +0.000 A 
ATOM      5  C   LIG    1       24.199 -18.757   3.268  0.00  0.00    +0.000 A 
ATOM      6  C   LIG    1       25.406 -19.418   3.471  0.00  0.00    +0.000 A 
ATOM      7  C   LIG    1       25.564 -20.262   4.572  0.00  0.00    +0.007 A 
ENDBRANCH   1   2
BRANCH   1   8
ATOM      8  C   LIG    1       25.103 -22.842   6.329  0.00  0.00    -0.001 A 
ATOM      9  C   LIG    1       25.754 -23.726   7.216  0.00  0.00    +0.007 A 
ATOM     10  C   LIG    1       26.066 -25.040   6.856  0.00  0.00    +0.000 A 
ATOM     11  C   LIG    1       25.730 -25.512   5.596  0.00  0.00    +0.000 A 
ATOM     12  C   LIG    1       25.067 -24.675   4.706  0.00  0.00    +0.000 A 
ATOM     13  C   LIG    1       24.741 -23.364   5.075  0.00  0.00    +0.007 A 
ENDBRANCH   1   8
BRANCH   1  14
ATOM     14  C   LIG    1       25.743 -20.696   7.729  0.00  0.00    +0.349 C 
ATOM     15  O   LIG    1       25.639 -20.603   8.959  0.00  0.00    -0.247 OA
BRANCH  14  16
ATOM     16  O   LIG    1       26.748 -20.065   7.048  0.00  0.00    -0.459 OA
BRANCH  16  17
ATOM     17  C   LIG    1       27.989 -20.794   6.939  0.00  0.00    +0.179 C 
ATOM     18  C   LIG    1       28.779 -20.258   5.750  0.00  0.00    +0.060 C 
ATOM     19  C   LIG    1       29.281 -18.836   6.011  0.00  0.00    +0.087 C 
ATOM     20  N   LIG    1       30.036 -18.689   7.262  0.00  0.00    -0.305 NA
ATOM     21  C   LIG    1       31.373 -19.270   7.182  0.00  0.00    +0.105 C 
ATOM     22  C   LIG    1       29.271 -19.197   8.407  0.00  0.00    +0.087 C 
ATOM     23  C   LIG    1       28.790 -20.640   8.235  0.00  0.00    +0.060 C 
ENDBRANCH  16  17
ENDBRANCH  14  16
ENDBRANCH   1  14
BRANCH   1  24
ATOM     24  O   LIG    1       23.388 -21.461   7.376  0.00  0.00    -0.353 OA
BRANCH  24  25
ATOM     25  C   LIG    1       22.949 -22.747   7.797  0.00  0.00    +0.162 C 
BRANCH  25  27
ATOM     26  C   LIG    1       21.449 -22.335   5.823  0.00  0.00    +0.006 C 
ATOM     27  C   LIG    1       22.157 -23.387   6.660  0.00  0.00    +0.025 C 
ENDBRANCH  25  27
ENDBRANCH  24  25
ENDBRANCH   1  24
TORSDOF 8
ENDMDL
MODEL 2
REMARK VINA RESULT:      -7.1      6.730      9.315
REMARK  Name = *****
REMARK                            x       y       z     vdW  Elec       q    Type
REMARK                         _______ _______ _______ _____ _____    ______ ____
ROOT
ATOM      1  C   LIG    1       24.824 -30.147   7.713  0.00  0.00    +0.216 C 
ENDROOT
BRANCH   1   2
ATOM      2  C   LIG    1       24.988 -28.710   7.114  0.00  0.00    -0.001 A 
ATOM      3  C   LIG    1       25.987 -27.837   7.592  0.00  0.00    +0.007 A 
ATOM      4  C   LIG    1       26.154 -26.564   7.038  0.00  0.00    +0.000 A 
ATOM      5  C   LIG    1       25.325 -26.131   6.004  0.00  0.00    +0.000 A 
ATOM      6  C   LIG    1       24.325 -26.970   5.524  0.00  0.00    +0.000 A 
ATOM      7  C   LIG    1       24.157 -28.243   6.073  0.00  0.00    +0.007 A 
ENDBRANCH   1   2
BRANCH   1   8
ATOM      8  C   LIG    1       24.839 -31.235   6.583  0.00  0.00    -0.001 A 
ATOM      9  C   LIG    1       23.748 -32.104   6.365  0.00  0.00    +0.007 A 
ATOM     10  C   LIG    1       23.741 -33.037   5.324  0.00  0.00    +0.000 A 
ATOM     11  C   LIG    1       24.825 -33.125   4.464  0.00  0.00    +0.000 A 
ATOM     12  C   LIG    1       25.906 -32.268   4.636  0.00  0.00    +0.000 A 
ATOM     13  C   LIG    1       25.904 -31.323   5.669  0.00  0.00    +0.007 A 
ENDBRANCH   1   8
BRANCH   1  14
ATOM     14  C   LIG    1       25.951 -30.359   8.811  0.00  0.00    +0.349 C 
ATOM     15  O   LIG    1       26.816 -31.246   8.809  0.00  0.00    -0.247 OA
BRANCH  14  16
ATOM     16  O   LIG    1       25.792 -29.522   9.882  0.00  0.00    -0.459 OA
BRANCH  16  17
ATOM     17  C   LIG    1       26.562 -29.851  11.058  0.00  0.00    +0.179 C 
ATOM     18  C   LIG    1       27.581 -28.746  11.313  0.00  0.00    +0.060 C 
ATOM     19  C   LIG    1       26.897 -27.447  11.746  0.00  0.00    +0.087 C 
ATOM     20  N   LIG    1       25.986 -27.604  12.888  0.00  0.00    -0.305 NA
ATOM     21  C   LIG    1       26.696 -27.789  14.151  0.00  0.00    +0.105 C 
ATOM     22  C   LIG    1       25.000 -28.663  12.639  0.00  0.00    +0.087 C 
ATOM     23  C   LIG    1       25.623 -30.007  12.258  0.00  0.00    +0.060 C 
ENDBRANCH  16  17
ENDBRANCH  14  16
ENDBRANCH   1  14
BRANCH   1  24
ATOM     24  O   LIG    1       23.505 -30.170   8.325  0.00  0.00    -0.353 OA
BRANCH  24  25
ATOM     25  C   LIG    1       23.312 -31.083   9.400  0.00  0.00    +0.162 C 
BRANCH  25  27
ATOM     26  C   LIG    1       21.055 -31.071  10.503  0.00  0.00    +0.006 C 
ATOM     27  C   LIG    1       22.426 -30.418  10.449  0.00  0.00    +0.025 C 
ENDBRANCH  25  27
ENDBRANCH  24  25
ENDBRANCH   1  24
TORSDOF 8
ENDMDL
MODEL 3
REMARK VINA RESULT:      -7.0      6.169      9.582
REMARK  Name = *****
REMARK                            x       y       z     vdW  Elec       q    Type
REMARK                         _______ _______ _______ _____ _____    ______ ____
ROOT
ATOM      1  C   LIG    1       24.637 -30.255   7.909  0.00  0.00    +0.216 C 
ENDROOT
BRANCH   1   2
ATOM      2  C   LIG    1       25.684 -31.273   7.345  0.00  0.00    -0.001 A 
ATOM      3  C   LIG    1       25.832 -31.463   5.957  0.00  0.00    +0.007 A 
ATOM      4  C   LIG    1       26.788 -32.350   5.450  0.00  0.00    +0.000 A 
ATOM      5  C   LIG    1       27.608 -33.071   6.316  0.00  0.00    +0.000 A 
ATOM      6  C   LIG    1       27.473 -32.909   7.691  0.00  0.00    +0.000 A 
ATOM      7  C   LIG    1       26.521 -32.022   8.200  0.00  0.00    +0.007 A 
ENDBRANCH   1   2
BRANCH   1   8
ATOM      8  C   LIG    1       25.145 -29.602   9.242  0.00  0.00    -0.001 A 
ATOM      9  C   LIG    1       24.485 -29.804  10.474  0.00  0.00    +0.007 A 
ATOM     10  C   LIG    1       24.970 -29.265  11.670  0.00  0.00    +0.000 A 
ATOM     11  C   LIG    1       26.133 -28.511  11.670  0.00  0.00    +0.000 A 
ATOM     12  C   LIG    1       26.820 -28.311  10.478  0.00  0.00    +0.000 A 
ATOM     13  C   LIG    1       26.342 -28.866   9.284  0.00  0.00    +0.007 A 
ENDBRANCH   1   8
BRANCH   1  14
ATOM     14  C   LIG    1       24.309 -29.197   6.770  0.00  0.00    +0.349 C 
ATOM     15  O   LIG    1       23.608 -29.397   5.769  0.00  0.00    -0.247 OA
BRANCH  14  16
ATOM     16  O   LIG    1       25.012 -28.034   6.929  0.00  0.00    -0.459 OA
BRANCH  16  17
ATOM     17  C   LIG    1       25.266 -27.283   5.722  0.00  0.00    +0.179 C 
ATOM     18  C   LIG    1       24.015 -26.493   5.353  0.00  0.00    +0.060 C 
ATOM     19  C   LIG    1       23.747 -25.373   6.361  0.00  0.00    +0.087 C 
ATOM     20  N   LIG    1       24.894 -24.482   6.583  0.00  0.00    -0.305 NA
ATOM     21  C   LIG    1       25.125 -23.575   5.461  0.00  0.00    +0.105 C 
ATOM     22  C   LIG    1       26.095 -25.242   6.946  0.00  0.00    +0.087 C 
ATOM     23  C   LIG    1       26.454 -26.343   5.945  0.00  0.00    +0.060 C 
ENDBRANCH  16  17
ENDBRANCH  14  16
ENDBRANCH   1  14
BRANCH   1  24
ATOM     24  O   LIG    1       23.457 -31.041   8.230  0.00  0.00    -0.353 OA
BRANCH  24  25
ATOM     25  C   LIG    1       23.424 -32.378   7.743  0.00  0.00    +0.162 C 
BRANCH  25  27
ATOM     26  C   LIG    1       23.613 -33.411  10.026  0.00  0.00    +0.006 C 
ATOM     27  C   LIG    1       22.746 -33.260   8.788  0.00  0.00    +0.025 C 
ENDBRANCH  25  27
ENDBRANCH  24  25
ENDBRANCH   1  24
TORSDOF 8
ENDMDL
MODEL 4
REMARK VINA RESULT:      -6.9      1.317      2.517
REMARK  Name = *****
REMARK                            x       y       z     vdW  Elec       q    Type
REMARK                         _______ _______ _______ _____ _____    ______ ____
ROOT
ATOM      1  C   LIG    1       24.518 -20.819   5.977  0.00  0.00    +0.216 C 
ENDROOT
BRANCH   1   2
ATOM      2  C   LIG    1       23.305 -20.157   5.243  0.00  0.00    -0.001 A 
ATOM      3  C   LIG    1       22.160 -20.911   4.915  0.00  0.00    +0.007 A 
ATOM      4  C   LIG    1       21.062 -20.315   4.286  0.00  0.00    +0.000 A 
ATOM      5  C   LIG    1       21.086 -18.959   3.963  0.00  0.00    +0.000 A 
ATOM      6  C   LIG    1       22.209 -18.197   4.267  0.00  0.00    +0.000 A 
ATOM      7  C   LIG    1       23.306 -18.788   4.897  0.00  0.00    +0.007 A 
ENDBRANCH   1   2
BRANCH   1   8
ATOM      8  C   LIG    1       24.378 -22.381   6.006  0.00  0.00    -0.001 A 
ATOM      9  C   LIG    1       23.361 -23.029   6.740  0.00  0.00    +0.007 A 
ATOM     10  C   LIG    1       23.206 -24.418   6.722  0.00  0.00    +0.000 A 
ATOM     11  C   LIG    1       24.061 -25.202   5.964  0.00  0.00    +0.000 A 
ATOM     12  C   LIG    1       25.059 -24.595   5.211  0.00  0.00    +0.000 A 
ATOM     13  C   LIG    1       25.203 -23.202   5.217  0.00  0.00    +0.007 A 
ENDBRANCH   1   8
BRANCH   1  14
ATOM     14  C   LIG    1       25.855 -20.315   5.282  0.00  0.00    +0.349 C 
ATOM     15  O   LIG    1       26.046 -20.201   4.064  0.00  0.00    -0.247 OA
BRANCH  14  16
ATOM     16  O   LIG    1       26.871 -20.142   6.183  0.00  0.00    -0.459 OA
BRANCH  16  17
ATOM     17  C   LIG    1       28.205 -20.356   5.675  0.00  0.00    +0.179 C 
ATOM     18  C   LIG    1       28.907 -19.009   5.533  0.00  0.00    +0.060 C 
ATOM     19  C   LIG    1       29.194 -18.384   6.900  0.00  0.00    +0.087 C 
ATOM     20  N   LIG    1       29.921 -19.269   7.820  0.00  0.00    -0.305 NA
ATOM     21  C   LIG    1       31.330 -19.416   7.462  0.00  0.00    +0.105 C 
ATOM     22  C   LIG    1       29.241 -20.561   7.964  0.00  0.00    +0.087 C 
ATOM     23  C   LIG    1       28.976 -21.269   6.633  0.00  0.00    +0.060 C 
ENDBRANCH  16  17
ENDBRANCH  14  16
ENDBRANCH   1  14
BRANCH   1  24
ATOM     24  O   LIG    1       24.450 -20.348   7.351  0.00  0.00    -0.353 OA
BRANCH  24  25
ATOM     25  C   LIG    1       25.658 -20.383   8.103  0.00  0.00    +0.162 C 
BRANCH  25  27
ATOM     26  C   LIG    1       26.393 -22.735   8.593  0.00  0.00    +0.006 C 
ATOM     27  C   LIG    1       25.586 -21.547   9.087  0.00  0.00    +0.025 C 
ENDBRANCH  25  27
ENDBRANCH  24  25
ENDBRANCH   1  24
TORSDOF 8
ENDMDL
MODEL 5
REMARK VINA RESULT:      -6.8      6.203      9.511
REMARK  Name = *****
REMARK                            x       y       z     vdW  Elec       q    Type
REMARK                         _______ _______ _______ _____ _____    ______ ____
ROOT
ATOM      1  C   LIG    1       25.114 -30.214   7.596  0.00  0.00    +0.216 C 
ENDROOT
BRANCH   1   2
ATOM      2  C   LIG    1       24.022 -30.885   8.496  0.00  0.00    -0.001 A 
ATOM      3  C   LIG    1       23.393 -30.162   9.530  0.00  0.00    +0.007 A 
ATOM      4  C   LIG    1       22.396 -30.750  10.315  0.00  0.00    +0.000 A 
ATOM      5  C   LIG    1       22.013 -32.071  10.093  0.00  0.00    +0.000 A 
ATOM      6  C   LIG    1       22.627 -32.809   9.086  0.00  0.00    +0.000 A 
ATOM      7  C   LIG    1       23.621 -32.224   8.298  0.00  0.00    +0.007 A 
ENDBRANCH   1   2
BRANCH   1   8
ATOM      8  C   LIG    1       25.907 -31.289   6.774  0.00  0.00    -0.001 A 
ATOM      9  C   LIG    1       26.839 -32.160   7.380  0.00  0.00    +0.007 A 
ATOM     10  C   LIG    1       27.505 -33.151   6.655  0.00  0.00    +0.000 A 
ATOM     11  C   LIG    1       27.255 -33.307   5.300  0.00  0.00    +0.000 A 
ATOM     12  C   LIG    1       26.327 -32.481   4.676  0.00  0.00    +0.000 A 
ATOM     13  C   LIG    1       25.648 -31.499   5.408  0.00  0.00    +0.007 A 
ENDBRANCH   1   8
BRANCH   1  14
ATOM     14  C   LIG    1       24.406 -29.118   6.691  0.00  0.00    +0.349 C 
ATOM     15  O   LIG    1       23.580 -29.334   5.794  0.00  0.00    -0.247 OA
BRANCH  14  16
ATOM     16  O   LIG    1       24.916 -27.866   6.904  0.00  0.00    -0.459 OA
BRANCH  16  17
ATOM     17  C   LIG    1       25.197 -27.091   5.719  0.00  0.00    +0.179 C 
ATOM     18  C   LIG    1       23.965 -26.267   5.357  0.00  0.00    +0.060 C 
ATOM     19  C   LIG    1       23.709 -25.168   6.390  0.00  0.00    +0.087 C 
ATOM     20  N   LIG    1       24.869 -24.305   6.646  0.00  0.00    -0.305 NA
ATOM     21  C   LIG    1       25.130 -23.375   5.549  0.00  0.00    +0.105 C 
ATOM     22  C   LIG    1       26.053 -25.097   7.002  0.00  0.00    +0.087 C 
ATOM     23  C   LIG    1       26.400 -26.179   5.977  0.00  0.00    +0.060 C 
ENDBRANCH  16  17
ENDBRANCH  14  16
ENDBRANCH   1  14
BRANCH   1  24
ATOM     24  O   LIG    1       26.051 -29.588   8.515  0.00  0.00    -0.353 OA
BRANCH  24  25
ATOM     25  C   LIG    1       26.503 -30.379   9.609  0.00  0.00    +0.162 C 
BRANCH  25  27
ATOM     26  C   LIG    1       26.335 -28.375  11.116  0.00  0.00    +0.006 C 
ATOM     27  C   LIG    1       27.243 -29.474  10.590  0.00  0.00    +0.025 C 
ENDBRANCH  25  27
ENDBRANCH  24  25
ENDBRANCH   1  24
TORSDOF 8
ENDMDL
MODEL 6
REMARK VINA RESULT:      -6.8      7.237     10.392
REMARK  Name = *****
REMARK                            x       y       z     vdW  Elec       q    Type
REMARK                         _______ _______ _______ _____ _____    ______ ____
ROOT
ATOM      1  C   LIG    1       25.108 -30.918   8.297  0.00  0.00    +0.216 C 
ENDROOT
BRANCH   1   2
ATOM      2  C   LIG    1       23.747 -31.255   8.992  0.00  0.00    -0.001 A 
ATOM      3  C   LIG    1       23.142 -32.517   8.823  0.00  0.00    +0.007 A 
ATOM      4  C   LIG    1       21.940 -32.831   9.467  0.00  0.00    +0.000 A 
ATOM      5  C   LIG    1       21.314 -31.892  10.285  0.00  0.00    +0.000 A 
ATOM      6  C   LIG    1       21.886 -30.636  10.457  0.00  0.00    +0.000 A 
ATOM      7  C   LIG    1       23.086 -30.320   9.818  0.00  0.00    +0.007 A 
ENDBRANCH   1   2
BRANCH   1   8
ATOM      8  C   LIG    1       25.027 -29.557   7.523  0.00  0.00    -0.001 A 
ATOM      9  C   LIG    1       25.837 -28.451   7.862  0.00  0.00    +0.007 A 
ATOM     10  C   LIG    1       25.800 -27.256   7.138  0.00  0.00    +0.000 A 
ATOM     11  C   LIG    1       24.955 -27.133   6.046  0.00  0.00    +0.000 A 
ATOM     12  C   LIG    1       24.160 -28.209   5.670  0.00  0.00    +0.000 A 
ATOM     13  C   LIG    1       24.210 -29.411   6.387  0.00  0.00    +0.007 A 
ENDBRANCH   1   8
BRANCH   1  14
ATOM     14  C   LIG    1       26.251 -30.953   9.399  0.00  0.00    +0.349 C 
ATOM     15  O   LIG    1       26.954 -31.930   9.691  0.00  0.00    -0.247 OA
BRANCH  14  16
ATOM     16  O   LIG    1       26.301 -29.795  10.127  0.00  0.00    -0.459 OA
BRANCH  16  17
ATOM     17  C   LIG    1       26.805 -29.920  11.474  0.00  0.00    +0.179 C 
ATOM     18  C   LIG    1       27.714 -28.734  11.779  0.00  0.00    +0.060 C 
ATOM     19  C   LIG    1       26.917 -27.431  11.868  0.00  0.00    +0.087 C 
ATOM     20  N   LIG    1       25.783 -27.486  12.801  0.00  0.00    -0.305 NA
ATOM     21  C   LIG    1       26.206 -27.460  14.199  0.00  0.00    +0.105 C 
ATOM     22  C   LIG    1       24.904 -28.624  12.502  0.00  0.00    +0.087 C 
ATOM     23  C   LIG    1       25.632 -29.969  12.457  0.00  0.00    +0.060 C 
ENDBRANCH  16  17
ENDBRANCH  14  16
ENDBRANCH   1  14
BRANCH   1  24
ATOM     24  O   LIG    1       25.318 -31.968   7.313  0.00  0.00    -0.353 OA
BRANCH  24  25
ATOM     25  C   LIG    1       26.533 -31.923   6.573  0.00  0.00    +0.162 C 
BRANCH  25  27
ATOM     26  C   LIG    1       24.825 -32.837   4.973  0.00  0.00    +0.006 C 
ATOM     27  C   LIG    1       26.234 -32.287   5.122  0.00  0.00    +0.025 C 
ENDBRANCH  25  27
ENDBRANCH  24  25
ENDBRANCH   1  24
TORSDOF 8
ENDMDL
MODEL 7
REMARK VINA RESULT:      -6.7      7.721     10.997
REMARK  Name = *****
REMARK                            x       y       z     vdW  Elec       q    Type
REMARK                         _______ _______ _______ _____ _____    ______ ____
ROOT
ATOM      1  C   LIG    1       25.556 -30.432   9.401  0.00  0.00    +0.216 C 
ENDROOT
BRANCH   1   2
ATOM      2  C   LIG    1       25.384 -29.331   8.301  0.00  0.00    -0.001 A 
ATOM      3  C   LIG    1       26.181 -28.169   8.311  0.00  0.00    +0.007 A 
ATOM      4  C   LIG    1       26.050 -27.199   7.312  0.00  0.00    +0.000 A 
ATOM      5  C   LIG    1       25.118 -27.363   6.290  0.00  0.00    +0.000 A 
ATOM      6  C   LIG    1       24.312 -28.496   6.265  0.00  0.00    +0.000 A 
ATOM      7  C   LIG    1       24.441 -29.468   7.259  0.00  0.00    +0.007 A 
ENDBRANCH   1   2
BRANCH   1   8
ATOM      8  C   LIG    1       24.164 -30.970   9.886  0.00  0.00    -0.001 A 
ATOM      9  C   LIG    1       23.136 -30.105  10.320  0.00  0.00    +0.007 A 
ATOM     10  C   LIG    1       21.879 -30.582  10.701  0.00  0.00    +0.000 A 
ATOM     11  C   LIG    1       21.609 -31.941  10.654  0.00  0.00    +0.000 A 
ATOM     12  C   LIG    1       22.591 -32.819  10.210  0.00  0.00    +0.000 A 
ATOM     13  C   LIG    1       23.845 -32.337   9.813  0.00  0.00    +0.007 A 
ENDBRANCH   1   8
BRANCH   1  14
ATOM     14  C   LIG    1       26.508 -31.566   8.825  0.00  0.00    +0.349 C 
ATOM     15  O   LIG    1       27.248 -32.304   9.489  0.00  0.00    -0.247 OA
BRANCH  14  16
ATOM     16  O   LIG    1       26.542 -31.565   7.457  0.00  0.00    -0.459 OA
BRANCH  16  17
ATOM     17  C   LIG    1       26.561 -32.864   6.827  0.00  0.00    +0.179 C 
ATOM     18  C   LIG    1       25.171 -33.483   6.917  0.00  0.00    +0.060 C 
ATOM     19  C   LIG    1       24.169 -32.730   6.039  0.00  0.00    +0.087 C 
ATOM     20  N   LIG    1       24.594 -32.578   4.641  0.00  0.00    -0.305 NA
ATOM     21  C   LIG    1       24.496 -33.825   3.887  0.00  0.00    +0.105 C 
ATOM     22  C   LIG    1       25.930 -31.974   4.555  0.00  0.00    +0.087 C 
ATOM     23  C   LIG    1       26.995 -32.717   5.366  0.00  0.00    +0.060 C 
ENDBRANCH  16  17
ENDBRANCH  14  16
ENDBRANCH   1  14
BRANCH   1  24
ATOM     24  O   LIG    1       26.184 -29.765  10.530  0.00  0.00    -0.353 OA
BRANCH  24  25
ATOM     25  C   LIG    1       26.124 -30.433  11.786  0.00  0.00    +0.162 C 
BRANCH  25  27
ATOM     26  C   LIG    1       25.565 -28.128  12.615  0.00  0.00    +0.006 C 
ATOM     27  C   LIG    1       26.338 -29.406  12.894  0.00  0.00    +0.025 C 
ENDBRANCH  25  27
ENDBRANCH  24  25
ENDBRANCH   1  24
TORSDOF 8
ENDMDL
MODEL 8
REMARK VINA RESULT:      -6.6      7.390     11.120
REMARK  Name = *****
REMARK                            x       y       z     vdW  Elec       q    Type
REMARK                         _______ _______ _______ _____ _____    ______ ____
ROOT
ATOM      1  C   LIG    1       25.108 -30.220   8.779  0.00  0.00    +0.216 C 
ENDROOT
BRANCH   1   2
ATOM      2  C   LIG    1       25.969 -31.456   8.351  0.00  0.00    -0.001 A 
ATOM      3  C   LIG    1       26.249 -32.493   9.264  0.00  0.00    +0.007 A 
ATOM      4  C   LIG    1       26.992 -33.612   8.875  0.00  0.00    +0.000 A 
ATOM      5  C   LIG    1       27.478 -33.716   7.573  0.00  0.00    +0.000 A 
ATOM      6  C   LIG    1       27.225 -32.700   6.658  0.00  0.00    +0.000 A 
ATOM      7  C   LIG    1       26.481 -31.582   7.042  0.00  0.00    +0.007 A 
ENDBRANCH   1   2
BRANCH   1   8
ATOM      8  C   LIG    1       25.140 -29.101   7.681  0.00  0.00    -0.001 A 
ATOM      9  C   LIG    1       24.302 -29.140   6.546  0.00  0.00    +0.007 A 
ATOM     10  C   LIG    1       24.295 -28.115   5.596  0.00  0.00    +0.000 A 
ATOM     11  C   LIG    1       25.123 -27.014   5.756  0.00  0.00    +0.000 A 
ATOM     12  C   LIG    1       25.944 -26.932   6.874  0.00  0.00    +0.000 A 
ATOM     13  C   LIG    1       25.938 -27.953   7.833  0.00  0.00    +0.007 A 
ENDBRANCH   1   8
BRANCH   1  14
ATOM     14  C   LIG    1       23.643 -30.729   9.122  0.00  0.00    +0.349 C 
ATOM     15  O   LIG    1       23.014 -31.605   8.514  0.00  0.00    -0.247 OA
BRANCH  14  16
ATOM     16  O   LIG    1       23.056 -29.985  10.110  0.00  0.00    -0.459 OA
BRANCH  16  17
ATOM     17  C   LIG    1       22.426 -30.733  11.171  0.00  0.00    +0.179 C 
ATOM     18  C   LIG    1       23.472 -31.086  12.223  0.00  0.00    +0.060 C 
ATOM     19  C   LIG    1       23.953 -29.839  12.969  0.00  0.00    +0.087 C 
ATOM     20  N   LIG    1       22.869 -29.033  13.546  0.00  0.00    -0.305 NA
ATOM     21  C   LIG    1       22.276 -29.654  14.728  0.00  0.00    +0.105 C 
ATOM     22  C   LIG    1       21.866 -28.687  12.531  0.00  0.00    +0.087 C 
ATOM     23  C   LIG    1       21.300 -29.898  11.787  0.00  0.00    +0.060 C 
ENDBRANCH  16  17
ENDBRANCH  14  16
ENDBRANCH   1  14
BRANCH   1  24
ATOM     24  O   LIG    1       25.752 -29.685   9.968  0.00  0.00    -0.353 OA
BRANCH  24  25
ATOM     25  C   LIG    1       27.166 -29.824  10.050  0.00  0.00    +0.162 C 
BRANCH  25  27
ATOM     26  C   LIG    1       26.909 -27.763  11.464  0.00  0.00    +0.006 C 
ATOM     27  C   LIG    1       27.659 -29.072  11.283  0.00  0.00    +0.025 C 
ENDBRANCH  25  27
ENDBRANCH  24  25
ENDBRANCH   1  24
TORSDOF 8
ENDMDL
MODEL 9
REMARK VINA RESULT:      -6.6      2.420      5.711
REMARK  Name = *****
REMARK                            x       y       z     vdW  Elec       q    Type
REMARK                         _______ _______ _______ _____ _____    ______ ____
ROOT
ATOM      1  C   LIG    1       25.159 -21.557   6.152  0.00  0.00    +0.216 C 
ENDROOT
BRANCH   1   2
ATOM      2  C   LIG    1       26.639 -21.126   6.427  0.00  0.00    -0.001 A 
ATOM      3  C   LIG    1       27.264 -20.141   5.635  0.00  0.00    +0.007 A 
ATOM      4  C   LIG    1       28.576 -19.734   5.899  0.00  0.00    +0.000 A 
ATOM      5  C   LIG    1       29.293 -20.304   6.949  0.00  0.00    +0.000 A 
ATOM      6  C   LIG    1       28.702 -21.286   7.736  0.00  0.00    +0.000 A 
ATOM      7  C   LIG    1       27.391 -21.694   7.478  0.00  0.00    +0.007 A 
ENDBRANCH   1   2
BRANCH   1   8
ATOM      8  C   LIG    1       24.370 -20.424   5.407  0.00  0.00    -0.001 A 
ATOM      9  C   LIG    1       24.841 -19.846   4.208  0.00  0.00    +0.007 A 
ATOM     10  C   LIG    1       24.111 -18.875   3.517  0.00  0.00    +0.000 A 
ATOM     11  C   LIG    1       22.882 -18.456   4.003  0.00  0.00    +0.000 A 
ATOM     12  C   LIG    1       22.377 -19.021   5.168  0.00  0.00    +0.000 A 
ATOM     13  C   LIG    1       23.103 -20.005   5.850  0.00  0.00    +0.007 A 
ENDBRANCH   1   8
BRANCH   1  14
ATOM     14  C   LIG    1       25.180 -22.937   5.366  0.00  0.00    +0.349 C 
ATOM     15  O   LIG    1       24.584 -23.185   4.310  0.00  0.00    -0.247 OA
BRANCH  14  16
ATOM     16  O   LIG    1       25.836 -23.916   6.062  0.00  0.00    -0.459 OA
BRANCH  16  17
ATOM     17  C   LIG    1       25.021 -25.017   6.518  0.00  0.00    +0.179 C 
ATOM     18  C   LIG    1       24.302 -25.634   5.323  0.00  0.00    +0.060 C 
ATOM     19  C   LIG    1       25.284 -26.344   4.389  0.00  0.00    +0.087 C 
ATOM     20  N   LIG    1       26.141 -27.330   5.061  0.00  0.00    -0.305 NA
ATOM     21  C   LIG    1       25.420 -28.548   5.420  0.00  0.00    +0.105 C 
ATOM     22  C   LIG    1       26.839 -26.734   6.206  0.00  0.00    +0.087 C 
ATOM     23  C   LIG    1       25.906 -26.056   7.212  0.00  0.00    +0.060 C 
ENDBRANCH  16  17
ENDBRANCH  14  16
ENDBRANCH   1  14
BRANCH   1  24
ATOM     24  O   LIG    1       24.549 -21.725   7.461  0.00  0.00    -0.353 OA
BRANCH  24  25
ATOM     25  C   LIG    1       23.128 -21.685   7.518  0.00  0.00    +0.162 C 
BRANCH  25  27
ATOM     26  C   LIG    1       21.612 -23.068   6.068  0.00  0.00    +0.006 C 
ATOM     27  C   LIG    1       22.589 -23.083   7.232  0.00  0.00    +0.025 C 
ENDBRANCH  25  27
ENDBRANCH  24  25
ENDBRANCH   1  24
TORSDOF 8
ENDMDL
