MODEL 1
REMARK VINA RESULT:      -5.0      0.000      0.000
REMARK  Name = *****
REMARK                            x       y       z     vdW  Elec       q    Type
REMARK                         _______ _______ _______ _____ _____    ______ ____
ROOT
ATOM      1  N   LIG    1       24.119 -19.557   4.252  0.00  0.00    -0.277 N 
ATOM      2  C   LIG    1       25.392 -19.152   3.856  0.00  0.00    +0.331 C 
ATOM      3  O   LIG    1       25.608 -18.402   2.903  0.00  0.00    -0.246 OA
ATOM      4  N   LIG    1       26.466 -19.629   4.589  0.00  0.00    -0.273 N 
ATOM      5  H   LIG    1       27.378 -19.326   4.284  0.00  0.00    +0.173 HD
ATOM      6  C   LIG    1       26.422 -20.445   5.697  0.00  0.00    +0.280 C 
ATOM      7  O   LIG    1       27.424 -20.813   6.299  0.00  0.00    -0.265 OA
ATOM      8  C   LIG    1       25.098 -20.798   6.048  0.00  0.00    +0.149 A 
ATOM      9  N   LIG    1       24.614 -21.572   7.062  0.00  0.00    -0.339 N 
ATOM     10  H   LIG    1       25.161 -22.050   7.766  0.00  0.00    +0.167 HD
ATOM     11  C   LIG    1       23.248 -21.571   6.935  0.00  0.00    +0.199 A 
ATOM     12  N   LIG    1       22.850 -20.846   5.909  0.00  0.00    -0.218 NA
ATOM     13  C   LIG    1       24.001 -20.370   5.359  0.00  0.00    +0.168 A 
ENDROOT
BRANCH   1  14
ATOM     14  C   LIG    1       22.944 -19.073   3.538  0.00  0.00    +0.128 C 
BRANCH  14  16
ATOM     15  C   LIG    1       22.527 -16.778   4.500  0.00  0.00    +0.005 C 
ATOM     16  C   LIG    1       22.046 -18.218   4.434  0.00  0.00    +0.018 C 
ENDBRANCH  14  16
ENDBRANCH   1  14
TORSDOF 2
ENDMDL
MODEL 2
REMARK VINA RESULT:      -4.7      1.790      2.529
REMARK  Name = *****
REMARK                            x       y       z     vdW  Elec       q    Type
REMARK                         _______ _______ _______ _____ _____    ______ ____
ROOT
ATOM      1  N   LIG    1       25.751 -19.715   4.464  0.00  0.00    -0.277 N 
ATOM      2  C   LIG    1       26.288 -18.593   3.834  0.00  0.00    +0.331 C 
ATOM      3  O   LIG    1       25.718 -17.971   2.938  0.00  0.00    -0.246 OA
ATOM      4  N   LIG    1       27.536 -18.165   4.257  0.00  0.00    -0.273 N 
ATOM      5  H   LIG    1       27.906 -17.355   3.787  0.00  0.00    +0.173 HD
ATOM      6  C   LIG    1       28.308 -18.709   5.259  0.00  0.00    +0.280 C 
ATOM      7  O   LIG    1       29.401 -18.260   5.581  0.00  0.00    -0.265 OA
ATOM      8  C   LIG    1       27.689 -19.830   5.861  0.00  0.00    +0.149 A 
ATOM      9  N   LIG    1       28.100 -20.645   6.874  0.00  0.00    -0.339 N 
ATOM     10  H   LIG    1       28.970 -20.574   7.387  0.00  0.00    +0.167 HD
ATOM     11  C   LIG    1       27.106 -21.571   7.058  0.00  0.00    +0.199 A 
ATOM     12  N   LIG    1       26.101 -21.386   6.225  0.00  0.00    -0.218 NA
ATOM     13  C   LIG    1       26.469 -20.306   5.482  0.00  0.00    +0.168 A 
ENDROOT
BRANCH   1  14
ATOM     14  C   LIG    1       24.431 -20.203   4.083  0.00  0.00    +0.128 C 
BRANCH  14  16
ATOM     15  C   LIG    1       22.486 -18.641   4.459  0.00  0.00    +0.005 C 
ATOM     16  C   LIG    1       23.350 -19.739   5.060  0.00  0.00    +0.018 C 
ENDBRANCH  14  16
ENDBRANCH   1  14
TORSDOF 2
ENDMDL
MODEL 3
REMARK VINA RESULT:      -4.4      1.525      3.745
REMARK  Name = *****
REMARK                            x       y       z     vdW  Elec       q    Type
REMARK                         _______ _______ _______ _____ _____    ______ ____
ROOT
ATOM      1  N   LIG    1       25.673 -19.800   4.721  0.00  0.00    -0.277 N 
ATOM      2  C   LIG    1       25.278 -18.870   3.760  0.00  0.00    +0.331 C 
ATOM      3  O   LIG    1       26.055 -18.310   2.988  0.00  0.00    -0.246 OA
ATOM      4  N   LIG    1       23.927 -18.573   3.683  0.00  0.00    -0.273 N 
ATOM      5  H   LIG    1       23.663 -17.897   2.984  0.00  0.00    +0.173 HD
ATOM      6  C   LIG    1       22.910 -19.116   4.435  0.00  0.00    +0.280 C 
ATOM      7  O   LIG    1       21.733 -18.807   4.294  0.00  0.00    -0.265 OA
ATOM      8  C   LIG    1       23.386 -20.062   5.374  0.00  0.00    +0.149 A 
ATOM      9  N   LIG    1       22.727 -20.823   6.294  0.00  0.00    -0.339 N 
ATOM     10  H   LIG    1       21.729 -20.829   6.466  0.00  0.00    +0.167 HD
ATOM     11  C   LIG    1       23.680 -21.572   6.936  0.00  0.00    +0.199 A 
ATOM     12  N   LIG    1       24.890 -21.328   6.473  0.00  0.00    -0.218 NA
ATOM     13  C   LIG    1       24.703 -20.388   5.506  0.00  0.00    +0.168 A 
ENDROOT
BRANCH   1  14
ATOM     14  C   LIG    1       27.076 -20.174   4.840  0.00  0.00    +0.128 C 
BRANCH  14  16
ATOM     15  C   LIG    1       28.604 -20.746   6.764  0.00  0.00    +0.005 C 
ATOM     16  C   LIG    1       27.682 -19.699   6.161  0.00  0.00    +0.018 C 
ENDBRANCH  14  16
ENDBRANCH   1  14
TORSDOF 2
ENDMDL
MODEL 4
REMARK VINA RESULT:      -4.3      2.057      4.784
REMARK  Name = *****
REMARK                            x       y       z     vdW  Elec       q    Type
REMARK                         _______ _______ _______ _____ _____    ______ ____
ROOT
ATOM      1  N   LIG    1       24.641 -20.679   5.584  0.00  0.00    -0.277 N 
ATOM      2  C   LIG    1       23.378 -20.765   6.168  0.00  0.00    +0.331 C 
ATOM      3  O   LIG    1       23.084 -21.571   7.051  0.00  0.00    -0.246 OA
ATOM      4  N   LIG    1       22.410 -19.882   5.719  0.00  0.00    -0.273 N 
ATOM      5  H   LIG    1       21.504 -19.963   6.152  0.00  0.00    +0.173 HD
ATOM      6  C   LIG    1       22.557 -18.897   4.769  0.00  0.00    +0.280 C 
ATOM      7  O   LIG    1       21.649 -18.145   4.436  0.00  0.00    -0.265 OA
ATOM      8  C   LIG    1       23.868 -18.859   4.236  0.00  0.00    +0.149 A 
ATOM      9  N   LIG    1       24.431 -18.051   3.294  0.00  0.00    -0.339 N 
ATOM     10  H   LIG    1       23.970 -17.303   2.791  0.00  0.00    +0.167 HD
ATOM     11  C   LIG    1       25.736 -18.451   3.166  0.00  0.00    +0.199 A 
ATOM     12  N   LIG    1       26.023 -19.456   3.969  0.00  0.00    -0.218 NA
ATOM     13  C   LIG    1       24.860 -19.709   4.629  0.00  0.00    +0.168 A 
ENDROOT
BRANCH   1  14
ATOM     14  C   LIG    1       25.711 -21.563   6.028  0.00  0.00    +0.128 C 
BRANCH  14  16
ATOM     15  C   LIG    1       28.084 -21.030   6.700  0.00  0.00    +0.005 C 
ATOM     16  C   LIG    1       26.614 -20.888   7.062  0.00  0.00    +0.018 C 
ENDBRANCH  14  16
ENDBRANCH   1  14
TORSDOF 2
ENDMDL
MODEL 5
REMARK VINA RESULT:      -4.2      1.921      3.144
REMARK  Name = *****
REMARK                            x       y       z     vdW  Elec       q    Type
REMARK                         _______ _______ _______ _____ _____    ______ ____
ROOT
ATOM      1  N   LIG    1       25.089 -19.437   4.176  0.00  0.00    -0.277 N 
ATOM      2  C   LIG    1       23.700 -19.556   4.133  0.00  0.00    +0.331 C 
ATOM      3  O   LIG    1       22.997 -19.068   3.248  0.00  0.00    -0.246 OA
ATOM      4  N   LIG    1       23.094 -20.270   5.153  0.00  0.00    -0.273 N 
ATOM      5  H   LIG    1       22.090 -20.341   5.104  0.00  0.00    +0.173 HD
ATOM      6  C   LIG    1       23.711 -20.910   6.205  0.00  0.00    +0.280 C 
ATOM      7  O   LIG    1       23.098 -21.535   7.062  0.00  0.00    -0.265 OA
ATOM      8  C   LIG    1       25.118 -20.760   6.169  0.00  0.00    +0.149 A 
ATOM      9  N   LIG    1       26.091 -21.228   7.002  0.00  0.00    -0.339 N 
ATOM     10  H   LIG    1       25.952 -21.790   7.833  0.00  0.00    +0.167 HD
ATOM     11  C   LIG    1       27.285 -20.788   6.492  0.00  0.00    +0.199 A 
ATOM     12  N   LIG    1       27.119 -20.077   5.395  0.00  0.00    -0.218 NA
ATOM     13  C   LIG    1       25.772 -20.059   5.200  0.00  0.00    +0.168 A 
ENDROOT
BRANCH   1  14
ATOM     14  C   LIG    1       25.792 -18.718   3.121  0.00  0.00    +0.128 C 
BRANCH  14  16
ATOM     15  C   LIG    1       27.066 -16.615   3.687  0.00  0.00    +0.005 C 
ATOM     16  C   LIG    1       25.714 -17.203   3.316  0.00  0.00    +0.018 C 
ENDBRANCH  14  16
ENDBRANCH   1  14
TORSDOF 2
ENDMDL
MODEL 6
REMARK VINA RESULT:      -4.0      1.707      3.080
REMARK  Name = *****
REMARK                            x       y       z     vdW  Elec       q    Type
REMARK                         _______ _______ _______ _____ _____    ______ ____
ROOT
ATOM      1  N   LIG    1       23.607 -20.373   5.284  0.00  0.00    -0.277 N 
ATOM      2  C   LIG    1       23.698 -21.086   6.478  0.00  0.00    +0.331 C 
ATOM      3  O   LIG    1       22.729 -21.572   7.062  0.00  0.00    -0.246 OA
ATOM      4  N   LIG    1       24.960 -21.251   7.023  0.00  0.00    -0.273 N 
ATOM      5  H   LIG    1       25.003 -21.768   7.887  0.00  0.00    +0.173 HD
ATOM      6  C   LIG    1       26.157 -20.812   6.504  0.00  0.00    +0.280 C 
ATOM      7  O   LIG    1       27.238 -21.012   7.045  0.00  0.00    -0.265 OA
ATOM      8  C   LIG    1       25.986 -20.114   5.285  0.00  0.00    +0.149 A 
ATOM      9  N   LIG    1       26.892 -19.527   4.452  0.00  0.00    -0.339 N 
ATOM     10  H   LIG    1       27.895 -19.492   4.584  0.00  0.00    +0.167 HD
ATOM     11  C   LIG    1       26.177 -18.997   3.408  0.00  0.00    +0.199 A 
ATOM     12  N   LIG    1       24.884 -19.218   3.536  0.00  0.00    -0.218 NA
ATOM     13  C   LIG    1       24.769 -19.908   4.704  0.00  0.00    +0.168 A 
ENDROOT
BRANCH   1  14
ATOM     14  C   LIG    1       22.311 -20.182   4.644  0.00  0.00    +0.128 C 
BRANCH  14  16
ATOM     15  C   LIG    1       20.760 -18.503   3.577  0.00  0.00    +0.005 C 
ATOM     16  C   LIG    1       21.976 -18.701   4.468  0.00  0.00    +0.018 C 
ENDBRANCH  14  16
ENDBRANCH   1  14
TORSDOF 2
ENDMDL
MODEL 7
REMARK VINA RESULT:      -3.9      2.033      3.464
REMARK  Name = *****
REMARK                            x       y       z     vdW  Elec       q    Type
REMARK                         _______ _______ _______ _____ _____    ______ ____
ROOT
ATOM      1  N   LIG    1       25.108 -19.499   4.184  0.00  0.00    -0.277 N 
ATOM      2  C   LIG    1       25.469 -20.600   4.960  0.00  0.00    +0.331 C 
ATOM      3  O   LIG    1       24.732 -21.564   5.167  0.00  0.00    -0.246 OA
ATOM      4  N   LIG    1       26.736 -20.592   5.520  0.00  0.00    -0.273 N 
ATOM      5  H   LIG    1       26.976 -21.396   6.078  0.00  0.00    +0.173 HD
ATOM      6  C   LIG    1       27.705 -19.624   5.377  0.00  0.00    +0.280 C 
ATOM      7  O   LIG    1       28.811 -19.700   5.898  0.00  0.00    -0.265 OA
ATOM      8  C   LIG    1       27.272 -18.551   4.563  0.00  0.00    +0.149 A 
ATOM      9  N   LIG    1       27.907 -17.410   4.170  0.00  0.00    -0.339 N 
ATOM     10  H   LIG    1       28.848 -17.131   4.415  0.00  0.00    +0.167 HD
ATOM     11  C   LIG    1       27.021 -16.723   3.380  0.00  0.00    +0.199 A 
ATOM     12  N   LIG    1       25.875 -17.362   3.255  0.00  0.00    -0.218 NA
ATOM     13  C   LIG    1       26.033 -18.495   3.994  0.00  0.00    +0.168 A 
ENDROOT
BRANCH   1  14
ATOM     14  C   LIG    1       23.798 -19.454   3.547  0.00  0.00    +0.128 C 
BRANCH  14  16
ATOM     15  C   LIG    1       22.180 -17.782   4.522  0.00  0.00    +0.005 C 
ATOM     16  C   LIG    1       22.679 -19.218   4.562  0.00  0.00    +0.018 C 
ENDBRANCH  14  16
ENDBRANCH   1  14
TORSDOF 2
ENDMDL
MODEL 8
REMARK VINA RESULT:      -3.6      2.329      4.108
REMARK  Name = *****
REMARK                            x       y       z     vdW  Elec       q    Type
REMARK                         _______ _______ _______ _____ _____    ______ ____
ROOT
ATOM      1  N   LIG    1       25.554 -20.347   4.881  0.00  0.00    -0.277 N 
ATOM      2  C   LIG    1       24.615 -19.744   4.046  0.00  0.00    +0.331 C 
ATOM      3  O   LIG    1       23.486 -20.193   3.846  0.00  0.00    -0.246 OA
ATOM      4  N   LIG    1       24.989 -18.570   3.413  0.00  0.00    -0.273 N 
ATOM      5  H   LIG    1       24.296 -18.152   2.813  0.00  0.00    +0.173 HD
ATOM      6  C   LIG    1       26.188 -17.903   3.536  0.00  0.00    +0.280 C 
ATOM      7  O   LIG    1       26.436 -16.857   2.949  0.00  0.00    -0.265 OA
ATOM      8  C   LIG    1       27.080 -18.565   4.412  0.00  0.00    +0.149 A 
ATOM      9  N   LIG    1       28.346 -18.249   4.810  0.00  0.00    -0.339 N 
ATOM     10  H   LIG    1       28.883 -17.442   4.521  0.00  0.00    +0.167 HD
ATOM     11  C   LIG    1       28.741 -19.238   5.675  0.00  0.00    +0.199 A 
ATOM     12  N   LIG    1       27.802 -20.149   5.842  0.00  0.00    -0.218 NA
ATOM     13  C   LIG    1       26.774 -19.728   5.054  0.00  0.00    +0.168 A 
ENDROOT
BRANCH   1  14
ATOM     14  C   LIG    1       25.216 -21.572   5.594  0.00  0.00    +0.128 C 
BRANCH  14  16
ATOM     15  C   LIG    1       23.165 -21.514   7.062  0.00  0.00    +0.005 C 
ATOM     16  C   LIG    1       24.666 -21.282   6.992  0.00  0.00    +0.018 C 
ENDBRANCH  14  16
ENDBRANCH   1  14
TORSDOF 2
ENDMDL
MODEL 9
REMARK VINA RESULT:      -3.5      1.873      3.025
REMARK  Name = *****
REMARK                            x       y       z     vdW  Elec       q    Type
REMARK                         _______ _______ _______ _____ _____    ______ ____
ROOT
ATOM      1  N   LIG    1       25.451 -19.177   4.135  0.00  0.00    -0.277 N 
ATOM      2  C   LIG    1       26.294 -19.916   4.965  0.00  0.00    +0.331 C 
ATOM      3  O   LIG    1       27.522 -19.891   4.892  0.00  0.00    -0.246 OA
ATOM      4  N   LIG    1       25.696 -20.715   5.925  0.00  0.00    -0.273 N 
ATOM      5  H   LIG    1       26.323 -21.242   6.513  0.00  0.00    +0.173 HD
ATOM      6  C   LIG    1       24.349 -20.849   6.178  0.00  0.00    +0.280 C 
ATOM      7  O   LIG    1       23.901 -21.572   7.060  0.00  0.00    -0.265 OA
ATOM      8  C   LIG    1       23.561 -20.057   5.310  0.00  0.00    +0.149 A 
ATOM      9  N   LIG    1       22.210 -19.893   5.222  0.00  0.00    -0.339 N 
ATOM     10  H   LIG    1       21.512 -20.344   5.800  0.00  0.00    +0.167 HD
ATOM     11  C   LIG    1       21.990 -19.003   4.203  0.00  0.00    +0.199 A 
ATOM     12  N   LIG    1       23.117 -18.600   3.650  0.00  0.00    -0.218 NA
ATOM     13  C   LIG    1       24.089 -19.259   4.338  0.00  0.00    +0.168 A 
ENDROOT
BRANCH   1  14
ATOM     14  C   LIG    1       26.016 -18.298   3.119  0.00  0.00    +0.128 C 
BRANCH  14  16
ATOM     15  C   LIG    1       26.029 -15.784   3.333  0.00  0.00    +0.005 C 
ATOM     16  C   LIG    1       26.707 -17.083   3.740  0.00  0.00    +0.018 C 
ENDBRANCH  14  16
ENDBRANCH   1  14
TORSDOF 2
ENDMDL
