MODEL 1
REMARK VINA RESULT:      -4.4      0.000      0.000
REMARK  Name = *****
REMARK                            x       y       z     vdW  Elec       q    Type
REMARK                         _______ _______ _______ _____ _____    ______ ____
ROOT
ATOM      1  C   LIG    1       22.462 -16.315   4.554  0.00  0.00    +0.341 C 
ATOM      2  O   LIG    1       22.045 -16.084   5.684  0.00  0.00    -0.247 OA
ENDROOT
BRANCH   1   3
ATOM      3  O   LIG    1       23.250 -15.466   3.824  0.00  0.00    -0.459 OA
BRANCH   3   8
ATOM      4  C   LIG    1       27.533 -13.366   4.319  0.00  0.00    +0.105 C 
ATOM      5  N   LIG    1       26.397 -13.061   3.468  0.00  0.00    -0.299 NA
ATOM      6  C   LIG    1       25.154 -12.696   4.153  0.00  0.00    +0.060 C 
ATOM      7  C   LIG    1       24.641 -13.810   5.078  0.00  0.00    +0.063 C 
ATOM      8  C   LIG    1       24.544 -15.190   4.404  0.00  0.00    +0.179 C 
ATOM      9  C   LIG    1       25.583 -15.408   3.287  0.00  0.00    +0.063 C 
ATOM     10  C   LIG    1       24.225 -12.498   2.952  0.00  0.00    +0.020 C 
ATOM     11  C   LIG    1       24.781 -13.439   1.879  0.00  0.00    +0.020 C 
ATOM     12  C   LIG    1       25.982 -14.119   2.546  0.00  0.00    +0.060 C 
ENDBRANCH   3   8
ENDBRANCH   1   3
BRANCH   1  13
ATOM     13  C   LIG    1       22.284 -17.648   3.808  0.00  0.00    +0.253 C 
BRANCH  13  14
ATOM     14  C   LIG    1       23.164 -18.750   4.352  0.00  0.00    -0.008 A 
ATOM     15  C   LIG    1       24.440 -18.999   3.822  0.00  0.00    +0.007 A 
ATOM     16  C   LIG    1       25.223 -20.043   4.314  0.00  0.00    +0.000 A 
ATOM     17  C   LIG    1       24.741 -20.854   5.338  0.00  0.00    +0.000 A 
ATOM     18  C   LIG    1       23.480 -20.616   5.878  0.00  0.00    +0.000 A 
ATOM     19  C   LIG    1       22.695 -19.571   5.390  0.00  0.00    +0.007 A 
ENDBRANCH  13  14
BRANCH  13  20
ATOM     20  O   LIG    1       20.911 -18.058   3.783  0.00  0.00    -0.376 OA
ATOM     21  H   LIG    1       20.812 -18.696   4.512  0.00  0.00    +0.211 HD
ENDBRANCH  13  20
ENDBRANCH   1  13
TORSDOF 5
ENDMDL
MODEL 2
REMARK VINA RESULT:      -4.3      1.519      2.493
REMARK  Name = *****
REMARK                            x       y       z     vdW  Elec       q    Type
REMARK                         _______ _______ _______ _____ _____    ______ ____
ROOT
ATOM      1  C   LIG    1       25.375 -17.573   3.356  0.00  0.00    +0.341 C 
ATOM      2  O   LIG    1       26.323 -18.289   3.050  0.00  0.00    -0.247 OA
ENDROOT
BRANCH   1   3
ATOM      3  O   LIG    1       25.405 -16.204   3.373  0.00  0.00    -0.459 OA
BRANCH   3   8
ATOM      4  C   LIG    1       28.780 -12.801   3.548  0.00  0.00    +0.105 C 
ATOM      5  N   LIG    1       27.393 -12.814   3.977  0.00  0.00    -0.299 NA
ATOM      6  C   LIG    1       27.051 -13.768   5.036  0.00  0.00    +0.060 C 
ATOM      7  C   LIG    1       27.330 -15.223   4.630  0.00  0.00    +0.063 C 
ATOM      8  C   LIG    1       26.723 -15.624   3.274  0.00  0.00    +0.179 C 
ATOM      9  C   LIG    1       26.617 -14.456   2.274  0.00  0.00    +0.063 C 
ATOM     10  C   LIG    1       25.548 -13.507   5.169  0.00  0.00    +0.020 C 
ATOM     11  C   LIG    1       25.115 -13.043   3.774  0.00  0.00    +0.020 C 
ATOM     12  C   LIG    1       26.400 -13.085   2.937  0.00  0.00    +0.060 C 
ENDBRANCH   3   8
ENDBRANCH   1   3
BRANCH   1  13
ATOM     13  C   LIG    1       23.952 -18.077   3.648  0.00  0.00    +0.253 C 
BRANCH  13  14
ATOM     14  C   LIG    1       23.932 -19.312   4.520  0.00  0.00    -0.008 A 
ATOM     15  C   LIG    1       22.790 -19.675   5.252  0.00  0.00    +0.007 A 
ATOM     16  C   LIG    1       22.802 -20.798   6.079  0.00  0.00    +0.000 A 
ATOM     17  C   LIG    1       23.955 -21.572   6.188  0.00  0.00    +0.000 A 
ATOM     18  C   LIG    1       25.094 -21.228   5.464  0.00  0.00    +0.000 A 
ATOM     19  C   LIG    1       25.084 -20.106   4.634  0.00  0.00    +0.007 A 
ENDBRANCH  13  14
BRANCH  13  20
ATOM     20  O   LIG    1       23.133 -17.044   4.208  0.00  0.00    -0.376 OA
ATOM     21  H   LIG    1       22.481 -17.500   4.771  0.00  0.00    +0.211 HD
ENDBRANCH  13  20
ENDBRANCH   1  13
TORSDOF 5
ENDMDL
MODEL 3
REMARK VINA RESULT:      -4.1      2.007      3.280
REMARK  Name = *****
REMARK                            x       y       z     vdW  Elec       q    Type
REMARK                         _______ _______ _______ _____ _____    ______ ____
ROOT
ATOM      1  C   LIG    1       26.094 -17.994   3.391  0.00  0.00    +0.341 C 
ATOM      2  O   LIG    1       25.845 -18.360   2.247  0.00  0.00    -0.247 OA
ENDROOT
BRANCH   1   3
ATOM      3  O   LIG    1       26.340 -16.699   3.761  0.00  0.00    -0.459 OA
BRANCH   3   8
ATOM      4  C   LIG    1       24.625 -12.359   2.653  0.00  0.00    +0.105 C 
ATOM      5  N   LIG    1       25.646 -12.787   3.592  0.00  0.00    -0.299 NA
ATOM      6  C   LIG    1       26.824 -13.441   3.015  0.00  0.00    +0.060 C 
ATOM      7  C   LIG    1       26.469 -14.719   2.241  0.00  0.00    +0.063 C 
ATOM      8  C   LIG    1       25.590 -15.706   3.028  0.00  0.00    +0.179 C 
ATOM      9  C   LIG    1       24.651 -15.025   4.043  0.00  0.00    +0.063 C 
ATOM     10  C   LIG    1       27.613 -13.762   4.288  0.00  0.00    +0.020 C 
ATOM     11  C   LIG    1       26.541 -13.940   5.368  0.00  0.00    +0.020 C 
ATOM     12  C   LIG    1       25.213 -13.719   4.634  0.00  0.00    +0.060 C 
ENDBRANCH   3   8
ENDBRANCH   1   3
BRANCH   1  13
ATOM     13  C   LIG    1       26.047 -18.901   4.632  0.00  0.00    +0.253 C 
BRANCH  13  14
ATOM     14  C   LIG    1       24.721 -19.607   4.796  0.00  0.00    -0.008 A 
ATOM     15  C   LIG    1       23.513 -18.998   4.420  0.00  0.00    +0.007 A 
ATOM     16  C   LIG    1       22.296 -19.652   4.613  0.00  0.00    +0.000 A 
ATOM     17  C   LIG    1       22.269 -20.921   5.186  0.00  0.00    +0.000 A 
ATOM     18  C   LIG    1       23.458 -21.541   5.558  0.00  0.00    +0.000 A 
ATOM     19  C   LIG    1       24.678 -20.890   5.365  0.00  0.00    +0.007 A 
ENDBRANCH  13  14
BRANCH  13  20
ATOM     20  O   LIG    1       27.129 -19.840   4.639  0.00  0.00    -0.376 OA
ATOM     21  H   LIG    1       27.418 -19.917   3.712  0.00  0.00    +0.211 HD
ENDBRANCH  13  20
ENDBRANCH   1  13
TORSDOF 5
ENDMDL
MODEL 4
REMARK VINA RESULT:      -3.8      2.749      6.873
REMARK  Name = *****
REMARK                            x       y       z     vdW  Elec       q    Type
REMARK                         _______ _______ _______ _____ _____    ______ ____
ROOT
ATOM      1  C   LIG    1       25.179 -17.206   3.680  0.00  0.00    +0.341 C 
ATOM      2  O   LIG    1       24.235 -16.441   3.847  0.00  0.00    -0.247 OA
ENDROOT
BRANCH   1   3
ATOM      3  O   LIG    1       25.091 -18.573   3.707  0.00  0.00    -0.459 OA
BRANCH   3   8
ATOM      4  C   LIG    1       21.425 -21.502   4.700  0.00  0.00    +0.105 C 
ATOM      5  N   LIG    1       22.748 -21.373   5.283  0.00  0.00    -0.299 NA
ATOM      6  C   LIG    1       23.050 -20.093   5.929  0.00  0.00    +0.060 C 
ATOM      7  C   LIG    1       22.952 -18.906   4.958  0.00  0.00    +0.063 C 
ATOM      8  C   LIG    1       23.745 -19.095   3.654  0.00  0.00    +0.179 C 
ATOM      9  C   LIG    1       23.861 -20.566   3.207  0.00  0.00    +0.063 C 
ATOM     10  C   LIG    1       24.498 -20.337   6.364  0.00  0.00    +0.020 C 
ATOM     11  C   LIG    1       25.045 -21.328   5.332  0.00  0.00    +0.020 C 
ATOM     12  C   LIG    1       23.875 -21.572   4.371  0.00  0.00    +0.060 C 
ENDBRANCH   3   8
ENDBRANCH   1   3
BRANCH   1  13
ATOM     13  C   LIG    1       26.600 -16.775   3.282  0.00  0.00    +0.253 C 
BRANCH  13  14
ATOM     14  C   LIG    1       26.794 -15.276   3.323  0.00  0.00    -0.008 A 
ATOM     15  C   LIG    1       25.982 -14.410   2.575  0.00  0.00    +0.007 A 
ATOM     16  C   LIG    1       26.199 -13.032   2.599  0.00  0.00    +0.000 A 
ATOM     17  C   LIG    1       27.233 -12.502   3.368  0.00  0.00    +0.000 A 
ATOM     18  C   LIG    1       28.043 -13.347   4.120  0.00  0.00    +0.000 A 
ATOM     19  C   LIG    1       27.827 -14.726   4.100  0.00  0.00    +0.007 A 
ENDBRANCH  13  14
BRANCH  13  20
ATOM     20  O   LIG    1       27.593 -17.439   4.073  0.00  0.00    -0.376 OA
ATOM     21  H   LIG    1       28.123 -16.731   4.481  0.00  0.00    +0.211 HD
ENDBRANCH  13  20
ENDBRANCH   1  13
TORSDOF 5
ENDMDL
MODEL 5
REMARK VINA RESULT:      -3.7      1.996      2.976
REMARK  Name = *****
REMARK                            x       y       z     vdW  Elec       q    Type
REMARK                         _______ _______ _______ _____ _____    ______ ____
ROOT
ATOM      1  C   LIG    1       26.404 -17.213   3.564  0.00  0.00    +0.341 C 
ATOM      2  O   LIG    1       27.588 -17.116   3.868  0.00  0.00    -0.247 OA
ENDROOT
BRANCH   1   3
ATOM      3  O   LIG    1       25.624 -16.176   3.125  0.00  0.00    -0.459 OA
BRANCH   3   8
ATOM      4  C   LIG    1       24.256 -12.093   5.237  0.00  0.00    +0.105 C 
ATOM      5  N   LIG    1       24.612 -12.402   3.864  0.00  0.00    -0.299 NA
ATOM      6  C   LIG    1       23.751 -13.366   3.172  0.00  0.00    +0.060 C 
ATOM      7  C   LIG    1       23.721 -14.735   3.868  0.00  0.00    +0.063 C 
ATOM      8  C   LIG    1       25.113 -15.317   4.168  0.00  0.00    +0.179 C 
ATOM      9  C   LIG    1       26.191 -14.245   4.422  0.00  0.00    +0.063 C 
ATOM     10  C   LIG    1       24.459 -13.446   1.817  0.00  0.00    +0.020 C 
ATOM     11  C   LIG    1       25.928 -13.149   2.135  0.00  0.00    +0.020 C 
ATOM     12  C   LIG    1       25.959 -12.933   3.653  0.00  0.00    +0.060 C 
ENDBRANCH   3   8
ENDBRANCH   1   3
BRANCH   1  13
ATOM     13  C   LIG    1       25.620 -18.533   3.496  0.00  0.00    +0.253 C 
BRANCH  13  14
ATOM     14  C   LIG    1       25.973 -19.487   4.614  0.00  0.00    -0.008 A 
ATOM     15  C   LIG    1       25.005 -20.307   5.214  0.00  0.00    +0.007 A 
ATOM     16  C   LIG    1       25.344 -21.155   6.268  0.00  0.00    +0.000 A 
ATOM     17  C   LIG    1       26.654 -21.193   6.739  0.00  0.00    +0.000 A 
ATOM     18  C   LIG    1       27.627 -20.391   6.150  0.00  0.00    +0.000 A 
ATOM     19  C   LIG    1       27.292 -19.543   5.094  0.00  0.00    +0.007 A 
ENDBRANCH  13  14
BRANCH  13  20
ATOM     20  O   LIG    1       24.206 -18.304   3.449  0.00  0.00    -0.376 OA
ATOM     21  H   LIG    1       24.009 -17.717   4.201  0.00  0.00    +0.211 HD
ENDBRANCH  13  20
ENDBRANCH   1  13
TORSDOF 5
ENDMDL
MODEL 6
REMARK VINA RESULT:      -3.6      1.974      3.087
REMARK  Name = *****
REMARK                            x       y       z     vdW  Elec       q    Type
REMARK                         _______ _______ _______ _____ _____    ______ ____
ROOT
ATOM      1  C   LIG    1       25.145 -17.660   3.681  0.00  0.00    +0.341 C 
ATOM      2  O   LIG    1       23.938 -17.709   3.892  0.00  0.00    -0.247 OA
ENDROOT
BRANCH   1   3
ATOM      3  O   LIG    1       25.894 -16.514   3.698  0.00  0.00    -0.459 OA
BRANCH   3   8
ATOM      4  C   LIG    1       24.950 -11.963   2.512  0.00  0.00    +0.105 C 
ATOM      5  N   LIG    1       25.847 -12.543   3.496  0.00  0.00    -0.299 NA
ATOM      6  C   LIG    1       26.929 -13.382   2.972  0.00  0.00    +0.060 C 
ATOM      7  C   LIG    1       26.407 -14.592   2.183  0.00  0.00    +0.063 C 
ATOM      8  C   LIG    1       25.347 -15.419   2.932  0.00  0.00    +0.179 C 
ATOM      9  C   LIG    1       24.486 -14.587   3.904  0.00  0.00    +0.063 C 
ATOM     10  C   LIG    1       27.599 -13.816   4.279  0.00  0.00    +0.020 C 
ATOM     11  C   LIG    1       26.466 -13.810   5.310  0.00  0.00    +0.020 C 
ATOM     12  C   LIG    1       25.224 -13.385   4.518  0.00  0.00    +0.060 C 
ENDBRANCH   3   8
ENDBRANCH   1   3
BRANCH   1  13
ATOM     13  C   LIG    1       26.053 -18.885   3.487  0.00  0.00    +0.253 C 
BRANCH  13  14
ATOM     14  C   LIG    1       26.235 -19.690   4.753  0.00  0.00    -0.008 A 
ATOM     15  C   LIG    1       27.448 -19.683   5.460  0.00  0.00    +0.007 A 
ATOM     16  C   LIG    1       27.608 -20.461   6.607  0.00  0.00    +0.000 A 
ATOM     17  C   LIG    1       26.559 -21.257   7.062  0.00  0.00    +0.000 A 
ATOM     18  C   LIG    1       25.348 -21.270   6.376  0.00  0.00    +0.000 A 
ATOM     19  C   LIG    1       25.185 -20.492   5.229  0.00  0.00    +0.007 A 
ENDBRANCH  13  14
BRANCH  13  20
ATOM     20  O   LIG    1       25.594 -19.717   2.416  0.00  0.00    -0.376 OA
ATOM     21  H   LIG    1       25.958 -19.326   1.601  0.00  0.00    +0.211 HD
ENDBRANCH  13  20
ENDBRANCH   1  13
TORSDOF 5
ENDMDL
MODEL 7
REMARK VINA RESULT:      -3.1      2.024      2.964
REMARK  Name = *****
REMARK                            x       y       z     vdW  Elec       q    Type
REMARK                         _______ _______ _______ _____ _____    ______ ____
ROOT
ATOM      1  C   LIG    1       25.821 -18.041   3.258  0.00  0.00    +0.341 C 
ATOM      2  O   LIG    1       25.754 -18.570   2.153  0.00  0.00    -0.247 OA
ENDROOT
BRANCH   1   3
ATOM      3  O   LIG    1       25.673 -16.700   3.492  0.00  0.00    -0.459 OA
BRANCH   3   8
ATOM      4  C   LIG    1       28.451 -12.793   3.362  0.00  0.00    +0.105 C 
ATOM      5  N   LIG    1       27.050 -12.975   3.693  0.00  0.00    -0.299 NA
ATOM      6  C   LIG    1       26.763 -13.812   4.862  0.00  0.00    +0.060 C 
ATOM      7  C   LIG    1       27.300 -15.243   4.708  0.00  0.00    +0.063 C 
ATOM      8  C   LIG    1       26.890 -15.929   3.393  0.00  0.00    +0.179 C 
ATOM      9  C   LIG    1       26.697 -14.950   2.218  0.00  0.00    +0.063 C 
ATOM     10  C   LIG    1       25.232 -13.788   4.850  0.00  0.00    +0.020 C 
ATOM     11  C   LIG    1       24.863 -13.607   3.374  0.00  0.00    +0.020 C 
ATOM     12  C   LIG    1       26.210 -13.554   2.643  0.00  0.00    +0.060 C 
ENDBRANCH   3   8
ENDBRANCH   1   3
BRANCH   1  13
ATOM     13  C   LIG    1       25.954 -18.801   4.588  0.00  0.00    +0.253 C 
BRANCH  13  14
ATOM     14  C   LIG    1       24.732 -19.626   4.921  0.00  0.00    -0.008 A 
ATOM     15  C   LIG    1       24.825 -20.805   5.676  0.00  0.00    +0.007 A 
ATOM     16  C   LIG    1       23.691 -21.572   5.942  0.00  0.00    +0.000 A 
ATOM     17  C   LIG    1       22.449 -21.172   5.455  0.00  0.00    +0.000 A 
ATOM     18  C   LIG    1       22.339 -20.001   4.710  0.00  0.00    +0.000 A 
ATOM     19  C   LIG    1       23.472 -19.231   4.443  0.00  0.00    +0.007 A 
ENDBRANCH  13  14
BRANCH  13  20
ATOM     20  O   LIG    1       27.137 -19.609   4.617  0.00  0.00    -0.376 OA
ATOM     21  H   LIG    1       27.725 -19.242   3.932  0.00  0.00    +0.211 HD
ENDBRANCH  13  20
ENDBRANCH   1  13
TORSDOF 5
ENDMDL
MODEL 8
REMARK VINA RESULT:      -2.9      2.009      2.616
REMARK  Name = *****
REMARK                            x       y       z     vdW  Elec       q    Type
REMARK                         _______ _______ _______ _____ _____    ______ ____
ROOT
ATOM      1  C   LIG    1       24.784 -17.911   3.475  0.00  0.00    +0.341 C 
ATOM      2  O   LIG    1       23.653 -18.002   3.941  0.00  0.00    -0.247 OA
ENDROOT
BRANCH   1   3
ATOM      3  O   LIG    1       25.393 -16.734   3.130  0.00  0.00    -0.459 OA
BRANCH   3   8
ATOM      4  C   LIG    1       27.052 -12.843   5.392  0.00  0.00    +0.105 C 
ATOM      5  N   LIG    1       26.743 -13.095   3.996  0.00  0.00    -0.299 NA
ATOM      6  C   LIG    1       25.344 -13.403   3.687  0.00  0.00    +0.060 C 
ATOM      7  C   LIG    1       24.843 -14.661   4.414  0.00  0.00    +0.063 C 
ATOM      8  C   LIG    1       25.755 -15.888   4.244  0.00  0.00    +0.179 C 
ATOM      9  C   LIG    1       27.243 -15.533   4.063  0.00  0.00    +0.063 C 
ATOM     10  C   LIG    1       25.438 -13.634   2.176  0.00  0.00    +0.020 C 
ATOM     11  C   LIG    1       26.865 -14.147   1.957  0.00  0.00    +0.020 C 
ATOM     12  C   LIG    1       27.483 -14.186   3.360  0.00  0.00    +0.060 C 
ENDBRANCH   3   8
ENDBRANCH   1   3
BRANCH   1  13
ATOM     13  C   LIG    1       25.766 -19.083   3.318  0.00  0.00    +0.253 C 
BRANCH  13  14
ATOM     14  C   LIG    1       26.160 -19.704   4.639  0.00  0.00    -0.008 A 
ATOM     15  C   LIG    1       27.450 -19.545   5.168  0.00  0.00    +0.007 A 
ATOM     16  C   LIG    1       27.806 -20.155   6.372  0.00  0.00    +0.000 A 
ATOM     17  C   LIG    1       26.878 -20.933   7.060  0.00  0.00    +0.000 A 
ATOM     18  C   LIG    1       25.592 -21.094   6.551  0.00  0.00    +0.000 A 
ATOM     19  C   LIG    1       25.233 -20.484   5.348  0.00  0.00    +0.007 A 
ENDBRANCH  13  14
BRANCH  13  20
ATOM     20  O   LIG    1       25.259 -20.077   2.419  0.00  0.00    -0.376 OA
ATOM     21  H   LIG    1       25.046 -20.850   2.972  0.00  0.00    +0.211 HD
ENDBRANCH  13  20
ENDBRANCH   1  13
TORSDOF 5
ENDMDL
MODEL 9
REMARK VINA RESULT:      -2.5      2.673      6.794
REMARK  Name = *****
REMARK                            x       y       z     vdW  Elec       q    Type
REMARK                         _______ _______ _______ _____ _____    ______ ____
ROOT
ATOM      1  C   LIG    1       25.355 -17.476   3.473  0.00  0.00    +0.341 C 
ATOM      2  O   LIG    1       26.003 -17.603   2.440  0.00  0.00    -0.247 OA
ENDROOT
BRANCH   1   3
ATOM      3  O   LIG    1       24.976 -18.508   4.290  0.00  0.00    -0.459 OA
BRANCH   3   8
ATOM      4  C   LIG    1       21.293 -21.568   4.566  0.00  0.00    +0.105 C 
ATOM      5  N   LIG    1       22.520 -21.456   5.333  0.00  0.00    -0.299 NA
ATOM      6  C   LIG    1       22.695 -20.220   6.100  0.00  0.00    +0.060 C 
ATOM      7  C   LIG    1       22.697 -18.969   5.208  0.00  0.00    +0.063 C 
ATOM      8  C   LIG    1       23.666 -19.050   4.015  0.00  0.00    +0.179 C 
ATOM      9  C   LIG    1       23.882 -20.483   3.490  0.00  0.00    +0.063 C 
ATOM     10  C   LIG    1       24.076 -20.468   6.713  0.00  0.00    +0.020 C 
ATOM     11  C   LIG    1       24.787 -21.373   5.702  0.00  0.00    +0.020 C 
ATOM     12  C   LIG    1       23.766 -21.569   4.574  0.00  0.00    +0.060 C 
ENDBRANCH   3   8
ENDBRANCH   1   3
BRANCH   1  13
ATOM     13  C   LIG    1       24.963 -16.130   4.104  0.00  0.00    +0.253 C 
BRANCH  13  14
ATOM     14  C   LIG    1       25.878 -14.998   3.694  0.00  0.00    -0.008 A 
ATOM     15  C   LIG    1       27.225 -14.964   4.086  0.00  0.00    +0.007 A 
ATOM     16  C   LIG    1       28.045 -13.894   3.728  0.00  0.00    +0.000 A 
ATOM     17  C   LIG    1       27.528 -12.842   2.975  0.00  0.00    +0.000 A 
ATOM     18  C   LIG    1       26.196 -12.864   2.573  0.00  0.00    +0.000 A 
ATOM     19  C   LIG    1       25.374 -13.934   2.929  0.00  0.00    +0.007 A 
ENDBRANCH  13  14
BRANCH  13  20
ATOM     20  O   LIG    1       23.595 -15.801   3.837  0.00  0.00    -0.376 OA
ATOM     21  H   LIG    1       23.398 -16.181   2.962  0.00  0.00    +0.211 HD
ENDBRANCH  13  20
ENDBRANCH   1  13
TORSDOF 5
ENDMDL
