MODEL 1
REMARK VINA RESULT:      -3.0      0.000      0.000
REMARK  Name = *****
REMARK                            x       y       z     vdW  Elec       q    Type
REMARK                         _______ _______ _______ _____ _____    ______ ____
ROOT
ATOM      1  C   LIG    1       27.179 -16.772   3.808  0.00  0.00    +0.218 C 
ATOM      2  N   LIG    1       27.789 -17.581   4.600  0.00  0.00    -0.159 NA
ATOM      3  C   LIG    1       27.341 -18.867   4.681  0.00  0.00    +0.354 C 
ATOM      4  O   LIG    1       28.078 -19.769   5.068  0.00  0.00    -0.244 OA
ATOM      5  N   LIG    1       26.050 -19.119   4.278  0.00  0.00    -0.256 N 
ATOM      6  C   LIG    1       25.595 -18.283   3.314  0.00  0.00    +0.209 C 
ATOM      7  N   LIG    1       26.126 -17.144   3.042  0.00  0.00    -0.205 NA
ENDROOT
BRANCH   5   8
ATOM      8  C1* LIG    1       25.535 -20.474   4.408  0.00  0.00    +0.228 C 
ATOM      9  O4* LIG    1       24.288 -20.582   3.684  0.00  0.00    -0.348 OA
ATOM     10  C4* LIG    1       23.203 -20.694   4.634  0.00  0.00    +0.175 C 
ATOM     11  C3* LIG    1       23.792 -20.393   6.002  0.00  0.00    +0.150 C 
ATOM     12  C2* LIG    1       25.204 -20.900   5.838  0.00  0.00    +0.088 C 
BRANCH  11  13
ATOM     13  O3* LIG    1       23.102 -21.032   7.062  0.00  0.00    -0.389 OA
ATOM     14  H3* LIG    1       23.746 -21.467   7.649  0.00  0.00    +0.210 HD
ENDBRANCH  11  13
BRANCH  10  15
ATOM     15  C5* LIG    1       22.086 -19.732   4.239  0.00  0.00    +0.190 C 
BRANCH  15  16
ATOM     16  O5* LIG    1       22.363 -18.433   4.763  0.00  0.00    -0.392 OA
ATOM     17  H5* LIG    1       22.560 -18.556   5.710  0.00  0.00    +0.209 HD
ENDBRANCH  15  16
ENDBRANCH  10  15
ENDBRANCH   5   8
BRANCH   1  18
ATOM     18  N   LIG    1       27.600 -15.492   3.692  0.00  0.00    -0.327 N 
ATOM     19  H   LIG    1       26.885 -14.815   3.925  0.00  0.00    +0.145 HD
ATOM     20  H   LIG    1       28.500 -15.326   4.122  0.00  0.00    +0.145 HD
ENDBRANCH   1  18
TORSDOF 5
ENDMDL
MODEL 2
REMARK VINA RESULT:      -2.7      1.978      2.739
REMARK  Name = *****
REMARK                            x       y       z     vdW  Elec       q    Type
REMARK                         _______ _______ _______ _____ _____    ______ ____
ROOT
ATOM      1  C   LIG    1       27.670 -19.747   6.202  0.00  0.00    +0.218 C 
ATOM      2  N   LIG    1       27.670 -19.053   5.120  0.00  0.00    -0.159 NA
ATOM      3  C   LIG    1       26.591 -19.149   4.291  0.00  0.00    +0.354 C 
ATOM      4  O   LIG    1       26.328 -18.255   3.491  0.00  0.00    -0.244 OA
ATOM      5  N   LIG    1       25.790 -20.261   4.412  0.00  0.00    -0.256 N 
ATOM      6  C   LIG    1       25.759 -20.790   5.659  0.00  0.00    +0.209 C 
ATOM      7  N   LIG    1       26.642 -20.551   6.562  0.00  0.00    -0.205 NA
ENDROOT
BRANCH   5   8
ATOM      8  C1* LIG    1       24.665 -20.407   3.500  0.00  0.00    +0.228 C 
ATOM      9  O4* LIG    1       23.861 -19.206   3.538  0.00  0.00    -0.348 OA
ATOM     10  C4* LIG    1       22.614 -19.499   4.210  0.00  0.00    +0.175 C 
ATOM     11  C3* LIG    1       22.767 -20.880   4.827  0.00  0.00    +0.150 C 
ATOM     12  C2* LIG    1       23.703 -21.543   3.846  0.00  0.00    +0.088 C 
BRANCH  11  13
ATOM     13  O3* LIG    1       21.539 -21.572   4.964  0.00  0.00    -0.389 OA
ATOM     14  H3* LIG    1       20.803 -20.962   4.776  0.00  0.00    +0.210 HD
ENDBRANCH  11  13
BRANCH  10  15
ATOM     15  C5* LIG    1       22.329 -18.412   5.242  0.00  0.00    +0.190 C 
BRANCH  15  16
ATOM     16  O5* LIG    1       22.307 -17.135   4.603  0.00  0.00    -0.392 OA
ATOM     17  H5* LIG    1       22.499 -17.297   3.660  0.00  0.00    +0.209 HD
ENDBRANCH  15  16
ENDBRANCH  10  15
ENDBRANCH   5   8
BRANCH   1  18
ATOM     18  N   LIG    1       28.717 -19.672   7.055  0.00  0.00    -0.327 N 
ATOM     19  H   LIG    1       29.592 -19.958   6.637  0.00  0.00    +0.145 HD
ATOM     20  H   LIG    1       28.754 -18.800   7.566  0.00  0.00    +0.145 HD
ENDBRANCH   1  18
TORSDOF 5
ENDMDL
MODEL 3
REMARK VINA RESULT:      -2.7      1.798      2.058
REMARK  Name = *****
REMARK                            x       y       z     vdW  Elec       q    Type
REMARK                         _______ _______ _______ _____ _____    ______ ____
ROOT
ATOM      1  C   LIG    1       28.610 -18.553   5.520  0.00  0.00    +0.218 C 
ATOM      2  N   LIG    1       28.786 -19.424   6.449  0.00  0.00    -0.159 NA
ATOM      3  C   LIG    1       27.946 -20.497   6.495  0.00  0.00    +0.354 C 
ATOM      4  O   LIG    1       28.280 -21.538   7.056  0.00  0.00    -0.244 OA
ATOM      5  N   LIG    1       26.731 -20.384   5.859  0.00  0.00    -0.256 N 
ATOM      6  C   LIG    1       26.739 -19.552   4.790  0.00  0.00    +0.209 C 
ATOM      7  N   LIG    1       27.643 -18.662   4.580  0.00  0.00    -0.205 NA
ENDROOT
BRANCH   5   8
ATOM      8  C1* LIG    1       25.798 -21.499   5.943  0.00  0.00    +0.228 C 
ATOM      9  O4* LIG    1       25.031 -21.572   4.719  0.00  0.00    -0.348 OA
ATOM     10  C4* LIG    1       23.672 -21.161   4.993  0.00  0.00    +0.175 C 
ATOM     11  C3* LIG    1       23.670 -20.576   6.396  0.00  0.00    +0.150 C 
ATOM     12  C2* LIG    1       24.760 -21.383   7.058  0.00  0.00    +0.088 C 
BRANCH  11  13
ATOM     13  O3* LIG    1       22.422 -20.700   7.053  0.00  0.00    -0.389 OA
ATOM     14  H3* LIG    1       21.757 -20.162   6.587  0.00  0.00    +0.210 HD
ENDBRANCH  11  13
BRANCH  10  15
ATOM     15  C5* LIG    1       23.222 -20.164   3.929  0.00  0.00    +0.190 C 
BRANCH  15  16
ATOM     16  O5* LIG    1       22.612 -19.035   4.556  0.00  0.00    -0.392 OA
ATOM     17  H5* LIG    1       23.271 -18.677   5.178  0.00  0.00    +0.209 HD
ENDBRANCH  15  16
ENDBRANCH  10  15
ENDBRANCH   5   8
BRANCH   1  18
ATOM     18  N   LIG    1       29.430 -17.479   5.435  0.00  0.00    -0.327 N 
ATOM     19  H   LIG    1       29.798 -17.332   4.505  0.00  0.00    +0.145 HD
ATOM     20  H   LIG    1       29.053 -16.653   5.879  0.00  0.00    +0.145 HD
ENDBRANCH   1  18
TORSDOF 5
ENDMDL
MODEL 4
REMARK VINA RESULT:      -2.3      2.307      2.667
REMARK  Name = *****
REMARK                            x       y       z     vdW  Elec       q    Type
REMARK                         _______ _______ _______ _____ _____    ______ ____
ROOT
ATOM      1  C   LIG    1       23.866 -15.641   4.069  0.00  0.00    +0.218 C 
ATOM      2  N   LIG    1       25.089 -15.869   3.745  0.00  0.00    -0.159 NA
ATOM      3  C   LIG    1       25.454 -17.151   3.459  0.00  0.00    +0.354 C 
ATOM      4  O   LIG    1       26.443 -17.388   2.770  0.00  0.00    -0.244 OA
ATOM      5  N   LIG    1       24.654 -18.164   3.937  0.00  0.00    -0.256 N 
ATOM      6  C   LIG    1       23.349 -17.825   4.072  0.00  0.00    +0.209 C 
ATOM      7  N   LIG    1       22.924 -16.612   4.121  0.00  0.00    -0.205 NA
ENDROOT
BRANCH   5   8
ATOM      8  C1* LIG    1       25.056 -19.541   3.689  0.00  0.00    +0.228 C 
ATOM      9  O4* LIG    1       23.895 -20.399   3.776  0.00  0.00    -0.348 OA
ATOM     10  C4* LIG    1       23.990 -21.194   4.980  0.00  0.00    +0.175 C 
ATOM     11  C3* LIG    1       25.140 -20.618   5.791  0.00  0.00    +0.150 C 
ATOM     12  C2* LIG    1       26.050 -20.110   4.699  0.00  0.00    +0.088 C 
BRANCH  11  13
ATOM     13  O3* LIG    1       25.769 -21.572   6.628  0.00  0.00    -0.389 OA
ATOM     14  H3* LIG    1       25.151 -21.840   7.332  0.00  0.00    +0.210 HD
ENDBRANCH  11  13
BRANCH  10  15
ATOM     15  C5* LIG    1       22.656 -21.150   5.720  0.00  0.00    +0.190 C 
BRANCH  15  16
ATOM     16  O5* LIG    1       21.603 -21.531   4.835  0.00  0.00    -0.392 OA
ATOM     17  H5* LIG    1       21.422 -22.473   5.014  0.00  0.00    +0.209 HD
ENDBRANCH  15  16
ENDBRANCH  10  15
ENDBRANCH   5   8
BRANCH   1  18
ATOM     18  N   LIG    1       23.463 -14.381   4.350  0.00  0.00    -0.327 N 
ATOM     19  H   LIG    1       23.973 -13.676   3.835  0.00  0.00    +0.145 HD
ATOM     20  H   LIG    1       22.458 -14.271   4.340  0.00  0.00    +0.145 HD
ENDBRANCH   1  18
TORSDOF 5
ENDMDL
MODEL 5
REMARK VINA RESULT:      -2.2      3.648      6.033
REMARK  Name = *****
REMARK                            x       y       z     vdW  Elec       q    Type
REMARK                         _______ _______ _______ _____ _____    ______ ____
ROOT
ATOM      1  C   LIG    1       25.177 -18.909   3.689  0.00  0.00    +0.218 C 
ATOM      2  N   LIG    1       24.064 -18.494   4.180  0.00  0.00    -0.159 NA
ATOM      3  C   LIG    1       23.753 -17.172   4.048  0.00  0.00    +0.354 C 
ATOM      4  O   LIG    1       22.588 -16.788   4.109  0.00  0.00    -0.244 OA
ATOM      5  N   LIG    1       24.785 -16.295   3.807  0.00  0.00    -0.256 N 
ATOM      6  C   LIG    1       25.828 -16.835   3.132  0.00  0.00    +0.209 C 
ATOM      7  N   LIG    1       26.042 -18.099   3.035  0.00  0.00    -0.205 NA
ENDROOT
BRANCH   5   8
ATOM      8  C1* LIG    1       24.481 -14.874   3.718  0.00  0.00    +0.228 C 
ATOM      9  O4* LIG    1       25.334 -14.266   2.721  0.00  0.00    -0.348 OA
ATOM     10  C4* LIG    1       26.307 -13.429   3.386  0.00  0.00    +0.175 C 
ATOM     11  C3* LIG    1       26.199 -13.733   4.872  0.00  0.00    +0.150 C 
ATOM     12  C2* LIG    1       24.736 -14.082   4.999  0.00  0.00    +0.088 C 
BRANCH  11  13
ATOM     13  O3* LIG    1       26.575 -12.644   5.696  0.00  0.00    -0.389 OA
ATOM     14  H3* LIG    1       27.289 -12.926   6.296  0.00  0.00    +0.210 HD
ENDBRANCH  11  13
BRANCH  10  15
ATOM     15  C5* LIG    1       27.694 -13.717   2.817  0.00  0.00    +0.190 C 
BRANCH  15  16
ATOM     16  O5* LIG    1       28.669 -12.934   3.506  0.00  0.00    -0.392 OA
ATOM     17  H5* LIG    1       29.096 -13.530   4.148  0.00  0.00    +0.209 HD
ENDBRANCH  15  16
ENDBRANCH  10  15
ENDBRANCH   5   8
BRANCH   1  18
ATOM     18  N   LIG    1       25.516 -20.215   3.791  0.00  0.00    -0.327 N 
ATOM     19  H   LIG    1       25.047 -20.690   4.549  0.00  0.00    +0.145 HD
ATOM     20  H   LIG    1       25.497 -20.703   2.905  0.00  0.00    +0.145 HD
ENDBRANCH   1  18
TORSDOF 5
ENDMDL
MODEL 6
REMARK VINA RESULT:      -2.2      3.298      5.604
REMARK  Name = *****
REMARK                            x       y       z     vdW  Elec       q    Type
REMARK                         _______ _______ _______ _____ _____    ______ ____
ROOT
ATOM      1  C   LIG    1       27.605 -19.149   4.981  0.00  0.00    +0.218 C 
ATOM      2  N   LIG    1       26.421 -19.279   4.497  0.00  0.00    -0.159 NA
ATOM      3  C   LIG    1       25.931 -18.278   3.712  0.00  0.00    +0.354 C 
ATOM      4  O   LIG    1       25.028 -18.491   2.906  0.00  0.00    -0.244 OA
ATOM      5  N   LIG    1       26.509 -17.035   3.827  0.00  0.00    -0.256 N 
ATOM      6  C   LIG    1       27.815 -17.061   4.187  0.00  0.00    +0.209 C 
ATOM      7  N   LIG    1       28.389 -18.074   4.732  0.00  0.00    -0.205 NA
ENDROOT
BRANCH   5   8
ATOM      8  C1* LIG    1       25.964 -15.941   3.036  0.00  0.00    +0.228 C 
ATOM      9  O4* LIG    1       27.030 -15.028   2.687  0.00  0.00    -0.348 OA
ATOM     10  C4* LIG    1       26.865 -13.805   3.441  0.00  0.00    +0.175 C 
ATOM     11  C3* LIG    1       25.789 -14.077   4.479  0.00  0.00    +0.150 C 
ATOM     12  C2* LIG    1       24.926 -15.084   3.759  0.00  0.00    +0.088 C 
BRANCH  11  13
ATOM     13  O3* LIG    1       25.072 -12.917   4.862  0.00  0.00    -0.389 OA
ATOM     14  H3* LIG    1       25.267 -12.709   5.793  0.00  0.00    +0.210 HD
ENDBRANCH  11  13
BRANCH  10  15
ATOM     15  C5* LIG    1       28.202 -13.407   4.057  0.00  0.00    +0.190 C 
BRANCH  15  16
ATOM     16  O5* LIG    1       27.980 -12.746   5.303  0.00  0.00    -0.392 OA
ATOM     17  H5* LIG    1       28.407 -13.297   5.986  0.00  0.00    +0.209 HD
ENDBRANCH  15  16
ENDBRANCH  10  15
ENDBRANCH   5   8
BRANCH   1  18
ATOM     18  N   LIG    1       28.130 -20.125   5.757  0.00  0.00    -0.327 N 
ATOM     19  H   LIG    1       27.518 -20.407   6.511  0.00  0.00    +0.145 HD
ATOM     20  H   LIG    1       28.530 -20.886   5.225  0.00  0.00    +0.145 HD
ENDBRANCH   1  18
TORSDOF 5
ENDMDL
MODEL 7
REMARK VINA RESULT:      -2.0      4.068      6.092
REMARK  Name = *****
REMARK                            x       y       z     vdW  Elec       q    Type
REMARK                         _______ _______ _______ _____ _____    ______ ____
ROOT
ATOM      1  C   LIG    1       24.145 -18.181   3.696  0.00  0.00    +0.218 C 
ATOM      2  N   LIG    1       25.394 -18.324   3.427  0.00  0.00    -0.159 NA
ATOM      3  C   LIG    1       26.200 -17.226   3.501  0.00  0.00    +0.354 C 
ATOM      4  O   LIG    1       27.412 -17.342   3.664  0.00  0.00    -0.244 OA
ATOM      5  N   LIG    1       25.603 -15.989   3.425  0.00  0.00    -0.256 N 
ATOM      6  C   LIG    1       24.334 -15.954   3.900  0.00  0.00    +0.209 C 
ATOM      7  N   LIG    1       23.601 -16.997   4.065  0.00  0.00    -0.205 NA
ENDROOT
BRANCH   5   8
ATOM      8  C1* LIG    1       26.451 -14.807   3.447  0.00  0.00    +0.228 C 
ATOM      9  O4* LIG    1       26.074 -13.970   4.565  0.00  0.00    -0.348 OA
ATOM     10  C4* LIG    1       25.417 -12.785   4.061  0.00  0.00    +0.175 C 
ATOM     11  C3* LIG    1       25.162 -13.024   2.582  0.00  0.00    +0.150 C 
ATOM     12  C2* LIG    1       26.330 -13.908   2.217  0.00  0.00    +0.088 C 
BRANCH  11  13
ATOM     13  O3* LIG    1       25.120 -11.831   1.820  0.00  0.00    -0.389 OA
ATOM     14  H3* LIG    1       24.410 -11.898   1.157  0.00  0.00    +0.210 HD
ENDBRANCH  11  13
BRANCH  10  15
ATOM     15  C5* LIG    1       24.138 -12.541   4.856  0.00  0.00    +0.190 C 
BRANCH  15  16
ATOM     16  O5* LIG    1       23.419 -11.447   4.287  0.00  0.00    -0.392 OA
ATOM     17  H5* LIG    1       23.118 -10.898   5.035  0.00  0.00    +0.209 HD
ENDBRANCH  15  16
ENDBRANCH  10  15
ENDBRANCH   5   8
BRANCH   1  18
ATOM     18  N   LIG    1       23.314 -19.247   3.644  0.00  0.00    -0.327 N 
ATOM     19  H   LIG    1       22.773 -19.289   2.791  0.00  0.00    +0.145 HD
ATOM     20  H   LIG    1       23.762 -20.115   3.907  0.00  0.00    +0.145 HD
ENDBRANCH   1  18
TORSDOF 5
ENDMDL
MODEL 8
REMARK VINA RESULT:      -2.0      2.453      3.015
REMARK  Name = *****
REMARK                            x       y       z     vdW  Elec       q    Type
REMARK                         _______ _______ _______ _____ _____    ______ ____
ROOT
ATOM      1  C   LIG    1       24.435 -14.451   4.427  0.00  0.00    +0.218 C 
ATOM      2  N   LIG    1       25.584 -14.872   4.034  0.00  0.00    -0.159 NA
ATOM      3  C   LIG    1       25.665 -16.123   3.498  0.00  0.00    +0.354 C 
ATOM      4  O   LIG    1       26.589 -16.432   2.750  0.00  0.00    -0.244 OA
ATOM      5  N   LIG    1       24.656 -17.011   3.794  0.00  0.00    -0.256 N 
ATOM      6  C   LIG    1       23.455 -16.428   4.026  0.00  0.00    +0.209 C 
ATOM      7  N   LIG    1       23.303 -15.185   4.317  0.00  0.00    -0.205 NA
ENDROOT
BRANCH   5   8
ATOM      8  C1* LIG    1       24.752 -18.368   3.276  0.00  0.00    +0.228 C 
ATOM      9  O4* LIG    1       23.532 -19.082   3.584  0.00  0.00    -0.348 OA
ATOM     10  C4* LIG    1       23.811 -20.066   4.606  0.00  0.00    +0.175 C 
ATOM     11  C3* LIG    1       25.210 -19.772   5.122  0.00  0.00    +0.150 C 
ATOM     12  C2* LIG    1       25.872 -19.209   3.887  0.00  0.00    +0.088 C 
BRANCH  11  13
ATOM     13  O3* LIG    1       25.875 -20.917   5.624  0.00  0.00    -0.389 OA
ATOM     14  H3* LIG    1       26.187 -21.461   4.878  0.00  0.00    +0.210 HD
ENDBRANCH  11  13
BRANCH  10  15
ATOM     15  C5* LIG    1       22.744 -19.981   5.693  0.00  0.00    +0.190 C 
BRANCH  15  16
ATOM     16  O5* LIG    1       23.109 -20.816   6.791  0.00  0.00    -0.392 OA
ATOM     17  H5* LIG    1       22.408 -20.711   7.461  0.00  0.00    +0.209 HD
ENDBRANCH  15  16
ENDBRANCH  10  15
ENDBRANCH   5   8
BRANCH   1  18
ATOM     18  N   LIG    1       24.312 -13.211   4.954  0.00  0.00    -0.327 N 
ATOM     19  H   LIG    1       23.385 -13.020   5.310  0.00  0.00    +0.145 HD
ATOM     20  H   LIG    1       25.068 -12.966   5.580  0.00  0.00    +0.145 HD
ENDBRANCH   1  18
TORSDOF 5
ENDMDL
MODEL 9
REMARK VINA RESULT:      -1.6      3.378      5.498
REMARK  Name = *****
REMARK                            x       y       z     vdW  Elec       q    Type
REMARK                         _______ _______ _______ _____ _____    ______ ____
ROOT
ATOM      1  C   LIG    1       25.997 -18.788   3.708  0.00  0.00    +0.218 C 
ATOM      2  N   LIG    1       27.196 -18.510   4.077  0.00  0.00    -0.159 NA
ATOM      3  C   LIG    1       27.551 -17.197   4.183  0.00  0.00    +0.354 C 
ATOM      4  O   LIG    1       28.491 -16.852   4.894  0.00  0.00    -0.244 OA
ATOM      5  N   LIG    1       26.795 -16.274   3.497  0.00  0.00    -0.256 N 
ATOM      6  C   LIG    1       25.500 -16.634   3.326  0.00  0.00    +0.209 C 
ATOM      7  N   LIG    1       25.069 -17.840   3.438  0.00  0.00    -0.205 NA
ENDROOT
BRANCH   5   8
ATOM      8  C1* LIG    1       27.190 -14.874   3.554  0.00  0.00    +0.228 C 
ATOM      9  O4* LIG    1       26.485 -14.224   4.636  0.00  0.00    -0.348 OA
ATOM     10  C4* LIG    1       25.497 -13.327   4.079  0.00  0.00    +0.175 C 
ATOM     11  C3* LIG    1       25.427 -13.628   2.591  0.00  0.00    +0.150 C 
ATOM     12  C2* LIG    1       26.845 -14.060   2.307  0.00  0.00    +0.088 C 
BRANCH  11  13
ATOM     13  O3* LIG    1       25.030 -12.514   1.812  0.00  0.00    -0.389 OA
ATOM     14  H3* LIG    1       24.145 -12.679   1.441  0.00  0.00    +0.210 HD
ENDBRANCH  11  13
BRANCH  10  15
ATOM     15  C5* LIG    1       24.165 -13.538   4.794  0.00  0.00    +0.190 C 
BRANCH  15  16
ATOM     16  O5* LIG    1       23.419 -14.559   4.130  0.00  0.00    -0.392 OA
ATOM     17  H5* LIG    1       22.487 -14.425   4.381  0.00  0.00    +0.209 HD
ENDBRANCH  15  16
ENDBRANCH  10  15
ENDBRANCH   5   8
BRANCH   1  18
ATOM     18  N   LIG    1       25.604 -20.078   3.600  0.00  0.00    -0.327 N 
ATOM     19  H   LIG    1       26.219 -20.723   4.079  0.00  0.00    +0.145 HD
ATOM     20  H   LIG    1       24.619 -20.213   3.786  0.00  0.00    +0.145 HD
ENDBRANCH   1  18
TORSDOF 5
ENDMDL
