MODEL 1
REMARK VINA RESULT:      -4.7      0.000      0.000
REMARK  Name = *****
REMARK                            x       y       z     vdW  Elec       q    Type
REMARK                         _______ _______ _______ _____ _____    ______ ____
ROOT
ATOM      1  C   LIG    1       25.910 -20.883   5.504  0.00  0.00    +0.314 C 
ATOM      2  C   LIG    1       24.445 -21.250   5.655  0.00  0.00    +0.199 C 
ATOM      3  C   LIG    1       23.887 -21.024   4.259  0.00  0.00    +0.182 C 
ATOM      4  C   LIG    1       22.500 -20.488   4.544  0.00  0.00    +0.171 C 
ATOM      5  C   LIG    1       22.730 -19.664   5.801  0.00  0.00    +0.194 C 
ATOM      6  O   LIG    1       24.720 -20.036   3.623  0.00  0.00    -0.367 OA
ATOM      7  O   LIG    1       23.755 -20.351   6.549  0.00  0.00    -0.367 OA
ATOM      8  C   LIG    1       25.822 -19.746   4.496  0.00  0.00    +0.215 C 
ENDROOT
BRANCH   4   9
ATOM      9  O   LIG    1       21.603 -21.572   4.812  0.00  0.00    -0.387 OA
ATOM     10  H   LIG    1       22.032 -22.402   4.531  0.00  0.00    +0.210 HD
ENDBRANCH   4   9
BRANCH   1  11
ATOM     11  O   LIG    1       26.550 -20.419   6.682  0.00  0.00    -0.208 OA
BRANCH  11  13
ATOM     12  O   LIG    1       28.566 -19.500   6.235  0.00  0.00    +0.093 OA
ATOM     13  N   LIG    1       27.959 -20.498   6.630  0.00  0.00    +0.285 N 
ATOM     14  O   LIG    1       28.393 -21.572   7.037  0.00  0.00    -0.534 OA
ENDBRANCH  11  13
ENDBRANCH   1  11
TORSDOF 3
ENDMDL
MODEL 2
REMARK VINA RESULT:      -4.2      6.989      8.573
REMARK  Name = *****
REMARK                            x       y       z     vdW  Elec       q    Type
REMARK                         _______ _______ _______ _____ _____    ______ ____
ROOT
ATOM      1  C   LIG    1       24.838 -13.833   3.269  0.00  0.00    +0.314 C 
ATOM      2  C   LIG    1       26.212 -13.198   3.398  0.00  0.00    +0.199 C 
ATOM      3  C   LIG    1       27.143 -14.282   2.880  0.00  0.00    +0.182 C 
ATOM      4  C   LIG    1       28.356 -14.125   3.774  0.00  0.00    +0.171 C 
ATOM      5  C   LIG    1       27.724 -13.735   5.101  0.00  0.00    +0.194 C 
ATOM      6  O   LIG    1       26.484 -15.546   3.093  0.00  0.00    -0.367 OA
ATOM      7  O   LIG    1       26.561 -12.946   4.776  0.00  0.00    -0.367 OA
ATOM      8  C   LIG    1       25.161 -15.287   3.585  0.00  0.00    +0.215 C 
ENDROOT
BRANCH   4   9
ATOM      9  O   LIG    1       29.188 -13.067   3.286  0.00  0.00    -0.387 OA
ATOM     10  H   LIG    1       30.120 -13.324   3.418  0.00  0.00    +0.210 HD
ENDBRANCH   4   9
BRANCH   1  11
ATOM     11  O   LIG    1       23.858 -13.360   4.179  0.00  0.00    -0.208 OA
BRANCH  11  13
ATOM     12  O   LIG    1       23.532 -11.447   3.020  0.00  0.00    +0.093 OA
ATOM     13  N   LIG    1       23.670 -11.961   4.132  0.00  0.00    +0.285 N 
ATOM     14  O   LIG    1       23.631 -11.447   5.246  0.00  0.00    -0.534 OA
ENDBRANCH  11  13
ENDBRANCH   1  11
TORSDOF 3
ENDMDL
MODEL 3
REMARK VINA RESULT:      -4.2      1.310      2.315
REMARK  Name = *****
REMARK                            x       y       z     vdW  Elec       q    Type
REMARK                         _______ _______ _______ _____ _____    ______ ____
ROOT
ATOM      1  C   LIG    1       26.530 -20.219   6.227  0.00  0.00    +0.314 C 
ATOM      2  C   LIG    1       25.285 -19.939   5.405  0.00  0.00    +0.199 C 
ATOM      3  C   LIG    1       24.170 -20.523   6.257  0.00  0.00    +0.182 C 
ATOM      4  C   LIG    1       23.221 -21.081   5.217  0.00  0.00    +0.171 C 
ATOM      5  C   LIG    1       24.180 -21.572   4.143  0.00  0.00    +0.194 C 
ATOM      6  O   LIG    1       24.752 -21.567   7.062  0.00  0.00    -0.367 OA
ATOM      7  O   LIG    1       25.295 -20.656   4.151  0.00  0.00    -0.367 OA
ATOM      8  C   LIG    1       26.172 -21.562   6.847  0.00  0.00    +0.215 C 
ENDROOT
BRANCH   4   9
ATOM      9  O   LIG    1       22.388 -20.035   4.704  0.00  0.00    -0.387 OA
ATOM     10  H   LIG    1       21.509 -20.113   5.120  0.00  0.00    +0.210 HD
ENDBRANCH   4   9
BRANCH   1  11
ATOM     11  O   LIG    1       27.735 -20.349   5.488  0.00  0.00    -0.208 OA
BRANCH  11  13
ATOM     12  O   LIG    1       29.459 -20.514   6.941  0.00  0.00    +0.093 OA
ATOM     13  N   LIG    1       28.860 -19.795   6.139  0.00  0.00    +0.285 N 
ATOM     14  O   LIG    1       29.110 -18.651   5.768  0.00  0.00    -0.534 OA
ENDBRANCH  11  13
ENDBRANCH   1  11
TORSDOF 3
ENDMDL
MODEL 4
REMARK VINA RESULT:      -3.6      6.774      7.751
REMARK  Name = *****
REMARK                            x       y       z     vdW  Elec       q    Type
REMARK                         _______ _______ _______ _____ _____    ______ ____
ROOT
ATOM      1  C   LIG    1       26.644 -14.309   4.373  0.00  0.00    +0.314 C 
ATOM      2  C   LIG    1       25.847 -13.088   3.950  0.00  0.00    +0.199 C 
ATOM      3  C   LIG    1       24.410 -13.582   3.990  0.00  0.00    +0.182 C 
ATOM      4  C   LIG    1       23.783 -12.859   2.817  0.00  0.00    +0.171 C 
ATOM      5  C   LIG    1       24.926 -12.829   1.814  0.00  0.00    +0.194 C 
ATOM      6  O   LIG    1       24.446 -15.008   3.780  0.00  0.00    -0.367 OA
ATOM      7  O   LIG    1       26.136 -12.702   2.589  0.00  0.00    -0.367 OA
ATOM      8  C   LIG    1       25.819 -15.424   3.748  0.00  0.00    +0.215 C 
ENDROOT
BRANCH   4   9
ATOM      9  O   LIG    1       23.418 -11.529   3.201  0.00  0.00    -0.387 OA
ATOM     10  H   LIG    1       23.483 -10.954   2.415  0.00  0.00    +0.210 HD
ENDBRANCH   4   9
BRANCH   1  11
ATOM     11  O   LIG    1       27.973 -14.373   3.880  0.00  0.00    -0.208 OA
BRANCH  11  13
ATOM     12  O   LIG    1       28.523 -12.569   5.126  0.00  0.00    +0.093 OA
ATOM     13  N   LIG    1       28.706 -13.181   4.071  0.00  0.00    +0.285 N 
ATOM     14  O   LIG    1       29.475 -12.940   3.145  0.00  0.00    -0.534 OA
ENDBRANCH  11  13
ENDBRANCH   1  11
TORSDOF 3
ENDMDL
MODEL 5
REMARK VINA RESULT:      -3.5      2.668      3.142
REMARK  Name = *****
REMARK                            x       y       z     vdW  Elec       q    Type
REMARK                         _______ _______ _______ _____ _____    ______ ____
ROOT
ATOM      1  C   LIG    1       25.210 -19.385   3.783  0.00  0.00    +0.314 C 
ATOM      2  C   LIG    1       24.487 -19.762   5.064  0.00  0.00    +0.199 C 
ATOM      3  C   LIG    1       24.314 -21.266   4.932  0.00  0.00    +0.182 C 
ATOM      4  C   LIG    1       22.959 -21.496   5.568  0.00  0.00    +0.171 C 
ATOM      5  C   LIG    1       22.199 -20.245   5.157  0.00  0.00    +0.194 C 
ATOM      6  O   LIG    1       24.301 -21.572   3.524  0.00  0.00    -0.367 OA
ATOM      7  O   LIG    1       23.169 -19.177   5.130  0.00  0.00    -0.367 OA
ATOM      8  C   LIG    1       24.587 -20.366   2.799  0.00  0.00    +0.215 C 
ENDROOT
BRANCH   4   9
ATOM      9  O   LIG    1       23.091 -21.557   6.992  0.00  0.00    -0.387 OA
ATOM     10  H   LIG    1       22.338 -22.065   7.349  0.00  0.00    +0.210 HD
ENDBRANCH   4   9
BRANCH   1  11
ATOM     11  O   LIG    1       24.993 -18.059   3.325  0.00  0.00    -0.208 OA
BRANCH  11  13
ATOM     12  O   LIG    1       26.037 -16.083   2.987  0.00  0.00    +0.093 OA
ATOM     13  N   LIG    1       26.148 -17.247   3.378  0.00  0.00    +0.285 N 
ATOM     14  O   LIG    1       27.117 -17.827   3.859  0.00  0.00    -0.534 OA
ENDBRANCH  11  13
ENDBRANCH   1  11
TORSDOF 3
ENDMDL
MODEL 6
REMARK VINA RESULT:      -3.4      5.904      6.841
REMARK  Name = *****
REMARK                            x       y       z     vdW  Elec       q    Type
REMARK                         _______ _______ _______ _____ _____    ______ ____
ROOT
ATOM      1  C   LIG    1       27.303 -14.913   3.289  0.00  0.00    +0.314 C 
ATOM      2  C   LIG    1       25.849 -14.521   3.090  0.00  0.00    +0.199 C 
ATOM      3  C   LIG    1       25.947 -13.144   2.454  0.00  0.00    +0.182 C 
ATOM      4  C   LIG    1       24.766 -12.418   3.063  0.00  0.00    +0.171 C 
ATOM      5  C   LIG    1       24.726 -13.000   4.468  0.00  0.00    +0.194 C 
ATOM      6  O   LIG    1       27.200 -12.569   2.874  0.00  0.00    -0.367 OA
ATOM      7  O   LIG    1       25.156 -14.371   4.347  0.00  0.00    -0.367 OA
ATOM      8  C   LIG    1       27.924 -13.562   3.615  0.00  0.00    +0.215 C 
ENDROOT
BRANCH   4   9
ATOM      9  O   LIG    1       23.569 -12.749   2.350  0.00  0.00    -0.387 OA
ATOM     10  H   LIG    1       22.916 -12.039   2.501  0.00  0.00    +0.210 HD
ENDBRANCH   4   9
BRANCH   1  11
ATOM     11  O   LIG    1       27.553 -15.816   4.354  0.00  0.00    -0.208 OA
BRANCH  11  13
ATOM     12  O   LIG    1       26.420 -17.425   3.241  0.00  0.00    +0.093 OA
ATOM     13  N   LIG    1       27.352 -17.171   4.006  0.00  0.00    +0.285 N 
ATOM     14  O   LIG    1       28.189 -17.919   4.502  0.00  0.00    -0.534 OA
ENDBRANCH  11  13
ENDBRANCH   1  11
TORSDOF 3
ENDMDL
MODEL 7
REMARK VINA RESULT:      -3.2      6.014      7.714
REMARK  Name = *****
REMARK                            x       y       z     vdW  Elec       q    Type
REMARK                         _______ _______ _______ _____ _____    ______ ____
ROOT
ATOM      1  C   LIG    1       24.120 -14.389   4.558  0.00  0.00    +0.314 C 
ATOM      2  C   LIG    1       25.579 -14.689   4.263  0.00  0.00    +0.199 C 
ATOM      3  C   LIG    1       26.251 -13.336   4.431  0.00  0.00    +0.182 C 
ATOM      4  C   LIG    1       27.316 -13.363   3.355  0.00  0.00    +0.171 C 
ATOM      5  C   LIG    1       26.624 -14.136   2.243  0.00  0.00    +0.194 C 
ATOM      6  O   LIG    1       25.253 -12.330   4.168  0.00  0.00    -0.367 OA
ATOM      7  O   LIG    1       25.777 -15.105   2.894  0.00  0.00    -0.367 OA
ATOM      8  C   LIG    1       23.990 -12.987   3.980  0.00  0.00    +0.215 C 
ENDROOT
BRANCH   4   9
ATOM      9  O   LIG    1       28.465 -14.079   3.823  0.00  0.00    -0.387 OA
ATOM     10  H   LIG    1       29.194 -13.934   3.192  0.00  0.00    +0.210 HD
ENDBRANCH   4   9
BRANCH   1  11
ATOM     11  O   LIG    1       23.180 -15.246   3.929  0.00  0.00    -0.208 OA
BRANCH  11  13
ATOM     12  O   LIG    1       22.341 -17.253   4.543  0.00  0.00    +0.093 OA
ATOM     13  N   LIG    1       22.465 -16.062   4.834  0.00  0.00    +0.285 N 
ATOM     14  O   LIG    1       22.091 -15.452   5.832  0.00  0.00    -0.534 OA
ENDBRANCH  11  13
ENDBRANCH   1  11
TORSDOF 3
ENDMDL
MODEL 8
REMARK VINA RESULT:      -3.0      5.803      7.515
REMARK  Name = *****
REMARK                            x       y       z     vdW  Elec       q    Type
REMARK                         _______ _______ _______ _____ _____    ______ ____
ROOT
ATOM      1  C   LIG    1       25.938 -15.124   3.780  0.00  0.00    +0.314 C 
ATOM      2  C   LIG    1       27.115 -14.517   4.521  0.00  0.00    +0.199 C 
ATOM      3  C   LIG    1       26.646 -13.101   4.814  0.00  0.00    +0.182 C 
ATOM      4  C   LIG    1       27.921 -12.297   4.665  0.00  0.00    +0.171 C 
ATOM      5  C   LIG    1       28.628 -13.028   3.534  0.00  0.00    +0.194 C 
ATOM      6  O   LIG    1       25.678 -12.757   3.804  0.00  0.00    -0.367 OA
ATOM      7  O   LIG    1       28.287 -14.422   3.683  0.00  0.00    -0.367 OA
ATOM      8  C   LIG    1       25.435 -13.919   2.998  0.00  0.00    +0.215 C 
ENDROOT
BRANCH   4   9
ATOM      9  O   LIG    1       28.691 -12.375   5.870  0.00  0.00    -0.387 OA
ATOM     10  H   LIG    1       28.424 -11.638   6.452  0.00  0.00    +0.210 HD
ENDBRANCH   4   9
BRANCH   1  11
ATOM     11  O   LIG    1       26.257 -16.172   2.878  0.00  0.00    -0.208 OA
BRANCH  11  13
ATOM     12  O   LIG    1       25.054 -18.031   3.334  0.00  0.00    +0.093 OA
ATOM     13  N   LIG    1       26.142 -17.461   3.444  0.00  0.00    +0.285 N 
ATOM     14  O   LIG    1       27.190 -17.856   3.946  0.00  0.00    -0.534 OA
ENDBRANCH  11  13
ENDBRANCH   1  11
TORSDOF 3
ENDMDL
MODEL 9
REMARK VINA RESULT:      -2.7      6.154      7.169
REMARK  Name = *****
REMARK                            x       y       z     vdW  Elec       q    Type
REMARK                         _______ _______ _______ _____ _____    ______ ____
ROOT
ATOM      1  C   LIG    1       26.144 -15.096   2.971  0.00  0.00    +0.314 C 
ATOM      2  C   LIG    1       25.046 -14.129   2.565  0.00  0.00    +0.199 C 
ATOM      3  C   LIG    1       25.800 -12.830   2.329  0.00  0.00    +0.182 C 
ATOM      4  C   LIG    1       24.820 -11.788   2.827  0.00  0.00    +0.171 C 
ATOM      5  C   LIG    1       24.166 -12.503   4.000  0.00  0.00    +0.194 C 
ATOM      6  O   LIG    1       26.989 -12.875   3.140  0.00  0.00    -0.367 OA
ATOM      7  O   LIG    1       24.108 -13.898   3.638  0.00  0.00    -0.367 OA
ATOM      8  C   LIG    1       27.069 -14.172   3.751  0.00  0.00    +0.215 C 
ENDROOT
BRANCH   4   9
ATOM      9  O   LIG    1       23.852 -11.502   1.812  0.00  0.00    -0.387 OA
ATOM     10  H   LIG    1       23.512 -10.600   1.958  0.00  0.00    +0.210 HD
ENDBRANCH   4   9
BRANCH   1  11
ATOM     11  O   LIG    1       25.737 -16.168   3.806  0.00  0.00    -0.208 OA
BRANCH  11  13
ATOM     12  O   LIG    1       25.776 -18.244   2.911  0.00  0.00    +0.093 OA
ATOM     13  N   LIG    1       26.403 -17.383   3.532  0.00  0.00    +0.285 N 
ATOM     14  O   LIG    1       27.564 -17.391   3.931  0.00  0.00    -0.534 OA
ENDBRANCH  11  13
ENDBRANCH   1  11
TORSDOF 3
ENDMDL
