MODEL 1
REMARK VINA RESULT:      -5.2      0.000      0.000
REMARK  Name = *****
REMARK                            x       y       z     vdW  Elec       q    Type
REMARK                         _______ _______ _______ _____ _____    ______ ____
ROOT
ATOM      1  O   LIG    1       27.277 -16.445   3.444  0.00  0.00    -0.489 OA
ENDROOT
BRANCH   1   2
ATOM      2  C   LIG    1       27.508 -17.596   4.160  0.00  0.00    +0.126 A 
ATOM      3  C   LIG    1       26.479 -18.554   4.226  0.00  0.00    +0.016 A 
ATOM      4  C   LIG    1       25.122 -18.361   3.594  0.00  0.00    +0.050 C 
ATOM      5  C   LIG    1       24.479 -19.690   3.222  0.00  0.00    +0.101 C 
ATOM      6  C   LIG    1       24.531 -20.697   4.351  0.00  0.00    +0.217 C 
ATOM      7  N   LIG    1       25.657 -20.656   5.134  0.00  0.00    -0.285 N 
ATOM      8  H   LIG    1       25.745 -21.415   5.796  0.00  0.00    +0.155 HD
ATOM      9  O   LIG    1       23.693 -21.571   4.501  0.00  0.00    -0.276 OA
ATOM     10  C   LIG    1       26.668 -19.699   5.020  0.00  0.00    +0.040 A 
ATOM     11  C   LIG    1       27.848 -19.902   5.728  0.00  0.00    +0.024 A 
ATOM     12  C   LIG    1       28.884 -18.983   5.610  0.00  0.00    +0.005 A 
ATOM     13  C   LIG    1       28.723 -17.848   4.815  0.00  0.00    +0.046 A 
ENDBRANCH   1   2
BRANCH   1  14
ATOM     14  C   LIG    1       27.619 -15.218   4.111  0.00  0.00    +0.261 C 
BRANCH  14  15
ATOM     15  C   LIG    1       27.842 -14.091   3.092  0.00  0.00    +0.166 C 
BRANCH  15  16
ATOM     16  O   LIG    1       29.086 -13.432   3.358  0.00  0.00    -0.387 OA
ATOM     17  H   LIG    1       28.854 -12.587   3.794  0.00  0.00    +0.210 HD
ENDBRANCH  15  16
BRANCH  15  18
ATOM     18  C   LIG    1       26.689 -13.063   3.116  0.00  0.00    +0.116 C 
BRANCH  18  19
ATOM     19  N   LIG    1       25.804 -13.236   4.291  0.00  0.00    -0.309 NA
ATOM     20  H   LIG    1       25.952 -14.170   4.680  0.00  0.00    +0.122 HD
BRANCH  19  22
ATOM     21  C   LIG    1       23.608 -14.402   4.346  0.00  0.00    +0.027 C 
ATOM     22  C   LIG    1       24.358 -13.107   4.001  0.00  0.00    +0.011 C 
ATOM     23  C   LIG    1       23.719 -11.912   4.732  0.00  0.00    +0.027 C 
ATOM     24  C   LIG    1       24.212 -12.863   2.483  0.00  0.00    +0.027 C 
ENDBRANCH  19  22
ENDBRANCH  18  19
ENDBRANCH  15  18
ENDBRANCH  14  15
ENDBRANCH   1  14
TORSDOF 7
ENDMDL
MODEL 2
REMARK VINA RESULT:      -4.9      2.558      4.335
REMARK  Name = *****
REMARK                            x       y       z     vdW  Elec       q    Type
REMARK                         _______ _______ _______ _____ _____    ______ ____
ROOT
ATOM      1  O   LIG    1       23.698 -19.163   3.686  0.00  0.00    -0.489 OA
ENDROOT
BRANCH   1   2
ATOM      2  C   LIG    1       23.856 -19.916   4.826  0.00  0.00    +0.126 A 
ATOM      3  C   LIG    1       25.165 -20.186   5.265  0.00  0.00    +0.016 A 
ATOM      4  C   LIG    1       26.401 -19.735   4.525  0.00  0.00    +0.050 C 
ATOM      5  C   LIG    1       27.584 -19.546   5.464  0.00  0.00    +0.101 C 
ATOM      6  C   LIG    1       27.780 -20.720   6.398  0.00  0.00    +0.217 C 
ATOM      7  N   LIG    1       26.632 -21.336   6.829  0.00  0.00    -0.285 N 
ATOM      8  H   LIG    1       26.765 -22.029   7.554  0.00  0.00    +0.155 HD
ATOM      9  O   LIG    1       28.870 -21.042   6.841  0.00  0.00    -0.276 OA
ATOM     10  C   LIG    1       25.347 -21.021   6.383  0.00  0.00    +0.040 A 
ATOM     11  C   LIG    1       24.262 -21.572   7.058  0.00  0.00    +0.024 A 
ATOM     12  C   LIG    1       22.971 -21.251   6.657  0.00  0.00    +0.005 A 
ATOM     13  C   LIG    1       22.769 -20.412   5.561  0.00  0.00    +0.046 A 
ENDBRANCH   1   2
BRANCH   1  14
ATOM     14  C   LIG    1       22.727 -18.105   3.768  0.00  0.00    +0.261 C 
BRANCH  14  15
ATOM     15  C   LIG    1       23.304 -16.896   4.516  0.00  0.00    +0.166 C 
BRANCH  15  16
ATOM     16  O   LIG    1       22.260 -15.958   4.807  0.00  0.00    -0.387 OA
ATOM     17  H   LIG    1       21.428 -16.473   4.801  0.00  0.00    +0.210 HD
ENDBRANCH  15  16
BRANCH  15  18
ATOM     18  C   LIG    1       24.421 -16.202   3.705  0.00  0.00    +0.116 C 
BRANCH  18  19
ATOM     19  N   LIG    1       24.469 -14.742   3.948  0.00  0.00    -0.309 NA
ATOM     20  H   LIG    1       23.836 -14.278   3.293  0.00  0.00    +0.122 HD
BRANCH  19  22
ATOM     21  C   LIG    1       25.798 -13.107   2.628  0.00  0.00    +0.027 C 
ATOM     22  C   LIG    1       25.805 -14.128   3.774  0.00  0.00    +0.011 C 
ATOM     23  C   LIG    1       26.321 -13.473   5.067  0.00  0.00    +0.027 C 
ATOM     24  C   LIG    1       26.785 -15.260   3.397  0.00  0.00    +0.027 C 
ENDBRANCH  19  22
ENDBRANCH  18  19
ENDBRANCH  15  18
ENDBRANCH  14  15
ENDBRANCH   1  14
TORSDOF 7
ENDMDL
MODEL 3
REMARK VINA RESULT:      -4.8      1.887      6.665
REMARK  Name = *****
REMARK                            x       y       z     vdW  Elec       q    Type
REMARK                         _______ _______ _______ _____ _____    ______ ____
ROOT
ATOM      1  O   LIG    1       25.669 -16.905   2.896  0.00  0.00    -0.489 OA
ENDROOT
BRANCH   1   2
ATOM      2  C   LIG    1       25.262 -15.768   3.554  0.00  0.00    +0.126 A 
ATOM      3  C   LIG    1       26.247 -14.844   3.951  0.00  0.00    +0.016 A 
ATOM      4  C   LIG    1       27.725 -15.059   3.735  0.00  0.00    +0.050 C 
ATOM      5  C   LIG    1       28.476 -13.741   3.615  0.00  0.00    +0.101 C 
ATOM      6  C   LIG    1       28.116 -12.765   4.714  0.00  0.00    +0.217 C 
ATOM      7  N   LIG    1       26.811 -12.794   5.133  0.00  0.00    -0.285 N 
ATOM      8  H   LIG    1       26.548 -12.051   5.768  0.00  0.00    +0.155 HD
ATOM      9  O   LIG    1       28.892 -11.921   5.133  0.00  0.00    -0.276 OA
ATOM     10  C   LIG    1       25.857 -13.716   4.696  0.00  0.00    +0.040 A 
ATOM     11  C   LIG    1       24.526 -13.499   5.036  0.00  0.00    +0.024 A 
ATOM     12  C   LIG    1       23.552 -14.382   4.588  0.00  0.00    +0.005 A 
ATOM     13  C   LIG    1       23.915 -15.499   3.835  0.00  0.00    +0.046 A 
ENDBRANCH   1   2
BRANCH   1  14
ATOM     14  C   LIG    1       26.563 -17.762   3.628  0.00  0.00    +0.261 C 
BRANCH  14  15
ATOM     15  C   LIG    1       25.802 -18.952   4.229  0.00  0.00    +0.166 C 
BRANCH  15  16
ATOM     16  O   LIG    1       26.676 -20.082   4.346  0.00  0.00    -0.387 OA
ATOM     17  H   LIG    1       26.442 -20.514   5.192  0.00  0.00    +0.210 HD
ENDBRANCH  15  16
BRANCH  15  18
ATOM     18  C   LIG    1       24.568 -19.329   3.378  0.00  0.00    +0.116 C 
BRANCH  18  19
ATOM     19  N   LIG    1       23.837 -20.492   3.932  0.00  0.00    -0.309 NA
ATOM     20  H   LIG    1       23.387 -20.994   3.165  0.00  0.00    +0.122 HD
BRANCH  19  22
ATOM     21  C   LIG    1       23.274 -20.350   6.350  0.00  0.00    +0.027 C 
ATOM     22  C   LIG    1       22.780 -20.149   4.911  0.00  0.00    +0.011 C 
ATOM     23  C   LIG    1       22.254 -18.714   4.725  0.00  0.00    +0.027 C 
ATOM     24  C   LIG    1       21.601 -21.116   4.672  0.00  0.00    +0.027 C 
ENDBRANCH  19  22
ENDBRANCH  18  19
ENDBRANCH  15  18
ENDBRANCH  14  15
ENDBRANCH   1  14
TORSDOF 7
ENDMDL
MODEL 4
REMARK VINA RESULT:      -4.7      2.210      6.497
REMARK  Name = *****
REMARK                            x       y       z     vdW  Elec       q    Type
REMARK                         _______ _______ _______ _____ _____    ______ ____
ROOT
ATOM      1  O   LIG    1       25.607 -17.027   3.251  0.00  0.00    -0.489 OA
ENDROOT
BRANCH   1   2
ATOM      2  C   LIG    1       26.207 -15.843   3.612  0.00  0.00    +0.126 A 
ATOM      3  C   LIG    1       25.378 -14.756   3.949  0.00  0.00    +0.016 A 
ATOM      4  C   LIG    1       23.871 -14.810   3.888  0.00  0.00    +0.050 C 
ATOM      5  C   LIG    1       23.231 -13.847   4.878  0.00  0.00    +0.101 C 
ATOM      6  C   LIG    1       23.834 -12.461   4.814  0.00  0.00    +0.217 C 
ATOM      7  N   LIG    1       25.179 -12.408   4.551  0.00  0.00    -0.285 N 
ATOM      8  H   LIG    1       25.598 -11.491   4.643  0.00  0.00    +0.155 HD
ATOM      9  O   LIG    1       23.206 -11.450   5.087  0.00  0.00    -0.276 OA
ATOM     10  C   LIG    1       25.971 -13.515   4.242  0.00  0.00    +0.040 A 
ATOM     11  C   LIG    1       27.352 -13.349   4.212  0.00  0.00    +0.024 A 
ATOM     12  C   LIG    1       28.168 -14.441   3.939  0.00  0.00    +0.005 A 
ATOM     13  C   LIG    1       27.599 -15.685   3.661  0.00  0.00    +0.046 A 
ENDBRANCH   1   2
BRANCH   1  14
ATOM     14  C   LIG    1       26.428 -18.202   3.371  0.00  0.00    +0.261 C 
BRANCH  14  15
ATOM     15  C   LIG    1       25.695 -19.298   4.154  0.00  0.00    +0.166 C 
BRANCH  15  16
ATOM     16  O   LIG    1       26.598 -20.370   4.456  0.00  0.00    -0.387 OA
ATOM     17  H   LIG    1       26.252 -20.790   5.270  0.00  0.00    +0.210 HD
ENDBRANCH  15  16
BRANCH  15  18
ATOM     18  C   LIG    1       24.478 -19.843   3.373  0.00  0.00    +0.116 C 
BRANCH  18  19
ATOM     19  N   LIG    1       23.788 -20.935   4.097  0.00  0.00    -0.309 NA
ATOM     20  H   LIG    1       23.328 -21.542   3.415  0.00  0.00    +0.122 HD
BRANCH  19  22
ATOM     21  C   LIG    1       23.221 -20.658   6.502  0.00  0.00    +0.027 C 
ATOM     22  C   LIG    1       22.749 -20.485   5.052  0.00  0.00    +0.011 C 
ATOM     23  C   LIG    1       22.318 -19.028   4.803  0.00  0.00    +0.027 C 
ATOM     24  C   LIG    1       21.511 -21.384   4.843  0.00  0.00    +0.027 C 
ENDBRANCH  19  22
ENDBRANCH  18  19
ENDBRANCH  15  18
ENDBRANCH  14  15
ENDBRANCH   1  14
TORSDOF 7
ENDMDL
MODEL 5
REMARK VINA RESULT:      -3.7      2.342      3.530
REMARK  Name = *****
REMARK                            x       y       z     vdW  Elec       q    Type
REMARK                         _______ _______ _______ _____ _____    ______ ____
ROOT
ATOM      1  O   LIG    1       23.529 -15.652   3.835  0.00  0.00    -0.489 OA
ENDROOT
BRANCH   1   2
ATOM      2  C   LIG    1       24.173 -16.864   3.756  0.00  0.00    +0.126 A 
ATOM      3  C   LIG    1       23.457 -18.020   4.118  0.00  0.00    +0.016 A 
ATOM      4  C   LIG    1       22.038 -17.992   4.633  0.00  0.00    +0.050 C 
ATOM      5  C   LIG    1       21.297 -19.284   4.318  0.00  0.00    +0.101 C 
ATOM      6  C   LIG    1       22.096 -20.516   4.684  0.00  0.00    +0.217 C 
ATOM      7  N   LIG    1       23.452 -20.422   4.504  0.00  0.00    -0.285 N 
ATOM      8  H   LIG    1       23.961 -21.289   4.621  0.00  0.00    +0.155 HD
ATOM      9  O   LIG    1       21.576 -21.571   5.010  0.00  0.00    -0.276 OA
ATOM     10  C   LIG    1       24.123 -19.259   4.121  0.00  0.00    +0.040 A 
ATOM     11  C   LIG    1       25.465 -19.359   3.767  0.00  0.00    +0.024 A 
ATOM     12  C   LIG    1       26.150 -18.224   3.351  0.00  0.00    +0.005 A 
ATOM     13  C   LIG    1       25.503 -16.987   3.326  0.00  0.00    +0.046 A 
ENDBRANCH   1   2
BRANCH   1  14
ATOM     14  C   LIG    1       24.299 -14.573   4.394  0.00  0.00    +0.261 C 
BRANCH  14  15
ATOM     15  C   LIG    1       24.509 -13.462   3.357  0.00  0.00    +0.166 C 
BRANCH  15  16
ATOM     16  O   LIG    1       23.370 -13.380   2.491  0.00  0.00    -0.387 OA
ATOM     17  H   LIG    1       22.867 -12.593   2.784  0.00  0.00    +0.210 HD
ENDBRANCH  15  16
BRANCH  15  18
ATOM     18  C   LIG    1       25.787 -13.695   2.520  0.00  0.00    +0.116 C 
BRANCH  18  19
ATOM     19  N   LIG    1       26.905 -12.822   2.944  0.00  0.00    -0.309 NA
ATOM     20  H   LIG    1       27.494 -12.624   2.132  0.00  0.00    +0.122 HD
BRANCH  19  22
ATOM     21  C   LIG    1       27.317 -12.978   5.391  0.00  0.00    +0.027 C 
ATOM     22  C   LIG    1       27.780 -13.400   3.989  0.00  0.00    +0.011 C 
ATOM     23  C   LIG    1       27.867 -14.934   3.897  0.00  0.00    +0.027 C 
ATOM     24  C   LIG    1       29.199 -12.834   3.766  0.00  0.00    +0.027 C 
ENDBRANCH  19  22
ENDBRANCH  18  19
ENDBRANCH  15  18
ENDBRANCH  14  15
ENDBRANCH   1  14
TORSDOF 7
ENDMDL
MODEL 6
REMARK VINA RESULT:      -3.5      2.467      7.264
REMARK  Name = *****
REMARK                            x       y       z     vdW  Elec       q    Type
REMARK                         _______ _______ _______ _____ _____    ______ ____
ROOT
ATOM      1  O   LIG    1       23.500 -14.917   4.527  0.00  0.00    -0.489 OA
ENDROOT
BRANCH   1   2
ATOM      2  C   LIG    1       24.062 -14.037   3.633  0.00  0.00    +0.126 A 
ATOM      3  C   LIG    1       25.444 -13.788   3.729  0.00  0.00    +0.016 A 
ATOM      4  C   LIG    1       26.328 -14.399   4.788  0.00  0.00    +0.050 C 
ATOM      5  C   LIG    1       27.767 -14.536   4.312  0.00  0.00    +0.101 C 
ATOM      6  C   LIG    1       28.294 -13.266   3.682  0.00  0.00    +0.217 C 
ATOM      7  N   LIG    1       27.383 -12.535   2.962  0.00  0.00    -0.285 N 
ATOM      8  H   LIG    1       27.773 -11.764   2.435  0.00  0.00    +0.155 HD
ATOM      9  O   LIG    1       29.474 -12.953   3.703  0.00  0.00    -0.276 OA
ATOM     10  C   LIG    1       26.021 -12.830   2.876  0.00  0.00    +0.040 A 
ATOM     11  C   LIG    1       25.255 -12.137   1.943  0.00  0.00    +0.024 A 
ATOM     12  C   LIG    1       23.904 -12.431   1.812  0.00  0.00    +0.005 A 
ATOM     13  C   LIG    1       23.315 -13.390   2.638  0.00  0.00    +0.046 A 
ENDBRANCH   1   2
BRANCH   1  14
ATOM     14  C   LIG    1       23.502 -16.299   4.125  0.00  0.00    +0.261 C 
BRANCH  14  15
ATOM     15  C   LIG    1       22.154 -16.958   4.444  0.00  0.00    +0.166 C 
BRANCH  15  16
ATOM     16  O   LIG    1       21.589 -16.370   5.623  0.00  0.00    -0.387 OA
ATOM     17  H   LIG    1       22.211 -16.577   6.350  0.00  0.00    +0.210 HD
ENDBRANCH  15  16
BRANCH  15  18
ATOM     18  C   LIG    1       22.296 -18.485   4.637  0.00  0.00    +0.116 C 
BRANCH  18  19
ATOM     19  N   LIG    1       23.505 -19.026   3.975  0.00  0.00    -0.309 NA
ATOM     20  H   LIG    1       23.272 -19.268   3.010  0.00  0.00    +0.122 HD
BRANCH  19  22
ATOM     21  C   LIG    1       23.915 -21.462   3.689  0.00  0.00    +0.027 C 
ATOM     22  C   LIG    1       24.066 -20.242   4.608  0.00  0.00    +0.011 C 
ATOM     23  C   LIG    1       25.539 -20.062   5.016  0.00  0.00    +0.027 C 
ATOM     24  C   LIG    1       23.252 -20.509   5.893  0.00  0.00    +0.027 C 
ENDBRANCH  19  22
ENDBRANCH  18  19
ENDBRANCH  15  18
ENDBRANCH  14  15
ENDBRANCH   1  14
TORSDOF 7
ENDMDL
MODEL 7
REMARK VINA RESULT:      -3.3      1.574      6.947
REMARK  Name = *****
REMARK                            x       y       z     vdW  Elec       q    Type
REMARK                         _______ _______ _______ _____ _____    ______ ____
ROOT
ATOM      1  O   LIG    1       25.257 -18.406   3.522  0.00  0.00    -0.489 OA
ENDROOT
BRANCH   1   2
ATOM      2  C   LIG    1       24.589 -17.236   3.797  0.00  0.00    +0.126 A 
ATOM      3  C   LIG    1       25.302 -16.026   3.697  0.00  0.00    +0.016 A 
ATOM      4  C   LIG    1       26.769 -15.952   3.352  0.00  0.00    +0.050 C 
ATOM      5  C   LIG    1       27.123 -14.638   2.670  0.00  0.00    +0.101 C 
ATOM      6  C   LIG    1       26.568 -13.436   3.401  0.00  0.00    +0.217 C 
ATOM      7  N   LIG    1       25.343 -13.612   3.994  0.00  0.00    -0.285 N 
ATOM      8  H   LIG    1       24.920 -12.770   4.362  0.00  0.00    +0.155 HD
ATOM      9  O   LIG    1       27.104 -12.339   3.380  0.00  0.00    -0.276 OA
ATOM     10  C   LIG    1       24.658 -14.828   4.052  0.00  0.00    +0.040 A 
ATOM     11  C   LIG    1       23.337 -14.818   4.489  0.00  0.00    +0.024 A 
ATOM     12  C   LIG    1       22.620 -16.008   4.526  0.00  0.00    +0.005 A 
ATOM     13  C   LIG    1       23.235 -17.206   4.163  0.00  0.00    +0.046 A 
ENDBRANCH   1   2
BRANCH   1  14
ATOM     14  C   LIG    1       24.444 -19.487   3.034  0.00  0.00    +0.261 C 
BRANCH  14  15
ATOM     15  C   LIG    1       24.768 -20.789   3.780  0.00  0.00    +0.166 C 
BRANCH  15  16
ATOM     16  O   LIG    1       23.554 -21.451   4.156  0.00  0.00    -0.387 OA
ATOM     17  H   LIG    1       23.555 -22.305   3.678  0.00  0.00    +0.210 HD
ENDBRANCH  15  16
BRANCH  15  18
ATOM     18  C   LIG    1       25.634 -20.529   5.033  0.00  0.00    +0.116 C 
BRANCH  18  19
ATOM     19  N   LIG    1       27.068 -20.366   4.702  0.00  0.00    -0.309 NA
ATOM     20  H   LIG    1       27.417 -21.243   4.309  0.00  0.00    +0.122 HD
BRANCH  19  22
ATOM     21  C   LIG    1       28.848 -21.205   6.222  0.00  0.00    +0.027 C 
ATOM     22  C   LIG    1       27.934 -20.028   5.855  0.00  0.00    +0.011 C 
ATOM     23  C   LIG    1       28.773 -18.762   5.604  0.00  0.00    +0.027 C 
ATOM     24  C   LIG    1       27.009 -19.748   7.059  0.00  0.00    +0.027 C 
ENDBRANCH  19  22
ENDBRANCH  18  19
ENDBRANCH  15  18
ENDBRANCH  14  15
ENDBRANCH   1  14
TORSDOF 7
ENDMDL
MODEL 8
REMARK VINA RESULT:      -3.2      2.162      4.060
REMARK  Name = *****
REMARK                            x       y       z     vdW  Elec       q    Type
REMARK                         _______ _______ _______ _____ _____    ______ ____
ROOT
ATOM      1  O   LIG    1       24.678 -15.231   3.779  0.00  0.00    -0.489 OA
ENDROOT
BRANCH   1   2
ATOM      2  C   LIG    1       23.750 -16.183   4.130  0.00  0.00    +0.126 A 
ATOM      3  C   LIG    1       24.099 -17.538   3.972  0.00  0.00    +0.016 A 
ATOM      4  C   LIG    1       25.416 -17.995   3.394  0.00  0.00    +0.050 C 
ATOM      5  C   LIG    1       25.820 -19.363   3.925  0.00  0.00    +0.101 C 
ATOM      6  C   LIG    1       24.695 -20.371   3.851  0.00  0.00    +0.217 C 
ATOM      7  N   LIG    1       23.435 -19.876   4.074  0.00  0.00    -0.285 N 
ATOM      8  H   LIG    1       22.708 -20.575   4.157  0.00  0.00    +0.155 HD
ATOM      9  O   LIG    1       24.884 -21.570   3.718  0.00  0.00    -0.276 OA
ATOM     10  C   LIG    1       23.135 -18.523   4.248  0.00  0.00    +0.040 A 
ATOM     11  C   LIG    1       21.856 -18.183   4.679  0.00  0.00    +0.024 A 
ATOM     12  C   LIG    1       21.538 -16.848   4.892  0.00  0.00    +0.005 A 
ATOM     13  C   LIG    1       22.485 -15.855   4.639  0.00  0.00    +0.046 A 
ENDBRANCH   1   2
BRANCH   1  14
ATOM     14  C   LIG    1       24.286 -13.866   4.009  0.00  0.00    +0.261 C 
BRANCH  14  15
ATOM     15  C   LIG    1       24.727 -12.971   2.843  0.00  0.00    +0.166 C 
BRANCH  15  16
ATOM     16  O   LIG    1       23.730 -12.984   1.813  0.00  0.00    -0.387 OA
ATOM     17  H   LIG    1       23.873 -13.812   1.312  0.00  0.00    +0.210 HD
ENDBRANCH  15  16
BRANCH  15  18
ATOM     18  C   LIG    1       26.087 -13.420   2.261  0.00  0.00    +0.116 C 
BRANCH  18  19
ATOM     19  N   LIG    1       27.226 -12.696   2.871  0.00  0.00    -0.309 NA
ATOM     20  H   LIG    1       27.917 -12.499   2.145  0.00  0.00    +0.122 HD
BRANCH  19  22
ATOM     21  C   LIG    1       27.408 -13.007   5.331  0.00  0.00    +0.027 C 
ATOM     22  C   LIG    1       27.922 -13.434   3.950  0.00  0.00    +0.011 C 
ATOM     23  C   LIG    1       27.802 -14.960   3.786  0.00  0.00    +0.027 C 
ATOM     24  C   LIG    1       29.420 -13.069   3.865  0.00  0.00    +0.027 C 
ENDBRANCH  19  22
ENDBRANCH  18  19
ENDBRANCH  15  18
ENDBRANCH  14  15
ENDBRANCH   1  14
TORSDOF 7
ENDMDL
MODEL 9
REMARK VINA RESULT:      -2.6      2.107      7.122
REMARK  Name = *****
REMARK                            x       y       z     vdW  Elec       q    Type
REMARK                         _______ _______ _______ _____ _____    ______ ____
ROOT
ATOM      1  O   LIG    1       23.817 -16.599   3.938  0.00  0.00    -0.489 OA
ENDROOT
BRANCH   1   2
ATOM      2  C   LIG    1       24.056 -15.266   4.179  0.00  0.00    +0.126 A 
ATOM      3  C   LIG    1       25.374 -14.793   4.040  0.00  0.00    +0.016 A 
ATOM      4  C   LIG    1       26.543 -15.681   3.688  0.00  0.00    +0.050 C 
ATOM      5  C   LIG    1       27.639 -14.910   2.966  0.00  0.00    +0.101 C 
ATOM      6  C   LIG    1       27.995 -13.615   3.662  0.00  0.00    +0.217 C 
ATOM      7  N   LIG    1       26.953 -12.956   4.263  0.00  0.00    -0.285 N 
ATOM      8  H   LIG    1       27.173 -12.030   4.607  0.00  0.00    +0.155 HD
ATOM      9  O   LIG    1       29.107 -13.114   3.606  0.00  0.00    -0.276 OA
ATOM     10  C   LIG    1       25.651 -13.452   4.360  0.00  0.00    +0.040 A 
ATOM     11  C   LIG    1       24.650 -12.592   4.801  0.00  0.00    +0.024 A 
ATOM     12  C   LIG    1       23.340 -13.049   4.877  0.00  0.00    +0.005 A 
ATOM     13  C   LIG    1       23.041 -14.372   4.548  0.00  0.00    +0.046 A 
ENDBRANCH   1   2
BRANCH   1  14
ATOM     14  C   LIG    1       22.723 -17.178   4.671  0.00  0.00    +0.261 C 
BRANCH  14  15
ATOM     15  C   LIG    1       22.237 -18.466   3.992  0.00  0.00    +0.166 C 
BRANCH  15  16
ATOM     16  O   LIG    1       20.858 -18.334   3.625  0.00  0.00    -0.387 OA
ATOM     17  H   LIG    1       20.811 -18.556   2.673  0.00  0.00    +0.210 HD
ENDBRANCH  15  16
BRANCH  15  18
ATOM     18  C   LIG    1       22.421 -19.698   4.906  0.00  0.00    +0.116 C 
BRANCH  18  19
ATOM     19  N   LIG    1       23.723 -19.687   5.611  0.00  0.00    -0.309 NA
ATOM     20  H   LIG    1       24.043 -18.720   5.696  0.00  0.00    +0.122 HD
BRANCH  19  22
ATOM     21  C   LIG    1       24.219 -21.572   4.067  0.00  0.00    +0.027 C 
ATOM     22  C   LIG    1       24.800 -20.446   4.934  0.00  0.00    +0.011 C 
ATOM     23  C   LIG    1       25.712 -19.539   4.088  0.00  0.00    +0.027 C 
ATOM     24  C   LIG    1       25.669 -21.092   6.035  0.00  0.00    +0.027 C 
ENDBRANCH  19  22
ENDBRANCH  18  19
ENDBRANCH  15  18
ENDBRANCH  14  15
ENDBRANCH   1  14
TORSDOF 7
ENDMDL
