MODEL 1
REMARK VINA RESULT:      77.9      0.000      0.000
REMARK  Name = *****
REMARK                            x       y       z     vdW  Elec       q    Type
REMARK                         _______ _______ _______ _____ _____    ______ ____
ROOT
ATOM      1  C   LIG    1       27.432 -17.233   6.130  0.00  0.00    +0.007 C 
ENDROOT
BRANCH   1   2
ATOM      2  C   LIG    1       27.538 -15.908   6.874  0.00  0.00    +0.041 C 
BRANCH   2   3
ATOM      3  C   LIG    1       26.175 -15.253   6.924  0.00  0.00    +0.232 C 
BRANCH   3   4
ATOM      4  O   LIG    1       26.182 -13.956   6.326  0.00  0.00    -0.465 OA
BRANCH   4   5
ATOM      5  C   LIG    1       24.969 -13.383   6.252  0.00  0.00    +0.312 C 
ATOM      6  O   LIG    1       23.926 -13.970   5.890  0.00  0.00    -0.251 OA
BRANCH   5   7
ATOM      7  C   LIG    1       24.955 -11.981   6.758  0.00  0.00    +0.171 C 
BRANCH   7   8
ATOM      8  C   LIG    1       23.537 -11.471   6.952  0.00  0.00    +0.145 C 
BRANCH   8   9
ATOM      9  N   LIG    1       22.440 -12.287   6.200  0.00  0.00    +0.247 N 
ATOM     10  C   LIG    1       21.174 -12.287   7.058  0.00  0.00    +0.193 C 
ATOM     11  C   LIG    1       22.974 -13.772   5.836  0.00  0.00    +0.102 C 
ATOM     12  C   LIG    1       24.180 -13.660   4.884  0.00  0.00    +0.008 A 
ATOM     13  C   LIG    1       24.188 -12.677   3.903  0.00  0.00    -0.030 A 
ATOM     14  C   LIG    1       25.122 -12.564   2.874  0.00  0.00    +0.053 A 
ATOM     15  C   LIG    1       26.243 -13.330   2.904  0.00  0.00    +0.162 A 
ATOM     16  C   LIG    1       26.424 -14.145   4.025  0.00  0.00    +0.162 A 
ATOM     17  C   LIG    1       23.114 -11.706   3.755  0.00  0.00    +0.086 C 
ATOM     18  C   LIG    1       25.375 -14.357   4.968  0.00  0.00    +0.059 A 
ATOM     19  C   LIG    1       22.153 -11.449   4.925  0.00  0.00    +0.138 C 
BRANCH  15  20
ATOM     20  O   LIG    1       27.073 -13.081   1.861  0.00  0.00    -0.491 OA
ATOM     21  C   LIG    1       28.303 -13.777   1.926  0.00  0.00    +0.277 C 
ENDBRANCH  15  20
BRANCH  16  22
ATOM     22  O   LIG    1       27.586 -14.789   4.353  0.00  0.00    -0.491 OA
ATOM     23  C   LIG    1       28.800 -14.162   3.927  0.00  0.00    +0.277 C 
ENDBRANCH  16  22
BRANCH  11  24
ATOM     24  C   LIG    1       21.799 -14.864   5.486  0.00  0.00    +0.095 C 
BRANCH  24  25
ATOM     25  C   LIG    1       22.068 -16.276   4.955  0.00  0.00    -0.038 A 
ATOM     26  C   LIG    1       23.165 -16.968   5.434  0.00  0.00    +0.053 A 
ATOM     27  C   LIG    1       23.736 -18.198   5.101  0.00  0.00    +0.162 A 
ATOM     28  C   LIG    1       22.950 -18.910   4.221  0.00  0.00    +0.162 A 
ATOM     29  C   LIG    1       21.740 -18.320   3.759  0.00  0.00    +0.050 A 
ATOM     30  C   LIG    1       21.305 -17.019   4.100  0.00  0.00    +0.007 A 
BRANCH  28  31
ATOM     31  O   LIG    1       23.376 -20.157   3.843  0.00  0.00    -0.491 OA
ATOM     32  C   LIG    1       24.032 -20.195   2.579  0.00  0.00    +0.277 C 
ENDBRANCH  28  31
BRANCH  27  33
ATOM     33  O   LIG    1       24.821 -18.788   5.710  0.00  0.00    -0.491 OA
ATOM     34  C   LIG    1       24.825 -19.288   7.051  0.00  0.00    +0.277 C 
ENDBRANCH  27  33
ENDBRANCH  24  25
ENDBRANCH  11  24
ENDBRANCH   8   9
ENDBRANCH   7   8
ENDBRANCH   5   7
ENDBRANCH   4   5
ENDBRANCH   3   4
ENDBRANCH   2   3
ENDBRANCH   1   2
BRANCH   1  35
ATOM     35  C   LIG    1       26.908 -17.070   4.710  0.00  0.00    +0.041 C 
BRANCH  35  36
ATOM     36  C   LIG    1       26.408 -18.400   4.185  0.00  0.00    +0.232 C 
BRANCH  36  37
ATOM     37  O   LIG    1       27.400 -19.410   4.297  0.00  0.00    -0.465 OA
BRANCH  37  38
ATOM     38  C   LIG    1       27.729 -19.984   3.143  0.00  0.00    +0.312 C 
ATOM     39  O   LIG    1       26.986 -20.006   2.080  0.00  0.00    -0.251 OA
BRANCH  38  40
ATOM     40  C   LIG    1       29.088 -20.511   3.139  0.00  0.00    +0.171 C 
BRANCH  40  41
ATOM     41  C   LIG    1       29.441 -21.000   4.537  0.00  0.00    +0.145 C 
BRANCH  41  43
ATOM     42  C   LIG    1       27.218 -20.051   5.440  0.00  0.00    +0.102 C 
ATOM     43  N   LIG    1       28.786 -20.143   5.638  0.00  0.00    +0.247 N 
ATOM     44  C   LIG    1       29.175 -20.688   7.016  0.00  0.00    +0.193 C 
ATOM     45  C   LIG    1       29.290 -18.664   5.677  0.00  0.00    +0.138 C 
ATOM     46  C   LIG    1       29.109 -17.928   4.373  0.00  0.00    +0.086 C 
ATOM     47  C   LIG    1       27.685 -17.970   3.946  0.00  0.00    -0.030 A 
ATOM     48  C   LIG    1       27.232 -16.935   3.104  0.00  0.00    +0.053 A 
ATOM     49  C   LIG    1       25.946 -16.901   2.551  0.00  0.00    +0.162 A 
ATOM     50  C   LIG    1       25.140 -18.022   2.793  0.00  0.00    +0.162 A 
ATOM     51  C   LIG    1       25.650 -19.067   3.636  0.00  0.00    +0.059 A 
ATOM     52  C   LIG    1       26.870 -19.047   4.293  0.00  0.00    +0.008 A 
BRANCH  50  53
ATOM     53  O   LIG    1       23.870 -18.173   2.263  0.00  0.00    -0.491 OA
ATOM     54  C   LIG    1       22.965 -17.095   2.606  0.00  0.00    +0.277 C 
ENDBRANCH  50  53
BRANCH  49  55
ATOM     55  O   LIG    1       25.826 -15.745   1.843  0.00  0.00    -0.491 OA
ATOM     56  C   LIG    1       24.748 -14.836   1.915  0.00  0.00    +0.277 C 
ENDBRANCH  49  55
BRANCH  42  57
ATOM     57  C   LIG    1       26.364 -21.416   5.492  0.00  0.00    +0.095 C 
BRANCH  57  61
ATOM     58  C   LIG    1       21.942 -21.503   5.672  0.00  0.00    +0.162 A 
ATOM     59  C   LIG    1       22.621 -21.456   4.452  0.00  0.00    +0.162 A 
ATOM     60  C   LIG    1       24.036 -21.517   4.432  0.00  0.00    +0.053 A 
ATOM     61  C   LIG    1       24.833 -21.538   5.588  0.00  0.00    -0.038 A 
ATOM     62  C   LIG    1       24.132 -21.507   6.807  0.00  0.00    +0.007 A 
ATOM     63  C   LIG    1       22.710 -21.510   6.848  0.00  0.00    +0.050 A 
BRANCH  58  65
ATOM     64  C   LIG    1       19.896 -20.495   4.984  0.00  0.00    +0.277 C 
ATOM     65  O   LIG    1       20.575 -21.553   5.664  0.00  0.00    -0.491 OA
ENDBRANCH  58  65
BRANCH  59  66
ATOM     66  O   LIG    1       22.092 -21.482   3.187  0.00  0.00    -0.491 OA
ATOM     67  C   LIG    1       20.687 -21.344   3.007  0.00  0.00    +0.277 C 
ENDBRANCH  59  66
ENDBRANCH  57  61
ENDBRANCH  42  57
ENDBRANCH  41  43
ENDBRANCH  40  41
ENDBRANCH  38  40
ENDBRANCH  37  38
ENDBRANCH  36  37
ENDBRANCH  35  36
ENDBRANCH   1  35
TORSDOF 26
ENDMDL
