MODEL 1
REMARK VINA RESULT:      -8.8      0.000      0.000
REMARK  Name = *****
REMARK                            x       y       z     vdW  Elec       q    Type
REMARK                         _______ _______ _______ _____ _____    ______ ____
ROOT
ATOM      1  C   LIG    1       28.448 -20.158   8.160  0.00  0.00    +0.143 C 
ATOM      2  N   LIG    1       27.300 -20.425   7.313  0.00  0.00    -0.228 N 
ATOM      3  C   LIG    1       26.078 -20.643   7.941  0.00  0.00    +0.242 C 
ATOM      4  O   LIG    1       25.951 -20.547   9.165  0.00  0.00    -0.274 OA
ATOM      5  C   LIG    1       24.919 -21.095   7.038  0.00  0.00    +0.142 C 
ATOM      6  C   LIG    1       23.601 -20.649   7.701  0.00  0.00    +0.035 C 
ATOM      7  C   LIG    1       25.053 -20.437   5.669  0.00  0.00    +0.239 C 
ATOM      8  O   LIG    1       24.102 -20.078   4.976  0.00  0.00    -0.274 OA
ATOM      9  N   LIG    1       26.326 -20.329   5.190  0.00  0.00    -0.239 N 
ATOM     10  H   LIG    1       26.416 -19.958   4.254  0.00  0.00    +0.159 HD
ATOM     11  C   LIG    1       27.438 -20.185   5.961  0.00  0.00    +0.315 C 
ATOM     12  O   LIG    1       28.470 -19.766   5.442  0.00  0.00    -0.252 OA
ENDROOT
BRANCH   5  13
ATOM     13  C   LIG    1       24.909 -22.635   6.829  0.00  0.00    -0.050 C 
ATOM     14  C   LIG    1       23.584 -23.252   6.394  0.00  0.00    +0.032 C 
ATOM     15  C   LIG    1       23.509 -24.771   6.568  0.00  0.00    +0.005 C 
ATOM     16  C   LIG    1       24.774 -25.438   6.051  0.00  0.00    +0.004 C 
ATOM     17  C   LIG    1       25.999 -24.920   6.799  0.00  0.00    +0.027 C 
ATOM     18  C   LIG    1       25.982 -23.433   7.022  0.00  0.00    -0.026 C 
ENDBRANCH   5  13
TORSDOF 1
ENDMDL
MODEL 2
REMARK VINA RESULT:      -8.1      0.806      1.452
REMARK  Name = *****
REMARK                            x       y       z     vdW  Elec       q    Type
REMARK                         _______ _______ _______ _____ _____    ______ ____
ROOT
ATOM      1  C   LIG    1       27.807 -20.329   8.069  0.00  0.00    +0.143 C 
ATOM      2  N   LIG    1       26.682 -20.741   7.250  0.00  0.00    -0.228 N 
ATOM      3  C   LIG    1       25.536 -21.173   7.909  0.00  0.00    +0.242 C 
ATOM      4  O   LIG    1       25.444 -21.144   9.140  0.00  0.00    -0.274 OA
ATOM      5  C   LIG    1       24.425 -21.767   7.027  0.00  0.00    +0.142 C 
ATOM      6  C   LIG    1       23.082 -21.560   7.753  0.00  0.00    +0.035 C 
ATOM      7  C   LIG    1       24.399 -21.044   5.684  0.00  0.00    +0.239 C 
ATOM      8  O   LIG    1       23.376 -20.813   5.041  0.00  0.00    -0.274 OA
ATOM      9  N   LIG    1       25.619 -20.719   5.168  0.00  0.00    -0.239 N 
ATOM     10  H   LIG    1       25.612 -20.303   4.247  0.00  0.00    +0.159 HD
ATOM     11  C   LIG    1       26.725 -20.430   5.906  0.00  0.00    +0.315 C 
ATOM     12  O   LIG    1       27.658 -19.835   5.371  0.00  0.00    -0.252 OA
ENDROOT
BRANCH   5  13
ATOM     13  C   LIG    1       24.647 -23.280   6.751  0.00  0.00    -0.050 C 
ATOM     14  C   LIG    1       26.055 -23.815   6.991  0.00  0.00    +0.032 C 
ATOM     15  C   LIG    1       26.326 -25.182   6.359  0.00  0.00    +0.005 C 
ATOM     16  C   LIG    1       25.178 -26.141   6.631  0.00  0.00    +0.004 C 
ATOM     17  C   LIG    1       23.873 -25.591   6.065  0.00  0.00    +0.027 C 
ATOM     18  C   LIG    1       23.684 -24.119   6.310  0.00  0.00    -0.026 C 
ENDBRANCH   5  13
TORSDOF 1
ENDMDL
MODEL 3
REMARK VINA RESULT:      -8.0      2.600      4.589
REMARK  Name = *****
REMARK                            x       y       z     vdW  Elec       q    Type
REMARK                         _______ _______ _______ _____ _____    ______ ____
ROOT
ATOM      1  C   LIG    1       23.905 -25.683   5.681  0.00  0.00    +0.143 C 
ATOM      2  N   LIG    1       24.409 -24.415   6.174  0.00  0.00    -0.228 N 
ATOM      3  C   LIG    1       23.485 -23.519   6.701  0.00  0.00    +0.242 C 
ATOM      4  O   LIG    1       22.290 -23.810   6.814  0.00  0.00    -0.274 OA
ATOM      5  C   LIG    1       24.016 -22.120   7.054  0.00  0.00    +0.142 C 
ATOM      6  C   LIG    1       23.125 -21.544   8.171  0.00  0.00    +0.035 C 
ATOM      7  C   LIG    1       25.453 -22.230   7.549  0.00  0.00    +0.239 C 
ATOM      8  O   LIG    1       25.942 -21.516   8.424  0.00  0.00    -0.274 OA
ATOM      9  N   LIG    1       26.232 -23.141   6.898  0.00  0.00    -0.239 N 
ATOM     10  H   LIG    1       27.204 -23.170   7.174  0.00  0.00    +0.159 HD
ATOM     11  C   LIG    1       25.775 -24.291   6.330  0.00  0.00    +0.315 C 
ATOM     12  O   LIG    1       26.577 -25.186   6.072  0.00  0.00    -0.252 OA
ENDROOT
BRANCH   5  13
ATOM     13  C   LIG    1       24.004 -21.166   5.827  0.00  0.00    -0.050 C 
ATOM     14  C   LIG    1       22.893 -20.121   5.790  0.00  0.00    +0.032 C 
ATOM     15  C   LIG    1       22.686 -19.471   4.420  0.00  0.00    +0.005 C 
ATOM     16  C   LIG    1       24.017 -19.073   3.803  0.00  0.00    +0.004 C 
ATOM     17  C   LIG    1       24.917 -20.292   3.633  0.00  0.00    +0.027 C 
ATOM     18  C   LIG    1       24.896 -21.224   4.814  0.00  0.00    -0.026 C 
ENDBRANCH   5  13
TORSDOF 1
ENDMDL
MODEL 4
REMARK VINA RESULT:      -7.6      1.550      2.945
REMARK  Name = *****
REMARK                            x       y       z     vdW  Elec       q    Type
REMARK                         _______ _______ _______ _____ _____    ______ ____
ROOT
ATOM      1  C   LIG    1       25.477 -19.565   3.492  0.00  0.00    +0.143 C 
ATOM      2  N   LIG    1       24.871 -20.094   4.700  0.00  0.00    -0.228 N 
ATOM      3  C   LIG    1       25.721 -20.439   5.745  0.00  0.00    +0.242 C 
ATOM      4  O   LIG    1       26.938 -20.240   5.685  0.00  0.00    -0.274 OA
ATOM      5  C   LIG    1       25.075 -21.157   6.941  0.00  0.00    +0.142 C 
ATOM      6  C   LIG    1       25.929 -20.860   8.189  0.00  0.00    +0.035 C 
ATOM      7  C   LIG    1       23.660 -20.628   7.150  0.00  0.00    +0.239 C 
ATOM      8  O   LIG    1       23.124 -20.495   8.250  0.00  0.00    -0.274 OA
ATOM      9  N   LIG    1       22.955 -20.369   6.011  0.00  0.00    -0.239 N 
ATOM     10  H   LIG    1       21.993 -20.085   6.142  0.00  0.00    +0.159 HD
ATOM     11  C   LIG    1       23.502 -19.974   4.830  0.00  0.00    +0.315 C 
ATOM     12  O   LIG    1       22.777 -19.452   3.985  0.00  0.00    -0.252 OA
ENDROOT
BRANCH   5  13
ATOM     13  C   LIG    1       24.984 -22.692   6.719  0.00  0.00    -0.050 C 
ATOM     14  C   LIG    1       23.601 -23.251   6.398  0.00  0.00    +0.032 C 
ATOM     15  C   LIG    1       23.481 -24.768   6.563  0.00  0.00    +0.005 C 
ATOM     16  C   LIG    1       24.667 -25.476   5.927  0.00  0.00    +0.004 C 
ATOM     17  C   LIG    1       25.973 -25.018   6.568  0.00  0.00    +0.027 C 
ATOM     18  C   LIG    1       26.037 -23.534   6.807  0.00  0.00    -0.026 C 
ENDBRANCH   5  13
TORSDOF 1
ENDMDL
MODEL 5
REMARK VINA RESULT:      -7.5      2.290      4.487
REMARK  Name = *****
REMARK                            x       y       z     vdW  Elec       q    Type
REMARK                         _______ _______ _______ _____ _____    ______ ____
ROOT
ATOM      1  C   LIG    1       22.830 -19.798   5.444  0.00  0.00    +0.143 C 
ATOM      2  N   LIG    1       23.881 -20.774   5.672  0.00  0.00    -0.228 N 
ATOM      3  C   LIG    1       24.343 -20.923   6.975  0.00  0.00    +0.242 C 
ATOM      4  O   LIG    1       23.838 -20.306   7.918  0.00  0.00    -0.274 OA
ATOM      5  C   LIG    1       25.570 -21.830   7.164  0.00  0.00    +0.142 C 
ATOM      6  C   LIG    1       25.523 -22.399   8.596  0.00  0.00    +0.035 C 
ATOM      7  C   LIG    1       25.519 -22.973   6.156  0.00  0.00    +0.239 C 
ATOM      8  O   LIG    1       25.915 -24.115   6.382  0.00  0.00    -0.274 OA
ATOM      9  N   LIG    1       25.065 -22.641   4.913  0.00  0.00    -0.239 N 
ATOM     10  H   LIG    1       25.094 -23.378   4.221  0.00  0.00    +0.159 HD
ATOM     11  C   LIG    1       24.159 -21.660   4.652  0.00  0.00    +0.315 C 
ATOM     12  O   LIG    1       23.575 -21.663   3.570  0.00  0.00    -0.252 OA
ENDROOT
BRANCH   5  13
ATOM     13  C   LIG    1       26.903 -21.060   6.947  0.00  0.00    -0.050 C 
ATOM     14  C   LIG    1       28.046 -21.401   7.898  0.00  0.00    +0.032 C 
ATOM     15  C   LIG    1       29.185 -20.378   7.904  0.00  0.00    +0.005 C 
ATOM     16  C   LIG    1       29.571 -19.990   6.485  0.00  0.00    +0.004 C 
ATOM     17  C   LIG    1       28.379 -19.388   5.749  0.00  0.00    +0.027 C 
ATOM     18  C   LIG    1       27.089 -20.123   5.992  0.00  0.00    -0.026 C 
ENDBRANCH   5  13
TORSDOF 1
ENDMDL
MODEL 6
REMARK VINA RESULT:      -7.1      2.483      4.569
REMARK  Name = *****
REMARK                            x       y       z     vdW  Elec       q    Type
REMARK                         _______ _______ _______ _____ _____    ______ ____
ROOT
ATOM      1  C   LIG    1       22.702 -24.077   6.790  0.00  0.00    +0.143 C 
ATOM      2  N   LIG    1       23.980 -23.390   6.730  0.00  0.00    -0.228 N 
ATOM      3  C   LIG    1       24.072 -22.153   7.359  0.00  0.00    +0.242 C 
ATOM      4  O   LIG    1       23.132 -21.681   8.005  0.00  0.00    -0.274 OA
ATOM      5  C   LIG    1       25.376 -21.370   7.134  0.00  0.00    +0.142 C 
ATOM      6  C   LIG    1       25.587 -20.443   8.347  0.00  0.00    +0.035 C 
ATOM      7  C   LIG    1       26.544 -22.344   7.023  0.00  0.00    +0.239 C 
ATOM      8  O   LIG    1       27.679 -22.115   7.437  0.00  0.00    -0.274 OA
ATOM      9  N   LIG    1       26.284 -23.499   6.346  0.00  0.00    -0.239 N 
ATOM     10  H   LIG    1       27.072 -24.117   6.208  0.00  0.00    +0.159 HD
ATOM     11  C   LIG    1       25.071 -24.114   6.293  0.00  0.00    +0.315 C 
ATOM     12  O   LIG    1       25.017 -25.294   5.951  0.00  0.00    -0.252 OA
ENDROOT
BRANCH   5  13
ATOM     13  C   LIG    1       25.331 -20.526   5.829  0.00  0.00    -0.050 C 
ATOM     14  C   LIG    1       23.953 -20.298   5.216  0.00  0.00    +0.032 C 
ATOM     15  C   LIG    1       23.982 -19.807   3.766  0.00  0.00    +0.005 C 
ATOM     16  C   LIG    1       24.999 -18.690   3.594  0.00  0.00    +0.004 C 
ATOM     17  C   LIG    1       26.396 -19.171   3.974  0.00  0.00    +0.027 C 
ATOM     18  C   LIG    1       26.422 -20.012   5.221  0.00  0.00    -0.026 C 
ENDBRANCH   5  13
TORSDOF 1
ENDMDL
MODEL 7
REMARK VINA RESULT:      -6.8      2.200      3.911
REMARK  Name = *****
REMARK                            x       y       z     vdW  Elec       q    Type
REMARK                         _______ _______ _______ _____ _____    ______ ____
ROOT
ATOM      1  C   LIG    1       27.943 -22.001   7.243  0.00  0.00    +0.143 C 
ATOM      2  N   LIG    1       26.524 -21.709   7.336  0.00  0.00    -0.228 N 
ATOM      3  C   LIG    1       25.654 -22.533   6.630  0.00  0.00    +0.242 C 
ATOM      4  O   LIG    1       26.056 -23.519   6.004  0.00  0.00    -0.274 OA
ATOM      5  C   LIG    1       24.178 -22.102   6.602  0.00  0.00    +0.142 C 
ATOM      6  C   LIG    1       23.319 -23.366   6.404  0.00  0.00    +0.035 C 
ATOM      7  C   LIG    1       23.816 -21.437   7.925  0.00  0.00    +0.239 C 
ATOM      8  O   LIG    1       22.717 -21.530   8.470  0.00  0.00    -0.274 OA
ATOM      9  N   LIG    1       24.781 -20.636   8.464  0.00  0.00    -0.239 N 
ATOM     10  H   LIG    1       24.521 -20.137   9.304  0.00  0.00    +0.159 HD
ATOM     11  C   LIG    1       26.120 -20.819   8.309  0.00  0.00    +0.315 C 
ATOM     12  O   LIG    1       26.890 -20.262   9.090  0.00  0.00    -0.252 OA
ENDROOT
BRANCH   5  13
ATOM     13  C   LIG    1       23.891 -21.086   5.461  0.00  0.00    -0.050 C 
ATOM     14  C   LIG    1       22.809 -20.046   5.735  0.00  0.00    +0.032 C 
ATOM     15  C   LIG    1       22.296 -19.327   4.485  0.00  0.00    +0.005 C 
ATOM     16  C   LIG    1       23.451 -18.891   3.599  0.00  0.00    +0.004 C 
ATOM     17  C   LIG    1       24.279 -20.097   3.163  0.00  0.00    +0.027 C 
ATOM     18  C   LIG    1       24.524 -21.088   4.268  0.00  0.00    -0.026 C 
ENDBRANCH   5  13
TORSDOF 1
ENDMDL
MODEL 8
REMARK VINA RESULT:      -6.7      2.116      4.819
REMARK  Name = *****
REMARK                            x       y       z     vdW  Elec       q    Type
REMARK                         _______ _______ _______ _____ _____    ______ ____
ROOT
ATOM      1  C   LIG    1       24.884 -24.381   4.636  0.00  0.00    +0.143 C 
ATOM      2  N   LIG    1       25.213 -23.594   5.810  0.00  0.00    -0.228 N 
ATOM      3  C   LIG    1       24.687 -22.309   5.888  0.00  0.00    +0.242 C 
ATOM      4  O   LIG    1       23.913 -21.871   5.031  0.00  0.00    -0.274 OA
ATOM      5  C   LIG    1       25.189 -21.435   7.050  0.00  0.00    +0.142 C 
ATOM      6  C   LIG    1       24.091 -20.404   7.375  0.00  0.00    +0.035 C 
ATOM      7  C   LIG    1       25.448 -22.311   8.271  0.00  0.00    +0.239 C 
ATOM      8  O   LIG    1       25.258 -21.954   9.433  0.00  0.00    -0.274 OA
ATOM      9  N   LIG    1       25.997 -23.533   8.012  0.00  0.00    -0.239 N 
ATOM     10  H   LIG    1       26.235 -24.090   8.821  0.00  0.00    +0.159 HD
ATOM     11  C   LIG    1       25.794 -24.252   6.875  0.00  0.00    +0.315 C 
ATOM     12  O   LIG    1       26.049 -25.455   6.879  0.00  0.00    -0.252 OA
ENDROOT
BRANCH   5  13
ATOM     13  C   LIG    1       26.513 -20.702   6.697  0.00  0.00    -0.050 C 
ATOM     14  C   LIG    1       27.593 -20.694   7.774  0.00  0.00    +0.032 C 
ATOM     15  C   LIG    1       28.701 -19.663   7.548  0.00  0.00    +0.005 C 
ATOM     16  C   LIG    1       29.179 -19.690   6.105  0.00  0.00    +0.004 C 
ATOM     17  C   LIG    1       28.027 -19.386   5.152  0.00  0.00    +0.027 C 
ATOM     18  C   LIG    1       26.743 -20.077   5.521  0.00  0.00    -0.026 C 
ENDBRANCH   5  13
TORSDOF 1
ENDMDL
MODEL 9
REMARK VINA RESULT:      -6.4      2.292      4.757
REMARK  Name = *****
REMARK                            x       y       z     vdW  Elec       q    Type
REMARK                         _______ _______ _______ _____ _____    ______ ____
ROOT
ATOM      1  C   LIG    1       24.859 -24.571   4.320  0.00  0.00    +0.143 C 
ATOM      2  N   LIG    1       24.711 -23.519   5.309  0.00  0.00    -0.228 N 
ATOM      3  C   LIG    1       24.536 -22.221   4.840  0.00  0.00    +0.242 C 
ATOM      4  O   LIG    1       24.438 -21.973   3.635  0.00  0.00    -0.274 OA
ATOM      5  C   LIG    1       24.557 -21.106   5.898  0.00  0.00    +0.142 C 
ATOM      6  C   LIG    1       23.723 -19.927   5.360  0.00  0.00    +0.035 C 
ATOM      7  C   LIG    1       23.940 -21.620   7.194  0.00  0.00    +0.239 C 
ATOM      8  O   LIG    1       23.269 -20.933   7.964  0.00  0.00    -0.274 OA
ATOM      9  N   LIG    1       24.241 -22.911   7.517  0.00  0.00    -0.239 N 
ATOM     10  H   LIG    1       23.893 -23.236   8.409  0.00  0.00    +0.159 HD
ATOM     11  C   LIG    1       24.491 -23.900   6.616  0.00  0.00    +0.315 C 
ATOM     12  O   LIG    1       24.419 -25.071   6.985  0.00  0.00    -0.252 OA
ENDROOT
BRANCH   5  13
ATOM     13  C   LIG    1       26.002 -20.628   6.213  0.00  0.00    -0.050 C 
ATOM     14  C   LIG    1       26.505 -20.875   7.631  0.00  0.00    +0.032 C 
ATOM     15  C   LIG    1       27.751 -20.069   8.007  0.00  0.00    +0.005 C 
ATOM     16  C   LIG    1       28.788 -20.128   6.896  0.00  0.00    +0.004 C 
ATOM     17  C   LIG    1       28.217 -19.567   5.597  0.00  0.00    +0.027 C 
ATOM     18  C   LIG    1       26.807 -20.011   5.320  0.00  0.00    -0.026 C 
ENDBRANCH   5  13
TORSDOF 1
ENDMDL
