MODEL 1
REMARK VINA RESULT:      -7.5      0.000      0.000
REMARK  Name = *****
REMARK                            x       y       z     vdW  Elec       q    Type
REMARK                         _______ _______ _______ _____ _____    ______ ____
ROOT
ATOM      1  C   LIG    1       26.329 -22.497   7.825  0.00  0.00    +0.240 C 
ENDROOT
BRANCH   1   2
ATOM      2  O   LIG    1       26.332 -24.034   7.000  0.00  0.00    -0.456 OA
BRANCH   2   3
ATOM      3  C   LIG    1       25.576 -25.139   6.463  0.00  0.00    +0.307 C 
ATOM      4  O   LIG    1       24.590 -25.020   5.729  0.00  0.00    -0.251 OA
BRANCH   3   5
ATOM      5  C   LIG    1       26.181 -26.742   6.518  0.00  0.00    +0.120 C 
BRANCH   5   6
ATOM      6  C   LIG    1       25.805 -27.929   7.515  0.00  0.00    +0.011 C 
BRANCH   6   7
ATOM      7  C   LIG    1       24.745 -28.894   6.945  0.00  0.00    +0.000 C 
BRANCH   7   8
ATOM      8  C   LIG    1       24.435 -29.546   8.219  0.00  0.00    +0.000 C 
BRANCH   8   9
ATOM      9  C   LIG    1       25.134 -30.593   8.876  0.00  0.00    -0.000 C 
BRANCH   9  10
ATOM     10  C   LIG    1       26.326 -30.091  10.190  0.00  0.00    -0.000 C 
BRANCH  10  11
ATOM     11  C   LIG    1       27.279 -29.085  10.835  0.00  0.00    -0.000 C 
BRANCH  11  12
ATOM     12  C   LIG    1       26.839 -27.722  11.295  0.00  0.00    -0.000 C 
BRANCH  12  13
ATOM     13  C   LIG    1       26.009 -27.687  12.538  0.00  0.00    -0.000 C 
BRANCH  13  14
ATOM     14  C   LIG    1       25.911 -26.518  13.452  0.00  0.00    -0.000 C 
BRANCH  14  15
ATOM     15  C   LIG    1       24.562 -26.599  14.091  0.00  0.00    -0.000 C 
BRANCH  15  16
ATOM     16  C   LIG    1       23.589 -27.344  13.221  0.00  0.00    -0.000 C 
BRANCH  16  17
ATOM     17  C   LIG    1       22.299 -26.540  13.138  0.00  0.00    -0.000 C 
BRANCH  17  18
ATOM     18  C   LIG    1       21.070 -27.449  13.240  0.00  0.00    -0.003 C 
ATOM     19  C   LIG    1       19.827 -26.675  13.601  0.00  0.00    +0.004 C 
ENDBRANCH  17  18
ENDBRANCH  16  17
ENDBRANCH  15  16
ENDBRANCH  14  15
ENDBRANCH  13  14
ENDBRANCH  12  13
ENDBRANCH  11  12
ENDBRANCH  10  11
ENDBRANCH   9  10
ENDBRANCH   8   9
ENDBRANCH   7   8
ENDBRANCH   6   7
ENDBRANCH   5   6
ENDBRANCH   3   5
ENDBRANCH   2   3
ENDBRANCH   1   2
BRANCH   1  20
ATOM     20  C   LIG    1       24.824 -21.680   8.013  0.00  0.00    +0.279 C 
BRANCH  20  21
ATOM     21  O   LIG    1       23.780 -21.117   7.026  0.00  0.00    -0.461 OA
BRANCH  21  22
ATOM     22  C   LIG    1       23.764 -21.221   5.631  0.00  0.00    +0.307 C 
ATOM     23  O   LIG    1       24.344 -22.134   5.044  0.00  0.00    -0.251 OA
BRANCH  22  24
ATOM     24  C   LIG    1       22.778 -20.215   4.860  0.00  0.00    +0.120 C 
BRANCH  24  25
ATOM     25  C   LIG    1       22.328 -18.788   5.431  0.00  0.00    +0.011 C 
BRANCH  25  26
ATOM     26  C   LIG    1       22.292 -17.581   4.442  0.00  0.00    +0.000 C 
BRANCH  26  27
ATOM     27  C   LIG    1       22.540 -16.111   4.996  0.00  0.00    +0.000 C 
BRANCH  27  28
ATOM     28  C   LIG    1       23.260 -15.204   3.925  0.00  0.00    -0.000 C 
BRANCH  28  29
ATOM     29  C   LIG    1       24.108 -13.970   4.398  0.00  0.00    -0.000 C 
BRANCH  29  30
ATOM     30  C   LIG    1       25.657 -14.279   4.499  0.00  0.00    -0.000 C 
BRANCH  30  31
ATOM     31  C   LIG    1       26.246 -15.111   3.321  0.00  0.00    -0.000 C 
BRANCH  31  32
ATOM     32  C   LIG    1       26.692 -16.599   3.591  0.00  0.00    -0.000 C 
BRANCH  32  33
ATOM     33  C   LIG    1       25.721 -17.704   3.124  0.00  0.00    -0.000 C 
BRANCH  33  34
ATOM     34  C   LIG    1       25.927 -19.158   3.666  0.00  0.00    -0.000 C 
BRANCH  34  35
ATOM     35  C   LIG    1       26.543 -19.290   5.071  0.00  0.00    -0.000 C 
BRANCH  35  36
ATOM     36  C   LIG    1       28.050 -19.663   5.128  0.00  0.00    -0.000 C 
BRANCH  36  38
ATOM     37  C   LIG    1       30.426 -18.893   5.631  0.00  0.00    +0.004 C 
ATOM     38  C   LIG    1       28.942 -18.750   5.982  0.00  0.00    -0.003 C 
ENDBRANCH  36  38
ENDBRANCH  35  36
ENDBRANCH  34  35
ENDBRANCH  33  34
ENDBRANCH  32  33
ENDBRANCH  31  32
ENDBRANCH  30  31
ENDBRANCH  29  30
ENDBRANCH  28  29
ENDBRANCH  27  28
ENDBRANCH  26  27
ENDBRANCH  25  26
ENDBRANCH  24  25
ENDBRANCH  22  24
ENDBRANCH  21  22
ENDBRANCH  20  21
ENDBRANCH   1  20
BRANCH   1  39
ATOM     39  C   LIG    1       27.887 -21.362   7.933  0.00  0.00    +0.220 C 
BRANCH  39  40
ATOM     40  O   LIG    1       29.612 -21.636   8.103  0.00  0.00    -0.283 OA
BRANCH  40  41
ATOM     41  P   LIG    1       30.878 -21.665   9.300  0.00  0.00    +0.475 P 
ATOM     42  O   LIG    1       30.819 -22.105  10.704  0.00  0.00    -0.227 OA
BRANCH  41  43
ATOM     43  O   LIG    1       31.852 -22.655   8.453  0.00  0.00    -0.302 OA
ATOM     44  H   LIG    1       32.041 -23.573   8.725  0.00  0.00    +0.222 HD
ENDBRANCH  41  43
BRANCH  41  45
ATOM     45  O   LIG    1       31.847 -20.407   9.328  0.00  0.00    -0.281 OA
BRANCH  45  46
ATOM     46  C   LIG    1       31.415 -19.105   8.897  0.00  0.00    +0.223 C 
BRANCH  46  47
ATOM     47  C   LIG    1       32.197 -17.683   8.884  0.00  0.00    +0.161 C 
BRANCH  47  48
ATOM     48  N   LIG    1       32.079 -16.694  10.109  0.00  0.00    +0.238 N 
ATOM     49  C   LIG    1       32.940 -16.970  11.356  0.00  0.00    +0.192 C 
ATOM     50  C   LIG    1       30.672 -16.609  10.713  0.00  0.00    +0.192 C 
ATOM     51  C   LIG    1       32.676 -15.418   9.644  0.00  0.00    +0.192 C 
ENDBRANCH  47  48
ENDBRANCH  46  47
ENDBRANCH  45  46
ENDBRANCH  41  45
ENDBRANCH  40  41
ENDBRANCH  39  40
ENDBRANCH   1  39
TORSDOF 41
ENDMDL
MODEL 2
REMARK VINA RESULT:      -7.5      4.654     12.942
REMARK  Name = *****
REMARK                            x       y       z     vdW  Elec       q    Type
REMARK                         _______ _______ _______ _____ _____    ______ ____
ROOT
ATOM      1  C   LIG    1       25.665 -28.419   8.163  0.00  0.00    +0.240 C 
ENDROOT
BRANCH   1   2
ATOM      2  O   LIG    1       26.412 -27.219   7.142  0.00  0.00    -0.456 OA
BRANCH   2   3
ATOM      3  C   LIG    1       26.361 -26.433   5.933  0.00  0.00    +0.307 C 
ATOM      4  O   LIG    1       26.834 -26.788   4.849  0.00  0.00    -0.251 OA
BRANCH   3   5
ATOM      5  C   LIG    1       25.335 -25.067   5.801  0.00  0.00    +0.120 C 
BRANCH   5   6
ATOM      6  C   LIG    1       25.073 -23.896   6.853  0.00  0.00    +0.011 C 
BRANCH   6   7
ATOM      7  C   LIG    1       23.647 -23.312   6.775  0.00  0.00    +0.000 C 
BRANCH   7   8
ATOM      8  C   LIG    1       23.964 -22.049   7.443  0.00  0.00    +0.000 C 
BRANCH   8   9
ATOM      9  C   LIG    1       23.307 -20.795   7.334  0.00  0.00    -0.000 C 
BRANCH   9  10
ATOM     10  C   LIG    1       23.087 -20.123   5.632  0.00  0.00    -0.000 C 
BRANCH  10  11
ATOM     11  C   LIG    1       23.627 -19.726   4.257  0.00  0.00    -0.000 C 
BRANCH  11  12
ATOM     12  C   LIG    1       25.075 -19.870   3.875  0.00  0.00    -0.000 C 
BRANCH  12  13
ATOM     13  C   LIG    1       25.958 -20.521   4.890  0.00  0.00    -0.000 C 
BRANCH  13  14
ATOM     14  C   LIG    1       27.092 -19.846   5.575  0.00  0.00    -0.000 C 
BRANCH  14  15
ATOM     15  C   LIG    1       27.394 -20.665   6.789  0.00  0.00    -0.000 C 
BRANCH  15  16
ATOM     16  C   LIG    1       28.860 -20.983   6.883  0.00  0.00    -0.000 C 
BRANCH  16  17
ATOM     17  C   LIG    1       29.651 -19.712   6.614  0.00  0.00    -0.000 C 
BRANCH  17  18
ATOM     18  C   LIG    1       29.759 -18.846   7.873  0.00  0.00    -0.003 C 
ATOM     19  C   LIG    1       30.822 -19.352   8.815  0.00  0.00    +0.004 C 
ENDBRANCH  17  18
ENDBRANCH  16  17
ENDBRANCH  15  16
ENDBRANCH  14  15
ENDBRANCH  13  14
ENDBRANCH  12  13
ENDBRANCH  11  12
ENDBRANCH  10  11
ENDBRANCH   9  10
ENDBRANCH   8   9
ENDBRANCH   7   8
ENDBRANCH   6   7
ENDBRANCH   5   6
ENDBRANCH   3   5
ENDBRANCH   2   3
ENDBRANCH   1   2
BRANCH   1  20
ATOM     20  C   LIG    1       26.589 -29.068   9.463  0.00  0.00    +0.279 C 
BRANCH  20  21
ATOM     21  O   LIG    1       27.513 -28.450  10.533  0.00  0.00    -0.461 OA
BRANCH  21  22
ATOM     22  C   LIG    1       27.920 -29.007  11.750  0.00  0.00    +0.307 C 
ATOM     23  O   LIG    1       28.901 -29.746  11.826  0.00  0.00    -0.251 OA
BRANCH  22  24
ATOM     24  C   LIG    1       27.172 -28.461  13.063  0.00  0.00    +0.120 C 
BRANCH  24  25
ATOM     25  C   LIG    1       25.965 -29.224  13.788  0.00  0.00    +0.011 C 
BRANCH  25  26
ATOM     26  C   LIG    1       25.795 -30.751  13.516  0.00  0.00    +0.000 C 
BRANCH  26  27
ATOM     27  C   LIG    1       24.778 -31.592  14.402  0.00  0.00    +0.000 C 
BRANCH  27  28
ATOM     28  C   LIG    1       23.924 -30.660  15.345  0.00  0.00    -0.000 C 
BRANCH  28  29
ATOM     29  C   LIG    1       22.413 -30.394  15.012  0.00  0.00    -0.000 C 
BRANCH  29  30
ATOM     30  C   LIG    1       21.912 -31.165  13.723  0.00  0.00    -0.000 C 
BRANCH  30  31
ATOM     31  C   LIG    1       21.310 -30.264  12.604  0.00  0.00    -0.000 C 
BRANCH  31  32
ATOM     32  C   LIG    1       21.982 -28.868  12.308  0.00  0.00    -0.000 C 
BRANCH  32  33
ATOM     33  C   LIG    1       21.210 -27.619  12.779  0.00  0.00    -0.000 C 
BRANCH  33  34
ATOM     34  C   LIG    1       22.014 -26.452  13.445  0.00  0.00    -0.000 C 
BRANCH  34  35
ATOM     35  C   LIG    1       23.439 -26.781  13.926  0.00  0.00    -0.000 C 
BRANCH  35  36
ATOM     36  C   LIG    1       24.505 -25.667  13.730  0.00  0.00    -0.000 C 
BRANCH  36  38
ATOM     37  C   LIG    1       25.531 -23.638  14.879  0.00  0.00    +0.004 C 
ATOM     38  C   LIG    1       25.151 -25.116  15.009  0.00  0.00    -0.003 C 
ENDBRANCH  36  38
ENDBRANCH  35  36
ENDBRANCH  34  35
ENDBRANCH  33  34
ENDBRANCH  32  33
ENDBRANCH  31  32
ENDBRANCH  30  31
ENDBRANCH  29  30
ENDBRANCH  28  29
ENDBRANCH  27  28
ENDBRANCH  26  27
ENDBRANCH  25  26
ENDBRANCH  24  25
ENDBRANCH  22  24
ENDBRANCH  21  22
ENDBRANCH  20  21
ENDBRANCH   1  20
BRANCH   1  39
ATOM     39  C   LIG    1       24.201 -29.532   7.574  0.00  0.00    +0.220 C 
BRANCH  39  40
ATOM     40  O   LIG    1       23.249 -30.815   8.298  0.00  0.00    -0.283 OA
BRANCH  40  41
ATOM     41  P   LIG    1       23.304 -32.004   9.572  0.00  0.00    +0.475 P 
ATOM     42  O   LIG    1       23.914 -31.905  10.908  0.00  0.00    -0.227 OA
BRANCH  41  43
ATOM     43  O   LIG    1       21.689 -32.137   9.713  0.00  0.00    -0.302 OA
ATOM     44  H   LIG    1       21.211 -32.974   9.563  0.00  0.00    +0.222 HD
ENDBRANCH  41  43
BRANCH  41  45
ATOM     45  O   LIG    1       23.589 -33.501   9.124  0.00  0.00    -0.281 OA
BRANCH  45  46
ATOM     46  C   LIG    1       24.577 -33.822   8.131  0.00  0.00    +0.223 C 
BRANCH  46  47
ATOM     47  C   LIG    1       24.673 -33.411   6.563  0.00  0.00    +0.161 C 
BRANCH  47  48
ATOM     48  N   LIG    1       26.004 -32.798   5.978  0.00  0.00    +0.238 N 
ATOM     49  C   LIG    1       25.895 -31.610   5.002  0.00  0.00    +0.192 C 
ATOM     50  C   LIG    1       26.850 -33.789   5.169  0.00  0.00    +0.192 C 
ATOM     51  C   LIG    1       26.675 -32.142   7.127  0.00  0.00    +0.192 C 
ENDBRANCH  47  48
ENDBRANCH  46  47
ENDBRANCH  45  46
ENDBRANCH  41  45
ENDBRANCH  40  41
ENDBRANCH  39  40
ENDBRANCH   1  39
TORSDOF 41
ENDMDL
MODEL 3
REMARK VINA RESULT:      -7.4      5.301     10.169
REMARK  Name = *****
REMARK                            x       y       z     vdW  Elec       q    Type
REMARK                         _______ _______ _______ _____ _____    ______ ____
ROOT
ATOM      1  C   LIG    1       25.429 -30.830   8.132  0.00  0.00    +0.240 C 
ENDROOT
BRANCH   1   2
ATOM      2  O   LIG    1       26.426 -29.732   9.049  0.00  0.00    -0.456 OA
BRANCH   2   3
ATOM      3  C   LIG    1       27.146 -29.455  10.268  0.00  0.00    +0.307 C 
ATOM      4  O   LIG    1       28.122 -30.101  10.665  0.00  0.00    -0.251 OA
BRANCH   3   5
ATOM      5  C   LIG    1       26.926 -27.984  11.119  0.00  0.00    +0.120 C 
BRANCH   5   6
ATOM      6  C   LIG    1       26.063 -27.696  12.429  0.00  0.00    +0.011 C 
BRANCH   6   7
ATOM      7  C   LIG    1       26.598 -26.513  13.265  0.00  0.00    +0.000 C 
BRANCH   7   8
ATOM      8  C   LIG    1       25.364 -26.295  14.022  0.00  0.00    +0.000 C 
BRANCH   8   9
ATOM      9  C   LIG    1       24.220 -25.535  13.660  0.00  0.00    -0.000 C 
BRANCH   9  10
ATOM     10  C   LIG    1       22.597 -26.407  13.724  0.00  0.00    -0.000 C 
BRANCH  10  11
ATOM     11  C   LIG    1       21.275 -26.845  13.094  0.00  0.00    -0.000 C 
BRANCH  11  12
ATOM     12  C   LIG    1       20.184 -27.526  13.874  0.00  0.00    -0.000 C 
BRANCH  12  13
ATOM     13  C   LIG    1       20.633 -28.420  14.984  0.00  0.00    -0.000 C 
BRANCH  13  14
ATOM     14  C   LIG    1       21.043 -29.839  14.807  0.00  0.00    -0.000 C 
BRANCH  14  15
ATOM     15  C   LIG    1       22.454 -29.931  15.295  0.00  0.00    -0.000 C 
BRANCH  15  16
ATOM     16  C   LIG    1       23.434 -29.734  14.173  0.00  0.00    -0.000 C 
BRANCH  16  17
ATOM     17  C   LIG    1       23.014 -30.611  13.003  0.00  0.00    -0.000 C 
BRANCH  17  18
ATOM     18  C   LIG    1       24.146 -30.756  11.981  0.00  0.00    -0.003 C 
ATOM     19  C   LIG    1       25.188 -31.748  12.433  0.00  0.00    +0.004 C 
ENDBRANCH  17  18
ENDBRANCH  16  17
ENDBRANCH  15  16
ENDBRANCH  14  15
ENDBRANCH  13  14
ENDBRANCH  12  13
ENDBRANCH  11  12
ENDBRANCH  10  11
ENDBRANCH   9  10
ENDBRANCH   8   9
ENDBRANCH   7   8
ENDBRANCH   6   7
ENDBRANCH   5   6
ENDBRANCH   3   5
ENDBRANCH   2   3
ENDBRANCH   1   2
BRANCH   1  20
ATOM     20  C   LIG    1       24.370 -30.168   6.946  0.00  0.00    +0.279 C 
BRANCH  20  21
ATOM     21  O   LIG    1       24.129 -28.745   6.401  0.00  0.00    -0.461 OA
BRANCH  21  22
ATOM     22  C   LIG    1       25.064 -27.854   5.863  0.00  0.00    +0.307 C 
ATOM     23  O   LIG    1       25.286 -27.803   4.654  0.00  0.00    -0.251 OA
BRANCH  22  24
ATOM     24  C   LIG    1       25.667 -26.765   6.878  0.00  0.00    +0.120 C 
BRANCH  24  25
ATOM     25  C   LIG    1       26.171 -25.311   6.436  0.00  0.00    +0.011 C 
BRANCH  25  26
ATOM     26  C   LIG    1       25.114 -24.166   6.341  0.00  0.00    +0.000 C 
BRANCH  26  27
ATOM     27  C   LIG    1       23.590 -24.484   6.660  0.00  0.00    +0.000 C 
BRANCH  27  28
ATOM     28  C   LIG    1       22.725 -23.166   6.721  0.00  0.00    -0.000 C 
BRANCH  28  29
ATOM     29  C   LIG    1       23.310 -21.885   7.416  0.00  0.00    -0.000 C 
BRANCH  29  30
ATOM     30  C   LIG    1       23.070 -20.559   6.585  0.00  0.00    -0.000 C 
BRANCH  30  31
ATOM     31  C   LIG    1       23.123 -20.728   5.037  0.00  0.00    -0.000 C 
BRANCH  31  32
ATOM     32  C   LIG    1       24.514 -21.007   4.350  0.00  0.00    -0.000 C 
BRANCH  32  33
ATOM     33  C   LIG    1       25.538 -19.853   4.376  0.00  0.00    -0.000 C 
BRANCH  33  34
ATOM     34  C   LIG    1       26.838 -20.027   5.230  0.00  0.00    -0.000 C 
BRANCH  34  35
ATOM     35  C   LIG    1       26.677 -20.704   6.604  0.00  0.00    -0.000 C 
BRANCH  35  36
ATOM     36  C   LIG    1       27.991 -21.026   7.369  0.00  0.00    -0.000 C 
BRANCH  36  38
ATOM     37  C   LIG    1       29.652 -19.233   6.648  0.00  0.00    +0.004 C 
ATOM     38  C   LIG    1       28.834 -19.819   7.803  0.00  0.00    -0.003 C 
ENDBRANCH  36  38
ENDBRANCH  35  36
ENDBRANCH  34  35
ENDBRANCH  33  34
ENDBRANCH  32  33
ENDBRANCH  31  32
ENDBRANCH  30  31
ENDBRANCH  29  30
ENDBRANCH  28  29
ENDBRANCH  27  28
ENDBRANCH  26  27
ENDBRANCH  25  26
ENDBRANCH  24  25
ENDBRANCH  22  24
ENDBRANCH  21  22
ENDBRANCH  20  21
ENDBRANCH   1  20
BRANCH   1  39
ATOM     39  C   LIG    1       24.931 -32.581   8.776  0.00  0.00    +0.220 C 
BRANCH  39  40
ATOM     40  O   LIG    1       23.413 -33.418   9.044  0.00  0.00    -0.283 OA
BRANCH  40  41
ATOM     41  P   LIG    1       21.790 -33.153   9.624  0.00  0.00    +0.475 P 
ATOM     42  O   LIG    1       20.536 -33.793   9.195  0.00  0.00    -0.227 OA
BRANCH  41  43
ATOM     43  O   LIG    1       22.120 -33.563  11.163  0.00  0.00    -0.302 OA
ATOM     44  H   LIG    1       21.473 -34.007  11.743  0.00  0.00    +0.222 HD
ENDBRANCH  41  43
BRANCH  41  45
ATOM     45  O   LIG    1       21.382 -31.644   9.902  0.00  0.00    -0.281 OA
BRANCH  45  46
ATOM     46  C   LIG    1       20.068 -31.284  10.360  0.00  0.00    +0.223 C 
BRANCH  46  47
ATOM     47  C   LIG    1       19.459 -31.193  11.862  0.00  0.00    +0.161 C 
BRANCH  47  48
ATOM     48  N   LIG    1       18.109 -31.926  12.223  0.00  0.00    +0.238 N 
ATOM     49  C   LIG    1       16.800 -31.114  12.174  0.00  0.00    +0.192 C 
ATOM     50  C   LIG    1       18.066 -32.501  13.644  0.00  0.00    +0.192 C 
ATOM     51  C   LIG    1       17.873 -32.885  11.116  0.00  0.00    +0.192 C 
ENDBRANCH  47  48
ENDBRANCH  46  47
ENDBRANCH  45  46
ENDBRANCH  41  45
ENDBRANCH  40  41
ENDBRANCH  39  40
ENDBRANCH   1  39
TORSDOF 41
ENDMDL
MODEL 4
REMARK VINA RESULT:      -7.3      1.503     10.515
REMARK  Name = *****
REMARK                            x       y       z     vdW  Elec       q    Type
REMARK                         _______ _______ _______ _____ _____    ______ ____
ROOT
ATOM      1  C   LIG    1       27.321 -20.574   5.965  0.00  0.00    +0.240 C 
ENDROOT
BRANCH   1   2
ATOM      2  O   LIG    1       27.426 -19.139   4.979  0.00  0.00    -0.456 OA
BRANCH   2   3
ATOM      3  C   LIG    1       28.065 -17.870   4.723  0.00  0.00    +0.307 C 
ATOM      4  O   LIG    1       29.252 -17.625   4.961  0.00  0.00    -0.251 OA
BRANCH   3   5
ATOM      5  C   LIG    1       27.318 -16.678   3.745  0.00  0.00    +0.120 C 
BRANCH   5   6
ATOM      6  C   LIG    1       27.401 -15.089   3.850  0.00  0.00    +0.011 C 
BRANCH   6   7
ATOM      7  C   LIG    1       26.841 -14.363   2.608  0.00  0.00    +0.000 C 
BRANCH   7   8
ATOM      8  C   LIG    1       25.777 -13.651   3.318  0.00  0.00    +0.000 C 
BRANCH   8   9
ATOM      9  C   LIG    1       24.370 -13.798   3.191  0.00  0.00    -0.000 C 
BRANCH   9  10
ATOM     10  C   LIG    1       23.505 -14.676   4.562  0.00  0.00    -0.000 C 
BRANCH  10  11
ATOM     11  C   LIG    1       22.534 -15.735   5.086  0.00  0.00    -0.000 C 
BRANCH  11  12
ATOM     12  C   LIG    1       22.289 -17.040   4.380  0.00  0.00    -0.000 C 
BRANCH  12  13
ATOM     13  C   LIG    1       23.505 -17.846   4.055  0.00  0.00    -0.000 C 
BRANCH  13  14
ATOM     14  C   LIG    1       23.556 -19.332   4.061  0.00  0.00    -0.000 C 
BRANCH  14  15
ATOM     15  C   LIG    1       22.221 -19.794   4.549  0.00  0.00    -0.000 C 
BRANCH  15  16
ATOM     16  C   LIG    1       22.334 -21.085   5.311  0.00  0.00    -0.000 C 
BRANCH  16  17
ATOM     17  C   LIG    1       23.027 -20.807   6.637  0.00  0.00    -0.000 C 
BRANCH  17  18
ATOM     18  C   LIG    1       22.998 -22.037   7.549  0.00  0.00    -0.003 C 
ATOM     19  C   LIG    1       22.452 -23.251   6.841  0.00  0.00    +0.004 C 
ENDBRANCH  17  18
ENDBRANCH  16  17
ENDBRANCH  15  16
ENDBRANCH  14  15
ENDBRANCH  13  14
ENDBRANCH  12  13
ENDBRANCH  11  12
ENDBRANCH  10  11
ENDBRANCH   9  10
ENDBRANCH   8   9
ENDBRANCH   7   8
ENDBRANCH   6   7
ENDBRANCH   5   6
ENDBRANCH   3   5
ENDBRANCH   2   3
ENDBRANCH   1   2
BRANCH   1  20
ATOM     20  C   LIG    1       25.903 -21.543   5.838  0.00  0.00    +0.279 C 
BRANCH  20  21
ATOM     21  O   LIG    1       25.651 -23.054   5.660  0.00  0.00    -0.461 OA
BRANCH  21  22
ATOM     22  C   LIG    1       25.875 -24.084   6.580  0.00  0.00    +0.307 C 
ATOM     23  O   LIG    1       26.061 -23.853   7.774  0.00  0.00    -0.251 OA
BRANCH  22  24
ATOM     24  C   LIG    1       25.664 -25.579   6.033  0.00  0.00    +0.120 C 
BRANCH  24  25
ATOM     25  C   LIG    1       24.244 -26.316   5.966  0.00  0.00    +0.011 C 
BRANCH  25  26
ATOM     26  C   LIG    1       24.230 -27.875   5.904  0.00  0.00    +0.000 C 
BRANCH  26  27
ATOM     27  C   LIG    1       25.530 -28.685   6.331  0.00  0.00    +0.000 C 
BRANCH  27  28
ATOM     28  C   LIG    1       25.398 -29.260   7.793  0.00  0.00    -0.000 C 
BRANCH  28  29
ATOM     29  C   LIG    1       24.005 -29.773   8.303  0.00  0.00    -0.000 C 
BRANCH  29  30
ATOM     30  C   LIG    1       24.116 -31.016   9.278  0.00  0.00    -0.000 C 
BRANCH  30  31
ATOM     31  C   LIG    1       25.416 -31.073  10.134  0.00  0.00    -0.000 C 
BRANCH  31  32
ATOM     32  C   LIG    1       25.398 -30.462  11.587  0.00  0.00    -0.000 C 
BRANCH  32  33
ATOM     33  C   LIG    1       24.962 -28.987  11.707  0.00  0.00    -0.000 C 
BRANCH  33  34
ATOM     34  C   LIG    1       24.258 -28.521  13.026  0.00  0.00    -0.000 C 
BRANCH  34  35
ATOM     35  C   LIG    1       22.897 -27.817  12.870  0.00  0.00    -0.000 C 
BRANCH  35  36
ATOM     36  C   LIG    1       22.786 -26.396  13.489  0.00  0.00    -0.000 C 
BRANCH  36  38
ATOM     37  C   LIG    1       24.528 -25.231  14.939  0.00  0.00    +0.004 C 
ATOM     38  C   LIG    1       23.364 -26.225  14.902  0.00  0.00    -0.003 C 
ENDBRANCH  36  38
ENDBRANCH  35  36
ENDBRANCH  34  35
ENDBRANCH  33  34
ENDBRANCH  32  33
ENDBRANCH  31  32
ENDBRANCH  30  31
ENDBRANCH  29  30
ENDBRANCH  28  29
ENDBRANCH  27  28
ENDBRANCH  26  27
ENDBRANCH  25  26
ENDBRANCH  24  25
ENDBRANCH  22  24
ENDBRANCH  21  22
ENDBRANCH  20  21
ENDBRANCH   1  20
BRANCH   1  39
ATOM     39  C   LIG    1       28.306 -20.790   7.611  0.00  0.00    +0.220 C 
BRANCH  39  40
ATOM     40  O   LIG    1       29.781 -21.620   8.074  0.00  0.00    -0.283 OA
BRANCH  40  41
ATOM     41  P   LIG    1       31.065 -21.568   9.252  0.00  0.00    +0.475 P 
ATOM     42  O   LIG    1       31.026 -21.906  10.684  0.00  0.00    -0.227 OA
BRANCH  41  43
ATOM     43  O   LIG    1       32.024 -22.619   8.463  0.00  0.00    -0.302 OA
ATOM     44  H   LIG    1       32.804 -23.037   8.876  0.00  0.00    +0.222 HD
ENDBRANCH  41  43
BRANCH  41  45
ATOM     45  O   LIG    1       32.038 -20.314   9.176  0.00  0.00    -0.281 OA
BRANCH  45  46
ATOM     46  C   LIG    1       31.540 -18.974   9.029  0.00  0.00    +0.223 C 
BRANCH  46  47
ATOM     47  C   LIG    1       32.317 -17.549   9.055  0.00  0.00    +0.161 C 
BRANCH  47  48
ATOM     48  N   LIG    1       32.183 -16.588  10.301  0.00  0.00    +0.238 N 
ATOM     49  C   LIG    1       33.021 -16.897  11.556  0.00  0.00    +0.192 C 
ATOM     50  C   LIG    1       30.767 -16.509  10.883  0.00  0.00    +0.192 C 
ATOM     51  C   LIG    1       32.795 -15.305   9.876  0.00  0.00    +0.192 C 
ENDBRANCH  47  48
ENDBRANCH  46  47
ENDBRANCH  45  46
ENDBRANCH  41  45
ENDBRANCH  40  41
ENDBRANCH  39  40
ENDBRANCH   1  39
TORSDOF 41
ENDMDL
MODEL 5
REMARK VINA RESULT:      -7.2      1.127      2.020
REMARK  Name = *****
REMARK                            x       y       z     vdW  Elec       q    Type
REMARK                         _______ _______ _______ _____ _____    ______ ____
ROOT
ATOM      1  C   LIG    1       25.823 -22.768   7.555  0.00  0.00    +0.240 C 
ENDROOT
BRANCH   1   2
ATOM      2  O   LIG    1       26.112 -24.135   6.512  0.00  0.00    -0.456 OA
BRANCH   2   3
ATOM      3  C   LIG    1       25.567 -25.210   5.719  0.00  0.00    +0.307 C 
ATOM      4  O   LIG    1       25.138 -25.081   4.568  0.00  0.00    -0.251 OA
BRANCH   3   5
ATOM      5  C   LIG    1       25.774 -26.849   6.176  0.00  0.00    +0.120 C 
BRANCH   5   6
ATOM      6  C   LIG    1       24.694 -27.889   6.720  0.00  0.00    +0.011 C 
BRANCH   6   7
ATOM      7  C   LIG    1       24.413 -29.048   5.740  0.00  0.00    +0.000 C 
BRANCH   7   8
ATOM      8  C   LIG    1       24.582 -30.120   6.722  0.00  0.00    +0.000 C 
BRANCH   8   9
ATOM      9  C   LIG    1       24.929 -30.023   8.095  0.00  0.00    -0.000 C 
BRANCH   9  10
ATOM     10  C   LIG    1       23.546 -30.148   9.307  0.00  0.00    -0.000 C 
BRANCH  10  11
ATOM     11  C   LIG    1       22.703 -30.926  10.318  0.00  0.00    -0.000 C 
BRANCH  11  12
ATOM     12  C   LIG    1       22.662 -30.585  11.782  0.00  0.00    -0.000 C 
BRANCH  12  13
ATOM     13  C   LIG    1       21.758 -29.458  12.166  0.00  0.00    -0.000 C 
BRANCH  13  14
ATOM     14  C   LIG    1       21.938 -28.608  13.373  0.00  0.00    -0.000 C 
BRANCH  14  15
ATOM     15  C   LIG    1       21.832 -27.192  12.907  0.00  0.00    -0.000 C 
BRANCH  15  16
ATOM     16  C   LIG    1       22.883 -26.327  13.545  0.00  0.00    -0.000 C 
BRANCH  16  17
ATOM     17  C   LIG    1       24.224 -27.039  13.443  0.00  0.00    -0.000 C 
BRANCH  17  18
ATOM     18  C   LIG    1       25.363 -26.159  13.969  0.00  0.00    -0.003 C 
ATOM     19  C   LIG    1       25.122 -24.698  13.688  0.00  0.00    +0.004 C 
ENDBRANCH  17  18
ENDBRANCH  16  17
ENDBRANCH  15  16
ENDBRANCH  14  15
ENDBRANCH  13  14
ENDBRANCH  12  13
ENDBRANCH  11  12
ENDBRANCH  10  11
ENDBRANCH   9  10
ENDBRANCH   8   9
ENDBRANCH   7   8
ENDBRANCH   6   7
ENDBRANCH   5   6
ENDBRANCH   3   5
ENDBRANCH   2   3
ENDBRANCH   1   2
BRANCH   1  20
ATOM     20  C   LIG    1       24.292 -21.986   7.463  0.00  0.00    +0.279 C 
BRANCH  20  21
ATOM     21  O   LIG    1       23.652 -20.997   6.467  0.00  0.00    -0.461 OA
BRANCH  21  22
ATOM     22  C   LIG    1       23.716 -21.013   5.070  0.00  0.00    +0.307 C 
ATOM     23  O   LIG    1       24.158 -21.983   4.454  0.00  0.00    -0.251 OA
BRANCH  22  24
ATOM     24  C   LIG    1       22.988 -19.796   4.315  0.00  0.00    +0.120 C 
BRANCH  24  25
ATOM     25  C   LIG    1       22.262 -18.582   5.067  0.00  0.00    +0.011 C 
BRANCH  25  26
ATOM     26  C   LIG    1       22.148 -17.219   4.315  0.00  0.00    +0.000 C 
BRANCH  26  27
ATOM     27  C   LIG    1       22.668 -15.893   5.021  0.00  0.00    +0.000 C 
BRANCH  27  28
ATOM     28  C   LIG    1       23.381 -14.932   3.994  0.00  0.00    -0.000 C 
BRANCH  28  29
ATOM     29  C   LIG    1       24.228 -13.721   4.523  0.00  0.00    -0.000 C 
BRANCH  29  30
ATOM     30  C   LIG    1       25.790 -13.944   4.388  0.00  0.00    -0.000 C 
BRANCH  30  31
ATOM     31  C   LIG    1       26.234 -14.801   3.165  0.00  0.00    -0.000 C 
BRANCH  31  32
ATOM     32  C   LIG    1       26.813 -16.246   3.419  0.00  0.00    -0.000 C 
BRANCH  32  33
ATOM     33  C   LIG    1       25.792 -17.402   3.444  0.00  0.00    -0.000 C 
BRANCH  33  34
ATOM     34  C   LIG    1       26.326 -18.867   3.586  0.00  0.00    -0.000 C 
BRANCH  34  35
ATOM     35  C   LIG    1       26.502 -19.402   5.019  0.00  0.00    -0.000 C 
BRANCH  35  36
ATOM     36  C   LIG    1       27.860 -20.089   5.333  0.00  0.00    -0.000 C 
BRANCH  36  38
ATOM     37  C   LIG    1       29.405 -18.063   5.308  0.00  0.00    +0.004 C 
ATOM     38  C   LIG    1       28.878 -19.250   6.119  0.00  0.00    -0.003 C 
ENDBRANCH  36  38
ENDBRANCH  35  36
ENDBRANCH  34  35
ENDBRANCH  33  34
ENDBRANCH  32  33
ENDBRANCH  31  32
ENDBRANCH  30  31
ENDBRANCH  29  30
ENDBRANCH  28  29
ENDBRANCH  27  28
ENDBRANCH  26  27
ENDBRANCH  25  26
ENDBRANCH  24  25
ENDBRANCH  22  24
ENDBRANCH  21  22
ENDBRANCH  20  21
ENDBRANCH   1  20
BRANCH   1  39
ATOM     39  C   LIG    1       27.247 -21.681   8.278  0.00  0.00    +0.220 C 
BRANCH  39  40
ATOM     40  O   LIG    1       28.999 -21.767   8.269  0.00  0.00    -0.283 OA
BRANCH  40  41
ATOM     41  P   LIG    1       30.385 -21.474   9.284  0.00  0.00    +0.475 P 
ATOM     42  O   LIG    1       30.790 -22.159  10.523  0.00  0.00    -0.227 OA
BRANCH  41  43
ATOM     43  O   LIG    1       31.480 -21.758   8.115  0.00  0.00    -0.302 OA
ATOM     44  H   LIG    1       32.328 -22.212   8.282  0.00  0.00    +0.222 HD
ENDBRANCH  41  43
BRANCH  41  45
ATOM     45  O   LIG    1       30.758 -19.952   9.542  0.00  0.00    -0.281 OA
BRANCH  45  46
ATOM     46  C   LIG    1       31.756 -19.271   8.764  0.00  0.00    +0.223 C 
BRANCH  46  47
ATOM     47  C   LIG    1       32.074 -17.687   8.603  0.00  0.00    +0.161 C 
BRANCH  47  48
ATOM     48  N   LIG    1       31.951 -16.718   9.843  0.00  0.00    +0.238 N 
ATOM     49  C   LIG    1       32.579 -15.315   9.740  0.00  0.00    +0.192 C 
ATOM     50  C   LIG    1       32.598 -17.256  11.126  0.00  0.00    +0.192 C 
ATOM     51  C   LIG    1       30.513 -16.366   9.927  0.00  0.00    +0.192 C 
ENDBRANCH  47  48
ENDBRANCH  46  47
ENDBRANCH  45  46
ENDBRANCH  41  45
ENDBRANCH  40  41
ENDBRANCH  39  40
ENDBRANCH   1  39
TORSDOF 41
ENDMDL
MODEL 6
REMARK VINA RESULT:      -7.1      4.706     13.048
REMARK  Name = *****
REMARK                            x       y       z     vdW  Elec       q    Type
REMARK                         _______ _______ _______ _____ _____    ______ ____
ROOT
ATOM      1  C   LIG    1       24.767 -28.666   7.279  0.00  0.00    +0.240 C 
ENDROOT
BRANCH   1   2
ATOM      2  O   LIG    1       24.670 -26.983   6.829  0.00  0.00    -0.456 OA
BRANCH   2   3
ATOM      3  C   LIG    1       25.279 -25.851   6.176  0.00  0.00    +0.307 C 
ATOM      4  O   LIG    1       26.316 -25.905   5.506  0.00  0.00    -0.251 OA
BRANCH   3   5
ATOM      5  C   LIG    1       24.435 -24.373   5.982  0.00  0.00    +0.120 C 
BRANCH   5   6
ATOM      6  C   LIG    1       23.151 -23.834   6.762  0.00  0.00    +0.011 C 
BRANCH   6   7
ATOM      7  C   LIG    1       22.647 -22.471   6.242  0.00  0.00    +0.000 C 
BRANCH   7   8
ATOM      8  C   LIG    1       23.371 -21.660   7.222  0.00  0.00    +0.000 C 
BRANCH   8   9
ATOM      9  C   LIG    1       24.331 -20.637   6.997  0.00  0.00    -0.000 C 
BRANCH   9  10
ATOM     10  C   LIG    1       25.992 -20.883   7.756  0.00  0.00    -0.000 C 
BRANCH  10  11
ATOM     11  C   LIG    1       27.444 -20.464   7.993  0.00  0.00    -0.000 C 
BRANCH  11  12
ATOM     12  C   LIG    1       28.590 -20.988   7.172  0.00  0.00    -0.000 C 
BRANCH  12  13
ATOM     13  C   LIG    1       29.450 -19.957   6.516  0.00  0.00    -0.000 C 
BRANCH  13  14
ATOM     14  C   LIG    1       29.814 -18.651   7.128  0.00  0.00    -0.000 C 
BRANCH  14  15
ATOM     15  C   LIG    1       31.084 -18.881   7.881  0.00  0.00    -0.000 C 
BRANCH  15  16
ATOM     16  C   LIG    1       31.394 -17.729   8.796  0.00  0.00    -0.000 C 
BRANCH  16  17
ATOM     17  C   LIG    1       30.310 -17.650   9.860  0.00  0.00    -0.000 C 
BRANCH  17  18
ATOM     18  C   LIG    1       30.901 -17.311  11.233  0.00  0.00    -0.003 C 
ATOM     19  C   LIG    1       31.931 -16.213  11.147  0.00  0.00    +0.004 C 
ENDBRANCH  17  18
ENDBRANCH  16  17
ENDBRANCH  15  16
ENDBRANCH  14  15
ENDBRANCH  13  14
ENDBRANCH  12  13
ENDBRANCH  11  12
ENDBRANCH  10  11
ENDBRANCH   9  10
ENDBRANCH   8   9
ENDBRANCH   7   8
ENDBRANCH   6   7
ENDBRANCH   5   6
ENDBRANCH   3   5
ENDBRANCH   2   3
ENDBRANCH   1   2
BRANCH   1  20
ATOM     20  C   LIG    1       25.818 -29.101   8.571  0.00  0.00    +0.279 C 
BRANCH  20  21
ATOM     21  O   LIG    1       26.724 -28.302   9.531  0.00  0.00    -0.461 OA
BRANCH  21  22
ATOM     22  C   LIG    1       27.309 -28.731  10.727  0.00  0.00    +0.307 C 
ATOM     23  O   LIG    1       28.144 -29.634  10.750  0.00  0.00    -0.251 OA
BRANCH  22  24
ATOM     24  C   LIG    1       26.992 -27.842  12.026  0.00  0.00    +0.120 C 
BRANCH  24  25
ATOM     25  C   LIG    1       25.518 -27.579  12.594  0.00  0.00    +0.011 C 
BRANCH  25  26
ATOM     26  C   LIG    1       24.563 -28.803  12.747  0.00  0.00    +0.000 C 
BRANCH  26  27
ATOM     27  C   LIG    1       23.180 -28.625  13.511  0.00  0.00    +0.000 C 
BRANCH  27  28
ATOM     28  C   LIG    1       22.625 -27.156  13.366  0.00  0.00    -0.000 C 
BRANCH  28  29
ATOM     29  C   LIG    1       21.147 -26.929  12.886  0.00  0.00    -0.000 C 
BRANCH  29  30
ATOM     30  C   LIG    1       20.135 -26.679  14.077  0.00  0.00    -0.000 C 
BRANCH  30  31
ATOM     31  C   LIG    1       18.725 -26.170  13.653  0.00  0.00    -0.000 C 
BRANCH  31  32
ATOM     32  C   LIG    1       17.457 -26.726  14.408  0.00  0.00    -0.000 C 
BRANCH  32  33
ATOM     33  C   LIG    1       17.717 -27.785  15.500  0.00  0.00    -0.000 C 
BRANCH  33  34
ATOM     34  C   LIG    1       17.354 -29.277  15.194  0.00  0.00    -0.000 C 
BRANCH  34  35
ATOM     35  C   LIG    1       18.118 -29.950  14.039  0.00  0.00    -0.000 C 
BRANCH  35  36
ATOM     36  C   LIG    1       19.578 -30.388  14.344  0.00  0.00    -0.000 C 
BRANCH  36  38
ATOM     37  C   LIG    1       19.633 -30.779  11.827  0.00  0.00    +0.004 C 
ATOM     38  C   LIG    1       20.437 -30.773  13.131  0.00  0.00    -0.003 C 
ENDBRANCH  36  38
ENDBRANCH  35  36
ENDBRANCH  34  35
ENDBRANCH  33  34
ENDBRANCH  32  33
ENDBRANCH  31  32
ENDBRANCH  30  31
ENDBRANCH  29  30
ENDBRANCH  28  29
ENDBRANCH  27  28
ENDBRANCH  26  27
ENDBRANCH  25  26
ENDBRANCH  24  25
ENDBRANCH  22  24
ENDBRANCH  21  22
ENDBRANCH  20  21
ENDBRANCH   1  20
BRANCH   1  39
ATOM     39  C   LIG    1       24.341 -30.103   6.061  0.00  0.00    +0.220 C 
BRANCH  39  40
ATOM     40  O   LIG    1       24.942 -31.730   5.804  0.00  0.00    -0.283 OA
BRANCH  40  41
ATOM     41  P   LIG    1       26.221 -32.807   6.297  0.00  0.00    +0.475 P 
ATOM     42  O   LIG    1       27.194 -33.534   5.465  0.00  0.00    -0.227 OA
BRANCH  41  43
ATOM     43  O   LIG    1       26.992 -31.704   7.210  0.00  0.00    -0.302 OA
ATOM     44  H   LIG    1       27.245 -30.822   6.875  0.00  0.00    +0.222 HD
ENDBRANCH  41  43
BRANCH  41  45
ATOM     45  O   LIG    1       25.872 -33.825   7.465  0.00  0.00    -0.281 OA
BRANCH  45  46
ATOM     46  C   LIG    1       24.842 -33.550   8.430  0.00  0.00    +0.223 C 
BRANCH  46  47
ATOM     47  C   LIG    1       24.766 -32.437   9.608  0.00  0.00    +0.161 C 
BRANCH  47  48
ATOM     48  N   LIG    1       23.382 -32.071  10.273  0.00  0.00    +0.238 N 
ATOM     49  C   LIG    1       22.171 -32.980   9.990  0.00  0.00    +0.192 C 
ATOM     50  C   LIG    1       22.838 -30.694   9.873  0.00  0.00    +0.192 C 
ATOM     51  C   LIG    1       23.567 -32.311  11.725  0.00  0.00    +0.192 C 
ENDBRANCH  47  48
ENDBRANCH  46  47
ENDBRANCH  45  46
ENDBRANCH  41  45
ENDBRANCH  40  41
ENDBRANCH  39  40
ENDBRANCH   1  39
TORSDOF 41
ENDMDL
MODEL 7
REMARK VINA RESULT:      -7.1      5.132      9.807
REMARK  Name = *****
REMARK                            x       y       z     vdW  Elec       q    Type
REMARK                         _______ _______ _______ _____ _____    ______ ____
ROOT
ATOM      1  C   LIG    1       25.098 -30.161   7.639  0.00  0.00    +0.240 C 
ENDROOT
BRANCH   1   2
ATOM      2  O   LIG    1       26.214 -29.377   8.725  0.00  0.00    -0.456 OA
BRANCH   2   3
ATOM      3  C   LIG    1       26.966 -29.423   9.956  0.00  0.00    +0.307 C 
ATOM      4  O   LIG    1       27.748 -30.328  10.263  0.00  0.00    -0.251 OA
BRANCH   3   5
ATOM      5  C   LIG    1       27.103 -28.047  10.968  0.00  0.00    +0.120 C 
BRANCH   5   6
ATOM      6  C   LIG    1       26.245 -27.649  12.253  0.00  0.00    +0.011 C 
BRANCH   6   7
ATOM      7  C   LIG    1       26.676 -26.309  12.885  0.00  0.00    +0.000 C 
BRANCH   7   8
ATOM      8  C   LIG    1       26.988 -26.859  14.205  0.00  0.00    +0.000 C 
BRANCH   8   9
ATOM      9  C   LIG    1       26.278 -26.704  15.425  0.00  0.00    -0.000 C 
BRANCH   9  10
ATOM     10  C   LIG    1       24.531 -26.131  15.295  0.00  0.00    -0.000 C 
BRANCH  10  11
ATOM     11  C   LIG    1       23.223 -25.949  14.522  0.00  0.00    -0.000 C 
BRANCH  11  12
ATOM     12  C   LIG    1       22.685 -26.983  13.572  0.00  0.00    -0.000 C 
BRANCH  12  13
ATOM     13  C   LIG    1       21.314 -26.727  13.035  0.00  0.00    -0.000 C 
BRANCH  13  14
ATOM     14  C   LIG    1       20.058 -27.206  13.672  0.00  0.00    -0.000 C 
BRANCH  14  15
ATOM     15  C   LIG    1       19.067 -26.096  13.529  0.00  0.00    -0.000 C 
BRANCH  15  16
ATOM     16  C   LIG    1       17.789 -26.408  14.256  0.00  0.00    -0.000 C 
BRANCH  16  17
ATOM     17  C   LIG    1       17.826 -27.862  14.700  0.00  0.00    -0.000 C 
BRANCH  17  18
ATOM     18  C   LIG    1       16.605 -28.633  14.187  0.00  0.00    -0.003 C 
ATOM     19  C   LIG    1       16.887 -30.108  14.052  0.00  0.00    +0.004 C 
ENDBRANCH  17  18
ENDBRANCH  16  17
ENDBRANCH  15  16
ENDBRANCH  14  15
ENDBRANCH  13  14
ENDBRANCH  12  13
ENDBRANCH  11  12
ENDBRANCH  10  11
ENDBRANCH   9  10
ENDBRANCH   8   9
ENDBRANCH   7   8
ENDBRANCH   6   7
ENDBRANCH   5   6
ENDBRANCH   3   5
ENDBRANCH   2   3
ENDBRANCH   1   2
BRANCH   1  20
ATOM     20  C   LIG    1       24.880 -29.483   6.071  0.00  0.00    +0.279 C 
BRANCH  20  21
ATOM     21  O   LIG    1       24.844 -28.042   5.523  0.00  0.00    -0.461 OA
BRANCH  21  22
ATOM     22  C   LIG    1       25.851 -27.072   5.571  0.00  0.00    +0.307 C 
ATOM     23  O   LIG    1       26.627 -26.901   4.631  0.00  0.00    -0.251 OA
BRANCH  22  24
ATOM     24  C   LIG    1       25.801 -26.062   6.819  0.00  0.00    +0.120 C 
BRANCH  24  25
ATOM     25  C   LIG    1       25.881 -24.468   6.685  0.00  0.00    +0.011 C 
BRANCH  25  26
ATOM     26  C   LIG    1       24.608 -23.709   6.195  0.00  0.00    +0.000 C 
BRANCH  26  27
ATOM     27  C   LIG    1       24.771 -22.432   5.263  0.00  0.00    +0.000 C 
BRANCH  27  28
ATOM     28  C   LIG    1       24.692 -21.095   6.096  0.00  0.00    -0.000 C 
BRANCH  28  29
ATOM     29  C   LIG    1       24.178 -21.133   7.578  0.00  0.00    -0.000 C 
BRANCH  29  30
ATOM     30  C   LIG    1       25.313 -20.835   8.641  0.00  0.00    -0.000 C 
BRANCH  30  31
ATOM     31  C   LIG    1       26.679 -20.383   8.043  0.00  0.00    -0.000 C 
BRANCH  31  32
ATOM     32  C   LIG    1       27.763 -21.478   7.712  0.00  0.00    -0.000 C 
BRANCH  32  33
ATOM     33  C   LIG    1       28.879 -21.067   6.730  0.00  0.00    -0.000 C 
BRANCH  33  34
ATOM     34  C   LIG    1       28.830 -19.633   6.102  0.00  0.00    -0.000 C 
BRANCH  34  35
ATOM     35  C   LIG    1       30.104 -18.778   6.232  0.00  0.00    -0.000 C 
BRANCH  35  36
ATOM     36  C   LIG    1       30.954 -19.003   7.514  0.00  0.00    -0.000 C 
BRANCH  36  38
ATOM     37  C   LIG    1       30.299 -17.320   9.312  0.00  0.00    +0.004 C 
ATOM     38  C   LIG    1       30.233 -18.779   8.852  0.00  0.00    -0.003 C 
ENDBRANCH  36  38
ENDBRANCH  35  36
ENDBRANCH  34  35
ENDBRANCH  33  34
ENDBRANCH  32  33
ENDBRANCH  31  32
ENDBRANCH  30  31
ENDBRANCH  29  30
ENDBRANCH  28  29
ENDBRANCH  27  28
ENDBRANCH  26  27
ENDBRANCH  25  26
ENDBRANCH  24  25
ENDBRANCH  22  24
ENDBRANCH  21  22
ENDBRANCH  20  21
ENDBRANCH   1  20
BRANCH   1  39
ATOM     39  C   LIG    1       23.642 -31.271   8.253  0.00  0.00    +0.220 C 
BRANCH  39  40
ATOM     40  O   LIG    1       22.761 -31.439   9.761  0.00  0.00    -0.283 OA
BRANCH  40  41
ATOM     41  P   LIG    1       23.010 -31.549  11.482  0.00  0.00    +0.475 P 
ATOM     42  O   LIG    1       23.668 -32.612  12.259  0.00  0.00    -0.227 OA
BRANCH  41  43
ATOM     43  O   LIG    1       23.872 -30.174  11.590  0.00  0.00    -0.302 OA
ATOM     44  H   LIG    1       23.512 -29.351  11.972  0.00  0.00    +0.222 HD
ENDBRANCH  41  43
BRANCH  41  45
ATOM     45  O   LIG    1       21.794 -31.094  12.398  0.00  0.00    -0.281 OA
BRANCH  45  46
ATOM     46  C   LIG    1       20.884 -32.042  12.980  0.00  0.00    +0.223 C 
BRANCH  46  47
ATOM     47  C   LIG    1       19.384 -32.477  12.537  0.00  0.00    +0.161 C 
BRANCH  47  48
ATOM     48  N   LIG    1       18.997 -32.572  11.010  0.00  0.00    +0.238 N 
ATOM     49  C   LIG    1       19.846 -33.475  10.094  0.00  0.00    +0.192 C 
ATOM     50  C   LIG    1       19.053 -31.232  10.264  0.00  0.00    +0.192 C 
ATOM     51  C   LIG    1       17.702 -33.293  10.975  0.00  0.00    +0.192 C 
ENDBRANCH  47  48
ENDBRANCH  46  47
ENDBRANCH  45  46
ENDBRANCH  41  45
ENDBRANCH  40  41
ENDBRANCH  39  40
ENDBRANCH   1  39
TORSDOF 41
ENDMDL
MODEL 8
REMARK VINA RESULT:      -7.0      5.018      9.752
REMARK  Name = *****
REMARK                            x       y       z     vdW  Elec       q    Type
REMARK                         _______ _______ _______ _____ _____    ______ ____
ROOT
ATOM      1  C   LIG    1       24.892 -29.700   7.893  0.00  0.00    +0.240 C 
ENDROOT
BRANCH   1   2
ATOM      2  O   LIG    1       26.162 -29.074   8.912  0.00  0.00    -0.456 OA
BRANCH   2   3
ATOM      3  C   LIG    1       27.004 -29.249  10.071  0.00  0.00    +0.307 C 
ATOM      4  O   LIG    1       27.773 -30.201  10.239  0.00  0.00    -0.251 OA
BRANCH   3   5
ATOM      5  C   LIG    1       27.271 -27.970  11.179  0.00  0.00    +0.120 C 
BRANCH   5   6
ATOM      6  C   LIG    1       26.249 -27.287  12.197  0.00  0.00    +0.011 C 
BRANCH   6   7
ATOM      7  C   LIG    1       26.843 -27.070  13.605  0.00  0.00    +0.000 C 
BRANCH   7   8
ATOM      8  C   LIG    1       26.478 -28.389  14.126  0.00  0.00    +0.000 C 
BRANCH   8   9
ATOM      9  C   LIG    1       25.433 -28.734  15.022  0.00  0.00    -0.000 C 
BRANCH   9  10
ATOM     10  C   LIG    1       24.041 -27.534  15.169  0.00  0.00    -0.000 C 
BRANCH  10  11
ATOM     11  C   LIG    1       23.090 -26.491  14.580  0.00  0.00    -0.000 C 
BRANCH  11  12
ATOM     12  C   LIG    1       22.355 -26.696  13.283  0.00  0.00    -0.000 C 
BRANCH  12  13
ATOM     13  C   LIG    1       20.895 -26.995  13.399  0.00  0.00    -0.000 C 
BRANCH  13  14
ATOM     14  C   LIG    1       19.826 -26.264  12.668  0.00  0.00    -0.000 C 
BRANCH  14  15
ATOM     15  C   LIG    1       18.773 -25.942  13.680  0.00  0.00    -0.000 C 
BRANCH  15  16
ATOM     16  C   LIG    1       18.641 -27.038  14.699  0.00  0.00    -0.000 C 
BRANCH  16  17
ATOM     17  C   LIG    1       17.252 -26.962  15.315  0.00  0.00    -0.000 C 
BRANCH  17  18
ATOM     18  C   LIG    1       16.175 -27.403  14.319  0.00  0.00    -0.003 C 
ATOM     19  C   LIG    1       16.252 -28.880  14.024  0.00  0.00    +0.004 C 
ENDBRANCH  17  18
ENDBRANCH  16  17
ENDBRANCH  15  16
ENDBRANCH  14  15
ENDBRANCH  13  14
ENDBRANCH  12  13
ENDBRANCH  11  12
ENDBRANCH  10  11
ENDBRANCH   9  10
ENDBRANCH   8   9
ENDBRANCH   7   8
ENDBRANCH   6   7
ENDBRANCH   5   6
ENDBRANCH   3   5
ENDBRANCH   2   3
ENDBRANCH   1   2
BRANCH   1  20
ATOM     20  C   LIG    1       24.532 -28.857   6.435  0.00  0.00    +0.279 C 
BRANCH  20  21
ATOM     21  O   LIG    1       24.677 -27.389   5.982  0.00  0.00    -0.461 OA
BRANCH  21  22
ATOM     22  C   LIG    1       25.851 -26.676   5.722  0.00  0.00    +0.307 C 
ATOM     23  O   LIG    1       26.735 -27.130   4.996  0.00  0.00    -0.251 OA
BRANCH  22  24
ATOM     24  C   LIG    1       25.884 -25.156   6.242  0.00  0.00    +0.120 C 
BRANCH  24  25
ATOM     25  C   LIG    1       24.824 -24.037   5.807  0.00  0.00    +0.011 C 
BRANCH  25  26
ATOM     26  C   LIG    1       23.868 -23.470   6.902  0.00  0.00    +0.000 C 
BRANCH  26  27
ATOM     27  C   LIG    1       23.518 -21.919   6.905  0.00  0.00    +0.000 C 
BRANCH  27  28
ATOM     28  C   LIG    1       24.375 -21.135   7.973  0.00  0.00    -0.000 C 
BRANCH  28  29
ATOM     29  C   LIG    1       25.619 -21.830   8.632  0.00  0.00    -0.000 C 
BRANCH  29  30
ATOM     30  C   LIG    1       26.926 -21.747   7.742  0.00  0.00    -0.000 C 
BRANCH  30  31
ATOM     31  C   LIG    1       27.364 -20.306   7.341  0.00  0.00    -0.000 C 
BRANCH  31  32
ATOM     32  C   LIG    1       27.432 -19.930   5.812  0.00  0.00    -0.000 C 
BRANCH  32  33
ATOM     33  C   LIG    1       26.207 -20.310   4.955  0.00  0.00    -0.000 C 
BRANCH  33  34
ATOM     34  C   LIG    1       25.682 -19.277   3.901  0.00  0.00    -0.000 C 
BRANCH  34  35
ATOM     35  C   LIG    1       24.211 -19.417   3.470  0.00  0.00    -0.000 C 
BRANCH  35  36
ATOM     36  C   LIG    1       23.189 -19.712   4.602  0.00  0.00    -0.000 C 
BRANCH  36  38
ATOM     37  C   LIG    1       22.405 -17.293   4.438  0.00  0.00    +0.004 C 
ATOM     38  C   LIG    1       22.001 -18.744   4.711  0.00  0.00    -0.003 C 
ENDBRANCH  36  38
ENDBRANCH  35  36
ENDBRANCH  34  35
ENDBRANCH  33  34
ENDBRANCH  32  33
ENDBRANCH  31  32
ENDBRANCH  30  31
ENDBRANCH  29  30
ENDBRANCH  28  29
ENDBRANCH  27  28
ENDBRANCH  26  27
ENDBRANCH  25  26
ENDBRANCH  24  25
ENDBRANCH  22  24
ENDBRANCH  21  22
ENDBRANCH  20  21
ENDBRANCH   1  20
BRANCH   1  39
ATOM     39  C   LIG    1       23.460 -30.808   8.564  0.00  0.00    +0.220 C 
BRANCH  39  40
ATOM     40  O   LIG    1       22.476 -30.818  10.016  0.00  0.00    -0.283 OA
BRANCH  40  41
ATOM     41  P   LIG    1       22.593 -31.016  11.744  0.00  0.00    +0.475 P 
ATOM     42  O   LIG    1       22.850 -32.238  12.523  0.00  0.00    -0.227 OA
BRANCH  41  43
ATOM     43  O   LIG    1       23.832 -29.978  11.922  0.00  0.00    -0.302 OA
ATOM     44  H   LIG    1       23.710 -29.050  12.201  0.00  0.00    +0.222 HD
ENDBRANCH  41  43
BRANCH  41  45
ATOM     45  O   LIG    1       21.534 -30.215  12.616  0.00  0.00    -0.281 OA
BRANCH  45  46
ATOM     46  C   LIG    1       20.192 -30.693  12.810  0.00  0.00    +0.223 C 
BRANCH  46  47
ATOM     47  C   LIG    1       19.490 -32.086  12.361  0.00  0.00    +0.161 C 
BRANCH  47  48
ATOM     48  N   LIG    1       18.437 -32.106  11.185  0.00  0.00    +0.238 N 
ATOM     49  C   LIG    1       18.151 -33.448  10.483  0.00  0.00    +0.192 C 
ATOM     50  C   LIG    1       18.803 -31.206   9.999  0.00  0.00    +0.192 C 
ATOM     51  C   LIG    1       17.125 -31.851  11.827  0.00  0.00    +0.192 C 
ENDBRANCH  47  48
ENDBRANCH  46  47
ENDBRANCH  45  46
ENDBRANCH  41  45
ENDBRANCH  40  41
ENDBRANCH  39  40
ENDBRANCH   1  39
TORSDOF 41
ENDMDL
MODEL 9
REMARK VINA RESULT:      -6.9      4.155     12.663
REMARK  Name = *****
REMARK                            x       y       z     vdW  Elec       q    Type
REMARK                         _______ _______ _______ _____ _____    ______ ____
ROOT
ATOM      1  C   LIG    1       25.129 -27.267   6.815  0.00  0.00    +0.240 C 
ENDROOT
BRANCH   1   2
ATOM      2  O   LIG    1       25.289 -25.579   6.406  0.00  0.00    -0.456 OA
BRANCH   2   3
ATOM      3  C   LIG    1       25.535 -24.228   6.848  0.00  0.00    +0.307 C 
ATOM      4  O   LIG    1       26.633 -23.663   6.792  0.00  0.00    -0.251 OA
BRANCH   3   5
ATOM      5  C   LIG    1       24.245 -23.151   7.183  0.00  0.00    +0.120 C 
BRANCH   5   6
ATOM      6  C   LIG    1       22.700 -23.278   6.805  0.00  0.00    +0.011 C 
BRANCH   6   7
ATOM      7  C   LIG    1       22.282 -22.367   5.631  0.00  0.00    +0.000 C 
BRANCH   7   8
ATOM      8  C   LIG    1       22.813 -21.130   6.205  0.00  0.00    +0.000 C 
BRANCH   8   9
ATOM      9  C   LIG    1       23.434 -20.037   5.543  0.00  0.00    -0.000 C 
BRANCH   9  10
ATOM     10  C   LIG    1       25.224 -20.221   5.146  0.00  0.00    -0.000 C 
BRANCH  10  11
ATOM     11  C   LIG    1       26.699 -20.268   5.550  0.00  0.00    -0.000 C 
BRANCH  11  12
ATOM     12  C   LIG    1       27.152 -20.343   6.982  0.00  0.00    -0.000 C 
BRANCH  12  13
ATOM     13  C   LIG    1       28.543 -19.868   7.255  0.00  0.00    -0.000 C 
BRANCH  13  14
ATOM     14  C   LIG    1       29.596 -19.711   6.217  0.00  0.00    -0.000 C 
BRANCH  14  15
ATOM     15  C   LIG    1       30.796 -19.160   6.919  0.00  0.00    -0.000 C 
BRANCH  15  16
ATOM     16  C   LIG    1       30.960 -19.770   8.282  0.00  0.00    -0.000 C 
BRANCH  16  17
ATOM     17  C   LIG    1       31.530 -18.717   9.220  0.00  0.00    -0.000 C 
BRANCH  17  18
ATOM     18  C   LIG    1       30.537 -17.572   9.441  0.00  0.00    -0.003 C 
ATOM     19  C   LIG    1       30.323 -17.288  10.906  0.00  0.00    +0.004 C 
ENDBRANCH  17  18
ENDBRANCH  16  17
ENDBRANCH  15  16
ENDBRANCH  14  15
ENDBRANCH  13  14
ENDBRANCH  12  13
ENDBRANCH  11  12
ENDBRANCH  10  11
ENDBRANCH   9  10
ENDBRANCH   8   9
ENDBRANCH   7   8
ENDBRANCH   6   7
ENDBRANCH   5   6
ENDBRANCH   3   5
ENDBRANCH   2   3
ENDBRANCH   1   2
BRANCH   1  20
ATOM     20  C   LIG    1       26.257 -27.943   7.926  0.00  0.00    +0.279 C 
BRANCH  20  21
ATOM     21  O   LIG    1       26.525 -27.748   9.433  0.00  0.00    -0.461 OA
BRANCH  21  22
ATOM     22  C   LIG    1       26.900 -28.710  10.377  0.00  0.00    +0.307 C 
ATOM     23  O   LIG    1       27.776 -29.540  10.140  0.00  0.00    -0.251 OA
BRANCH  22  24
ATOM     24  C   LIG    1       26.281 -28.534  11.849  0.00  0.00    +0.120 C 
BRANCH  24  25
ATOM     25  C   LIG    1       27.159 -28.300  13.168  0.00  0.00    +0.011 C 
BRANCH  25  26
ATOM     26  C   LIG    1       26.858 -29.189  14.415  0.00  0.00    +0.000 C 
BRANCH  26  27
ATOM     27  C   LIG    1       25.369 -29.287  14.963  0.00  0.00    +0.000 C 
BRANCH  27  28
ATOM     28  C   LIG    1       24.864 -30.780  15.003  0.00  0.00    -0.000 C 
BRANCH  28  29
ATOM     29  C   LIG    1       23.378 -31.087  15.402  0.00  0.00    -0.000 C 
BRANCH  29  30
ATOM     30  C   LIG    1       22.326 -30.179  14.642  0.00  0.00    -0.000 C 
BRANCH  30  31
ATOM     31  C   LIG    1       22.345 -30.301  13.089  0.00  0.00    -0.000 C 
BRANCH  31  32
ATOM     32  C   LIG    1       22.214 -28.990  12.223  0.00  0.00    -0.000 C 
BRANCH  32  33
ATOM     33  C   LIG    1       21.174 -27.954  12.695  0.00  0.00    -0.000 C 
BRANCH  33  34
ATOM     34  C   LIG    1       21.675 -26.705  13.496  0.00  0.00    -0.000 C 
BRANCH  34  35
ATOM     35  C   LIG    1       23.189 -26.427  13.467  0.00  0.00    -0.000 C 
BRANCH  35  36
ATOM     36  C   LIG    1       23.836 -26.009  14.817  0.00  0.00    -0.000 C 
BRANCH  36  38
ATOM     37  C   LIG    1       25.797 -25.068  13.490  0.00  0.00    +0.004 C 
ATOM     38  C   LIG    1       24.923 -24.927  14.740  0.00  0.00    -0.003 C 
ENDBRANCH  36  38
ENDBRANCH  35  36
ENDBRANCH  34  35
ENDBRANCH  33  34
ENDBRANCH  32  33
ENDBRANCH  31  32
ENDBRANCH  30  31
ENDBRANCH  29  30
ENDBRANCH  28  29
ENDBRANCH  27  28
ENDBRANCH  26  27
ENDBRANCH  25  26
ENDBRANCH  24  25
ENDBRANCH  22  24
ENDBRANCH  21  22
ENDBRANCH  20  21
ENDBRANCH   1  20
BRANCH   1  39
ATOM     39  C   LIG    1       24.262 -28.548   5.659  0.00  0.00    +0.220 C 
BRANCH  39  40
ATOM     40  O   LIG    1       24.582 -30.206   5.184  0.00  0.00    -0.283 OA
BRANCH  40  41
ATOM     41  P   LIG    1       24.595 -31.830   5.817  0.00  0.00    +0.475 P 
ATOM     42  O   LIG    1       23.545 -32.544   6.561  0.00  0.00    -0.227 OA
BRANCH  41  43
ATOM     43  O   LIG    1       24.829 -32.543   4.373  0.00  0.00    -0.302 OA
ATOM     44  H   LIG    1       25.557 -32.295   3.772  0.00  0.00    +0.222 HD
ENDBRANCH  41  43
BRANCH  41  45
ATOM     45  O   LIG    1       25.948 -32.308   6.498  0.00  0.00    -0.281 OA
BRANCH  45  46
ATOM     46  C   LIG    1       26.324 -31.886   7.819  0.00  0.00    +0.223 C 
BRANCH  46  47
ATOM     47  C   LIG    1       25.993 -32.534   9.271  0.00  0.00    +0.161 C 
BRANCH  47  48
ATOM     48  N   LIG    1       24.715 -32.078  10.077  0.00  0.00    +0.238 N 
ATOM     49  C   LIG    1       23.514 -33.040  10.148  0.00  0.00    +0.192 C 
ATOM     50  C   LIG    1       24.059 -30.799   9.542  0.00  0.00    +0.192 C 
ATOM     51  C   LIG    1       25.133 -32.061  11.500  0.00  0.00    +0.192 C 
ENDBRANCH  47  48
ENDBRANCH  46  47
ENDBRANCH  45  46
ENDBRANCH  41  45
ENDBRANCH  40  41
ENDBRANCH  39  40
ENDBRANCH   1  39
TORSDOF 41
ENDMDL
