MODEL 1
REMARK VINA RESULT:      -8.4      0.000      0.000
REMARK  Name = *****
REMARK                            x       y       z     vdW  Elec       q    Type
REMARK                         _______ _______ _______ _____ _____    ______ ____
ROOT
ATOM      1  N   LIG    1       25.144 -24.495   6.605  0.00  0.00    -0.311 N 
ENDROOT
BRANCH   1   2
ATOM      2  C   LIG    1       25.234 -25.896   6.593  0.00  0.00    +0.141 A 
ATOM      3  N   LIG    1       25.640 -26.649   7.643  0.00  0.00    -0.228 NA
ATOM      4  C   LIG    1       25.679 -28.047   7.507  0.00  0.00    +0.099 A 
ATOM      5  C   LIG    1       25.211 -28.683   6.285  0.00  0.00    +0.097 A 
ATOM      6  N   LIG    1       24.867 -27.888   5.245  0.00  0.00    -0.249 NA
ATOM      7  C   LIG    1       24.873 -26.564   5.434  0.00  0.00    +0.155 A 
BRANCH   4   8
ATOM      8  C   LIG    1       26.293 -28.699   8.736  0.00  0.00    +0.003 A 
ATOM      9  C   LIG    1       26.463 -30.073   8.956  0.00  0.00    +0.010 A 
ATOM     10  C   LIG    1       27.045 -30.574  10.156  0.00  0.00    +0.001 A 
ATOM     11  C   LIG    1       27.532 -29.721  11.148  0.00  0.00    +0.000 A 
ATOM     12  C   LIG    1       27.327 -28.378  10.991  0.00  0.00    +0.001 A 
ATOM     13  C   LIG    1       26.608 -27.966   9.869  0.00  0.00    +0.010 A 
ENDBRANCH   4   8
BRANCH   5  14
ATOM     14  C   LIG    1       24.926 -30.120   5.836  0.00  0.00    +0.002 A 
ATOM     15  C   LIG    1       25.789 -30.818   4.950  0.00  0.00    +0.010 A 
ATOM     16  C   LIG    1       25.567 -32.166   4.560  0.00  0.00    +0.001 A 
ATOM     17  C   LIG    1       24.437 -32.858   4.977  0.00  0.00    +0.000 A 
ATOM     18  C   LIG    1       23.597 -32.235   5.851  0.00  0.00    +0.001 A 
ATOM     19  C   LIG    1       23.921 -30.961   6.298  0.00  0.00    +0.010 A 
ENDBRANCH   5  14
ENDBRANCH   1   2
BRANCH   1  21
ATOM     20  C   LIG    1       22.772 -23.525   6.713  0.00  0.00    +0.027 C 
ATOM     21  C   LIG    1       24.014 -23.857   5.838  0.00  0.00    +0.069 C 
ATOM     22  C   LIG    1       24.470 -22.597   5.076  0.00  0.00    +0.027 C 
ENDBRANCH   1  21
BRANCH   1  23
ATOM     23  C   LIG    1       26.298 -23.691   7.077  0.00  0.00    +0.107 C 
BRANCH  23  24
ATOM     24  C   LIG    1       25.974 -22.708   8.252  0.00  0.00    +0.021 C 
BRANCH  24  25
ATOM     25  C   LIG    1       26.321 -21.216   8.063  0.00  0.00    +0.030 C 
BRANCH  25  26
ATOM     26  C   LIG    1       27.764 -20.920   7.608  0.00  0.00    +0.160 C 
BRANCH  26  27
ATOM     27  O   LIG    1       28.779 -21.392   8.514  0.00  0.00    -0.370 OA
BRANCH  27  28
ATOM     28  C   LIG    1       30.088 -21.222   7.950  0.00  0.00    +0.256 C 
BRANCH  28  29
ATOM     29  C   LIG    1       31.288 -20.991   8.905  0.00  0.00    +0.257 C 
ATOM     30  N   LIG    1       31.674 -19.685   9.290  0.00  0.00    -0.188 N 
ATOM     31  H   LIG    1       32.519 -19.609   9.838  0.00  0.00    +0.176 HD
ATOM     32  O   LIG    1       31.985 -21.922   9.305  0.00  0.00    -0.272 OA
BRANCH  30  33
ATOM     33  S   LIG    1       30.997 -18.261   8.791  0.00  0.00    +0.042 S 
ATOM     34  O   LIG    1       29.764 -18.058   9.455  0.00  0.00    -0.155 OA
ATOM     35  O   LIG    1       31.064 -18.277   7.318  0.00  0.00    -0.155 OA
ATOM     36  C   LIG    1       32.209 -17.082   9.338  0.00  0.00    +0.218 C 
ENDBRANCH  30  33
ENDBRANCH  28  29
ENDBRANCH  27  28
ENDBRANCH  26  27
ENDBRANCH  25  26
ENDBRANCH  24  25
ENDBRANCH  23  24
ENDBRANCH   1  23
TORSDOF 12
ENDMDL
MODEL 2
REMARK VINA RESULT:      -8.1      0.932      1.423
REMARK  Name = *****
REMARK                            x       y       z     vdW  Elec       q    Type
REMARK                         _______ _______ _______ _____ _____    ______ ____
ROOT
ATOM      1  N   LIG    1       25.181 -24.498   6.521  0.00  0.00    -0.311 N 
ENDROOT
BRANCH   1   2
ATOM      2  C   LIG    1       25.264 -25.900   6.542  0.00  0.00    +0.141 A 
ATOM      3  N   LIG    1       25.674 -26.630   7.608  0.00  0.00    -0.228 NA
ATOM      4  C   LIG    1       25.706 -28.031   7.504  0.00  0.00    +0.099 A 
ATOM      5  C   LIG    1       25.229 -28.694   6.300  0.00  0.00    +0.097 A 
ATOM      6  N   LIG    1       24.882 -27.922   5.244  0.00  0.00    -0.249 NA
ATOM      7  C   LIG    1       24.895 -26.594   5.401  0.00  0.00    +0.155 A 
BRANCH   4   8
ATOM      8  C   LIG    1       26.324 -28.656   8.745  0.00  0.00    +0.003 A 
ATOM      9  C   LIG    1       26.568 -30.019   8.960  0.00  0.00    +0.010 A 
ATOM     10  C   LIG    1       27.147 -30.495  10.172  0.00  0.00    +0.001 A 
ATOM     11  C   LIG    1       27.557 -29.624  11.183  0.00  0.00    +0.000 A 
ATOM     12  C   LIG    1       27.278 -28.294  11.029  0.00  0.00    +0.001 A 
ATOM     13  C   LIG    1       26.567 -27.915   9.891  0.00  0.00    +0.010 A 
ENDBRANCH   4   8
BRANCH   5  14
ATOM     14  C   LIG    1       24.935 -30.139   5.887  0.00  0.00    +0.002 A 
ATOM     15  C   LIG    1       25.764 -30.846   4.975  0.00  0.00    +0.010 A 
ATOM     16  C   LIG    1       25.535 -32.201   4.617  0.00  0.00    +0.001 A 
ATOM     17  C   LIG    1       24.430 -32.894   5.094  0.00  0.00    +0.000 A 
ATOM     18  C   LIG    1       23.624 -32.263   5.993  0.00  0.00    +0.001 A 
ATOM     19  C   LIG    1       23.958 -30.979   6.406  0.00  0.00    +0.010 A 
ENDBRANCH   5  14
ENDBRANCH   1   2
BRANCH   1  21
ATOM     20  C   LIG    1       22.814 -23.531   6.719  0.00  0.00    +0.027 C 
ATOM     21  C   LIG    1       24.016 -23.875   5.795  0.00  0.00    +0.069 C 
ATOM     22  C   LIG    1       24.435 -22.627   4.993  0.00  0.00    +0.027 C 
ENDBRANCH   1  21
BRANCH   1  23
ATOM     23  C   LIG    1       26.360 -23.688   6.914  0.00  0.00    +0.107 C 
BRANCH  23  24
ATOM     24  C   LIG    1       26.151 -22.804   8.190  0.00  0.00    +0.021 C 
BRANCH  24  25
ATOM     25  C   LIG    1       25.846 -21.305   7.988  0.00  0.00    +0.030 C 
BRANCH  25  26
ATOM     26  C   LIG    1       27.062 -20.361   8.065  0.00  0.00    +0.160 C 
BRANCH  26  27
ATOM     27  O   LIG    1       27.904 -20.383   6.896  0.00  0.00    -0.370 OA
BRANCH  27  28
ATOM     28  C   LIG    1       29.283 -20.214   7.254  0.00  0.00    +0.256 C 
BRANCH  28  29
ATOM     29  C   LIG    1       30.021 -18.929   6.797  0.00  0.00    +0.257 C 
ATOM     30  N   LIG    1       30.915 -18.253   7.661  0.00  0.00    -0.188 N 
ATOM     31  H   LIG    1       31.285 -17.375   7.327  0.00  0.00    +0.176 HD
ATOM     32  O   LIG    1       29.804 -18.415   5.701  0.00  0.00    -0.272 OA
BRANCH  30  33
ATOM     33  S   LIG    1       31.279 -18.653   9.224  0.00  0.00    +0.042 S 
ATOM     34  O   LIG    1       32.039 -19.845   9.249  0.00  0.00    -0.155 OA
ATOM     35  O   LIG    1       30.011 -18.553   9.971  0.00  0.00    -0.155 OA
ATOM     36  C   LIG    1       32.268 -17.263   9.723  0.00  0.00    +0.218 C 
ENDBRANCH  30  33
ENDBRANCH  28  29
ENDBRANCH  27  28
ENDBRANCH  26  27
ENDBRANCH  25  26
ENDBRANCH  24  25
ENDBRANCH  23  24
ENDBRANCH   1  23
TORSDOF 12
ENDMDL
MODEL 3
REMARK VINA RESULT:      -7.3      4.330      6.872
REMARK  Name = *****
REMARK                            x       y       z     vdW  Elec       q    Type
REMARK                         _______ _______ _______ _____ _____    ______ ____
ROOT
ATOM      1  N   LIG    1       25.275 -30.892   6.118  0.00  0.00    -0.311 N 
ENDROOT
BRANCH   1   2
ATOM      2  C   LIG    1       24.696 -30.845   7.396  0.00  0.00    +0.141 A 
ATOM      3  N   LIG    1       25.143 -30.071   8.414  0.00  0.00    -0.228 NA
ATOM      4  C   LIG    1       24.470 -30.109   9.647  0.00  0.00    +0.099 A 
ATOM      5  C   LIG    1       23.261 -30.904   9.805  0.00  0.00    +0.097 A 
ATOM      6  N   LIG    1       22.886 -31.702   8.778  0.00  0.00    -0.249 NA
ATOM      7  C   LIG    1       23.584 -31.635   7.639  0.00  0.00    +0.155 A 
BRANCH   4   8
ATOM      8  C   LIG    1       25.203 -29.286  10.695  0.00  0.00    +0.003 A 
ATOM      9  C   LIG    1       24.695 -28.866  11.932  0.00  0.00    +0.010 A 
ATOM     10  C   LIG    1       25.473 -28.086  12.836  0.00  0.00    +0.001 A 
ATOM     11  C   LIG    1       26.802 -27.753  12.564  0.00  0.00    +0.000 A 
ATOM     12  C   LIG    1       27.307 -28.097  11.340  0.00  0.00    +0.001 A 
ATOM     13  C   LIG    1       26.441 -28.719  10.441  0.00  0.00    +0.010 A 
ENDBRANCH   4   8
BRANCH   5  14
ATOM     14  C   LIG    1       22.180 -31.055  10.880  0.00  0.00    +0.002 A 
ATOM     15  C   LIG    1       20.801 -30.871  10.593  0.00  0.00    +0.010 A 
ATOM     16  C   LIG    1       19.782 -31.053  11.564  0.00  0.00    +0.001 A 
ATOM     17  C   LIG    1       20.091 -31.356  12.884  0.00  0.00    +0.000 A 
ATOM     18  C   LIG    1       21.400 -31.570  13.197  0.00  0.00    +0.001 A 
ATOM     19  C   LIG    1       22.350 -31.500  12.185  0.00  0.00    +0.010 A 
ENDBRANCH   5  14
ENDBRANCH   1   2
BRANCH   1  21
ATOM     20  C   LIG    1       26.082 -32.299   4.130  0.00  0.00    +0.027 C 
ATOM     21  C   LIG    1       25.882 -32.198   5.669  0.00  0.00    +0.069 C 
ATOM     22  C   LIG    1       27.210 -32.497   6.392  0.00  0.00    +0.027 C 
ENDBRANCH   1  21
BRANCH   1  23
ATOM     23  C   LIG    1       25.559 -29.628   5.395  0.00  0.00    +0.107 C 
BRANCH  23  24
ATOM     24  C   LIG    1       24.367 -28.612   5.360  0.00  0.00    +0.021 C 
BRANCH  24  25
ATOM     25  C   LIG    1       24.612 -27.192   5.911  0.00  0.00    +0.030 C 
BRANCH  25  26
ATOM     26  C   LIG    1       25.597 -26.324   5.103  0.00  0.00    +0.160 C 
BRANCH  26  27
ATOM     27  O   LIG    1       25.043 -25.080   4.634  0.00  0.00    -0.370 OA
BRANCH  27  28
ATOM     28  C   LIG    1       24.981 -24.114   5.694  0.00  0.00    +0.256 C 
BRANCH  28  29
ATOM     29  C   LIG    1       23.591 -23.666   6.215  0.00  0.00    +0.257 C 
ATOM     30  N   LIG    1       23.133 -22.341   6.025  0.00  0.00    -0.188 N 
ATOM     31  H   LIG    1       22.260 -22.099   6.472  0.00  0.00    +0.176 HD
ATOM     32  O   LIG    1       22.872 -24.420   6.866  0.00  0.00    -0.272 OA
BRANCH  30  33
ATOM     33  S   LIG    1       23.955 -21.098   5.307  0.00  0.00    +0.042 S 
ATOM     34  O   LIG    1       24.254 -21.434   3.966  0.00  0.00    -0.155 OA
ATOM     35  O   LIG    1       25.028 -20.728   6.248  0.00  0.00    -0.155 OA
ATOM     36  C   LIG    1       22.751 -19.792   5.376  0.00  0.00    +0.218 C 
ENDBRANCH  30  33
ENDBRANCH  28  29
ENDBRANCH  27  28
ENDBRANCH  26  27
ENDBRANCH  25  26
ENDBRANCH  24  25
ENDBRANCH  23  24
ENDBRANCH   1  23
TORSDOF 12
ENDMDL
MODEL 4
REMARK VINA RESULT:      -7.3      3.690      7.409
REMARK  Name = *****
REMARK                            x       y       z     vdW  Elec       q    Type
REMARK                         _______ _______ _______ _____ _____    ______ ____
ROOT
ATOM      1  N   LIG    1       25.095 -30.598   8.325  0.00  0.00    -0.311 N 
ENDROOT
BRANCH   1   2
ATOM      2  C   LIG    1       25.803 -30.149   9.451  0.00  0.00    +0.141 A 
ATOM      3  N   LIG    1       25.296 -29.323  10.398  0.00  0.00    -0.228 NA
ATOM      4  C   LIG    1       26.106 -28.951  11.484  0.00  0.00    +0.099 A 
ATOM      5  C   LIG    1       27.441 -29.510  11.636  0.00  0.00    +0.097 A 
ATOM      6  N   LIG    1       27.922 -30.287  10.638  0.00  0.00    -0.249 NA
ATOM      7  C   LIG    1       27.107 -30.584   9.620  0.00  0.00    +0.155 A 
BRANCH   4   8
ATOM      8  C   LIG    1       25.412 -27.915  12.355  0.00  0.00    +0.003 A 
ATOM      9  C   LIG    1       25.997 -26.778  12.928  0.00  0.00    +0.010 A 
ATOM     10  C   LIG    1       25.248 -25.877  13.738  0.00  0.00    +0.001 A 
ATOM     11  C   LIG    1       23.879 -26.045  13.953  0.00  0.00    +0.000 A 
ATOM     12  C   LIG    1       23.291 -27.177  13.458  0.00  0.00    +0.001 A 
ATOM     13  C   LIG    1       24.116 -28.097  12.810  0.00  0.00    +0.010 A 
ENDBRANCH   4   8
BRANCH   5  14
ATOM     14  C   LIG    1       28.515 -29.506  12.729  0.00  0.00    +0.002 A 
ATOM     15  C   LIG    1       28.184 -29.481  14.110  0.00  0.00    +0.010 A 
ATOM     16  C   LIG    1       29.163 -29.525  15.137  0.00  0.00    +0.001 A 
ATOM     17  C   LIG    1       30.519 -29.522  14.839  0.00  0.00    +0.000 A 
ATOM     18  C   LIG    1       30.881 -29.575  13.526  0.00  0.00    +0.001 A 
ATOM     19  C   LIG    1       29.886 -29.654  12.561  0.00  0.00    +0.010 A 
ENDBRANCH   5  14
ENDBRANCH   1   2
BRANCH   1  21
ATOM     20  C   LIG    1       23.080 -31.958   9.143  0.00  0.00    +0.027 C 
ATOM     21  C   LIG    1       24.446 -31.956   8.399  0.00  0.00    +0.069 C 
ATOM     22  C   LIG    1       24.284 -32.597   7.006  0.00  0.00    +0.027 C 
ENDBRANCH   1  21
BRANCH   1  23
ATOM     23  C   LIG    1       25.267 -29.901   7.026  0.00  0.00    +0.107 C 
BRANCH  23  24
ATOM     24  C   LIG    1       25.033 -28.354   7.077  0.00  0.00    +0.021 C 
BRANCH  24  25
ATOM     25  C   LIG    1       24.587 -27.647   5.780  0.00  0.00    +0.030 C 
BRANCH  25  26
ATOM     26  C   LIG    1       25.617 -26.684   5.157  0.00  0.00    +0.160 C 
BRANCH  26  27
ATOM     27  O   LIG    1       25.055 -25.454   4.663  0.00  0.00    -0.370 OA
BRANCH  27  28
ATOM     28  C   LIG    1       25.273 -24.381   5.591  0.00  0.00    +0.256 C 
BRANCH  28  29
ATOM     29  C   LIG    1       24.102 -23.937   6.506  0.00  0.00    +0.257 C 
ATOM     30  N   LIG    1       24.174 -22.739   7.256  0.00  0.00    -0.188 N 
ATOM     31  H   LIG    1       23.415 -22.564   7.898  0.00  0.00    +0.176 HD
ATOM     32  O   LIG    1       23.105 -24.639   6.666  0.00  0.00    -0.272 OA
BRANCH  30  33
ATOM     33  S   LIG    1       25.450 -21.688   7.329  0.00  0.00    +0.042 S 
ATOM     34  O   LIG    1       26.661 -22.412   7.425  0.00  0.00    -0.155 OA
ATOM     35  O   LIG    1       25.088 -20.686   8.348  0.00  0.00    -0.155 OA
ATOM     36  C   LIG    1       25.325 -20.872   5.755  0.00  0.00    +0.218 C 
ENDBRANCH  30  33
ENDBRANCH  28  29
ENDBRANCH  27  28
ENDBRANCH  26  27
ENDBRANCH  25  26
ENDBRANCH  24  25
ENDBRANCH  23  24
ENDBRANCH   1  23
TORSDOF 12
ENDMDL
MODEL 5
REMARK VINA RESULT:      -7.1      5.223     10.091
REMARK  Name = *****
REMARK                            x       y       z     vdW  Elec       q    Type
REMARK                         _______ _______ _______ _____ _____    ______ ____
ROOT
ATOM      1  N   LIG    1       25.890 -26.201   6.878  0.00  0.00    -0.311 N 
ENDROOT
BRANCH   1   2
ATOM      2  C   LIG    1       25.627 -24.846   6.622  0.00  0.00    +0.141 A 
ATOM      3  N   LIG    1       26.541 -23.852   6.732  0.00  0.00    -0.228 NA
ATOM      4  C   LIG    1       26.155 -22.532   6.441  0.00  0.00    +0.099 A 
ATOM      5  C   LIG    1       24.815 -22.247   5.948  0.00  0.00    +0.097 A 
ATOM      6  N   LIG    1       23.923 -23.264   5.907  0.00  0.00    -0.249 NA
ATOM      7  C   LIG    1       24.349 -24.492   6.220  0.00  0.00    +0.155 A 
BRANCH   4   8
ATOM      8  C   LIG    1       27.272 -21.552   6.758  0.00  0.00    +0.003 A 
ATOM      9  C   LIG    1       28.056 -21.525   7.919  0.00  0.00    +0.010 A 
ATOM     10  C   LIG    1       29.075 -20.549   8.114  0.00  0.00    +0.001 A 
ATOM     11  C   LIG    1       29.388 -19.607   7.133  0.00  0.00    +0.000 A 
ATOM     12  C   LIG    1       28.603 -19.568   6.013  0.00  0.00    +0.001 A 
ATOM     13  C   LIG    1       27.522 -20.448   5.958  0.00  0.00    +0.010 A 
ENDBRANCH   4   8
BRANCH   5  14
ATOM     14  C   LIG    1       24.099 -21.026   5.363  0.00  0.00    +0.002 A 
ATOM     15  C   LIG    1       24.613 -20.314   4.246  0.00  0.00    +0.010 A 
ATOM     16  C   LIG    1       23.939 -19.210   3.660  0.00  0.00    +0.001 A 
ATOM     17  C   LIG    1       22.759 -18.717   4.202  0.00  0.00    +0.000 A 
ATOM     18  C   LIG    1       22.216 -19.388   5.257  0.00  0.00    +0.001 A 
ATOM     19  C   LIG    1       22.849 -20.535   5.718  0.00  0.00    +0.010 A 
ENDBRANCH   5  14
ENDBRANCH   1   2
BRANCH   1  21
ATOM     20  C   LIG    1       24.192 -27.805   5.817  0.00  0.00    +0.027 C 
ATOM     21  C   LIG    1       25.620 -27.189   5.772  0.00  0.00    +0.069 C 
ATOM     22  C   LIG    1       25.887 -26.585   4.379  0.00  0.00    +0.027 C 
ENDBRANCH   1  21
BRANCH   1  23
ATOM     23  C   LIG    1       26.107 -26.655   8.274  0.00  0.00    +0.107 C 
BRANCH  23  24
ATOM     24  C   LIG    1       26.315 -28.198   8.435  0.00  0.00    +0.021 C 
BRANCH  24  25
ATOM     25  C   LIG    1       26.638 -28.741   9.843  0.00  0.00    +0.030 C 
BRANCH  25  26
ATOM     26  C   LIG    1       27.166 -30.188   9.895  0.00  0.00    +0.160 C 
BRANCH  26  27
ATOM     27  O   LIG    1       26.706 -31.025   8.817  0.00  0.00    -0.370 OA
BRANCH  27  28
ATOM     28  C   LIG    1       25.425 -31.597   9.123  0.00  0.00    +0.256 C 
BRANCH  28  29
ATOM     29  C   LIG    1       24.217 -31.250   8.215  0.00  0.00    +0.257 C 
ATOM     30  N   LIG    1       24.123 -31.758   6.898  0.00  0.00    -0.188 N 
ATOM     31  H   LIG    1       23.357 -31.415   6.337  0.00  0.00    +0.176 HD
ATOM     32  O   LIG    1       23.338 -30.471   8.578  0.00  0.00    -0.272 OA
BRANCH  30  33
ATOM     33  S   LIG    1       25.229 -32.711   6.120  0.00  0.00    +0.042 S 
ATOM     34  O   LIG    1       25.557 -33.824   6.930  0.00  0.00    -0.155 OA
ATOM     35  O   LIG    1       26.280 -31.797   5.637  0.00  0.00    -0.155 OA
ATOM     36  C   LIG    1       24.310 -33.223   4.687  0.00  0.00    +0.218 C 
ENDBRANCH  30  33
ENDBRANCH  28  29
ENDBRANCH  27  28
ENDBRANCH  26  27
ENDBRANCH  25  26
ENDBRANCH  24  25
ENDBRANCH  23  24
ENDBRANCH   1  23
TORSDOF 12
ENDMDL
MODEL 6
REMARK VINA RESULT:      -7.1      4.271      7.280
REMARK  Name = *****
REMARK                            x       y       z     vdW  Elec       q    Type
REMARK                         _______ _______ _______ _____ _____    ______ ____
ROOT
ATOM      1  N   LIG    1       24.826 -30.453   6.395  0.00  0.00    -0.311 N 
ENDROOT
BRANCH   1   2
ATOM      2  C   LIG    1       24.775 -30.167   7.769  0.00  0.00    +0.141 A 
ATOM      3  N   LIG    1       23.708 -30.412   8.566  0.00  0.00    -0.228 NA
ATOM      4  C   LIG    1       23.785 -30.085   9.931  0.00  0.00    +0.099 A 
ATOM      5  C   LIG    1       25.021 -29.568  10.498  0.00  0.00    +0.097 A 
ATOM      6  N   LIG    1       26.041 -29.289   9.653  0.00  0.00    -0.249 NA
ATOM      7  C   LIG    1       25.894 -29.603   8.361  0.00  0.00    +0.155 A 
BRANCH   4   8
ATOM      8  C   LIG    1       22.448 -30.302  10.622  0.00  0.00    +0.003 A 
ATOM      9  C   LIG    1       21.984 -29.646  11.770  0.00  0.00    +0.010 A 
ATOM     10  C   LIG    1       20.711 -29.938  12.338  0.00  0.00    +0.001 A 
ATOM     11  C   LIG    1       19.833 -30.847  11.746  0.00  0.00    +0.000 A 
ATOM     12  C   LIG    1       20.279 -31.548  10.659  0.00  0.00    +0.001 A 
ATOM     13  C   LIG    1       21.594 -31.329  10.251  0.00  0.00    +0.010 A 
ENDBRANCH   4   8
BRANCH   5  14
ATOM     14  C   LIG    1       25.546 -29.282  11.908  0.00  0.00    +0.002 A 
ATOM     15  C   LIG    1       25.039 -28.217  12.700  0.00  0.00    +0.010 A 
ATOM     16  C   LIG    1       25.479 -27.967  14.027  0.00  0.00    +0.001 A 
ATOM     17  C   LIG    1       26.495 -28.719  14.602  0.00  0.00    +0.000 A 
ATOM     18  C   LIG    1       26.990 -29.769  13.888  0.00  0.00    +0.001 A 
ATOM     19  C   LIG    1       26.443 -30.049  12.642  0.00  0.00    +0.010 A 
ENDBRANCH   5  14
ENDBRANCH   1   2
BRANCH   1  21
ATOM     20  C   LIG    1       23.498 -32.555   5.762  0.00  0.00    +0.027 C 
ATOM     21  C   LIG    1       24.893 -31.902   5.982  0.00  0.00    +0.069 C 
ATOM     22  C   LIG    1       25.772 -32.107   4.733  0.00  0.00    +0.027 C 
ENDBRANCH   1  21
BRANCH   1  23
ATOM     23  C   LIG    1       25.130 -29.368   5.431  0.00  0.00    +0.107 C 
BRANCH  23  24
ATOM     24  C   LIG    1       24.432 -28.001   5.743  0.00  0.00    +0.021 C 
BRANCH  24  25
ATOM     25  C   LIG    1       25.235 -26.706   5.498  0.00  0.00    +0.030 C 
BRANCH  25  26
ATOM     26  C   LIG    1       25.887 -26.080   6.747  0.00  0.00    +0.160 C 
BRANCH  26  27
ATOM     27  O   LIG    1       25.892 -24.640   6.753  0.00  0.00    -0.370 OA
BRANCH  27  28
ATOM     28  C   LIG    1       24.982 -24.120   5.772  0.00  0.00    +0.256 C 
BRANCH  28  29
ATOM     29  C   LIG    1       23.568 -23.676   6.228  0.00  0.00    +0.257 C 
ATOM     30  N   LIG    1       23.124 -22.346   6.042  0.00  0.00    -0.188 N 
ATOM     31  H   LIG    1       22.230 -22.109   6.446  0.00  0.00    +0.176 HD
ATOM     32  O   LIG    1       22.812 -24.440   6.825  0.00  0.00    -0.272 OA
BRANCH  30  33
ATOM     33  S   LIG    1       23.987 -21.092   5.393  0.00  0.00    +0.042 S 
ATOM     34  O   LIG    1       24.418 -21.432   4.090  0.00  0.00    -0.155 OA
ATOM     35  O   LIG    1       24.960 -20.695   6.428  0.00  0.00    -0.155 OA
ATOM     36  C   LIG    1       22.759 -19.809   5.338  0.00  0.00    +0.218 C 
ENDBRANCH  30  33
ENDBRANCH  28  29
ENDBRANCH  27  28
ENDBRANCH  26  27
ENDBRANCH  25  26
ENDBRANCH  24  25
ENDBRANCH  23  24
ENDBRANCH   1  23
TORSDOF 12
ENDMDL
MODEL 7
REMARK VINA RESULT:      -7.1      4.974      7.406
REMARK  Name = *****
REMARK                            x       y       z     vdW  Elec       q    Type
REMARK                         _______ _______ _______ _____ _____    ______ ____
ROOT
ATOM      1  N   LIG    1       24.865 -31.037   7.886  0.00  0.00    -0.311 N 
ENDROOT
BRANCH   1   2
ATOM      2  C   LIG    1       23.836 -31.007   8.841  0.00  0.00    +0.141 A 
ATOM      3  N   LIG    1       23.723 -30.076   9.819  0.00  0.00    -0.228 NA
ATOM      4  C   LIG    1       22.640 -30.151  10.712  0.00  0.00    +0.099 A 
ATOM      5  C   LIG    1       21.609 -31.164  10.539  0.00  0.00    +0.097 A 
ATOM      6  N   LIG    1       21.794 -32.103   9.582  0.00  0.00    -0.249 NA
ATOM      7  C   LIG    1       22.858 -31.987   8.781  0.00  0.00    +0.155 A 
BRANCH   4   8
ATOM      8  C   LIG    1       22.766 -29.112  11.814  0.00  0.00    +0.003 A 
ATOM      9  C   LIG    1       23.939 -28.748  12.489  0.00  0.00    +0.010 A 
ATOM     10  C   LIG    1       23.938 -27.762  13.518  0.00  0.00    +0.001 A 
ATOM     11  C   LIG    1       22.780 -27.063  13.864  0.00  0.00    +0.000 A 
ATOM     12  C   LIG    1       21.607 -27.436  13.266  0.00  0.00    +0.001 A 
ATOM     13  C   LIG    1       21.653 -28.517  12.386  0.00  0.00    +0.010 A 
ENDBRANCH   4   8
BRANCH   5  14
ATOM     14  C   LIG    1       20.235 -31.447  11.154  0.00  0.00    +0.002 A 
ATOM     15  C   LIG    1       20.077 -31.772  12.528  0.00  0.00    +0.010 A 
ATOM     16  C   LIG    1       18.808 -31.991  13.127  0.00  0.00    +0.001 A 
ATOM     17  C   LIG    1       17.643 -31.967  12.372  0.00  0.00    +0.000 A 
ATOM     18  C   LIG    1       17.746 -31.631  11.056  0.00  0.00    +0.001 A 
ATOM     19  C   LIG    1       18.995 -31.306  10.543  0.00  0.00    +0.010 A 
ENDBRANCH   5  14
ENDBRANCH   1   2
BRANCH   1  21
ATOM     20  C   LIG    1       26.968 -32.211   7.003  0.00  0.00    +0.027 C 
ATOM     21  C   LIG    1       26.129 -31.779   8.240  0.00  0.00    +0.069 C 
ATOM     22  C   LIG    1       27.012 -30.983   9.220  0.00  0.00    +0.027 C 
ENDBRANCH   1  21
BRANCH   1  23
ATOM     23  C   LIG    1       24.821 -30.107   6.732  0.00  0.00    +0.107 C 
BRANCH  23  24
ATOM     24  C   LIG    1       25.008 -28.596   7.101  0.00  0.00    +0.021 C 
BRANCH  24  25
ATOM     25  C   LIG    1       25.497 -27.637   5.996  0.00  0.00    +0.030 C 
BRANCH  25  26
ATOM     26  C   LIG    1       26.082 -26.298   6.487  0.00  0.00    +0.160 C 
BRANCH  26  27
ATOM     27  O   LIG    1       25.717 -25.161   5.681  0.00  0.00    -0.370 OA
BRANCH  27  28
ATOM     28  C   LIG    1       25.212 -24.094   6.497  0.00  0.00    +0.256 C 
BRANCH  28  29
ATOM     29  C   LIG    1       23.693 -23.784   6.463  0.00  0.00    +0.257 C 
ATOM     30  N   LIG    1       23.218 -22.498   6.110  0.00  0.00    -0.188 N 
ATOM     31  H   LIG    1       22.224 -22.346   6.199  0.00  0.00    +0.176 HD
ATOM     32  O   LIG    1       22.855 -24.616   6.805  0.00  0.00    -0.272 OA
BRANCH  30  33
ATOM     33  S   LIG    1       24.130 -21.169   5.741  0.00  0.00    +0.042 S 
ATOM     34  O   LIG    1       24.896 -21.422   4.579  0.00  0.00    -0.155 OA
ATOM     35  O   LIG    1       24.783 -20.766   7.000  0.00  0.00    -0.155 OA
ATOM     36  C   LIG    1       22.872 -19.956   5.415  0.00  0.00    +0.218 C 
ENDBRANCH  30  33
ENDBRANCH  28  29
ENDBRANCH  27  28
ENDBRANCH  26  27
ENDBRANCH  25  26
ENDBRANCH  24  25
ENDBRANCH  23  24
ENDBRANCH   1  23
TORSDOF 12
ENDMDL
MODEL 8
REMARK VINA RESULT:      -7.1      5.210     10.048
REMARK  Name = *****
REMARK                            x       y       z     vdW  Elec       q    Type
REMARK                         _______ _______ _______ _____ _____    ______ ____
ROOT
ATOM      1  N   LIG    1       25.834 -26.231   6.886  0.00  0.00    -0.311 N 
ENDROOT
BRANCH   1   2
ATOM      2  C   LIG    1       25.581 -24.875   6.623  0.00  0.00    +0.141 A 
ATOM      3  N   LIG    1       26.496 -23.884   6.751  0.00  0.00    -0.228 NA
ATOM      4  C   LIG    1       26.119 -22.564   6.450  0.00  0.00    +0.099 A 
ATOM      5  C   LIG    1       24.791 -22.275   5.928  0.00  0.00    +0.097 A 
ATOM      6  N   LIG    1       23.897 -23.289   5.870  0.00  0.00    -0.249 NA
ATOM      7  C   LIG    1       24.313 -24.518   6.193  0.00  0.00    +0.155 A 
BRANCH   4   8
ATOM      8  C   LIG    1       27.233 -21.586   6.789  0.00  0.00    +0.003 A 
ATOM      9  C   LIG    1       28.019 -21.585   7.950  0.00  0.00    +0.010 A 
ATOM     10  C   LIG    1       29.034 -20.609   8.167  0.00  0.00    +0.001 A 
ATOM     11  C   LIG    1       29.340 -19.641   7.209  0.00  0.00    +0.000 A 
ATOM     12  C   LIG    1       28.552 -19.578   6.093  0.00  0.00    +0.001 A 
ATOM     13  C   LIG    1       27.475 -20.461   6.017  0.00  0.00    +0.010 A 
ENDBRANCH   4   8
BRANCH   5  14
ATOM     14  C   LIG    1       24.091 -21.053   5.326  0.00  0.00    +0.002 A 
ATOM     15  C   LIG    1       22.957 -20.456   5.940  0.00  0.00    +0.010 A 
ATOM     16  C   LIG    1       22.324 -19.295   5.423  0.00  0.00    +0.001 A 
ATOM     17  C   LIG    1       22.745 -18.716   4.233  0.00  0.00    +0.000 A 
ATOM     18  C   LIG    1       23.846 -19.239   3.626  0.00  0.00    +0.001 A 
ATOM     19  C   LIG    1       24.505 -20.300   4.235  0.00  0.00    +0.010 A 
ENDBRANCH   5  14
ENDBRANCH   1   2
BRANCH   1  21
ATOM     20  C   LIG    1       24.252 -27.923   5.785  0.00  0.00    +0.027 C 
ATOM     21  C   LIG    1       25.636 -27.213   5.760  0.00  0.00    +0.069 C 
ATOM     22  C   LIG    1       25.868 -26.567   4.380  0.00  0.00    +0.027 C 
ENDBRANCH   1  21
BRANCH   1  23
ATOM     23  C   LIG    1       25.969 -26.692   8.289  0.00  0.00    +0.107 C 
BRANCH  23  24
ATOM     24  C   LIG    1       26.591 -28.120   8.452  0.00  0.00    +0.021 C 
BRANCH  24  25
ATOM     25  C   LIG    1       26.148 -28.969   9.662  0.00  0.00    +0.030 C 
BRANCH  25  26
ATOM     26  C   LIG    1       27.262 -29.783  10.350  0.00  0.00    +0.160 C 
BRANCH  26  27
ATOM     27  O   LIG    1       26.933 -31.167  10.571  0.00  0.00    -0.370 OA
BRANCH  27  28
ATOM     28  C   LIG    1       25.540 -31.408  10.328  0.00  0.00    +0.256 C 
BRANCH  28  29
ATOM     29  C   LIG    1       25.113 -32.768   9.714  0.00  0.00    +0.257 C 
ATOM     30  N   LIG    1       24.690 -32.861   8.368  0.00  0.00    -0.188 N 
ATOM     31  H   LIG    1       24.341 -33.759   8.067  0.00  0.00    +0.176 HD
ATOM     32  O   LIG    1       25.062 -33.794  10.390  0.00  0.00    -0.272 OA
BRANCH  30  33
ATOM     33  S   LIG    1       24.536 -31.618   7.286  0.00  0.00    +0.042 S 
ATOM     34  O   LIG    1       25.816 -31.202   6.851  0.00  0.00    -0.155 OA
ATOM     35  O   LIG    1       23.603 -30.659   7.905  0.00  0.00    -0.155 OA
ATOM     36  C   LIG    1       23.646 -32.407   5.965  0.00  0.00    +0.218 C 
ENDBRANCH  30  33
ENDBRANCH  28  29
ENDBRANCH  27  28
ENDBRANCH  26  27
ENDBRANCH  25  26
ENDBRANCH  24  25
ENDBRANCH  23  24
ENDBRANCH   1  23
TORSDOF 12
ENDMDL
MODEL 9
REMARK VINA RESULT:      -7.1      5.427     10.158
REMARK  Name = *****
REMARK                            x       y       z     vdW  Elec       q    Type
REMARK                         _______ _______ _______ _____ _____    ______ ____
ROOT
ATOM      1  N   LIG    1       25.079 -25.931   6.679  0.00  0.00    -0.311 N 
ENDROOT
BRANCH   1   2
ATOM      2  C   LIG    1       24.973 -24.551   6.446  0.00  0.00    +0.141 A 
ATOM      3  N   LIG    1       25.987 -23.666   6.601  0.00  0.00    -0.228 NA
ATOM      4  C   LIG    1       25.756 -22.307   6.327  0.00  0.00    +0.099 A 
ATOM      5  C   LIG    1       24.470 -21.867   5.806  0.00  0.00    +0.097 A 
ATOM      6  N   LIG    1       23.473 -22.778   5.720  0.00  0.00    -0.249 NA
ATOM      7  C   LIG    1       23.754 -24.051   6.017  0.00  0.00    +0.155 A 
BRANCH   4   8
ATOM      8  C   LIG    1       26.965 -21.461   6.695  0.00  0.00    +0.003 A 
ATOM      9  C   LIG    1       27.706 -21.534   7.882  0.00  0.00    +0.010 A 
ATOM     10  C   LIG    1       28.821 -20.681   8.124  0.00  0.00    +0.001 A 
ATOM     11  C   LIG    1       29.271 -19.771   7.165  0.00  0.00    +0.000 A 
ATOM     12  C   LIG    1       28.534 -19.633   6.021  0.00  0.00    +0.001 A 
ATOM     13  C   LIG    1       27.364 -20.385   5.919  0.00  0.00    +0.010 A 
ENDBRANCH   4   8
BRANCH   5  14
ATOM     14  C   LIG    1       23.909 -20.564   5.228  0.00  0.00    +0.002 A 
ATOM     15  C   LIG    1       24.562 -19.861   4.181  0.00  0.00    +0.010 A 
ATOM     16  C   LIG    1       24.032 -18.678   3.600  0.00  0.00    +0.001 A 
ATOM     17  C   LIG    1       22.866 -18.100   4.084  0.00  0.00    +0.000 A 
ATOM     18  C   LIG    1       22.192 -18.757   5.069  0.00  0.00    +0.001 A 
ATOM     19  C   LIG    1       22.685 -19.974   5.520  0.00  0.00    +0.010 A 
ENDBRANCH   5  14
ENDBRANCH   1   2
BRANCH   1  21
ATOM     20  C   LIG    1       26.393 -27.649   8.059  0.00  0.00    +0.027 C 
ATOM     21  C   LIG    1       26.437 -26.482   7.031  0.00  0.00    +0.069 C 
ATOM     22  C   LIG    1       27.227 -26.915   5.780  0.00  0.00    +0.027 C 
ENDBRANCH   1  21
BRANCH   1  23
ATOM     23  C   LIG    1       23.970 -26.830   6.274  0.00  0.00    +0.107 C 
BRANCH  23  24
ATOM     24  C   LIG    1       24.378 -27.964   5.275  0.00  0.00    +0.021 C 
BRANCH  24  25
ATOM     25  C   LIG    1       24.070 -29.423   5.672  0.00  0.00    +0.030 C 
BRANCH  25  26
ATOM     26  C   LIG    1       25.294 -30.351   5.805  0.00  0.00    +0.160 C 
BRANCH  26  27
ATOM     27  O   LIG    1       25.012 -31.742   5.564  0.00  0.00    -0.370 OA
BRANCH  27  28
ATOM     28  C   LIG    1       24.775 -32.438   6.797  0.00  0.00    +0.256 C 
BRANCH  28  29
ATOM     29  C   LIG    1       25.721 -32.174   7.997  0.00  0.00    +0.257 C 
ATOM     30  N   LIG    1       25.218 -31.719   9.238  0.00  0.00    -0.188 N 
ATOM     31  H   LIG    1       25.903 -31.481   9.941  0.00  0.00    +0.176 HD
ATOM     32  O   LIG    1       26.942 -32.284   7.893  0.00  0.00    -0.272 OA
BRANCH  30  33
ATOM     33  S   LIG    1       23.644 -31.362   9.602  0.00  0.00    +0.042 S 
ATOM     34  O   LIG    1       22.848 -32.523   9.472  0.00  0.00    -0.155 OA
ATOM     35  O   LIG    1       23.323 -30.140   8.842  0.00  0.00    -0.155 OA
ATOM     36  C   LIG    1       23.777 -30.875  11.306  0.00  0.00    +0.218 C 
ENDBRANCH  30  33
ENDBRANCH  28  29
ENDBRANCH  27  28
ENDBRANCH  26  27
ENDBRANCH  25  26
ENDBRANCH  24  25
ENDBRANCH  23  24
ENDBRANCH   1  23
TORSDOF 12
ENDMDL
