MODEL 1
REMARK VINA RESULT:      -4.9      0.000      0.000
REMARK  Name = *****
REMARK                            x       y       z     vdW  Elec       q    Type
REMARK                         _______ _______ _______ _____ _____    ______ ____
ROOT
ATOM      1  C   UNK A  1       25.538 -29.757  15.082  0.00  0.00    +0.176 C 
ATOM      2  C   UNK A  1       26.837 -29.514  14.285  0.00  0.00    +0.235 C 
ATOM      3  O   UNK A  1       27.938 -29.818  14.743  0.00  0.00    -0.274 OA
ATOM      4  N   SER A  2       26.664 -29.140  12.972  0.00  0.00    -0.300 N 
ATOM      5  H   SER A  2       25.764 -28.691  12.810  0.00  0.00    +0.150 HD
ATOM      6  CA  SER A  2       27.752 -28.635  12.116  0.00  0.00    +0.184 C 
ATOM      7  C   SER A  2       26.984 -28.042  10.903  0.00  0.00    +0.236 C 
ATOM      8  O   SER A  2       26.164 -27.133  11.054  0.00  0.00    -0.274 OA
ATOM      9  N   UNK A  3       27.017 -28.731   9.708  0.00  0.00    -0.300 N 
ATOM     10  H   UNK A  3       27.733 -29.434   9.549  0.00  0.00    +0.150 HD
ATOM     11  C   UNK A  3       25.742 -29.044   9.043  0.00  0.00    +0.185 C 
ATOM     12  C   UNK A  3       25.735 -30.566   8.802  0.00  0.00    +0.240 C 
ATOM     13  O   UNK A  3       26.780 -31.219   8.794  0.00  0.00    -0.273 OA
ATOM     14  N   UNK A  3       24.467 -31.136   8.676  0.00  0.00    -0.279 N 
ATOM     15  H   UNK A  3       23.767 -30.441   8.946  0.00  0.00    +0.155 HD
ATOM     16  C   UNK A  3       24.267 -32.303   9.430  0.00  0.00    +0.110 C 
ATOM     17  C   UNK A  3       24.457 -33.531   8.932  0.00  0.00    +0.104 C 
ATOM     18  C   UNK A  3       23.868 -31.994  10.852  0.00  0.00    +0.260 C 
ATOM     19  O   UNK A  3       23.938 -30.828  11.242  0.00  0.00    -0.269 OA
ATOM     20  N   UNK A  3       23.367 -32.984  11.651  0.00  0.00    -0.296 N 
ATOM     21  H   UNK A  3       23.201 -33.897  11.244  0.00  0.00    +0.150 HD
ATOM     22  C   UNK A  3       22.466 -32.615  12.764  0.00  0.00    +0.194 C 
ATOM     23  C   UNK A  3       23.144 -31.849  13.945  0.00  0.00    +0.237 C 
ATOM     24  O   UNK A  3       22.487 -31.367  14.872  0.00  0.00    -0.274 OA
ATOM     25  N   UNK A  3       24.520 -31.819  13.959  0.00  0.00    -0.311 N 
ATOM     26  H   UNK A  3       24.990 -31.919  13.066  0.00  0.00    +0.149 HD
ATOM     27  C   UNK A  3       25.289 -31.285  15.084  0.00  0.00    +0.136 C 
ENDROOT
BRANCH  22  28
ATOM     28  C   UNK A  3       21.210 -31.827  12.283  0.00  0.00    +0.171 C 
ATOM     29  N   UNK A  3       20.453 -31.262  13.392  0.00  0.00    -0.233 N 
ATOM     30  H   UNK A  3       21.010 -30.781  14.096  0.00  0.00    +0.245 HD
ATOM     31  C   UNK A  3       19.202 -30.802  13.159  0.00  0.00    +0.365 C 
ATOM     32  N   UNK A  3       18.476 -31.031  12.126  0.00  0.00    -0.085 NA
ATOM     33  C   UNK A  3       19.043 -31.870  11.076  0.00  0.00    +0.319 C 
ATOM     34  C   UNK A  3       20.217 -32.724  11.535  0.00  0.00    +0.115 C 
BRANCH  31  35
ATOM     35  N   UNK A  3       18.713 -30.075  14.184  0.00  0.00    -0.252 N 
ATOM     36  H   UNK A  3       19.083 -29.145  14.310  0.00  0.00    +0.241 HD
ATOM     37  H   UNK A  3       17.699 -30.107  14.224  0.00  0.00    +0.241 HD
ENDBRANCH  31  35
BRANCH  33  38
ATOM     38  O   UNK A  3       19.446 -31.127   9.933  0.00  0.00    -0.358 OA
ATOM     39  H   UNK A  3       19.916 -30.372  10.330  0.00  0.00    +0.213 HD
ENDBRANCH  33  38
ENDBRANCH  22  28
BRANCH  17  40
ATOM     40  N   UNK A  3       24.777 -33.761   7.614  0.00  0.00    -0.274 N 
ATOM     41  H   UNK A  3       25.719 -34.055   7.396  0.00  0.00    +0.156 HD
ATOM     42  C   UNK A  3       23.899 -33.575   6.576  0.00  0.00    +0.301 C 
ATOM     43  O   UNK A  3       22.752 -33.191   6.676  0.00  0.00    -0.253 OA
ATOM     44  N   UNK A  3       24.463 -33.825   5.360  0.00  0.00    -0.313 N 
ATOM     45  H   UNK A  3       23.804 -33.778   4.592  0.00  0.00    +0.146 HD
ATOM     46  H   UNK A  3       25.160 -34.548   5.283  0.00  0.00    +0.146 HD
ENDBRANCH  17  40
BRANCH   1  48
ATOM     47  C   UNK A  0       24.286 -27.645  14.860  0.00  0.00    +0.215 C 
ATOM     48  N   UNK A  1       24.406 -28.986  14.555  0.00  0.00    -0.303 N 
ATOM     49  H   UNK A  1       23.534 -29.503  14.468  0.00  0.00    +0.149 HD
ATOM     50  O   UNK A  0       25.140 -27.035  15.494  0.00  0.00    -0.276 OA
BRANCH  47  51
ATOM     51  C   UNK A  0       23.113 -26.975  14.177  0.00  0.00    +0.114 C 
BRANCH  51  52
ATOM     52  C   UNK A  0       21.960 -27.950  13.898  0.00  0.00    +0.059 C 
BRANCH  52  53
ATOM     53  N   UNK A  0       21.598 -28.625  15.153  0.00  0.00    -0.327 NA
ATOM     54  H   UNK A  0       21.033 -28.002  15.732  0.00  0.00    +0.118 HD
ATOM     55  H   UNK A  0       21.023 -29.445  14.967  0.00  0.00    +0.118 HD
ENDBRANCH  52  53
BRANCH  52  56
ATOM     56  C   UNK A  0       20.737 -27.220  13.293  0.00  0.00    +0.020 C 
BRANCH  56  57
ATOM     57  C   UNK A  0       19.786 -26.618  14.337  0.00  0.00    +0.016 C 
BRANCH  57  58
ATOM     58  C   UNK A  0       18.498 -26.081  13.702  0.00  0.00    +0.077 C 
BRANCH  58  59
ATOM     59  N   UNK A  0       17.406 -26.104  14.672  0.00  0.00    -0.330 NA
ATOM     60  H   UNK A  0       17.691 -26.651  15.485  0.00  0.00    +0.118 HD
ATOM     61  H   UNK A  0       16.603 -26.587  14.272  0.00  0.00    +0.118 HD
ENDBRANCH  58  59
ENDBRANCH  57  58
ENDBRANCH  56  57
ENDBRANCH  52  56
ENDBRANCH  51  52
ENDBRANCH  47  51
ENDBRANCH   1  48
BRANCH   6  62
ATOM     62  CB  SER A  2       28.783 -29.707  11.732  0.00  0.00    +0.187 C 
BRANCH  62  63
ATOM     63  OG  SER A  2       29.990 -29.676  12.482  0.00  0.00    -0.393 OA
ATOM     64  H   SER A  2       30.090 -30.542  12.934  0.00  0.00    +0.209 HD
ENDBRANCH  62  63
ENDBRANCH   6  62
BRANCH  11  65
ATOM     65  C   UNK A  3       25.544 -28.277   7.744  0.00  0.00    +0.187 C 
BRANCH  65  66
ATOM     66  O   UNK A  3       25.511 -29.157   6.623  0.00  0.00    -0.393 OA
ATOM     67  H   UNK A  3       26.152 -28.824   5.963  0.00  0.00    +0.209 HD
ENDBRANCH  65  66
ENDBRANCH  11  65
TORSDOF 16
ENDMDL
MODEL 2
REMARK VINA RESULT:      -4.4      1.711      2.385
REMARK  Name = *****
REMARK                            x       y       z     vdW  Elec       q    Type
REMARK                         _______ _______ _______ _____ _____    ______ ____
ROOT
ATOM      1  C   UNK A  1       25.423 -31.076  14.354  0.00  0.00    +0.176 C 
ATOM      2  C   UNK A  1       26.687 -30.530  13.657  0.00  0.00    +0.235 C 
ATOM      3  O   UNK A  1       27.815 -30.802  14.067  0.00  0.00    -0.274 OA
ATOM      4  N   SER A  2       26.473 -29.908  12.448  0.00  0.00    -0.300 N 
ATOM      5  H   SER A  2       25.529 -29.536  12.363  0.00  0.00    +0.150 HD
ATOM      6  CA  SER A  2       27.498 -29.118  11.743  0.00  0.00    +0.184 C 
ATOM      7  C   SER A  2       26.670 -28.369  10.665  0.00  0.00    +0.236 C 
ATOM      8  O   SER A  2       25.753 -27.607  10.984  0.00  0.00    -0.274 OA
ATOM      9  N   UNK A  3       26.779 -28.781   9.353  0.00  0.00    -0.300 N 
ATOM     10  H   UNK A  3       27.570 -29.353   9.067  0.00  0.00    +0.150 HD
ATOM     11  C   UNK A  3       25.547 -29.084   8.607  0.00  0.00    +0.185 C 
ATOM     12  C   UNK A  3       25.710 -30.512   8.051  0.00  0.00    +0.240 C 
ATOM     13  O   UNK A  3       26.821 -31.031   7.931  0.00  0.00    -0.273 OA
ATOM     14  N   UNK A  3       24.514 -31.177   7.778  0.00  0.00    -0.279 N 
ATOM     15  H   UNK A  3       23.740 -30.636   8.172  0.00  0.00    +0.155 HD
ATOM     16  C   UNK A  3       24.445 -32.492   8.265  0.00  0.00    +0.110 C 
ATOM     17  C   UNK A  3       24.770 -33.559   7.524  0.00  0.00    +0.104 C 
ATOM     18  C   UNK A  3       24.014 -32.536   9.710  0.00  0.00    +0.260 C 
ATOM     19  O   UNK A  3       23.953 -31.478  10.338  0.00  0.00    -0.269 OA
ATOM     20  N   UNK A  3       23.626 -33.721  10.271  0.00  0.00    -0.296 N 
ATOM     21  H   UNK A  3       23.563 -34.540   9.677  0.00  0.00    +0.150 HD
ATOM     22  C   UNK A  3       22.690 -33.696  11.415  0.00  0.00    +0.194 C 
ATOM     23  C   UNK A  3       23.278 -33.129  12.746  0.00  0.00    +0.237 C 
ATOM     24  O   UNK A  3       22.571 -32.928  13.738  0.00  0.00    -0.274 OA
ATOM     25  N   UNK A  3       24.642 -32.952  12.799  0.00  0.00    -0.311 N 
ATOM     26  H   UNK A  3       25.120 -32.810  11.916  0.00  0.00    +0.149 HD
ATOM     27  C   UNK A  3       25.346 -32.588  14.029  0.00  0.00    +0.136 C 
ENDROOT
BRANCH  22  28
ATOM     28  C   UNK A  3       21.353 -32.966  11.081  0.00  0.00    +0.171 C 
ATOM     29  N   UNK A  3       21.317 -31.610  11.608  0.00  0.00    -0.233 N 
ATOM     30  H   UNK A  3       22.155 -31.056  11.439  0.00  0.00    +0.245 HD
ATOM     31  C   UNK A  3       20.132 -30.957  11.648  0.00  0.00    +0.365 C 
ATOM     32  N   UNK A  3       18.964 -31.473  11.517  0.00  0.00    -0.085 NA
ATOM     33  C   UNK A  3       18.882 -32.912  11.297  0.00  0.00    +0.319 C 
ATOM     34  C   UNK A  3       20.140 -33.670  11.699  0.00  0.00    +0.115 C 
BRANCH  31  35
ATOM     35  N   UNK A  3       20.267 -29.640  11.904  0.00  0.00    -0.252 N 
ATOM     36  H   UNK A  3       19.460 -29.055  11.756  0.00  0.00    +0.241 HD
ATOM     37  H   UNK A  3       20.722 -29.471  12.795  0.00  0.00    +0.241 HD
ENDBRANCH  31  35
BRANCH  33  38
ATOM     38  O   UNK A  3       18.566 -33.247   9.951  0.00  0.00    -0.358 OA
ATOM     39  H   UNK A  3       18.346 -34.193  10.018  0.00  0.00    +0.213 HD
ENDBRANCH  33  38
ENDBRANCH  22  28
BRANCH  17  40
ATOM     40  N   UNK A  3       25.115 -33.468   6.195  0.00  0.00    -0.274 N 
ATOM     41  H   UNK A  3       26.090 -33.564   5.947  0.00  0.00    +0.156 HD
ATOM     42  C   UNK A  3       24.212 -33.216   5.193  0.00  0.00    +0.301 C 
ATOM     43  O   UNK A  3       23.019 -33.041   5.339  0.00  0.00    -0.253 OA
ATOM     44  N   UNK A  3       24.801 -33.127   3.966  0.00  0.00    -0.313 N 
ATOM     45  H   UNK A  3       24.137 -33.030   3.207  0.00  0.00    +0.146 HD
ATOM     46  H   UNK A  3       25.601 -33.705   3.765  0.00  0.00    +0.146 HD
ENDBRANCH  17  40
BRANCH   1  48
ATOM     47  C   UNK A  0       23.875 -29.179  14.643  0.00  0.00    +0.215 C 
ATOM     48  N   UNK A  1       24.213 -30.339  13.974  0.00  0.00    -0.303 N 
ATOM     49  H   UNK A  1       23.435 -30.916  13.663  0.00  0.00    +0.149 HD
ATOM     50  O   UNK A  0       24.596 -28.680  15.500  0.00  0.00    -0.276 OA
BRANCH  47  51
ATOM     51  C   UNK A  0       22.647 -28.497  14.082  0.00  0.00    +0.114 C 
BRANCH  51  52
ATOM     52  C   UNK A  0       22.979 -27.175  13.373  0.00  0.00    +0.059 C 
BRANCH  52  53
ATOM     53  N   UNK A  0       21.735 -26.600  12.840  0.00  0.00    -0.327 NA
ATOM     54  H   UNK A  0       21.954 -25.851  12.181  0.00  0.00    +0.118 HD
ATOM     55  H   UNK A  0       21.212 -27.300  12.315  0.00  0.00    +0.118 HD
ENDBRANCH  52  53
BRANCH  52  56
ATOM     56  C   UNK A  0       23.680 -26.181  14.329  0.00  0.00    +0.020 C 
BRANCH  56  57
ATOM     57  C   UNK A  0       24.737 -25.298  13.652  0.00  0.00    +0.016 C 
BRANCH  57  58
ATOM     58  C   UNK A  0       26.137 -25.525  14.235  0.00  0.00    +0.077 C 
BRANCH  58  59
ATOM     59  N   UNK A  0       26.547 -26.914  14.044  0.00  0.00    -0.330 NA
ATOM     60  H   UNK A  0       26.414 -27.171  13.066  0.00  0.00    +0.118 HD
ATOM     61  H   UNK A  0       25.941 -27.528  14.584  0.00  0.00    +0.118 HD
ENDBRANCH  58  59
ENDBRANCH  57  58
ENDBRANCH  56  57
ENDBRANCH  52  56
ENDBRANCH  51  52
ENDBRANCH  47  51
ENDBRANCH   1  48
BRANCH   6  62
ATOM     62  CB  SER A  2       28.643 -29.965  11.167  0.00  0.00    +0.187 C 
BRANCH  62  63
ATOM     63  OG  SER A  2       29.893 -29.813  11.826  0.00  0.00    -0.393 OA
ATOM     64  H   SER A  2       30.059 -30.623  12.356  0.00  0.00    +0.209 HD
ENDBRANCH  62  63
ENDBRANCH   6  62
BRANCH  11  65
ATOM     65  C   UNK A  3       25.265 -28.086   7.493  0.00  0.00    +0.187 C 
BRANCH  65  66
ATOM     66  O   UNK A  3       25.663 -28.599   6.225  0.00  0.00    -0.393 OA
ATOM     67  H   UNK A  3       24.878 -29.010   5.809  0.00  0.00    +0.209 HD
ENDBRANCH  65  66
ENDBRANCH  11  65
TORSDOF 16
ENDMDL
MODEL 3
REMARK VINA RESULT:      -3.2      1.844      2.167
REMARK  Name = *****
REMARK                            x       y       z     vdW  Elec       q    Type
REMARK                         _______ _______ _______ _____ _____    ______ ____
ROOT
ATOM      1  C   UNK A  1       24.999 -31.330  13.717  0.00  0.00    +0.176 C 
ATOM      2  C   UNK A  1       26.270 -30.741  13.069  0.00  0.00    +0.235 C 
ATOM      3  O   UNK A  1       27.393 -31.024  13.484  0.00  0.00    -0.274 OA
ATOM      4  N   SER A  2       26.071 -30.063  11.888  0.00  0.00    -0.300 N 
ATOM      5  H   SER A  2       25.125 -29.694  11.804  0.00  0.00    +0.150 HD
ATOM      6  CA  SER A  2       27.101 -29.232  11.239  0.00  0.00    +0.184 C 
ATOM      7  C   SER A  2       26.285 -28.438  10.184  0.00  0.00    +0.236 C 
ATOM      8  O   SER A  2       25.356 -27.699  10.524  0.00  0.00    -0.274 OA
ATOM      9  N   UNK A  3       26.419 -28.786   8.856  0.00  0.00    -0.300 N 
ATOM     10  H   UNK A  3       27.219 -29.337   8.556  0.00  0.00    +0.150 HD
ATOM     11  C   UNK A  3       25.203 -29.061   8.075  0.00  0.00    +0.185 C 
ATOM     12  C   UNK A  3       25.387 -30.459   7.454  0.00  0.00    +0.240 C 
ATOM     13  O   UNK A  3       26.504 -30.963   7.328  0.00  0.00    -0.273 OA
ATOM     14  N   UNK A  3       24.201 -31.119   7.129  0.00  0.00    -0.279 N 
ATOM     15  H   UNK A  3       23.416 -30.603   7.535  0.00  0.00    +0.155 HD
ATOM     16  C   UNK A  3       24.134 -32.456   7.550  0.00  0.00    +0.110 C 
ATOM     17  C   UNK A  3       24.481 -33.484   6.765  0.00  0.00    +0.104 C 
ATOM     18  C   UNK A  3       23.680 -32.574   8.985  0.00  0.00    +0.260 C 
ATOM     19  O   UNK A  3       23.599 -31.548   9.661  0.00  0.00    -0.269 OA
ATOM     20  N   UNK A  3       23.293 -33.787   9.480  0.00  0.00    -0.296 N 
ATOM     21  H   UNK A  3       23.246 -34.577   8.847  0.00  0.00    +0.150 HD
ATOM     22  C   UNK A  3       22.337 -33.824  10.608  0.00  0.00    +0.194 C 
ATOM     23  C   UNK A  3       22.898 -33.318  11.975  0.00  0.00    +0.237 C 
ATOM     24  O   UNK A  3       22.173 -33.170  12.963  0.00  0.00    -0.274 OA
ATOM     25  N   UNK A  3       24.259 -33.134  12.060  0.00  0.00    -0.311 N 
ATOM     26  H   UNK A  3       24.751 -32.945  11.193  0.00  0.00    +0.149 HD
ATOM     27  C   UNK A  3       24.940 -32.825  13.317  0.00  0.00    +0.136 C 
ENDROOT
BRANCH  22  28
ATOM     28  C   UNK A  3       21.000 -33.089  10.287  0.00  0.00    +0.171 C 
ATOM     29  N   UNK A  3       20.950 -31.755  10.866  0.00  0.00    -0.233 N 
ATOM     30  H   UNK A  3       21.787 -31.190  10.729  0.00  0.00    +0.245 HD
ATOM     31  C   UNK A  3       19.760 -31.110  10.917  0.00  0.00    +0.365 C 
ATOM     32  N   UNK A  3       18.597 -31.627  10.752  0.00  0.00    -0.085 NA
ATOM     33  C   UNK A  3       18.526 -33.057  10.475  0.00  0.00    +0.319 C 
ATOM     34  C   UNK A  3       19.784 -33.824  10.862  0.00  0.00    +0.115 C 
BRANCH  31  35
ATOM     35  N   UNK A  3       19.885 -29.804  11.226  0.00  0.00    -0.252 N 
ATOM     36  H   UNK A  3       19.349 -29.460  12.008  0.00  0.00    +0.241 HD
ATOM     37  H   UNK A  3       20.857 -29.510  11.252  0.00  0.00    +0.241 HD
ENDBRANCH  31  35
BRANCH  33  38
ATOM     38  O   UNK A  3       18.228 -33.341   9.114  0.00  0.00    -0.358 OA
ATOM     39  H   UNK A  3       18.874 -32.788   8.639  0.00  0.00    +0.213 HD
ENDBRANCH  33  38
ENDBRANCH  22  28
BRANCH  17  40
ATOM     40  N   UNK A  3       24.847 -33.326   5.448  0.00  0.00    -0.274 N 
ATOM     41  H   UNK A  3       24.121 -33.136   4.771  0.00  0.00    +0.156 HD
ATOM     42  C   UNK A  3       26.138 -33.450   4.998  0.00  0.00    +0.301 C 
ATOM     43  O   UNK A  3       27.106 -33.711   5.682  0.00  0.00    -0.253 OA
ATOM     44  N   UNK A  3       26.240 -33.294   3.647  0.00  0.00    -0.313 N 
ATOM     45  H   UNK A  3       27.196 -33.295   3.313  0.00  0.00    +0.146 HD
ATOM     46  H   UNK A  3       25.623 -32.649   3.181  0.00  0.00    +0.146 HD
ENDBRANCH  17  40
BRANCH   1  48
ATOM     47  C   UNK A  0       22.842 -30.296  14.315  0.00  0.00    +0.215 C 
ATOM     48  N   UNK A  1       23.789 -30.584  13.352  0.00  0.00    -0.303 N 
ATOM     49  H   UNK A  1       23.431 -30.771  12.418  0.00  0.00    +0.149 HD
ATOM     50  O   UNK A  0       23.005 -30.565  15.500  0.00  0.00    -0.276 OA
BRANCH  47  51
ATOM     51  C   UNK A  0       21.695 -29.455  13.798  0.00  0.00    +0.114 C 
BRANCH  51  52
ATOM     52  C   UNK A  0       21.130 -28.508  14.868  0.00  0.00    +0.059 C 
BRANCH  52  53
ATOM     53  N   UNK A  0       22.001 -27.327  14.959  0.00  0.00    -0.327 NA
ATOM     54  H   UNK A  0       22.737 -27.384  14.254  0.00  0.00    +0.118 HD
ATOM     55  H   UNK A  0       21.476 -26.477  14.759  0.00  0.00    +0.118 HD
ENDBRANCH  52  53
BRANCH  52  56
ATOM     56  C   UNK A  0       19.674 -28.095  14.545  0.00  0.00    +0.020 C 
BRANCH  56  57
ATOM     57  C   UNK A  0       19.556 -26.974  13.504  0.00  0.00    +0.016 C 
BRANCH  57  58
ATOM     58  C   UNK A  0       18.668 -25.824  13.993  0.00  0.00    +0.077 C 
BRANCH  58  59
ATOM     59  N   UNK A  0       17.731 -26.302  15.007  0.00  0.00    -0.330 NA
ATOM     60  H   UNK A  0       16.898 -25.715  14.998  0.00  0.00    +0.118 HD
ATOM     61  H   UNK A  0       18.144 -26.196  15.932  0.00  0.00    +0.118 HD
ENDBRANCH  58  59
ENDBRANCH  57  58
ENDBRANCH  56  57
ENDBRANCH  52  56
ENDBRANCH  51  52
ENDBRANCH  47  51
ENDBRANCH   1  48
BRANCH   6  62
ATOM     62  CB  SER A  2       28.263 -30.042  10.643  0.00  0.00    +0.187 C 
BRANCH  62  63
ATOM     63  OG  SER A  2       27.874 -31.106   9.784  0.00  0.00    -0.393 OA
ATOM     64  H   SER A  2       26.994 -31.429  10.078  0.00  0.00    +0.209 HD
ENDBRANCH  62  63
ENDBRANCH   6  62
BRANCH  11  65
ATOM     65  C   UNK A  3       24.931 -28.012   7.007  0.00  0.00    +0.187 C 
BRANCH  65  66
ATOM     66  O   UNK A  3       23.882 -28.422   6.133  0.00  0.00    -0.393 OA
ATOM     67  H   UNK A  3       23.117 -27.832   6.287  0.00  0.00    +0.209 HD
ENDBRANCH  65  66
ENDBRANCH  11  65
TORSDOF 16
ENDMDL
MODEL 4
REMARK VINA RESULT:      -3.1      2.463      7.283
REMARK  Name = *****
REMARK                            x       y       z     vdW  Elec       q    Type
REMARK                         _______ _______ _______ _____ _____    ______ ____
ROOT
ATOM      1  C   UNK A  1       24.932 -33.170  11.133  0.00  0.00    +0.176 C 
ATOM      2  C   UNK A  1       24.771 -33.043  12.663  0.00  0.00    +0.235 C 
ATOM      3  O   UNK A  1       25.327 -33.823  13.434  0.00  0.00    -0.274 OA
ATOM      4  N   SER A  2       24.150 -31.894  13.098  0.00  0.00    -0.300 N 
ATOM      5  H   SER A  2       23.538 -31.490  12.391  0.00  0.00    +0.150 HD
ATOM      6  CA  SER A  2       23.689 -31.689  14.483  0.00  0.00    +0.184 C 
ATOM      7  C   SER A  2       22.776 -30.440  14.356  0.00  0.00    +0.236 C 
ATOM      8  O   SER A  2       21.785 -30.449  13.621  0.00  0.00    -0.274 OA
ATOM      9  N   UNK A  3       23.241 -29.237  14.846  0.00  0.00    -0.300 N 
ATOM     10  H   UNK A  3       24.014 -29.225  15.506  0.00  0.00    +0.150 HD
ATOM     11  C   UNK A  3       23.220 -28.062  13.960  0.00  0.00    +0.185 C 
ATOM     12  C   UNK A  3       24.654 -27.499  13.943  0.00  0.00    +0.240 C 
ATOM     13  O   UNK A  3       25.458 -27.765  14.837  0.00  0.00    -0.273 OA
ATOM     14  N   UNK A  3       24.977 -26.747  12.812  0.00  0.00    -0.279 N 
ATOM     15  H   UNK A  3       24.234 -26.862  12.119  0.00  0.00    +0.155 HD
ATOM     16  C   UNK A  3       26.208 -27.068  12.221  0.00  0.00    +0.110 C 
ATOM     17  C   UNK A  3       27.346 -26.424  12.513  0.00  0.00    +0.104 C 
ATOM     18  C   UNK A  3       26.092 -28.239  11.276  0.00  0.00    +0.260 C 
ATOM     19  O   UNK A  3       25.038 -28.877  11.259  0.00  0.00    -0.269 OA
ATOM     20  N   UNK A  3       27.109 -28.519  10.408  0.00  0.00    -0.296 N 
ATOM     21  H   UNK A  3       27.898 -27.884  10.364  0.00  0.00    +0.150 HD
ATOM     22  C   UNK A  3       26.797 -29.227   9.147  0.00  0.00    +0.194 C 
ATOM     23  C   UNK A  3       26.372 -30.721   9.308  0.00  0.00    +0.237 C 
ATOM     24  O   UNK A  3       25.957 -31.387   8.355  0.00  0.00    -0.274 OA
ATOM     25  N   UNK A  3       26.570 -31.295  10.543  0.00  0.00    -0.311 N 
ATOM     26  H   UNK A  3       26.590 -30.670  11.342  0.00  0.00    +0.149 HD
ATOM     27  C   UNK A  3       26.375 -32.723  10.793  0.00  0.00    +0.136 C 
ENDROOT
BRANCH  22  28
ATOM     28  C   UNK A  3       25.742 -28.473   8.281  0.00  0.00    +0.171 C 
ATOM     29  N   UNK A  3       24.995 -29.372   7.413  0.00  0.00    -0.233 N 
ATOM     30  H   UNK A  3       24.648 -30.219   7.861  0.00  0.00    +0.245 HD
ATOM     31  C   UNK A  3       24.254 -28.844   6.410  0.00  0.00    +0.365 C 
ATOM     32  N   UNK A  3       24.323 -27.648   5.950  0.00  0.00    -0.085 NA
ATOM     33  C   UNK A  3       25.290 -26.744   6.561  0.00  0.00    +0.319 C 
ATOM     34  C   UNK A  3       26.390 -27.451   7.340  0.00  0.00    +0.115 C 
BRANCH  31  35
ATOM     35  N   UNK A  3       23.415 -29.739   5.852  0.00  0.00    -0.252 N 
ATOM     36  H   UNK A  3       22.938 -30.375   6.473  0.00  0.00    +0.241 HD
ATOM     37  H   UNK A  3       22.796 -29.309   5.173  0.00  0.00    +0.241 HD
ENDBRANCH  31  35
BRANCH  33  38
ATOM     38  O   UNK A  3       24.683 -25.781   7.413  0.00  0.00    -0.358 OA
ATOM     39  H   UNK A  3       24.938 -24.940   6.993  0.00  0.00    +0.213 HD
ENDBRANCH  33  38
ENDBRANCH  22  28
BRANCH  17  40
ATOM     40  N   UNK A  3       27.391 -25.333  13.350  0.00  0.00    -0.274 N 
ATOM     41  H   UNK A  3       26.984 -24.466  13.025  0.00  0.00    +0.156 HD
ATOM     42  C   UNK A  3       27.992 -25.346  14.584  0.00  0.00    +0.301 C 
ATOM     43  O   UNK A  3       28.552 -26.297  15.090  0.00  0.00    -0.253 OA
ATOM     44  N   UNK A  3       27.945 -24.132  15.203  0.00  0.00    -0.313 N 
ATOM     45  H   UNK A  3       28.305 -24.149  16.150  0.00  0.00    +0.146 HD
ATOM     46  H   UNK A  3       27.143 -23.540  15.059  0.00  0.00    +0.146 HD
ENDBRANCH  17  40
BRANCH   1  48
ATOM     47  C   UNK A  0       22.584 -32.814  10.473  0.00  0.00    +0.215 C 
ATOM     48  N   UNK A  1       23.906 -32.422  10.398  0.00  0.00    -0.303 N 
ATOM     49  H   UNK A  1       24.207 -32.037   9.506  0.00  0.00    +0.149 HD
ATOM     50  O   UNK A  0       22.207 -33.723  11.203  0.00  0.00    -0.276 OA
BRANCH  47  51
ATOM     51  C   UNK A  0       21.641 -31.895   9.726  0.00  0.00    +0.114 C 
BRANCH  51  52
ATOM     52  C   UNK A  0       20.384 -31.554  10.539  0.00  0.00    +0.059 C 
BRANCH  52  53
ATOM     53  N   UNK A  0       20.378 -30.109  10.814  0.00  0.00    -0.327 NA
ATOM     54  H   UNK A  0       19.831 -29.919  11.655  0.00  0.00    +0.118 HD
ATOM     55  H   UNK A  0       21.322 -29.776  11.004  0.00  0.00    +0.118 HD
ENDBRANCH  52  53
BRANCH  52  56
ATOM     56  C   UNK A  0       19.096 -31.978   9.794  0.00  0.00    +0.020 C 
BRANCH  56  57
ATOM     57  C   UNK A  0       18.191 -32.924  10.594  0.00  0.00    +0.016 C 
BRANCH  57  58
ATOM     58  C   UNK A  0       17.475 -32.204  11.742  0.00  0.00    +0.077 C 
BRANCH  58  59
ATOM     59  N   UNK A  0       17.101 -30.851  11.338  0.00  0.00    -0.330 NA
ATOM     60  H   UNK A  0       17.543 -30.179  11.965  0.00  0.00    +0.118 HD
ATOM     61  H   UNK A  0       16.096 -30.725  11.450  0.00  0.00    +0.118 HD
ENDBRANCH  58  59
ENDBRANCH  57  58
ENDBRANCH  56  57
ENDBRANCH  52  56
ENDBRANCH  51  52
ENDBRANCH  47  51
ENDBRANCH   1  48
BRANCH   6  62
ATOM     62  CB  SER A  2       24.833 -31.521  15.495  0.00  0.00    +0.187 C 
BRANCH  62  63
ATOM     63  OG  SER A  2       25.969 -30.820  15.007  0.00  0.00    -0.393 OA
ATOM     64  H   SER A  2       26.093 -31.061  14.063  0.00  0.00    +0.209 HD
ENDBRANCH  62  63
ENDBRANCH   6  62
BRANCH  11  65
ATOM     65  C   UNK A  3       22.216 -27.005  14.397  0.00  0.00    +0.187 C 
BRANCH  65  66
ATOM     66  O   UNK A  3       22.862 -25.915  15.049  0.00  0.00    -0.393 OA
ATOM     67  H   UNK A  3       23.733 -26.230  15.366  0.00  0.00    +0.209 HD
ENDBRANCH  65  66
ENDBRANCH  11  65
TORSDOF 16
ENDMDL
MODEL 5
REMARK VINA RESULT:      -2.9      2.272      6.698
REMARK  Name = *****
REMARK                            x       y       z     vdW  Elec       q    Type
REMARK                         _______ _______ _______ _____ _____    ______ ____
ROOT
ATOM      1  C   UNK A  1       21.987 -28.882  14.625  0.00  0.00    +0.176 C 
ATOM      2  C   UNK A  1       20.964 -29.228  13.521  0.00  0.00    +0.235 C 
ATOM      3  O   UNK A  1       19.939 -28.567  13.365  0.00  0.00    -0.274 OA
ATOM      4  N   SER A  2       21.376 -30.175  12.611  0.00  0.00    -0.300 N 
ATOM      5  H   SER A  2       22.088 -30.796  12.990  0.00  0.00    +0.150 HD
ATOM      6  CA  SER A  2       20.477 -30.814  11.634  0.00  0.00    +0.184 C 
ATOM      7  C   SER A  2       21.324 -32.010  11.122  0.00  0.00    +0.236 C 
ATOM      8  O   SER A  2       21.727 -32.881  11.898  0.00  0.00    -0.274 OA
ATOM      9  N   UNK A  3       21.860 -31.937   9.854  0.00  0.00    -0.300 N 
ATOM     10  H   UNK A  3       21.487 -31.267   9.185  0.00  0.00    +0.150 HD
ATOM     11  C   UNK A  3       23.301 -32.180   9.684  0.00  0.00    +0.185 C 
ATOM     12  C   UNK A  3       23.869 -30.955   8.943  0.00  0.00    +0.240 C 
ATOM     13  O   UNK A  3       23.141 -30.205   8.290  0.00  0.00    -0.273 OA
ATOM     14  N   UNK A  3       25.233 -30.729   9.137  0.00  0.00    -0.279 N 
ATOM     15  H   UNK A  3       25.562 -31.338   9.889  0.00  0.00    +0.155 HD
ATOM     16  C   UNK A  3       25.576 -29.403   9.440  0.00  0.00    +0.110 C 
ATOM     17  C   UNK A  3       25.945 -28.516   8.507  0.00  0.00    +0.104 C 
ATOM     18  C   UNK A  3       25.428 -29.104  10.911  0.00  0.00    +0.260 C 
ATOM     19  O   UNK A  3       24.876 -29.940  11.628  0.00  0.00    -0.269 OA
ATOM     20  N   UNK A  3       25.971 -27.965  11.435  0.00  0.00    -0.296 N 
ATOM     21  H   UNK A  3       26.533 -27.374  10.832  0.00  0.00    +0.150 HD
ATOM     22  C   UNK A  3       26.345 -27.944  12.866  0.00  0.00    +0.194 C 
ATOM     23  C   UNK A  3       25.148 -27.969  13.868  0.00  0.00    +0.237 C 
ATOM     24  O   UNK A  3       25.319 -28.090  15.085  0.00  0.00    -0.274 OA
ATOM     25  N   UNK A  3       23.893 -27.753  13.346  0.00  0.00    -0.311 N 
ATOM     26  H   UNK A  3       23.758 -27.983  12.368  0.00  0.00    +0.149 HD
ATOM     27  C   UNK A  3       22.705 -27.583  14.182  0.00  0.00    +0.136 C 
ENDROOT
BRANCH  22  28
ATOM     28  C   UNK A  3       27.361 -29.067  13.236  0.00  0.00    +0.171 C 
ATOM     29  N   UNK A  3       26.760 -30.107  14.059  0.00  0.00    -0.233 N 
ATOM     30  H   UNK A  3       25.854 -30.445  13.738  0.00  0.00    +0.245 HD
ATOM     31  C   UNK A  3       27.571 -30.988  14.690  0.00  0.00    +0.365 C 
ATOM     32  N   UNK A  3       28.836 -30.877  14.873  0.00  0.00    -0.085 NA
ATOM     33  C   UNK A  3       29.491 -29.685  14.347  0.00  0.00    +0.319 C 
ATOM     34  C   UNK A  3       28.539 -28.533  14.059  0.00  0.00    +0.115 C 
BRANCH  31  35
ATOM     35  N   UNK A  3       26.902 -32.044  15.198  0.00  0.00    -0.252 N 
ATOM     36  H   UNK A  3       26.882 -32.139  16.202  0.00  0.00    +0.241 HD
ATOM     37  H   UNK A  3       25.989 -32.156  14.770  0.00  0.00    +0.241 HD
ENDBRANCH  31  35
BRANCH  33  38
ATOM     38  O   UNK A  3       30.251 -29.944  13.173  0.00  0.00    -0.358 OA
ATOM     39  H   UNK A  3       30.497 -29.049  12.882  0.00  0.00    +0.213 HD
ENDBRANCH  33  38
ENDBRANCH  22  28
BRANCH  17  40
ATOM     40  N   UNK A  3       26.108 -28.850   7.182  0.00  0.00    -0.274 N 
ATOM     41  H   UNK A  3       26.807 -29.541   6.947  0.00  0.00    +0.156 HD
ATOM     42  C   UNK A  3       25.399 -28.270   6.160  0.00  0.00    +0.301 C 
ATOM     43  O   UNK A  3       24.557 -27.404   6.281  0.00  0.00    -0.253 OA
ATOM     44  N   UNK A  3       25.771 -28.736   4.933  0.00  0.00    -0.313 N 
ATOM     45  H   UNK A  3       25.197 -28.383   4.177  0.00  0.00    +0.146 HD
ATOM     46  H   UNK A  3       26.058 -29.698   4.841  0.00  0.00    +0.146 HD
ENDBRANCH  17  40
BRANCH   1  48
ATOM     47  C   UNK A  0       22.414 -31.204  15.335  0.00  0.00    +0.215 C 
ATOM     48  N   UNK A  1       22.908 -29.989  14.901  0.00  0.00    -0.303 N 
ATOM     49  H   UNK A  1       23.812 -29.715  15.279  0.00  0.00    +0.149 HD
ATOM     50  O   UNK A  0       21.213 -31.432  15.422  0.00  0.00    -0.276 OA
BRANCH  47  51
ATOM     51  C   UNK A  0       23.482 -32.264  15.497  0.00  0.00    +0.114 C 
BRANCH  51  52
ATOM     52  C   UNK A  0       23.052 -33.624  14.929  0.00  0.00    +0.059 C 
BRANCH  52  53
ATOM     53  N   UNK A  0       21.585 -33.714  14.977  0.00  0.00    -0.327 NA
ATOM     54  H   UNK A  0       21.175 -33.027  14.342  0.00  0.00    +0.118 HD
ATOM     55  H   UNK A  0       21.270 -34.627  14.654  0.00  0.00    +0.118 HD
ENDBRANCH  52  53
BRANCH  52  56
ATOM     56  C   UNK A  0       23.569 -33.822  13.484  0.00  0.00    +0.020 C 
BRANCH  56  57
ATOM     57  C   UNK A  0       24.724 -32.888  13.098  0.00  0.00    +0.016 C 
BRANCH  57  58
ATOM     58  C   UNK A  0       25.740 -33.576  12.178  0.00  0.00    +0.077 C 
BRANCH  58  59
ATOM     59  N   UNK A  0       26.170 -32.661  11.124  0.00  0.00    -0.330 NA
ATOM     60  H   UNK A  0       26.972 -32.124  11.452  0.00  0.00    +0.118 HD
ATOM     61  H   UNK A  0       25.433 -31.984  10.935  0.00  0.00    +0.118 HD
ENDBRANCH  58  59
ENDBRANCH  57  58
ENDBRANCH  56  57
ENDBRANCH  52  56
ENDBRANCH  51  52
ENDBRANCH  47  51
ENDBRANCH   1  48
BRANCH   6  62
ATOM     62  CB  SER A  2       20.003 -29.868  10.520  0.00  0.00    +0.187 C 
BRANCH  62  63
ATOM     63  OG  SER A  2       18.992 -30.397   9.672  0.00  0.00    -0.393 OA
ATOM     64  H   SER A  2       18.765 -31.297   9.994  0.00  0.00    +0.209 HD
ENDBRANCH  62  63
ENDBRANCH   6  62
BRANCH  11  65
ATOM     65  C   UNK A  3       23.604 -33.469   8.935  0.00  0.00    +0.187 C 
BRANCH  65  66
ATOM     66  O   UNK A  3       24.851 -33.390   8.250  0.00  0.00    -0.393 OA
ATOM     67  H   UNK A  3       24.664 -33.196   7.309  0.00  0.00    +0.209 HD
ENDBRANCH  65  66
ENDBRANCH  11  65
TORSDOF 16
ENDMDL
MODEL 6
REMARK VINA RESULT:      -2.3      1.871      2.451
REMARK  Name = *****
REMARK                            x       y       z     vdW  Elec       q    Type
REMARK                         _______ _______ _______ _____ _____    ______ ____
ROOT
ATOM      1  C   UNK A  1       26.150 -30.603  15.460  0.00  0.00    +0.176 C 
ATOM      2  C   UNK A  1       27.413 -30.109  14.721  0.00  0.00    +0.235 C 
ATOM      3  O   UNK A  1       28.540 -30.320  15.165  0.00  0.00    -0.274 OA
ATOM      4  N   SER A  2       27.200 -29.615  13.454  0.00  0.00    -0.300 N 
ATOM      5  H   SER A  2       26.251 -29.269  13.325  0.00  0.00    +0.150 HD
ATOM      6  CA  SER A  2       28.219 -28.884  12.681  0.00  0.00    +0.184 C 
ATOM      7  C   SER A  2       27.389 -28.262  11.526  0.00  0.00    +0.236 C 
ATOM      8  O   SER A  2       26.458 -27.486  11.760  0.00  0.00    -0.274 OA
ATOM      9  N   UNK A  3       27.516 -28.802  10.264  0.00  0.00    -0.300 N 
ATOM     10  H   UNK A  3       28.318 -29.387  10.042  0.00  0.00    +0.150 HD
ATOM     11  C   UNK A  3       26.296 -29.198   9.542  0.00  0.00    +0.185 C 
ATOM     12  C   UNK A  3       26.486 -30.672   9.135  0.00  0.00    +0.240 C 
ATOM     13  O   UNK A  3       27.606 -31.182   9.076  0.00  0.00    -0.273 OA
ATOM     14  N   UNK A  3       25.302 -31.380   8.922  0.00  0.00    -0.279 N 
ATOM     15  H   UNK A  3       24.517 -30.814   9.253  0.00  0.00    +0.155 HD
ATOM     16  C   UNK A  3       25.249 -32.640   9.538  0.00  0.00    +0.110 C 
ATOM     17  C   UNK A  3       25.597 -33.771   8.911  0.00  0.00    +0.104 C 
ATOM     18  C   UNK A  3       24.806 -32.546  10.977  0.00  0.00    +0.260 C 
ATOM     19  O   UNK A  3       24.723 -31.431  11.494  0.00  0.00    -0.269 OA
ATOM     20  N   UNK A  3       24.431 -33.674  11.651  0.00  0.00    -0.296 N 
ATOM     21  H   UNK A  3       24.386 -34.550  11.143  0.00  0.00    +0.150 HD
ATOM     22  C   UNK A  3       23.484 -33.549  12.781  0.00  0.00    +0.194 C 
ATOM     23  C   UNK A  3       24.051 -32.841  14.052  0.00  0.00    +0.237 C 
ATOM     24  O   UNK A  3       23.332 -32.552  15.013  0.00  0.00    -0.274 OA
ATOM     25  N   UNK A  3       25.412 -32.638  14.097  0.00  0.00    -0.311 N 
ATOM     26  H   UNK A  3       25.896 -32.578  13.208  0.00  0.00    +0.149 HD
ATOM     27  C   UNK A  3       26.100 -32.141  15.288  0.00  0.00    +0.136 C 
ENDROOT
BRANCH  22  28
ATOM     28  C   UNK A  3       22.139 -32.878  12.364  0.00  0.00    +0.171 C 
ATOM     29  N   UNK A  3       21.056 -33.194  13.284  0.00  0.00    -0.233 N 
ATOM     30  H   UNK A  3       21.286 -33.104  14.273  0.00  0.00    +0.245 HD
ATOM     31  C   UNK A  3       19.783 -32.925  12.909  0.00  0.00    +0.365 C 
ATOM     32  N   UNK A  3       19.370 -32.659  11.723  0.00  0.00    -0.085 NA
ATOM     33  C   UNK A  3       20.360 -32.632  10.653  0.00  0.00    +0.319 C 
ATOM     34  C   UNK A  3       21.655 -33.358  10.992  0.00  0.00    +0.115 C 
BRANCH  31  35
ATOM     35  N   UNK A  3       18.907 -33.014  13.930  0.00  0.00    -0.252 N 
ATOM     36  H   UNK A  3       17.969 -33.311  13.709  0.00  0.00    +0.241 HD
ATOM     37  H   UNK A  3       19.301 -33.502  14.728  0.00  0.00    +0.241 HD
ENDBRANCH  31  35
BRANCH  33  38
ATOM     38  O   UNK A  3       20.682 -31.312  10.232  0.00  0.00    -0.358 OA
ATOM     39  H   UNK A  3       20.609 -30.805  11.060  0.00  0.00    +0.213 HD
ENDBRANCH  33  38
ENDBRANCH  22  28
BRANCH  17  40
ATOM     40  N   UNK A  3       25.952 -33.809   7.582  0.00  0.00    -0.274 N 
ATOM     41  H   UNK A  3       26.931 -33.914   7.353  0.00  0.00    +0.156 HD
ATOM     42  C   UNK A  3       25.054 -33.673   6.553  0.00  0.00    +0.301 C 
ATOM     43  O   UNK A  3       23.858 -33.504   6.671  0.00  0.00    -0.253 OA
ATOM     44  N   UNK A  3       25.653 -33.700   5.328  0.00  0.00    -0.313 N 
ATOM     45  H   UNK A  3       24.995 -33.690   4.558  0.00  0.00    +0.146 HD
ATOM     46  H   UNK A  3       26.464 -34.281   5.192  0.00  0.00    +0.146 HD
ENDBRANCH  17  40
BRANCH   1  48
ATOM     47  C   UNK A  0       24.825 -28.554  15.106  0.00  0.00    +0.215 C 
ATOM     48  N   UNK A  1       24.933 -29.927  14.999  0.00  0.00    -0.303 N 
ATOM     49  H   UNK A  1       24.071 -30.453  15.128  0.00  0.00    +0.149 HD
ATOM     50  O   UNK A  0       25.748 -27.850  15.499  0.00  0.00    -0.276 OA
BRANCH  47  51
ATOM     51  C   UNK A  0       23.545 -28.004  14.515  0.00  0.00    +0.114 C 
BRANCH  51  52
ATOM     52  C   UNK A  0       23.803 -27.036  13.350  0.00  0.00    +0.059 C 
BRANCH  52  53
ATOM     53  N   UNK A  0       22.828 -27.312  12.284  0.00  0.00    -0.327 NA
ATOM     54  H   UNK A  0       22.820 -26.541  11.615  0.00  0.00    +0.118 HD
ATOM     55  H   UNK A  0       23.094 -28.144  11.760  0.00  0.00    +0.118 HD
ENDBRANCH  52  53
BRANCH  52  56
ATOM     56  C   UNK A  0       23.715 -25.562  13.810  0.00  0.00    +0.020 C 
BRANCH  56  57
ATOM     57  C   UNK A  0       25.030 -24.999  14.365  0.00  0.00    +0.016 C 
BRANCH  57  58
ATOM     58  C   UNK A  0       26.095 -24.838  13.273  0.00  0.00    +0.077 C 
BRANCH  58  59
ATOM     59  N   UNK A  0       27.432 -24.977  13.844  0.00  0.00    -0.330 NA
ATOM     60  H   UNK A  0       27.787 -24.055  14.097  0.00  0.00    +0.118 HD
ATOM     61  H   UNK A  0       28.070 -25.342  13.138  0.00  0.00    +0.118 HD
ENDBRANCH  58  59
ENDBRANCH  57  58
ENDBRANCH  56  57
ENDBRANCH  52  56
ENDBRANCH  51  52
ENDBRANCH  47  51
ENDBRANCH   1  48
BRANCH   6  62
ATOM     62  CB  SER A  2       29.382 -29.767  12.202  0.00  0.00    +0.187 C 
BRANCH  62  63
ATOM     63  OG  SER A  2       30.351 -29.102  11.402  0.00  0.00    -0.393 OA
ATOM     64  H   SER A  2       30.163 -29.309  10.460  0.00  0.00    +0.209 HD
ENDBRANCH  62  63
ENDBRANCH   6  62
BRANCH  11  65
ATOM     65  C   UNK A  3       26.009 -28.322   8.332  0.00  0.00    +0.187 C 
BRANCH  65  66
ATOM     66  O   UNK A  3       25.118 -28.967   7.426  0.00  0.00    -0.393 OA
ATOM     67  H   UNK A  3       25.622 -29.661   6.954  0.00  0.00    +0.209 HD
ENDBRANCH  65  66
ENDBRANCH  11  65
TORSDOF 16
ENDMDL
