MODEL 1
REMARK VINA RESULT:      -5.8      0.000      0.000
REMARK  Name = *****
REMARK                            x       y       z     vdW  Elec       q    Type
REMARK                         _______ _______ _______ _____ _____    ______ ____
ROOT
ATOM      1  C   LIG    1       29.818 -18.465   6.303  0.00  0.00    +0.068 C 
ATOM      2  C   LIG    1       30.542 -19.230   7.406  0.00  0.00    +0.264 C 
ENDROOT
BRANCH   2   3
ATOM      3  P   LIG    1       29.566 -20.656   7.976  0.00  0.00    +0.371 P 
ATOM      4  O   LIG    1       30.115 -21.562   9.029  0.00  0.00    -0.255 OA
BRANCH   3   5
ATOM      5  O   LIG    1       29.168 -21.460   6.640  0.00  0.00    -0.322 OA
ATOM      6  H   LIG    1       29.842 -22.117   6.379  0.00  0.00    +0.220 HD
ENDBRANCH   3   5
BRANCH   3   7
ATOM      7  O   LIG    1       28.116 -20.103   8.392  0.00  0.00    -0.322 OA
ATOM      8  H   LIG    1       27.687 -19.580   7.691  0.00  0.00    +0.220 HD
ENDBRANCH   3   7
ENDBRANCH   2   3
BRANCH   2   9
ATOM      9  P   LIG    1       31.070 -18.122   8.750  0.00  0.00    +0.371 P 
ATOM     10  O   LIG    1       30.030 -17.286   9.419  0.00  0.00    -0.255 OA
BRANCH   9  11
ATOM     11  O   LIG    1       32.297 -17.241   8.212  0.00  0.00    -0.322 OA
ATOM     12  H   LIG    1       32.624 -17.524   7.338  0.00  0.00    +0.220 HD
ENDBRANCH   9  11
BRANCH   9  13
ATOM     13  O   LIG    1       31.839 -19.034   9.827  0.00  0.00    -0.322 OA
ATOM     14  H   LIG    1       31.896 -19.971   9.566  0.00  0.00    +0.220 HD
ENDBRANCH   9  13
ENDBRANCH   2   9
BRANCH   2  15
ATOM     15  O   LIG    1       31.762 -19.775   6.818  0.00  0.00    -0.367 OA
ATOM     16  H   LIG    1       31.772 -19.457   5.891  0.00  0.00    +0.212 HD
ENDBRANCH   2  15
TORSDOF 7
ENDMDL
MODEL 2
REMARK VINA RESULT:      -5.8      1.739      2.666
REMARK  Name = *****
REMARK                            x       y       z     vdW  Elec       q    Type
REMARK                         _______ _______ _______ _____ _____    ______ ____
ROOT
ATOM      1  C   LIG    1       29.874 -17.415   8.294  0.00  0.00    +0.068 C 
ATOM      2  C   LIG    1       31.158 -18.001   8.870  0.00  0.00    +0.264 C 
ENDROOT
BRANCH   2   3
ATOM      3  P   LIG    1       31.284 -19.785   8.532  0.00  0.00    +0.371 P 
ATOM      4  O   LIG    1       32.187 -20.638   9.360  0.00  0.00    -0.255 OA
BRANCH   3   5
ATOM      5  O   LIG    1       31.625 -19.896   6.963  0.00  0.00    -0.322 OA
ATOM      6  H   LIG    1       32.565 -20.100   6.794  0.00  0.00    +0.220 HD
ENDBRANCH   3   5
BRANCH   3   7
ATOM      7  O   LIG    1       29.789 -20.373   8.519  0.00  0.00    -0.322 OA
ATOM      8  H   LIG    1       29.463 -20.618   9.404  0.00  0.00    +0.220 HD
ENDBRANCH   3   7
ENDBRANCH   2   3
BRANCH   2   9
ATOM      9  P   LIG    1       31.353 -17.576  10.629  0.00  0.00    +0.371 P 
ATOM     10  O   LIG    1       32.727 -17.275  11.129  0.00  0.00    -0.255 OA
BRANCH   9  11
ATOM     11  O   LIG    1       30.632 -18.714  11.497  0.00  0.00    -0.322 OA
ATOM     12  H   LIG    1       30.975 -19.610  11.324  0.00  0.00    +0.220 HD
ENDBRANCH   9  11
BRANCH   9  13
ATOM     13  O   LIG    1       30.365 -16.341  10.920  0.00  0.00    -0.322 OA
ATOM     14  H   LIG    1       29.902 -16.413  11.774  0.00  0.00    +0.220 HD
ENDBRANCH   9  13
ENDBRANCH   2   9
BRANCH   2  15
ATOM     15  O   LIG    1       32.270 -17.369   8.168  0.00  0.00    -0.367 OA
ATOM     16  H   LIG    1       33.059 -17.911   8.381  0.00  0.00    +0.212 HD
ENDBRANCH   2  15
TORSDOF 7
ENDMDL
MODEL 3
REMARK VINA RESULT:      -5.7      1.249      3.754
REMARK  Name = *****
REMARK                            x       y       z     vdW  Elec       q    Type
REMARK                         _______ _______ _______ _____ _____    ______ ____
ROOT
ATOM      1  C   LIG    1       31.263 -21.129   8.906  0.00  0.00    +0.068 C 
ATOM      2  C   LIG    1       30.943 -19.883   8.088  0.00  0.00    +0.264 C 
ENDROOT
BRANCH   2   3
ATOM      3  P   LIG    1       31.281 -18.364   9.032  0.00  0.00    +0.371 P 
ATOM      4  O   LIG    1       31.802 -18.455  10.428  0.00  0.00    -0.255 OA
BRANCH   3   5
ATOM      5  O   LIG    1       29.924 -17.504   8.951  0.00  0.00    -0.322 OA
ATOM      6  H   LIG    1       29.122 -18.061   8.960  0.00  0.00    +0.220 HD
ENDBRANCH   3   5
BRANCH   3   7
ATOM      7  O   LIG    1       32.232 -17.442   8.123  0.00  0.00    -0.322 OA
ATOM      8  H   LIG    1       32.750 -17.948   7.470  0.00  0.00    +0.220 HD
ENDBRANCH   3   7
ENDBRANCH   2   3
BRANCH   2   9
ATOM      9  P   LIG    1       29.262 -19.954   7.396  0.00  0.00    +0.371 P 
ATOM     10  O   LIG    1       28.110 -19.877   8.342  0.00  0.00    -0.255 OA
BRANCH   9  11
ATOM     11  O   LIG    1       29.173 -21.239   6.441  0.00  0.00    -0.322 OA
ATOM     12  H   LIG    1       28.666 -21.081   5.624  0.00  0.00    +0.220 HD
ENDBRANCH   9  11
BRANCH   9  13
ATOM     13  O   LIG    1       29.165 -18.786   6.294  0.00  0.00    -0.322 OA
ATOM     14  H   LIG    1       28.767 -19.082   5.456  0.00  0.00    +0.220 HD
ENDBRANCH   9  13
ENDBRANCH   2   9
BRANCH   2  15
ATOM     15  O   LIG    1       31.857 -19.873   6.950  0.00  0.00    -0.367 OA
ATOM     16  H   LIG    1       32.596 -19.284   7.211  0.00  0.00    +0.212 HD
ENDBRANCH   2  15
TORSDOF 7
ENDMDL
MODEL 4
REMARK VINA RESULT:      -5.6      7.011      8.319
REMARK  Name = *****
REMARK                            x       y       z     vdW  Elec       q    Type
REMARK                         _______ _______ _______ _____ _____    ______ ____
ROOT
ATOM      1  C   LIG    1       25.822 -23.042   7.630  0.00  0.00    +0.068 C 
ATOM      2  C   LIG    1       24.922 -23.194   6.410  0.00  0.00    +0.264 C 
ENDROOT
BRANCH   2   3
ATOM      3  P   LIG    1       23.262 -22.514   6.720  0.00  0.00    +0.371 P 
ATOM      4  O   LIG    1       23.028 -21.631   7.901  0.00  0.00    -0.255 OA
BRANCH   3   5
ATOM      5  O   LIG    1       22.275 -23.785   6.714  0.00  0.00    -0.322 OA
ATOM      6  H   LIG    1       21.347 -23.542   6.529  0.00  0.00    +0.220 HD
ENDBRANCH   3   5
BRANCH   3   7
ATOM      7  O   LIG    1       22.781 -21.800   5.363  0.00  0.00    -0.322 OA
ATOM      8  H   LIG    1       22.349 -20.940   5.513  0.00  0.00    +0.220 HD
ENDBRANCH   3   7
ENDBRANCH   2   3
BRANCH   2   9
ATOM      9  P   LIG    1       24.906 -24.910   5.803  0.00  0.00    +0.371 P 
ATOM     10  O   LIG    1       23.899 -25.849   6.380  0.00  0.00    -0.255 OA
BRANCH   9  11
ATOM     11  O   LIG    1       26.398 -25.486   5.909  0.00  0.00    -0.322 OA
ATOM     12  H   LIG    1       26.468 -26.279   6.473  0.00  0.00    +0.220 HD
ENDBRANCH   9  11
BRANCH   9  13
ATOM     13  O   LIG    1       24.754 -24.834   4.204  0.00  0.00    -0.322 OA
ATOM     14  H   LIG    1       25.126 -25.609   3.746  0.00  0.00    +0.220 HD
ENDBRANCH   9  13
ENDBRANCH   2   9
BRANCH   2  15
ATOM     15  O   LIG    1       25.506 -22.386   5.344  0.00  0.00    -0.367 OA
ATOM     16  H   LIG    1       26.054 -21.710   5.797  0.00  0.00    +0.212 HD
ENDBRANCH   2  15
TORSDOF 7
ENDMDL
MODEL 5
REMARK VINA RESULT:      -5.5      6.974      7.908
REMARK  Name = *****
REMARK                            x       y       z     vdW  Elec       q    Type
REMARK                         _______ _______ _______ _____ _____    ______ ____
ROOT
ATOM      1  C   LIG    1       25.298 -20.747   7.007  0.00  0.00    +0.068 C 
ATOM      2  C   LIG    1       24.025 -21.534   6.714  0.00  0.00    +0.264 C 
ENDROOT
BRANCH   2   3
ATOM      3  P   LIG    1       24.387 -23.287   6.390  0.00  0.00    +0.371 P 
ATOM      4  O   LIG    1       25.442 -23.988   7.181  0.00  0.00    -0.255 OA
BRANCH   3   5
ATOM      5  O   LIG    1       24.662 -23.378   4.807  0.00  0.00    -0.322 OA
ATOM      6  H   LIG    1       24.393 -22.570   4.330  0.00  0.00    +0.220 HD
ENDBRANCH   3   5
BRANCH   3   7
ATOM      7  O   LIG    1       22.992 -24.081   6.461  0.00  0.00    -0.322 OA
ATOM      8  H   LIG    1       22.880 -24.728   5.741  0.00  0.00    +0.220 HD
ENDBRANCH   3   7
ENDBRANCH   2   3
BRANCH   2   9
ATOM      9  P   LIG    1       23.035 -20.739   5.410  0.00  0.00    +0.371 P 
ATOM     10  O   LIG    1       22.513 -19.364   5.665  0.00  0.00    -0.255 OA
BRANCH   9  11
ATOM     11  O   LIG    1       21.873 -21.756   4.982  0.00  0.00    -0.322 OA
ATOM     12  H   LIG    1       21.052 -21.311   4.701  0.00  0.00    +0.220 HD
ENDBRANCH   9  11
BRANCH   9  13
ATOM     13  O   LIG    1       23.928 -20.763   4.072  0.00  0.00    -0.322 OA
ATOM     14  H   LIG    1       24.776 -21.229   4.185  0.00  0.00    +0.220 HD
ENDBRANCH   9  13
ENDBRANCH   2   9
BRANCH   2  15
ATOM     15  O   LIG    1       23.212 -21.498   7.927  0.00  0.00    -0.367 OA
ATOM     16  H   LIG    1       23.621 -22.149   8.536  0.00  0.00    +0.212 HD
ENDBRANCH   2  15
TORSDOF 7
ENDMDL
MODEL 6
REMARK VINA RESULT:      -5.4      6.820      7.829
REMARK  Name = *****
REMARK                            x       y       z     vdW  Elec       q    Type
REMARK                         _______ _______ _______ _____ _____    ______ ____
ROOT
ATOM      1  C   LIG    1       23.506 -21.051   7.309  0.00  0.00    +0.068 C 
ATOM      2  C   LIG    1       23.512 -21.887   6.035  0.00  0.00    +0.264 C 
ENDROOT
BRANCH   2   3
ATOM      3  P   LIG    1       24.376 -23.470   6.284  0.00  0.00    +0.371 P 
ATOM      4  O   LIG    1       25.419 -23.590   7.346  0.00  0.00    -0.255 OA
BRANCH   3   5
ATOM      5  O   LIG    1       24.944 -23.876   4.834  0.00  0.00    -0.322 OA
ATOM      6  H   LIG    1       25.002 -23.116   4.224  0.00  0.00    +0.220 HD
ENDBRANCH   3   5
BRANCH   3   7
ATOM      7  O   LIG    1       23.250 -24.604   6.452  0.00  0.00    -0.322 OA
ATOM      8  H   LIG    1       23.378 -25.160   7.242  0.00  0.00    +0.220 HD
ENDBRANCH   3   7
ENDBRANCH   2   3
BRANCH   2   9
ATOM      9  P   LIG    1       24.132 -20.933   4.614  0.00  0.00    +0.371 P 
ATOM     10  O   LIG    1       23.685 -19.516   4.473  0.00  0.00    -0.255 OA
BRANCH   9  11
ATOM     11  O   LIG    1       23.855 -21.788   3.286  0.00  0.00    -0.322 OA
ATOM     12  H   LIG    1       24.104 -21.322   2.466  0.00  0.00    +0.220 HD
ENDBRANCH   9  11
BRANCH   9  13
ATOM     13  O   LIG    1       25.737 -21.016   4.665  0.00  0.00    -0.322 OA
ATOM     14  H   LIG    1       26.066 -21.846   5.055  0.00  0.00    +0.220 HD
ENDBRANCH   9  13
ENDBRANCH   2   9
BRANCH   2  15
ATOM     15  O   LIG    1       22.123 -22.219   5.734  0.00  0.00    -0.367 OA
ATOM     16  H   LIG    1       21.886 -21.678   4.952  0.00  0.00    +0.212 HD
ENDBRANCH   2  15
TORSDOF 7
ENDMDL
MODEL 7
REMARK VINA RESULT:      -5.3      1.317      2.092
REMARK  Name = *****
REMARK                            x       y       z     vdW  Elec       q    Type
REMARK                         _______ _______ _______ _____ _____    ______ ____
ROOT
ATOM      1  C   LIG    1       29.869 -18.368   7.211  0.00  0.00    +0.068 C 
ATOM      2  C   LIG    1       31.066 -18.701   8.095  0.00  0.00    +0.264 C 
ENDROOT
BRANCH   2   3
ATOM      3  P   LIG    1       30.842 -20.296   8.943  0.00  0.00    +0.371 P 
ATOM      4  O   LIG    1       29.926 -21.324   8.365  0.00  0.00    -0.255 OA
BRANCH   3   5
ATOM      5  O   LIG    1       30.446 -19.920  10.457  0.00  0.00    -0.322 OA
ATOM      6  H   LIG    1       29.644 -20.384  10.764  0.00  0.00    +0.220 HD
ENDBRANCH   3   5
BRANCH   3   7
ATOM      7  O   LIG    1       32.305 -20.907   9.198  0.00  0.00    -0.322 OA
ATOM      8  H   LIG    1       32.313 -21.880   9.253  0.00  0.00    +0.220 HD
ENDBRANCH   3   7
ENDBRANCH   2   3
BRANCH   2   9
ATOM      9  P   LIG    1       31.468 -17.326   9.219  0.00  0.00    +0.371 P 
ATOM     10  O   LIG    1       30.342 -16.506   9.754  0.00  0.00    -0.255 OA
BRANCH   9  11
ATOM     11  O   LIG    1       32.590 -16.424   8.515  0.00  0.00    -0.322 OA
ATOM     12  H   LIG    1       32.264 -15.938   7.735  0.00  0.00    +0.220 HD
ENDBRANCH   9  11
BRANCH   9  13
ATOM     13  O   LIG    1       32.332 -17.950  10.423  0.00  0.00    -0.322 OA
ATOM     14  H   LIG    1       31.846 -17.984  11.266  0.00  0.00    +0.220 HD
ENDBRANCH   9  13
ENDBRANCH   2   9
BRANCH   2  15
ATOM     15  O   LIG    1       32.217 -18.862   7.213  0.00  0.00    -0.367 OA
ATOM     16  H   LIG    1       32.499 -17.952   6.979  0.00  0.00    +0.212 HD
ENDBRANCH   2  15
TORSDOF 7
ENDMDL
MODEL 8
REMARK VINA RESULT:      -5.3      5.224      7.320
REMARK  Name = *****
REMARK                            x       y       z     vdW  Elec       q    Type
REMARK                         _______ _______ _______ _____ _____    ______ ____
ROOT
ATOM      1  C   LIG    1       25.623 -24.295   6.851  0.00  0.00    +0.068 C 
ATOM      2  C   LIG    1       25.174 -22.847   6.686  0.00  0.00    +0.264 C 
ENDROOT
BRANCH   2   3
ATOM      3  P   LIG    1       26.017 -21.752   7.870  0.00  0.00    +0.371 P 
ATOM      4  O   LIG    1       25.687 -21.832   9.324  0.00  0.00    -0.255 OA
BRANCH   3   5
ATOM      5  O   LIG    1       25.815 -20.264   7.289  0.00  0.00    -0.322 OA
ATOM      6  H   LIG    1       26.411 -19.612   7.705  0.00  0.00    +0.220 HD
ENDBRANCH   3   5
BRANCH   3   7
ATOM      7  O   LIG    1       27.596 -21.917   7.628  0.00  0.00    -0.322 OA
ATOM      8  H   LIG    1       27.858 -22.828   7.401  0.00  0.00    +0.220 HD
ENDBRANCH   3   7
ENDBRANCH   2   3
BRANCH   2   9
ATOM      9  P   LIG    1       23.360 -22.704   6.722  0.00  0.00    +0.371 P 
ATOM     10  O   LIG    1       22.560 -23.957   6.863  0.00  0.00    -0.255 OA
BRANCH   9  11
ATOM     11  O   LIG    1       22.907 -21.839   5.452  0.00  0.00    -0.322 OA
ATOM     12  H   LIG    1       23.474 -21.063   5.289  0.00  0.00    +0.220 HD
ENDBRANCH   9  11
BRANCH   9  13
ATOM     13  O   LIG    1       23.000 -21.671   7.901  0.00  0.00    -0.322 OA
ATOM     14  H   LIG    1       22.066 -21.396   7.898  0.00  0.00    +0.220 HD
ENDBRANCH   9  13
ENDBRANCH   2   9
BRANCH   2  15
ATOM     15  O   LIG    1       25.595 -22.418   5.356  0.00  0.00    -0.367 OA
ATOM     16  H   LIG    1       25.063 -22.950   4.727  0.00  0.00    +0.212 HD
ENDBRANCH   2  15
TORSDOF 7
ENDMDL
MODEL 9
REMARK VINA RESULT:      -5.2      6.303      7.943
REMARK  Name = *****
REMARK                            x       y       z     vdW  Elec       q    Type
REMARK                         _______ _______ _______ _____ _____    ______ ____
ROOT
ATOM      1  C   LIG    1       24.528 -21.109   7.482  0.00  0.00    +0.068 C 
ATOM      2  C   LIG    1       24.747 -21.708   6.098  0.00  0.00    +0.264 C 
ENDROOT
BRANCH   2   3
ATOM      3  P   LIG    1       23.583 -21.014   4.883  0.00  0.00    +0.371 P 
ATOM      4  O   LIG    1       23.514 -19.537   4.676  0.00  0.00    -0.255 OA
BRANCH   3   5
ATOM      5  O   LIG    1       22.148 -21.634   5.268  0.00  0.00    -0.322 OA
ATOM      6  H   LIG    1       21.959 -21.583   6.225  0.00  0.00    +0.220 HD
ENDBRANCH   3   5
BRANCH   3   7
ATOM      7  O   LIG    1       23.835 -21.778   3.493  0.00  0.00    -0.322 OA
ATOM      8  H   LIG    1       23.649 -21.228   2.711  0.00  0.00    +0.220 HD
ENDBRANCH   3   7
ENDBRANCH   2   3
BRANCH   2   9
ATOM      9  P   LIG    1       24.749 -23.527   6.151  0.00  0.00    +0.371 P 
ATOM     10  O   LIG    1       25.689 -24.200   7.094  0.00  0.00    -0.255 OA
BRANCH   9  11
ATOM     11  O   LIG    1       24.913 -24.065   4.650  0.00  0.00    -0.322 OA
ATOM     12  H   LIG    1       25.561 -24.789   4.566  0.00  0.00    +0.220 HD
ENDBRANCH   9  11
BRANCH   9  13
ATOM     13  O   LIG    1       23.235 -23.984   6.443  0.00  0.00    -0.322 OA
ATOM     14  H   LIG    1       22.588 -23.266   6.320  0.00  0.00    +0.220 HD
ENDBRANCH   9  13
ENDBRANCH   2   9
BRANCH   2  15
ATOM     15  O   LIG    1       26.081 -21.307   5.664  0.00  0.00    -0.367 OA
ATOM     16  H   LIG    1       26.050 -20.330   5.585  0.00  0.00    +0.212 HD
ENDBRANCH   2  15
TORSDOF 7
ENDMDL
