MODEL 1
REMARK VINA RESULT:      -7.8      0.000      0.000
REMARK  Name = *****
REMARK                            x       y       z     vdW  Elec       q    Type
REMARK                         _______ _______ _______ _____ _____    ______ ____
ROOT
ATOM      1  O   LIG    1       28.018 -20.883   6.656  0.00  0.00    -0.461 OA
ENDROOT
BRANCH   1  10
ATOM      2  C   LIG    1       23.400 -20.271   6.956  0.00  0.00    +0.193 C 
ATOM      3  N   LIG    1       23.990 -21.671   6.933  0.00  0.00    +0.247 N 
ATOM      4  C   LIG    1       22.793 -22.634   7.025  0.00  0.00    +0.193 C 
ATOM      5  C   LIG    1       24.881 -22.033   5.716  0.00  0.00    +0.102 C 
ATOM      6  C   LIG    1       25.568 -23.333   6.105  0.00  0.00    +0.201 C 
ATOM      7  C   LIG    1       25.656 -23.313   7.611  0.00  0.00    +0.201 C 
ATOM      8  O   LIG    1       26.817 -23.282   6.787  0.00  0.00    -0.357 OA
ATOM      9  C   LIG    1       25.903 -20.907   5.488  0.00  0.00    +0.102 C 
ATOM     10  C   LIG    1       26.650 -20.429   6.763  0.00  0.00    +0.187 C 
ATOM     11  C   LIG    1       26.042 -20.874   8.123  0.00  0.00    +0.102 C 
ATOM     12  C   LIG    1       25.013 -22.004   8.043  0.00  0.00    +0.102 C 
ENDBRANCH   1  10
BRANCH   1  13
ATOM     13  C   LIG    1       28.894 -20.420   7.602  0.00  0.00    +0.317 C 
ATOM     14  O   LIG    1       29.349 -21.104   8.504  0.00  0.00    -0.250 OA
BRANCH  13  15
ATOM     15  C   LIG    1       29.260 -18.974   7.318  0.00  0.00    +0.153 C 
BRANCH  15  16
ATOM     16  C   LIG    1       30.130 -18.360   8.398  0.00  0.00    -0.032 A 
ATOM     17  C   LIG    1       29.612 -17.953   9.636  0.00  0.00    +0.004 A 
ATOM     18  C   LIG    1       30.446 -17.378  10.598  0.00  0.00    +0.000 A 
ATOM     19  C   LIG    1       31.807 -17.227  10.345  0.00  0.00    +0.000 A 
ATOM     20  C   LIG    1       32.339 -17.652   9.131  0.00  0.00    +0.000 A 
ATOM     21  C   LIG    1       31.507 -18.216   8.164  0.00  0.00    +0.004 A 
ENDBRANCH  15  16
BRANCH  15  22
ATOM     22  C   LIG    1       29.892 -18.900   5.923  0.00  0.00    +0.175 C 
BRANCH  22  23
ATOM     23  O   LIG    1       28.988 -18.347   4.968  0.00  0.00    -0.394 OA
ATOM     24  H   LIG    1       28.654 -19.090   4.429  0.00  0.00    +0.209 HD
ENDBRANCH  22  23
ENDBRANCH  15  22
ENDBRANCH  13  15
ENDBRANCH   1  13
TORSDOF 6
ENDMDL
MODEL 2
REMARK VINA RESULT:      -7.7      0.745      1.668
REMARK  Name = *****
REMARK                            x       y       z     vdW  Elec       q    Type
REMARK                         _______ _______ _______ _____ _____    ______ ____
ROOT
ATOM      1  O   LIG    1       27.868 -20.840   6.505  0.00  0.00    -0.461 OA
ENDROOT
BRANCH   1  10
ATOM      2  C   LIG    1       23.236 -20.261   6.449  0.00  0.00    +0.193 C 
ATOM      3  N   LIG    1       23.835 -21.642   6.659  0.00  0.00    +0.247 N 
ATOM      4  C   LIG    1       22.642 -22.599   6.817  0.00  0.00    +0.193 C 
ATOM      5  C   LIG    1       24.799 -22.158   5.558  0.00  0.00    +0.102 C 
ATOM      6  C   LIG    1       25.470 -23.379   6.166  0.00  0.00    +0.201 C 
ATOM      7  C   LIG    1       25.469 -23.146   7.656  0.00  0.00    +0.201 C 
ATOM      8  O   LIG    1       26.677 -23.214   6.904  0.00  0.00    -0.357 OA
ATOM      9  C   LIG    1       25.825 -21.060   5.232  0.00  0.00    +0.102 C 
ATOM     10  C   LIG    1       26.492 -20.396   6.467  0.00  0.00    +0.187 C 
ATOM     11  C   LIG    1       25.809 -20.654   7.839  0.00  0.00    +0.102 C 
ATOM     12  C   LIG    1       24.793 -21.799   7.861  0.00  0.00    +0.102 C 
ENDBRANCH   1  10
BRANCH   1  13
ATOM     13  C   LIG    1       28.829 -19.868   6.426  0.00  0.00    +0.317 C 
ATOM     14  O   LIG    1       28.724 -18.857   5.751  0.00  0.00    -0.250 OA
BRANCH  13  15
ATOM     15  C   LIG    1       29.991 -20.200   7.345  0.00  0.00    +0.153 C 
BRANCH  15  16
ATOM     16  C   LIG    1       30.441 -19.019   8.183  0.00  0.00    -0.032 A 
ATOM     17  C   LIG    1       29.597 -18.395   9.113  0.00  0.00    +0.004 A 
ATOM     18  C   LIG    1       30.046 -17.300   9.855  0.00  0.00    +0.000 A 
ATOM     19  C   LIG    1       31.348 -16.833   9.694  0.00  0.00    +0.000 A 
ATOM     20  C   LIG    1       32.206 -17.459   8.794  0.00  0.00    +0.000 A 
ATOM     21  C   LIG    1       31.756 -18.546   8.044  0.00  0.00    +0.004 A 
ENDBRANCH  15  16
BRANCH  15  22
ATOM     22  C   LIG    1       29.606 -21.423   8.188  0.00  0.00    +0.175 C 
BRANCH  22  23
ATOM     23  O   LIG    1       30.569 -21.676   9.210  0.00  0.00    -0.394 OA
ATOM     24  H   LIG    1       30.253 -21.224  10.016  0.00  0.00    +0.209 HD
ENDBRANCH  22  23
ENDBRANCH  15  22
ENDBRANCH  13  15
ENDBRANCH   1  13
TORSDOF 6
ENDMDL
MODEL 3
REMARK VINA RESULT:      -7.5      1.397      2.636
REMARK  Name = *****
REMARK                            x       y       z     vdW  Elec       q    Type
REMARK                         _______ _______ _______ _____ _____    ______ ____
ROOT
ATOM      1  O   LIG    1       28.544 -20.513   7.558  0.00  0.00    -0.461 OA
ENDROOT
BRANCH   1  10
ATOM      2  C   LIG    1       25.062 -22.587   5.241  0.00  0.00    +0.193 C 
ATOM      3  N   LIG    1       24.869 -22.142   6.681  0.00  0.00    +0.247 N 
ATOM      4  C   LIG    1       23.426 -22.526   7.050  0.00  0.00    +0.193 C 
ATOM      5  C   LIG    1       25.863 -22.713   7.726  0.00  0.00    +0.102 C 
ATOM      6  C   LIG    1       25.640 -21.878   8.977  0.00  0.00    +0.201 C 
ATOM      7  C   LIG    1       25.149 -20.537   8.490  0.00  0.00    +0.201 C 
ATOM      8  O   LIG    1       26.396 -20.685   9.162  0.00  0.00    -0.357 OA
ATOM      9  C   LIG    1       27.298 -22.552   7.196  0.00  0.00    +0.102 C 
ATOM     10  C   LIG    1       27.635 -21.147   6.628  0.00  0.00    +0.187 C 
ATOM     11  C   LIG    1       26.426 -20.213   6.341  0.00  0.00    +0.102 C 
ATOM     12  C   LIG    1       25.101 -20.642   6.974  0.00  0.00    +0.102 C 
ENDBRANCH   1  10
BRANCH   1  13
ATOM     13  C   LIG    1       29.600 -19.831   7.015  0.00  0.00    +0.317 C 
ATOM     14  O   LIG    1       29.535 -19.175   5.988  0.00  0.00    -0.250 OA
BRANCH  13  15
ATOM     15  C   LIG    1       30.822 -19.954   7.908  0.00  0.00    +0.153 C 
BRANCH  15  16
ATOM     16  C   LIG    1       31.050 -18.730   8.774  0.00  0.00    -0.032 A 
ATOM     17  C   LIG    1       32.138 -17.866   8.579  0.00  0.00    +0.004 A 
ATOM     18  C   LIG    1       32.319 -16.757   9.408  0.00  0.00    +0.000 A 
ATOM     19  C   LIG    1       31.405 -16.485  10.423  0.00  0.00    +0.000 A 
ATOM     20  C   LIG    1       30.305 -17.319  10.610  0.00  0.00    +0.000 A 
ATOM     21  C   LIG    1       30.128 -18.433   9.791  0.00  0.00    +0.004 A 
ENDBRANCH  15  16
BRANCH  15  22
ATOM     22  C   LIG    1       30.698 -21.250   8.720  0.00  0.00    +0.175 C 
BRANCH  22  23
ATOM     23  O   LIG    1       31.932 -21.594   9.347  0.00  0.00    -0.394 OA
ATOM     24  H   LIG    1       31.728 -22.258  10.033  0.00  0.00    +0.209 HD
ENDBRANCH  22  23
ENDBRANCH  15  22
ENDBRANCH  13  15
ENDBRANCH   1  13
TORSDOF 6
ENDMDL
MODEL 4
REMARK VINA RESULT:      -7.1      2.212      6.975
REMARK  Name = *****
REMARK                            x       y       z     vdW  Elec       q    Type
REMARK                         _______ _______ _______ _____ _____    ______ ____
ROOT
ATOM      1  O   LIG    1       28.608 -21.422   7.683  0.00  0.00    -0.461 OA
ENDROOT
BRANCH   1  10
ATOM      2  C   LIG    1       31.070 -18.569  10.438  0.00  0.00    +0.193 C 
ATOM      3  N   LIG    1       31.136 -18.423   8.927  0.00  0.00    +0.247 N 
ATOM      4  C   LIG    1       32.096 -17.252   8.658  0.00  0.00    +0.193 C 
ATOM      5  C   LIG    1       31.576 -19.677   8.124  0.00  0.00    +0.102 C 
ATOM      6  C   LIG    1       31.253 -19.348   6.675  0.00  0.00    +0.201 C 
ATOM      7  C   LIG    1       30.098 -18.380   6.725  0.00  0.00    +0.201 C 
ATOM      8  O   LIG    1       29.968 -19.679   6.157  0.00  0.00    -0.357 OA
ATOM      9  C   LIG    1       30.774 -20.894   8.614  0.00  0.00    +0.102 C 
ATOM     10  C   LIG    1       29.243 -20.667   8.740  0.00  0.00    +0.187 C 
ATOM     11  C   LIG    1       28.764 -19.189   8.705  0.00  0.00    +0.102 C 
ATOM     12  C   LIG    1       29.794 -18.176   8.201  0.00  0.00    +0.102 C 
ENDBRANCH   1  10
BRANCH   1  13
ATOM     13  C   LIG    1       27.287 -21.736   7.863  0.00  0.00    +0.317 C 
ATOM     14  O   LIG    1       26.762 -21.883   8.955  0.00  0.00    -0.250 OA
BRANCH  13  15
ATOM     15  C   LIG    1       26.574 -21.802   6.524  0.00  0.00    +0.153 C 
BRANCH  15  16
ATOM     16  C   LIG    1       25.245 -22.528   6.595  0.00  0.00    -0.032 A 
ATOM     17  C   LIG    1       25.144 -23.921   6.470  0.00  0.00    +0.004 A 
ATOM     18  C   LIG    1       23.897 -24.549   6.528  0.00  0.00    +0.000 A 
ATOM     19  C   LIG    1       22.743 -23.797   6.734  0.00  0.00    +0.000 A 
ATOM     20  C   LIG    1       22.831 -22.416   6.888  0.00  0.00    +0.000 A 
ATOM     21  C   LIG    1       24.073 -21.785   6.820  0.00  0.00    +0.004 A 
ENDBRANCH  15  16
BRANCH  15  22
ATOM     22  C   LIG    1       26.451 -20.376   5.972  0.00  0.00    +0.175 C 
BRANCH  22  23
ATOM     23  O   LIG    1       27.475 -20.095   5.019  0.00  0.00    -0.394 OA
ATOM     24  H   LIG    1       28.287 -20.536   5.335  0.00  0.00    +0.209 HD
ENDBRANCH  22  23
ENDBRANCH  15  22
ENDBRANCH  13  15
ENDBRANCH   1  13
TORSDOF 6
ENDMDL
MODEL 5
REMARK VINA RESULT:      -7.0      1.067      1.870
REMARK  Name = *****
REMARK                            x       y       z     vdW  Elec       q    Type
REMARK                         _______ _______ _______ _____ _____    ______ ____
ROOT
ATOM      1  O   LIG    1       27.644 -21.364   6.710  0.00  0.00    -0.461 OA
ENDROOT
BRANCH   1  10
ATOM      2  C   LIG    1       23.183 -22.446   7.558  0.00  0.00    +0.193 C 
ATOM      3  N   LIG    1       23.564 -21.689   6.297  0.00  0.00    +0.247 N 
ATOM      4  C   LIG    1       22.247 -21.445   5.539  0.00  0.00    +0.193 C 
ATOM      5  C   LIG    1       24.331 -20.354   6.490  0.00  0.00    +0.102 C 
ATOM      6  C   LIG    1       24.842 -19.991   5.105  0.00  0.00    +0.201 C 
ATOM      7  C   LIG    1       25.009 -21.302   4.376  0.00  0.00    +0.201 C 
ATOM      8  O   LIG    1       26.119 -20.466   4.689  0.00  0.00    -0.357 OA
ATOM      9  C   LIG    1       25.491 -20.578   7.474  0.00  0.00    +0.102 C 
ATOM     10  C   LIG    1       26.362 -21.831   7.189  0.00  0.00    +0.187 C 
ATOM     11  C   LIG    1       25.767 -22.871   6.198  0.00  0.00    +0.102 C 
ATOM     12  C   LIG    1       24.583 -22.378   5.363  0.00  0.00    +0.102 C 
ENDBRANCH   1  10
BRANCH   1  13
ATOM     13  C   LIG    1       28.482 -20.812   7.641  0.00  0.00    +0.317 C 
ATOM     14  O   LIG    1       28.912 -21.410   8.615  0.00  0.00    -0.250 OA
BRANCH  13  15
ATOM     15  C   LIG    1       28.845 -19.391   7.246  0.00  0.00    +0.153 C 
BRANCH  15  16
ATOM     16  C   LIG    1       29.874 -18.764   8.168  0.00  0.00    -0.032 A 
ATOM     17  C   LIG    1       29.530 -18.219   9.414  0.00  0.00    +0.004 A 
ATOM     18  C   LIG    1       30.507 -17.638  10.226  0.00  0.00    +0.000 A 
ATOM     19  C   LIG    1       31.837 -17.617   9.816  0.00  0.00    +0.000 A 
ATOM     20  C   LIG    1       32.197 -18.180   8.594  0.00  0.00    +0.000 A 
ATOM     21  C   LIG    1       31.223 -18.750   7.776  0.00  0.00    +0.004 A 
ENDBRANCH  15  16
BRANCH  15  22
ATOM     22  C   LIG    1       29.280 -19.395   5.775  0.00  0.00    +0.175 C 
BRANCH  22  23
ATOM     23  O   LIG    1       28.282 -18.820   4.934  0.00  0.00    -0.394 OA
ATOM     24  H   LIG    1       28.691 -18.052   4.491  0.00  0.00    +0.209 HD
ENDBRANCH  22  23
ENDBRANCH  15  22
ENDBRANCH  13  15
ENDBRANCH   1  13
TORSDOF 6
ENDMDL
MODEL 6
REMARK VINA RESULT:      -6.8      6.413      9.426
REMARK  Name = *****
REMARK                            x       y       z     vdW  Elec       q    Type
REMARK                         _______ _______ _______ _____ _____    ______ ____
ROOT
ATOM      1  O   LIG    1       25.135 -28.754   6.850  0.00  0.00    -0.461 OA
ENDROOT
BRANCH   1  10
ATOM      2  C   LIG    1       24.489 -31.860  10.276  0.00  0.00    +0.193 C 
ATOM      3  N   LIG    1       25.024 -32.306   8.925  0.00  0.00    +0.247 N 
ATOM      4  C   LIG    1       25.241 -33.824   9.039  0.00  0.00    +0.193 C 
ATOM      5  C   LIG    1       24.150 -31.976   7.686  0.00  0.00    +0.102 C 
ATOM      6  C   LIG    1       25.049 -32.244   6.490  0.00  0.00    +0.201 C 
ATOM      7  C   LIG    1       26.458 -32.015   6.979  0.00  0.00    +0.201 C 
ATOM      8  O   LIG    1       25.863 -31.190   5.982  0.00  0.00    -0.357 OA
ATOM      9  C   LIG    1       23.725 -30.500   7.748  0.00  0.00    +0.102 C 
ATOM     10  C   LIG    1       24.870 -29.499   8.062  0.00  0.00    +0.187 C 
ATOM     11  C   LIG    1       26.188 -30.113   8.612  0.00  0.00    +0.102 C 
ATOM     12  C   LIG    1       26.326 -31.627   8.444  0.00  0.00    +0.102 C 
ENDBRANCH   1  10
BRANCH   1  13
ATOM     13  C   LIG    1       25.547 -27.458   7.005  0.00  0.00    +0.317 C 
ATOM     14  O   LIG    1       26.312 -27.083   7.878  0.00  0.00    -0.250 OA
BRANCH  13  15
ATOM     15  C   LIG    1       24.972 -26.587   5.901  0.00  0.00    +0.153 C 
BRANCH  15  16
ATOM     16  C   LIG    1       24.779 -25.144   6.324  0.00  0.00    -0.032 A 
ATOM     17  C   LIG    1       25.859 -24.274   6.534  0.00  0.00    +0.004 A 
ATOM     18  C   LIG    1       25.637 -22.955   6.938  0.00  0.00    +0.000 A 
ATOM     19  C   LIG    1       24.338 -22.485   7.112  0.00  0.00    +0.000 A 
ATOM     20  C   LIG    1       23.256 -23.330   6.880  0.00  0.00    +0.000 A 
ATOM     21  C   LIG    1       23.474 -24.650   6.488  0.00  0.00    +0.004 A 
ENDBRANCH  15  16
BRANCH  15  22
ATOM     22  C   LIG    1       25.859 -26.736   4.658  0.00  0.00    +0.175 C 
BRANCH  22  23
ATOM     23  O   LIG    1       27.125 -27.307   4.985  0.00  0.00    -0.394 OA
ATOM     24  H   LIG    1       27.068 -28.260   4.780  0.00  0.00    +0.209 HD
ENDBRANCH  22  23
ENDBRANCH  15  22
ENDBRANCH  13  15
ENDBRANCH   1  13
TORSDOF 6
ENDMDL
MODEL 7
REMARK VINA RESULT:      -6.8      1.364      2.120
REMARK  Name = *****
REMARK                            x       y       z     vdW  Elec       q    Type
REMARK                         _______ _______ _______ _____ _____    ______ ____
ROOT
ATOM      1  O   LIG    1       27.070 -20.805   6.063  0.00  0.00    -0.461 OA
ENDROOT
BRANCH   1  10
ATOM      2  C   LIG    1       22.650 -19.542   5.248  0.00  0.00    +0.193 C 
ATOM      3  N   LIG    1       23.020 -21.011   5.364  0.00  0.00    +0.247 N 
ATOM      4  C   LIG    1       21.710 -21.793   5.164  0.00  0.00    +0.193 C 
ATOM      5  C   LIG    1       24.114 -21.534   4.395  0.00  0.00    +0.102 C 
ATOM      6  C   LIG    1       24.494 -22.903   4.934  0.00  0.00    +0.201 C 
ATOM      7  C   LIG    1       24.224 -22.847   6.417  0.00  0.00    +0.201 C 
ATOM      8  O   LIG    1       25.540 -23.006   5.896  0.00  0.00    -0.357 OA
ATOM      9  C   LIG    1       25.312 -20.570   4.422  0.00  0.00    +0.102 C 
ATOM     10  C   LIG    1       25.795 -20.160   5.840  0.00  0.00    +0.187 C 
ATOM     11  C   LIG    1       24.824 -20.472   7.013  0.00  0.00    +0.102 C 
ATOM     12  C   LIG    1       23.692 -21.448   6.686  0.00  0.00    +0.102 C 
ENDBRANCH   1  10
BRANCH   1  13
ATOM     13  C   LIG    1       28.180 -20.008   5.995  0.00  0.00    +0.317 C 
ATOM     14  O   LIG    1       28.238 -18.968   5.357  0.00  0.00    -0.250 OA
BRANCH  13  15
ATOM     15  C   LIG    1       29.286 -20.567   6.873  0.00  0.00    +0.153 C 
BRANCH  15  16
ATOM     16  C   LIG    1       29.995 -19.500   7.685  0.00  0.00    -0.032 A 
ATOM     17  C   LIG    1       29.339 -18.750   8.673  0.00  0.00    +0.004 A 
ATOM     18  C   LIG    1       30.026 -17.767   9.388  0.00  0.00    +0.000 A 
ATOM     19  C   LIG    1       31.377 -17.538   9.143  0.00  0.00    +0.000 A 
ATOM     20  C   LIG    1       32.048 -18.293   8.184  0.00  0.00    +0.000 A 
ATOM     21  C   LIG    1       31.362 -19.268   7.461  0.00  0.00    +0.004 A 
ENDBRANCH  15  16
BRANCH  15  22
ATOM     22  C   LIG    1       28.694 -21.687   7.739  0.00  0.00    +0.175 C 
BRANCH  22  23
ATOM     23  O   LIG    1       27.711 -21.184   8.642  0.00  0.00    -0.394 OA
ATOM     24  H   LIG    1       27.940 -21.523   9.529  0.00  0.00    +0.209 HD
ENDBRANCH  22  23
ENDBRANCH  15  22
ENDBRANCH  13  15
ENDBRANCH   1  13
TORSDOF 6
ENDMDL
MODEL 8
REMARK VINA RESULT:      -6.7      3.452      6.174
REMARK  Name = *****
REMARK                            x       y       z     vdW  Elec       q    Type
REMARK                         _______ _______ _______ _____ _____    ______ ____
ROOT
ATOM      1  O   LIG    1       25.815 -23.722   6.397  0.00  0.00    -0.461 OA
ENDROOT
BRANCH   1  10
ATOM      2  C   LIG    1       25.400 -28.204   7.634  0.00  0.00    +0.193 C 
ATOM      3  N   LIG    1       25.215 -27.787   6.185  0.00  0.00    +0.247 N 
ATOM      4  C   LIG    1       24.906 -29.080   5.410  0.00  0.00    +0.193 C 
ATOM      5  C   LIG    1       24.129 -26.715   5.901  0.00  0.00    +0.102 C 
ATOM      6  C   LIG    1       24.377 -26.275   4.467  0.00  0.00    +0.201 C 
ATOM      7  C   LIG    1       25.850 -26.492   4.223  0.00  0.00    +0.201 C 
ATOM      8  O   LIG    1       25.267 -25.192   4.216  0.00  0.00    -0.357 OA
ATOM      9  C   LIG    1       24.307 -25.546   6.884  0.00  0.00    +0.102 C 
ATOM     10  C   LIG    1       25.762 -25.023   7.026  0.00  0.00    +0.187 C 
ATOM     11  C   LIG    1       26.881 -25.939   6.457  0.00  0.00    +0.102 C 
ATOM     12  C   LIG    1       26.404 -27.054   5.523  0.00  0.00    +0.102 C 
ENDBRANCH   1  10
BRANCH   1  13
ATOM     13  C   LIG    1       25.876 -22.639   7.231  0.00  0.00    +0.317 C 
ATOM     14  O   LIG    1       25.689 -22.693   8.436  0.00  0.00    -0.250 OA
BRANCH  13  15
ATOM     15  C   LIG    1       26.273 -21.396   6.455  0.00  0.00    +0.153 C 
BRANCH  15  16
ATOM     16  C   LIG    1       25.098 -20.723   5.772  0.00  0.00    -0.032 A 
ATOM     17  C   LIG    1       23.832 -20.637   6.370  0.00  0.00    +0.004 A 
ATOM     18  C   LIG    1       22.772 -20.021   5.700  0.00  0.00    +0.000 A 
ATOM     19  C   LIG    1       22.970 -19.463   4.440  0.00  0.00    +0.000 A 
ATOM     20  C   LIG    1       24.229 -19.516   3.846  0.00  0.00    +0.000 A 
ATOM     21  C   LIG    1       25.286 -20.140   4.507  0.00  0.00    +0.004 A 
ENDBRANCH  15  16
BRANCH  15  22
ATOM     22  C   LIG    1       27.036 -20.459   7.400  0.00  0.00    +0.175 C 
BRANCH  22  23
ATOM     23  O   LIG    1       27.982 -21.174   8.192  0.00  0.00    -0.394 OA
ATOM     24  H   LIG    1       27.747 -22.120   8.130  0.00  0.00    +0.209 HD
ENDBRANCH  22  23
ENDBRANCH  15  22
ENDBRANCH  13  15
ENDBRANCH   1  13
TORSDOF 6
ENDMDL
MODEL 9
REMARK VINA RESULT:      -6.7      6.070      9.283
REMARK  Name = *****
REMARK                            x       y       z     vdW  Elec       q    Type
REMARK                         _______ _______ _______ _____ _____    ______ ____
ROOT
ATOM      1  O   LIG    1       25.198 -28.451   7.071  0.00  0.00    -0.461 OA
ENDROOT
BRANCH   1  10
ATOM      2  C   LIG    1       24.102 -32.608   8.889  0.00  0.00    +0.193 C 
ATOM      3  N   LIG    1       25.083 -31.692   9.602  0.00  0.00    +0.247 N 
ATOM      4  C   LIG    1       25.512 -32.443  10.874  0.00  0.00    +0.193 C 
ATOM      5  C   LIG    1       26.330 -31.243   8.795  0.00  0.00    +0.102 C 
ATOM      6  C   LIG    1       26.945 -30.121   9.615  0.00  0.00    +0.201 C 
ATOM      7  C   LIG    1       25.801 -29.499  10.378  0.00  0.00    +0.201 C 
ATOM      8  O   LIG    1       26.524 -28.779   9.384  0.00  0.00    -0.357 OA
ATOM      9  C   LIG    1       25.880 -30.743   7.412  0.00  0.00    +0.102 C 
ATOM     10  C   LIG    1       24.683 -29.754   7.427  0.00  0.00    +0.187 C 
ATOM     11  C   LIG    1       23.880 -29.669   8.754  0.00  0.00    +0.102 C 
ATOM     12  C   LIG    1       24.563 -30.286   9.976  0.00  0.00    +0.102 C 
ENDBRANCH   1  10
BRANCH   1  13
ATOM     13  C   LIG    1       24.771 -27.926   5.881  0.00  0.00    +0.317 C 
ATOM     14  O   LIG    1       23.821 -28.356   5.246  0.00  0.00    -0.250 OA
BRANCH  13  15
ATOM     15  C   LIG    1       25.600 -26.708   5.514  0.00  0.00    +0.153 C 
BRANCH  15  16
ATOM     16  C   LIG    1       25.066 -25.424   6.118  0.00  0.00    -0.032 A 
ATOM     17  C   LIG    1       23.695 -25.133   6.171  0.00  0.00    +0.004 A 
ATOM     18  C   LIG    1       23.247 -23.932   6.724  0.00  0.00    +0.000 A 
ATOM     19  C   LIG    1       24.158 -23.020   7.251  0.00  0.00    +0.000 A 
ATOM     20  C   LIG    1       25.520 -23.307   7.230  0.00  0.00    +0.000 A 
ATOM     21  C   LIG    1       25.972 -24.501   6.669  0.00  0.00    +0.004 A 
ENDBRANCH  15  16
BRANCH  15  22
ATOM     22  C   LIG    1       27.061 -26.987   5.889  0.00  0.00    +0.175 C 
BRANCH  22  23
ATOM     23  O   LIG    1       27.846 -27.294   4.738  0.00  0.00    -0.394 OA
ATOM     24  H   LIG    1       27.229 -27.602   4.047  0.00  0.00    +0.209 HD
ENDBRANCH  22  23
ENDBRANCH  15  22
ENDBRANCH  13  15
ENDBRANCH   1  13
TORSDOF 6
ENDMDL
