MODEL 1
REMARK VINA RESULT:      -9.0      0.000      0.000
REMARK  Name = *****
REMARK                            x       y       z     vdW  Elec       q    Type
REMARK                         _______ _______ _______ _____ _____    ______ ____
ROOT
ATOM      1  C   LIG    1       26.013 -21.491   8.095  0.00  0.00    +0.158 C 
ENDROOT
BRANCH   1   2
ATOM      2  C   LIG    1       27.206 -20.787   7.476  0.00  0.00    -0.016 A 
ATOM      3  C   LIG    1       28.500 -20.897   8.015  0.00  0.00    +0.033 A 
ATOM      4  C   LIG    1       29.614 -20.320   7.388  0.00  0.00    +0.075 A 
ATOM      5  C   LIG    1       29.406 -19.561   6.226  0.00  0.00    +0.138 A 
ATOM      6  C   LIG    1       28.120 -19.398   5.707  0.00  0.00    +0.048 A 
ATOM      7  C   LIG    1       27.031 -20.010   6.324  0.00  0.00    +0.010 A 
BRANCH   4   8
ATOM      8  N   LIG    1       30.861 -20.554   7.995  0.00  0.00    -0.285 N 
ATOM      9  H   LIG    1       31.653 -19.995   7.698  0.00  0.00    +0.155 HD
ATOM     10  C   LIG    1       31.167 -21.398   9.026  0.00  0.00    +0.330 C 
ATOM     11  O   LIG    1       32.294 -21.509   9.463  0.00  0.00    -0.279 OA
ENDBRANCH   4   8
BRANCH   5  12
ATOM     12  O   LIG    1       30.443 -18.925   5.605  0.00  0.00    -0.505 OA
ATOM     13  H   LIG    1       30.121 -18.511   4.787  0.00  0.00    +0.292 HD
ENDBRANCH   5  12
ENDBRANCH   1   2
BRANCH   1  14
ATOM     14  O   LIG    1       25.837 -21.099   9.461  0.00  0.00    -0.386 OA
ATOM     15  H   LIG    1       24.870 -21.096   9.601  0.00  0.00    +0.210 HD
ENDBRANCH   1  14
BRANCH   1  16
ATOM     16  C   LIG    1       26.096 -23.044   8.027  0.00  0.00    +0.117 C 
BRANCH  16  17
ATOM     17  N   LIG    1       26.389 -23.523   6.660  0.00  0.00    -0.310 NA
ATOM     18  H   LIG    1       26.602 -22.708   6.076  0.00  0.00    +0.122 HD
BRANCH  17  19
ATOM     19  C   LIG    1       25.257 -24.244   6.033  0.00  0.00    +0.055 C 
ATOM     20  C   LIG    1       25.293 -25.680   6.583  0.00  0.00    +0.024 C 
BRANCH  19  21
ATOM     21  C   LIG    1       23.897 -23.564   6.314  0.00  0.00    +0.053 C 
BRANCH  21  25
ATOM     22  C   LIG    1       23.422 -19.715   4.434  0.00  0.00    +0.120 A 
ATOM     23  C   LIG    1       24.237 -20.692   3.861  0.00  0.00    +0.046 A 
ATOM     24  C   LIG    1       24.387 -21.935   4.465  0.00  0.00    +0.007 A 
ATOM     25  C   LIG    1       23.746 -22.209   5.674  0.00  0.00    -0.046 A 
ATOM     26  C   LIG    1       22.960 -21.215   6.274  0.00  0.00    +0.007 A 
ATOM     27  C   LIG    1       22.801 -19.972   5.657  0.00  0.00    +0.046 A 
BRANCH  22  29
ATOM     28  C   LIG    1       22.174 -17.729   4.517  0.00  0.00    +0.277 C 
ATOM     29  O   LIG    1       23.201 -18.485   3.874  0.00  0.00    -0.495 OA
ENDBRANCH  22  29
ENDBRANCH  21  25
ENDBRANCH  19  21
ENDBRANCH  17  19
ENDBRANCH  16  17
ENDBRANCH   1  16
TORSDOF 10
ENDMDL
MODEL 2
REMARK VINA RESULT:      -8.8      2.336      4.676
REMARK  Name = *****
REMARK                            x       y       z     vdW  Elec       q    Type
REMARK                         _______ _______ _______ _____ _____    ______ ____
ROOT
ATOM      1  C   LIG    1       27.767 -20.237   5.884  0.00  0.00    +0.158 C 
ENDROOT
BRANCH   1   2
ATOM      2  C   LIG    1       28.974 -20.334   6.798  0.00  0.00    -0.016 A 
ATOM      3  C   LIG    1       29.891 -19.278   6.940  0.00  0.00    +0.033 A 
ATOM      4  C   LIG    1       30.954 -19.337   7.854  0.00  0.00    +0.075 A 
ATOM      5  C   LIG    1       31.130 -20.516   8.595  0.00  0.00    +0.138 A 
ATOM      6  C   LIG    1       30.260 -21.596   8.428  0.00  0.00    +0.048 A 
ATOM      7  C   LIG    1       29.188 -21.503   7.541  0.00  0.00    +0.010 A 
BRANCH   4   8
ATOM      8  N   LIG    1       31.763 -18.191   7.944  0.00  0.00    -0.285 N 
ATOM      9  H   LIG    1       32.397 -17.990   7.179  0.00  0.00    +0.155 HD
ATOM     10  C   LIG    1       31.768 -17.219   8.905  0.00  0.00    +0.330 C 
ATOM     11  O   LIG    1       32.523 -16.270   8.866  0.00  0.00    -0.279 OA
ENDBRANCH   4   8
BRANCH   5  12
ATOM     12  O   LIG    1       32.181 -20.657   9.455  0.00  0.00    -0.505 OA
ATOM     13  H   LIG    1       32.807 -21.306   9.093  0.00  0.00    +0.292 HD
ENDBRANCH   5  12
ENDBRANCH   1   2
BRANCH   1  14
ATOM     14  O   LIG    1       27.853 -19.083   5.042  0.00  0.00    -0.386 OA
ATOM     15  H   LIG    1       27.598 -18.332   5.614  0.00  0.00    +0.210 HD
ENDBRANCH   1  14
BRANCH   1  16
ATOM     16  C   LIG    1       26.408 -20.204   6.642  0.00  0.00    +0.117 C 
BRANCH  16  17
ATOM     17  N   LIG    1       25.307 -20.759   5.829  0.00  0.00    -0.310 NA
ATOM     18  H   LIG    1       25.246 -20.215   4.962  0.00  0.00    +0.122 HD
BRANCH  17  19
ATOM     19  C   LIG    1       23.987 -20.689   6.498  0.00  0.00    +0.055 C 
ATOM     20  C   LIG    1       22.927 -20.797   5.389  0.00  0.00    +0.024 C 
BRANCH  19  21
ATOM     21  C   LIG    1       23.807 -21.794   7.564  0.00  0.00    +0.053 C 
BRANCH  21  25
ATOM     22  C   LIG    1       25.124 -25.671   6.220  0.00  0.00    +0.120 A 
ATOM     23  C   LIG    1       23.772 -25.328   6.187  0.00  0.00    +0.046 A 
ATOM     24  C   LIG    1       23.348 -24.075   6.616  0.00  0.00    +0.007 A 
ATOM     25  C   LIG    1       24.270 -23.157   7.118  0.00  0.00    -0.046 A 
ATOM     26  C   LIG    1       25.623 -23.514   7.192  0.00  0.00    +0.007 A 
ATOM     27  C   LIG    1       26.049 -24.769   6.748  0.00  0.00    +0.046 A 
BRANCH  22  29
ATOM     28  C   LIG    1       24.612 -27.860   5.544  0.00  0.00    +0.277 C 
ATOM     29  O   LIG    1       25.615 -26.871   5.778  0.00  0.00    -0.495 OA
ENDBRANCH  22  29
ENDBRANCH  21  25
ENDBRANCH  19  21
ENDBRANCH  17  19
ENDBRANCH  16  17
ENDBRANCH   1  16
TORSDOF 10
ENDMDL
MODEL 3
REMARK VINA RESULT:      -8.8      3.569      8.117
REMARK  Name = *****
REMARK                            x       y       z     vdW  Elec       q    Type
REMARK                         _______ _______ _______ _____ _____    ______ ____
ROOT
ATOM      1  C   LIG    1       26.952 -21.265   8.057  0.00  0.00    +0.158 C 
ENDROOT
BRANCH   1   2
ATOM      2  C   LIG    1       25.687 -21.964   7.593  0.00  0.00    -0.016 A 
ATOM      3  C   LIG    1       25.700 -23.277   7.090  0.00  0.00    +0.033 A 
ATOM      4  C   LIG    1       24.518 -23.950   6.749  0.00  0.00    +0.075 A 
ATOM      5  C   LIG    1       23.302 -23.259   6.858  0.00  0.00    +0.138 A 
ATOM      6  C   LIG    1       23.276 -21.936   7.306  0.00  0.00    +0.048 A 
ATOM      7  C   LIG    1       24.458 -21.297   7.675  0.00  0.00    +0.010 A 
BRANCH   4   8
ATOM      8  N   LIG    1       24.663 -25.281   6.316  0.00  0.00    -0.285 N 
ATOM      9  H   LIG    1       24.228 -26.014   6.864  0.00  0.00    +0.155 HD
ATOM     10  C   LIG    1       25.254 -25.751   5.177  0.00  0.00    +0.330 C 
ATOM     11  O   LIG    1       25.313 -26.935   4.916  0.00  0.00    -0.279 OA
ENDBRANCH   4   8
BRANCH   5  12
ATOM     12  O   LIG    1       22.125 -23.841   6.483  0.00  0.00    -0.505 OA
ATOM     13  H   LIG    1       21.398 -23.210   6.619  0.00  0.00    +0.292 HD
ENDBRANCH   5  12
ENDBRANCH   1   2
BRANCH   1  14
ATOM     14  O   LIG    1       26.666 -20.327   9.100  0.00  0.00    -0.386 OA
ATOM     15  H   LIG    1       26.956 -19.461   8.750  0.00  0.00    +0.210 HD
ENDBRANCH   1  14
BRANCH   1  16
ATOM     16  C   LIG    1       27.715 -20.529   6.917  0.00  0.00    +0.117 C 
BRANCH  16  17
ATOM     17  N   LIG    1       29.171 -20.771   6.979  0.00  0.00    -0.310 NA
ATOM     18  H   LIG    1       29.320 -21.778   7.106  0.00  0.00    +0.122 HD
BRANCH  17  19
ATOM     19  C   LIG    1       29.838 -20.070   8.100  0.00  0.00    +0.055 C 
ATOM     20  C   LIG    1       31.010 -20.963   8.539  0.00  0.00    +0.024 C 
BRANCH  19  21
ATOM     21  C   LIG    1       30.321 -18.655   7.705  0.00  0.00    +0.053 C 
BRANCH  21  25
ATOM     22  C   LIG    1       31.958 -16.441  11.021  0.00  0.00    +0.120 A 
ATOM     23  C   LIG    1       30.653 -16.934  11.068  0.00  0.00    +0.046 A 
ATOM     24  C   LIG    1       30.126 -17.652  10.000  0.00  0.00    +0.007 A 
ATOM     25  C   LIG    1       30.890 -17.860   8.851  0.00  0.00    -0.046 A 
ATOM     26  C   LIG    1       32.186 -17.330   8.783  0.00  0.00    +0.007 A 
ATOM     27  C   LIG    1       32.716 -16.620   9.863  0.00  0.00    +0.046 A 
BRANCH  22  29
ATOM     28  C   LIG    1       32.276 -16.299  13.342  0.00  0.00    +0.277 C 
ATOM     29  O   LIG    1       32.551 -15.759  12.049  0.00  0.00    -0.495 OA
ENDBRANCH  22  29
ENDBRANCH  21  25
ENDBRANCH  19  21
ENDBRANCH  17  19
ENDBRANCH  16  17
ENDBRANCH   1  16
TORSDOF 10
ENDMDL
MODEL 4
REMARK VINA RESULT:      -8.6      3.191      6.873
REMARK  Name = *****
REMARK                            x       y       z     vdW  Elec       q    Type
REMARK                         _______ _______ _______ _____ _____    ______ ____
ROOT
ATOM      1  C   LIG    1       22.937 -23.192   6.885  0.00  0.00    +0.158 C 
ENDROOT
BRANCH   1   2
ATOM      2  C   LIG    1       23.995 -24.252   6.639  0.00  0.00    -0.016 A 
ATOM      3  C   LIG    1       23.664 -25.559   6.239  0.00  0.00    +0.033 A 
ATOM      4  C   LIG    1       24.649 -26.508   5.925  0.00  0.00    +0.075 A 
ATOM      5  C   LIG    1       25.996 -26.147   6.080  0.00  0.00    +0.138 A 
ATOM      6  C   LIG    1       26.341 -24.870   6.527  0.00  0.00    +0.048 A 
ATOM      7  C   LIG    1       25.349 -23.929   6.798  0.00  0.00    +0.010 A 
BRANCH   4   8
ATOM      8  N   LIG    1       24.187 -27.760   5.479  0.00  0.00    -0.285 N 
ATOM      9  H   LIG    1       24.041 -27.892   4.485  0.00  0.00    +0.155 HD
ATOM     10  C   LIG    1       23.974 -28.901   6.202  0.00  0.00    +0.330 C 
ATOM     11  O   LIG    1       23.571 -29.926   5.693  0.00  0.00    -0.279 OA
ENDBRANCH   4   8
BRANCH   5  12
ATOM     12  O   LIG    1       26.997 -27.046   5.848  0.00  0.00    -0.505 OA
ATOM     13  H   LIG    1       27.313 -27.399   6.696  0.00  0.00    +0.292 HD
ENDBRANCH   5  12
ENDBRANCH   1   2
BRANCH   1  14
ATOM     14  O   LIG    1       21.651 -23.640   6.444  0.00  0.00    -0.386 OA
ATOM     15  H   LIG    1       21.572 -24.555   6.779  0.00  0.00    +0.210 HD
ENDBRANCH   1  14
BRANCH   1  16
ATOM     16  C   LIG    1       23.251 -21.826   6.210  0.00  0.00    +0.117 C 
BRANCH  16  17
ATOM     17  N   LIG    1       23.939 -21.993   4.913  0.00  0.00    -0.310 NA
ATOM     18  H   LIG    1       24.286 -22.956   4.860  0.00  0.00    +0.122 HD
BRANCH  17  19
ATOM     19  C   LIG    1       25.097 -21.085   4.739  0.00  0.00    +0.055 C 
ATOM     20  C   LIG    1       24.747 -20.148   3.572  0.00  0.00    +0.024 C 
BRANCH  19  21
ATOM     21  C   LIG    1       25.422 -20.291   6.026  0.00  0.00    +0.053 C 
BRANCH  21  25
ATOM     22  C   LIG    1       29.584 -20.285   7.143  0.00  0.00    +0.120 A 
ATOM     23  C   LIG    1       29.146 -19.578   6.023  0.00  0.00    +0.046 A 
ATOM     24  C   LIG    1       27.803 -19.576   5.665  0.00  0.00    +0.007 A 
ATOM     25  C   LIG    1       26.879 -20.312   6.408  0.00  0.00    -0.046 A 
ATOM     26  C   LIG    1       27.322 -21.058   7.508  0.00  0.00    +0.007 A 
ATOM     27  C   LIG    1       28.670 -21.047   7.873  0.00  0.00    +0.046 A 
BRANCH  22  29
ATOM     28  C   LIG    1       31.483 -19.007   7.663  0.00  0.00    +0.277 C 
ATOM     29  O   LIG    1       30.884 -20.300   7.574  0.00  0.00    -0.495 OA
ENDBRANCH  22  29
ENDBRANCH  21  25
ENDBRANCH  19  21
ENDBRANCH  17  19
ENDBRANCH  16  17
ENDBRANCH   1  16
TORSDOF 10
ENDMDL
MODEL 5
REMARK VINA RESULT:      -8.4      2.451      5.054
REMARK  Name = *****
REMARK                            x       y       z     vdW  Elec       q    Type
REMARK                         _______ _______ _______ _____ _____    ______ ____
ROOT
ATOM      1  C   LIG    1       26.593 -20.642   5.455  0.00  0.00    +0.158 C 
ENDROOT
BRANCH   1   2
ATOM      2  C   LIG    1       27.868 -20.049   6.027  0.00  0.00    -0.016 A 
ATOM      3  C   LIG    1       28.486 -20.576   7.174  0.00  0.00    +0.033 A 
ATOM      4  C   LIG    1       29.712 -20.084   7.646  0.00  0.00    +0.075 A 
ATOM      5  C   LIG    1       30.293 -18.993   6.980  0.00  0.00    +0.138 A 
ATOM      6  C   LIG    1       29.665 -18.424   5.870  0.00  0.00    +0.048 A 
ATOM      7  C   LIG    1       28.465 -18.951   5.395  0.00  0.00    +0.010 A 
BRANCH   4   8
ATOM      8  N   LIG    1       30.256 -20.737   8.766  0.00  0.00    -0.285 N 
ATOM      9  H   LIG    1       29.807 -20.603   9.665  0.00  0.00    +0.155 HD
ATOM     10  C   LIG    1       31.292 -21.628   8.820  0.00  0.00    +0.330 C 
ATOM     11  O   LIG    1       31.668 -22.126   9.860  0.00  0.00    -0.279 OA
ENDBRANCH   4   8
BRANCH   5  12
ATOM     12  O   LIG    1       31.454 -18.431   7.428  0.00  0.00    -0.505 OA
ATOM     13  H   LIG    1       31.945 -18.067   6.673  0.00  0.00    +0.292 HD
ENDBRANCH   5  12
ENDBRANCH   1   2
BRANCH   1  14
ATOM     14  O   LIG    1       26.182 -19.935   4.279  0.00  0.00    -0.386 OA
ATOM     15  H   LIG    1       25.354 -19.482   4.532  0.00  0.00    +0.210 HD
ENDBRANCH   1  14
BRANCH   1  16
ATOM     16  C   LIG    1       25.407 -20.669   6.462  0.00  0.00    +0.117 C 
BRANCH  16  17
ATOM     17  N   LIG    1       24.289 -21.504   5.979  0.00  0.00    -0.310 NA
ATOM     18  H   LIG    1       23.415 -21.101   6.333  0.00  0.00    +0.122 HD
BRANCH  17  19
ATOM     19  C   LIG    1       24.358 -22.909   6.444  0.00  0.00    +0.055 C 
ATOM     20  C   LIG    1       22.925 -23.315   6.826  0.00  0.00    +0.024 C 
BRANCH  19  21
ATOM     21  C   LIG    1       24.948 -23.855   5.372  0.00  0.00    +0.053 C 
BRANCH  21  25
ATOM     22  C   LIG    1       25.202 -27.950   6.692  0.00  0.00    +0.120 A 
ATOM     23  C   LIG    1       26.050 -26.977   7.222  0.00  0.00    +0.046 A 
ATOM     24  C   LIG    1       25.965 -25.655   6.799  0.00  0.00    +0.007 A 
ATOM     25  C   LIG    1       25.048 -25.293   5.812  0.00  0.00    -0.046 A 
ATOM     26  C   LIG    1       24.224 -26.275   5.247  0.00  0.00    +0.007 A 
ATOM     27  C   LIG    1       24.303 -27.600   5.683  0.00  0.00    +0.046 A 
BRANCH  22  29
ATOM     28  C   LIG    1       25.138 -30.196   6.011  0.00  0.00    +0.277 C 
ATOM     29  O   LIG    1       25.206 -29.261   7.088  0.00  0.00    -0.495 OA
ENDBRANCH  22  29
ENDBRANCH  21  25
ENDBRANCH  19  21
ENDBRANCH  17  19
ENDBRANCH  16  17
ENDBRANCH   1  16
TORSDOF 10
ENDMDL
MODEL 6
REMARK VINA RESULT:      -8.3      2.934      5.604
REMARK  Name = *****
REMARK                            x       y       z     vdW  Elec       q    Type
REMARK                         _______ _______ _______ _____ _____    ______ ____
ROOT
ATOM      1  C   LIG    1       25.739 -21.172   7.770  0.00  0.00    +0.158 C 
ENDROOT
BRANCH   1   2
ATOM      2  C   LIG    1       26.984 -20.488   7.236  0.00  0.00    -0.016 A 
ATOM      3  C   LIG    1       28.168 -20.398   7.990  0.00  0.00    +0.033 A 
ATOM      4  C   LIG    1       29.343 -19.846   7.458  0.00  0.00    +0.075 A 
ATOM      5  C   LIG    1       29.302 -19.315   6.159  0.00  0.00    +0.138 A 
ATOM      6  C   LIG    1       28.119 -19.349   5.417  0.00  0.00    +0.048 A 
ATOM      7  C   LIG    1       26.972 -19.935   5.949  0.00  0.00    +0.010 A 
BRANCH   4   8
ATOM      8  N   LIG    1       30.475 -19.870   8.291  0.00  0.00    -0.285 N 
ATOM      9  H   LIG    1       30.756 -19.008   8.745  0.00  0.00    +0.155 HD
ATOM     10  C   LIG    1       31.240 -20.939   8.666  0.00  0.00    +0.330 C 
ATOM     11  O   LIG    1       32.201 -20.827   9.399  0.00  0.00    -0.279 OA
ENDBRANCH   4   8
BRANCH   5  12
ATOM     12  O   LIG    1       30.395 -18.710   5.610  0.00  0.00    -0.505 OA
ATOM     13  H   LIG    1       31.135 -19.340   5.591  0.00  0.00    +0.292 HD
ENDBRANCH   5  12
ENDBRANCH   1   2
BRANCH   1  14
ATOM     14  O   LIG    1       26.008 -21.827   9.015  0.00  0.00    -0.386 OA
ATOM     15  H   LIG    1       25.166 -22.259   9.261  0.00  0.00    +0.210 HD
ENDBRANCH   1  14
BRANCH   1  16
ATOM     16  C   LIG    1       25.121 -22.205   6.784  0.00  0.00    +0.117 C 
BRANCH  16  17
ATOM     17  N   LIG    1       26.010 -23.364   6.565  0.00  0.00    -0.310 NA
ATOM     18  H   LIG    1       26.291 -23.367   5.579  0.00  0.00    +0.122 HD
BRANCH  17  19
ATOM     19  C   LIG    1       25.364 -24.666   6.854  0.00  0.00    +0.055 C 
ATOM     20  C   LIG    1       23.873 -24.499   6.517  0.00  0.00    +0.024 C 
BRANCH  19  21
ATOM     21  C   LIG    1       26.000 -25.828   6.056  0.00  0.00    +0.053 C 
BRANCH  21  25
ATOM     22  C   LIG    1       24.365 -29.724   6.906  0.00  0.00    +0.120 A 
ATOM     23  C   LIG    1       24.016 -29.045   5.738  0.00  0.00    +0.046 A 
ATOM     24  C   LIG    1       24.547 -27.790   5.461  0.00  0.00    +0.007 A 
ATOM     25  C   LIG    1       25.413 -27.180   6.370  0.00  0.00    -0.046 A 
ATOM     26  C   LIG    1       25.731 -27.841   7.564  0.00  0.00    +0.007 A 
ATOM     27  C   LIG    1       25.207 -29.107   7.832  0.00  0.00    +0.046 A 
BRANCH  22  29
ATOM     28  C   LIG    1       23.850 -31.873   6.113  0.00  0.00    +0.277 C 
ATOM     29  O   LIG    1       23.909 -30.976   7.223  0.00  0.00    -0.495 OA
ENDBRANCH  22  29
ENDBRANCH  21  25
ENDBRANCH  19  21
ENDBRANCH  17  19
ENDBRANCH  16  17
ENDBRANCH   1  16
TORSDOF 10
ENDMDL
MODEL 7
REMARK VINA RESULT:      -8.3      2.131      4.276
REMARK  Name = *****
REMARK                            x       y       z     vdW  Elec       q    Type
REMARK                         _______ _______ _______ _____ _____    ______ ____
ROOT
ATOM      1  C   LIG    1       26.965 -20.076   5.146  0.00  0.00    +0.158 C 
ENDROOT
BRANCH   1   2
ATOM      2  C   LIG    1       28.247 -19.707   5.870  0.00  0.00    -0.016 A 
ATOM      3  C   LIG    1       28.664 -20.372   7.036  0.00  0.00    +0.033 A 
ATOM      4  C   LIG    1       29.893 -20.089   7.650  0.00  0.00    +0.075 A 
ATOM      5  C   LIG    1       30.689 -19.067   7.109  0.00  0.00    +0.138 A 
ATOM      6  C   LIG    1       30.265 -18.361   5.981  0.00  0.00    +0.048 A 
ATOM      7  C   LIG    1       29.057 -18.682   5.365  0.00  0.00    +0.010 A 
BRANCH   4   8
ATOM      8  N   LIG    1       30.221 -20.867   8.775  0.00  0.00    -0.285 N 
ATOM      9  H   LIG    1       29.702 -20.715   9.632  0.00  0.00    +0.155 HD
ATOM     10  C   LIG    1       31.113 -21.898   8.873  0.00  0.00    +0.330 C 
ATOM     11  O   LIG    1       31.306 -22.495   9.912  0.00  0.00    -0.279 OA
ENDBRANCH   4   8
BRANCH   5  12
ATOM     12  O   LIG    1       31.867 -18.705   7.697  0.00  0.00    -0.505 OA
ATOM     13  H   LIG    1       32.319 -18.055   7.135  0.00  0.00    +0.292 HD
ENDBRANCH   5  12
ENDBRANCH   1   2
BRANCH   1  14
ATOM     14  O   LIG    1       26.586 -19.053   4.220  0.00  0.00    -0.386 OA
ATOM     15  H   LIG    1       26.054 -18.421   4.743  0.00  0.00    +0.210 HD
ENDBRANCH   1  14
BRANCH   1  16
ATOM     16  C   LIG    1       25.767 -20.359   6.097  0.00  0.00    +0.117 C 
BRANCH  16  17
ATOM     17  N   LIG    1       24.571 -20.816   5.361  0.00  0.00    -0.310 NA
ATOM     18  H   LIG    1       24.427 -20.186   4.566  0.00  0.00    +0.122 HD
BRANCH  17  19
ATOM     19  C   LIG    1       23.335 -20.802   6.178  0.00  0.00    +0.055 C 
ATOM     20  C   LIG    1       22.185 -21.199   5.238  0.00  0.00    +0.024 C 
BRANCH  19  21
ATOM     21  C   LIG    1       23.423 -21.750   7.397  0.00  0.00    +0.053 C 
BRANCH  21  25
ATOM     22  C   LIG    1       25.088 -25.604   6.423  0.00  0.00    +0.120 A 
ATOM     23  C   LIG    1       23.719 -25.367   6.297  0.00  0.00    +0.046 A 
ATOM     24  C   LIG    1       23.182 -24.122   6.607  0.00  0.00    +0.007 A 
ATOM     25  C   LIG    1       24.008 -23.102   7.081  0.00  0.00    -0.046 A 
ATOM     26  C   LIG    1       25.377 -23.349   7.250  0.00  0.00    +0.007 A 
ATOM     27  C   LIG    1       25.915 -24.597   6.925  0.00  0.00    +0.046 A 
BRANCH  22  29
ATOM     28  C   LIG    1       26.083 -26.893   4.733  0.00  0.00    +0.277 C 
ATOM     29  O   LIG    1       25.688 -26.792   6.101  0.00  0.00    -0.495 OA
ENDBRANCH  22  29
ENDBRANCH  21  25
ENDBRANCH  19  21
ENDBRANCH  17  19
ENDBRANCH  16  17
ENDBRANCH   1  16
TORSDOF 10
ENDMDL
MODEL 8
REMARK VINA RESULT:      -8.3      3.227      6.745
REMARK  Name = *****
REMARK                            x       y       z     vdW  Elec       q    Type
REMARK                         _______ _______ _______ _____ _____    ______ ____
ROOT
ATOM      1  C   LIG    1       25.092 -24.252   6.026  0.00  0.00    +0.158 C 
ENDROOT
BRANCH   1   2
ATOM      2  C   LIG    1       25.108 -25.754   6.242  0.00  0.00    -0.016 A 
ATOM      3  C   LIG    1       25.972 -26.367   7.166  0.00  0.00    +0.033 A 
ATOM      4  C   LIG    1       25.919 -27.744   7.428  0.00  0.00    +0.075 A 
ATOM      5  C   LIG    1       25.017 -28.528   6.693  0.00  0.00    +0.138 A 
ATOM      6  C   LIG    1       24.188 -27.943   5.733  0.00  0.00    +0.048 A 
ATOM      7  C   LIG    1       24.230 -26.568   5.513  0.00  0.00    +0.010 A 
BRANCH   4   8
ATOM      8  N   LIG    1       26.794 -28.224   8.419  0.00  0.00    -0.285 N 
ATOM      9  H   LIG    1       27.776 -28.318   8.188  0.00  0.00    +0.155 HD
ATOM     10  C   LIG    1       26.529 -28.516   9.728  0.00  0.00    +0.330 C 
ATOM     11  O   LIG    1       27.381 -28.926  10.489  0.00  0.00    -0.279 OA
ENDBRANCH   4   8
BRANCH   5  12
ATOM     12  O   LIG    1       24.962 -29.882   6.859  0.00  0.00    -0.505 OA
ATOM     13  H   LIG    1       25.505 -30.133   7.625  0.00  0.00    +0.292 HD
ENDBRANCH   5  12
ENDBRANCH   1   2
BRANCH   1  14
ATOM     14  O   LIG    1       26.335 -23.664   6.424  0.00  0.00    -0.386 OA
ATOM     15  H   LIG    1       26.232 -23.475   7.378  0.00  0.00    +0.210 HD
ENDBRANCH   1  14
BRANCH   1  16
ATOM     16  C   LIG    1       23.933 -23.525   6.766  0.00  0.00    +0.117 C 
BRANCH  16  17
ATOM     17  N   LIG    1       23.180 -22.625   5.869  0.00  0.00    -0.310 NA
ATOM     18  H   LIG    1       23.183 -23.037   4.930  0.00  0.00    +0.122 HD
BRANCH  17  19
ATOM     19  C   LIG    1       23.765 -21.268   5.768  0.00  0.00    +0.055 C 
ATOM     20  C   LIG    1       22.621 -20.328   5.355  0.00  0.00    +0.024 C 
BRANCH  19  21
ATOM     21  C   LIG    1       24.425 -20.811   7.090  0.00  0.00    +0.053 C 
BRANCH  21  25
ATOM     22  C   LIG    1       28.642 -19.986   6.745  0.00  0.00    +0.120 A 
ATOM     23  C   LIG    1       28.060 -20.213   7.992  0.00  0.00    +0.046 A 
ATOM     24  C   LIG    1       26.701 -20.484   8.103  0.00  0.00    +0.007 A 
ATOM     25  C   LIG    1       25.894 -20.499   6.965  0.00  0.00    -0.046 A 
ATOM     26  C   LIG    1       26.467 -20.229   5.715  0.00  0.00    +0.007 A 
ATOM     27  C   LIG    1       27.835 -19.971   5.605  0.00  0.00    +0.046 A 
BRANCH  22  29
ATOM     28  C   LIG    1       30.766 -19.910   7.739  0.00  0.00    +0.277 C 
ATOM     29  O   LIG    1       29.978 -19.751   6.559  0.00  0.00    -0.495 OA
ENDBRANCH  22  29
ENDBRANCH  21  25
ENDBRANCH  19  21
ENDBRANCH  17  19
ENDBRANCH  16  17
ENDBRANCH   1  16
TORSDOF 10
ENDMDL
MODEL 9
REMARK VINA RESULT:      -8.2      2.343      4.703
REMARK  Name = *****
REMARK                            x       y       z     vdW  Elec       q    Type
REMARK                         _______ _______ _______ _____ _____    ______ ____
ROOT
ATOM      1  C   LIG    1       26.164 -20.822   8.436  0.00  0.00    +0.158 C 
ENDROOT
BRANCH   1   2
ATOM      2  C   LIG    1       27.322 -20.204   7.674  0.00  0.00    -0.016 A 
ATOM      3  C   LIG    1       28.522 -19.836   8.307  0.00  0.00    +0.033 A 
ATOM      4  C   LIG    1       29.622 -19.351   7.584  0.00  0.00    +0.075 A 
ATOM      5  C   LIG    1       29.483 -19.173   6.199  0.00  0.00    +0.138 A 
ATOM      6  C   LIG    1       28.279 -19.483   5.561  0.00  0.00    +0.048 A 
ATOM      7  C   LIG    1       27.210 -19.999   6.292  0.00  0.00    +0.010 A 
BRANCH   4   8
ATOM      8  N   LIG    1       30.784 -19.077   8.327  0.00  0.00    -0.285 N 
ATOM      9  H   LIG    1       31.683 -19.270   7.902  0.00  0.00    +0.155 HD
ATOM     10  C   LIG    1       30.896 -18.489   9.556  0.00  0.00    +0.330 C 
ATOM     11  O   LIG    1       31.968 -18.306  10.095  0.00  0.00    -0.279 OA
ENDBRANCH   4   8
BRANCH   5  12
ATOM     12  O   LIG    1       30.497 -18.647   5.451  0.00  0.00    -0.505 OA
ATOM     13  H   LIG    1       30.182 -17.843   5.005  0.00  0.00    +0.292 HD
ENDBRANCH   5  12
ENDBRANCH   1   2
BRANCH   1  14
ATOM     14  O   LIG    1       26.424 -22.197   8.736  0.00  0.00    -0.386 OA
ATOM     15  H   LIG    1       26.451 -22.646   7.868  0.00  0.00    +0.210 HD
ENDBRANCH   1  14
BRANCH   1  16
ATOM     16  C   LIG    1       24.800 -20.721   7.694  0.00  0.00    +0.117 C 
BRANCH  16  17
ATOM     17  N   LIG    1       23.961 -21.916   7.911  0.00  0.00    -0.310 NA
ATOM     18  H   LIG    1       24.509 -22.597   8.446  0.00  0.00    +0.122 HD
BRANCH  17  19
ATOM     19  C   LIG    1       23.531 -22.572   6.653  0.00  0.00    +0.055 C 
ATOM     20  C   LIG    1       22.788 -21.503   5.835  0.00  0.00    +0.024 C 
BRANCH  19  21
ATOM     21  C   LIG    1       24.719 -23.166   5.863  0.00  0.00    +0.053 C 
BRANCH  21  25
ATOM     22  C   LIG    1       25.214 -27.404   6.475  0.00  0.00    +0.120 A 
ATOM     23  C   LIG    1       26.122 -26.495   7.019  0.00  0.00    +0.046 A 
ATOM     24  C   LIG    1       25.960 -25.128   6.826  0.00  0.00    +0.007 A 
ATOM     25  C   LIG    1       24.901 -24.650   6.053  0.00  0.00    -0.046 A 
ATOM     26  C   LIG    1       24.011 -25.562   5.470  0.00  0.00    +0.007 A 
ATOM     27  C   LIG    1       24.169 -26.935   5.677  0.00  0.00    +0.046 A 
BRANCH  22  29
ATOM     28  C   LIG    1       25.183 -29.516   5.451  0.00  0.00    +0.277 C 
ATOM     29  O   LIG    1       25.293 -28.759   6.656  0.00  0.00    -0.495 OA
ENDBRANCH  22  29
ENDBRANCH  21  25
ENDBRANCH  19  21
ENDBRANCH  17  19
ENDBRANCH  16  17
ENDBRANCH   1  16
TORSDOF 10
ENDMDL
