MODEL 1
REMARK VINA RESULT:      -9.0      0.000      0.000
REMARK  Name = *****
REMARK                            x       y       z     vdW  Elec       q    Type
REMARK                         _______ _______ _______ _____ _____    ______ ____
ROOT
ATOM      1  C   LIG    1       27.718 -20.940   6.954  0.00  0.00    +0.009 A 
ATOM      2  C   LIG    1       28.595 -21.531   7.877  0.00  0.00    +0.033 A 
ATOM      3  C   LIG    1       29.885 -21.013   8.085  0.00  0.00    +0.094 A 
ATOM      4  C   LIG    1       30.317 -19.895   7.360  0.00  0.00    +0.138 A 
ATOM      5  C   LIG    1       29.429 -19.283   6.469  0.00  0.00    +0.048 A 
ATOM      6  C   LIG    1       28.142 -19.793   6.278  0.00  0.00    +0.014 A 
ENDROOT
BRANCH   1  11
ATOM      7  C   LIG    1       23.028 -20.916   5.470  0.00  0.00    +0.067 C 
ATOM      8  C   LIG    1       24.251 -21.554   6.028  0.00  0.00    +0.060 A 
ATOM      9  C   LIG    1       24.410 -22.874   6.413  0.00  0.00    +0.119 A 
ATOM     10  S   LIG    1       26.011 -23.126   6.967  0.00  0.00    -0.060 S 
ATOM     11  C   LIG    1       26.376 -21.472   6.685  0.00  0.00    +0.109 A 
ATOM     12  N   LIG    1       25.394 -20.775   6.153  0.00  0.00    -0.243 NA
BRANCH   9  13
ATOM     13  C   LIG    1       23.440 -23.942   6.421  0.00  0.00    +0.345 C 
ATOM     14  O   LIG    1       22.316 -23.881   6.898  0.00  0.00    -0.244 OA
BRANCH  13  15
ATOM     15  O   LIG    1       23.889 -25.056   5.785  0.00  0.00    -0.477 OA
ATOM     16  H   LIG    1       23.276 -25.356   5.085  0.00  0.00    +0.295 HD
ENDBRANCH  13  15
ENDBRANCH   9  13
ENDBRANCH   1  11
BRANCH   3  17
ATOM     17  C   LIG    1       30.718 -21.661   9.066  0.00  0.00    +0.103 C 
ATOM     18  N   LIG    1       31.316 -22.201   9.896  0.00  0.00    -0.191 NA
ENDBRANCH   3  17
BRANCH   4  19
ATOM     19  O   LIG    1       31.605 -19.469   7.564  0.00  0.00    -0.490 OA
BRANCH  19  20
ATOM     20  C   LIG    1       31.775 -18.113   7.990  0.00  0.00    +0.232 C 
BRANCH  20  21
ATOM     21  C   LIG    1       31.612 -18.022   9.510  0.00  0.00    +0.020 C 
ATOM     22  C   LIG    1       30.172 -17.656   9.872  0.00  0.00    +0.010 C 
ATOM     23  C   LIG    1       32.588 -16.998  10.094  0.00  0.00    +0.010 C 
ENDBRANCH  20  21
ENDBRANCH  19  20
ENDBRANCH   4  19
TORSDOF 7
ENDMDL
MODEL 2
REMARK VINA RESULT:      -8.6      1.519      1.813
REMARK  Name = *****
REMARK                            x       y       z     vdW  Elec       q    Type
REMARK                         _______ _______ _______ _____ _____    ______ ____
ROOT
ATOM      1  C   LIG    1       28.075 -20.605   6.808  0.00  0.00    +0.009 A 
ATOM      2  C   LIG    1       28.886 -21.305   7.716  0.00  0.00    +0.033 A 
ATOM      3  C   LIG    1       30.155 -20.820   8.076  0.00  0.00    +0.094 A 
ATOM      4  C   LIG    1       30.634 -19.627   7.520  0.00  0.00    +0.138 A 
ATOM      5  C   LIG    1       29.810 -18.911   6.645  0.00  0.00    +0.048 A 
ATOM      6  C   LIG    1       28.543 -19.389   6.304  0.00  0.00    +0.014 A 
ENDROOT
BRANCH   1  11
ATOM      7  C   LIG    1       24.129 -23.541   6.713  0.00  0.00    +0.067 C 
ATOM      8  C   LIG    1       24.933 -22.365   6.281  0.00  0.00    +0.060 A 
ATOM      9  C   LIG    1       24.582 -21.403   5.349  0.00  0.00    +0.119 A 
ATOM     10  S   LIG    1       25.831 -20.239   5.221  0.00  0.00    -0.060 S 
ATOM     11  C   LIG    1       26.759 -21.097   6.383  0.00  0.00    +0.109 A 
ATOM     12  N   LIG    1       26.161 -22.155   6.891  0.00  0.00    -0.243 NA
BRANCH   9  13
ATOM     13  C   LIG    1       23.394 -21.318   4.534  0.00  0.00    +0.345 C 
ATOM     14  O   LIG    1       22.311 -20.880   4.895  0.00  0.00    -0.244 OA
BRANCH  13  15
ATOM     15  O   LIG    1       23.606 -21.745   3.261  0.00  0.00    -0.477 OA
ATOM     16  H   LIG    1       24.514 -21.555   2.953  0.00  0.00    +0.295 HD
ENDBRANCH  13  15
ENDBRANCH   9  13
ENDBRANCH   1  11
BRANCH   3  17
ATOM     17  C   LIG    1       30.918 -21.583   9.031  0.00  0.00    +0.103 C 
ATOM     18  N   LIG    1       31.489 -22.265   9.773  0.00  0.00    -0.191 NA
ENDBRANCH   3  17
BRANCH   4  19
ATOM     19  O   LIG    1       31.903 -19.234   7.865  0.00  0.00    -0.490 OA
BRANCH  19  20
ATOM     20  C   LIG    1       32.058 -17.884   8.315  0.00  0.00    +0.232 C 
BRANCH  20  21
ATOM     21  C   LIG    1       31.751 -17.797   9.813  0.00  0.00    +0.020 C 
ATOM     22  C   LIG    1       30.299 -17.372  10.037  0.00  0.00    +0.010 C 
ATOM     23  C   LIG    1       32.707 -16.822  10.502  0.00  0.00    +0.010 C 
ENDBRANCH  20  21
ENDBRANCH  19  20
ENDBRANCH   4  19
TORSDOF 7
ENDMDL
MODEL 3
REMARK VINA RESULT:      -8.0      2.261      7.673
REMARK  Name = *****
REMARK                            x       y       z     vdW  Elec       q    Type
REMARK                         _______ _______ _______ _____ _____    ______ ____
ROOT
ATOM      1  C   LIG    1       27.609 -20.677   6.571  0.00  0.00    +0.009 A 
ATOM      2  C   LIG    1       26.729 -21.728   6.870  0.00  0.00    +0.033 A 
ATOM      3  C   LIG    1       25.556 -21.927   6.120  0.00  0.00    +0.094 A 
ATOM      4  C   LIG    1       25.245 -21.063   5.063  0.00  0.00    +0.138 A 
ATOM      5  C   LIG    1       26.142 -20.038   4.741  0.00  0.00    +0.048 A 
ATOM      6  C   LIG    1       27.314 -19.856   5.479  0.00  0.00    +0.014 A 
ENDROOT
BRANCH   1  11
ATOM      7  C   LIG    1       31.538 -21.707   9.345  0.00  0.00    +0.067 C 
ATOM      8  C   LIG    1       30.629 -20.795   8.600  0.00  0.00    +0.060 A 
ATOM      9  C   LIG    1       30.753 -19.424   8.446  0.00  0.00    +0.119 A 
ATOM     10  S   LIG    1       29.470 -18.832   7.480  0.00  0.00    -0.060 S 
ATOM     11  C   LIG    1       28.825 -20.418   7.352  0.00  0.00    +0.109 A 
ATOM     12  N   LIG    1       29.545 -21.353   7.937  0.00  0.00    -0.243 NA
BRANCH   9  13
ATOM     13  C   LIG    1       31.746 -18.534   8.997  0.00  0.00    +0.345 C 
ATOM     14  O   LIG    1       32.076 -18.474  10.173  0.00  0.00    -0.244 OA
BRANCH  13  15
ATOM     15  O   LIG    1       32.339 -17.765   8.046  0.00  0.00    -0.477 OA
ATOM     16  H   LIG    1       31.689 -17.369   7.432  0.00  0.00    +0.295 HD
ENDBRANCH  13  15
ENDBRANCH   9  13
ENDBRANCH   1  11
BRANCH   3  17
ATOM     17  C   LIG    1       24.715 -23.043   6.473  0.00  0.00    +0.103 C 
ATOM     18  N   LIG    1       23.978 -23.883   6.774  0.00  0.00    -0.191 NA
ENDBRANCH   3  17
BRANCH   4  19
ATOM     19  O   LIG    1       24.060 -21.272   4.404  0.00  0.00    -0.490 OA
BRANCH  19  20
ATOM     20  C   LIG    1       23.456 -20.129   3.787  0.00  0.00    +0.232 C 
BRANCH  20  21
ATOM     21  C   LIG    1       22.357 -19.570   4.695  0.00  0.00    +0.020 C 
ATOM     22  C   LIG    1       22.236 -18.056   4.517  0.00  0.00    +0.010 C 
ATOM     23  C   LIG    1       22.640 -19.917   6.158  0.00  0.00    +0.010 C 
ENDBRANCH  20  21
ENDBRANCH  19  20
ENDBRANCH   4  19
TORSDOF 7
ENDMDL
MODEL 4
REMARK VINA RESULT:      -8.0      2.107      7.680
REMARK  Name = *****
REMARK                            x       y       z     vdW  Elec       q    Type
REMARK                         _______ _______ _______ _____ _____    ______ ____
ROOT
ATOM      1  C   LIG    1       27.045 -21.286   7.640  0.00  0.00    +0.009 A 
ATOM      2  C   LIG    1       26.715 -22.447   6.924  0.00  0.00    +0.033 A 
ATOM      3  C   LIG    1       25.380 -22.743   6.599  0.00  0.00    +0.094 A 
ATOM      4  C   LIG    1       24.353 -21.878   6.999  0.00  0.00    +0.138 A 
ATOM      5  C   LIG    1       24.686 -20.702   7.679  0.00  0.00    +0.048 A 
ATOM      6  C   LIG    1       26.016 -20.405   7.984  0.00  0.00    +0.014 A 
ENDROOT
BRANCH   1  11
ATOM      7  C   LIG    1       31.646 -22.089   9.183  0.00  0.00    +0.067 C 
ATOM      8  C   LIG    1       30.525 -21.235   8.708  0.00  0.00    +0.060 A 
ATOM      9  C   LIG    1       30.545 -19.869   8.485  0.00  0.00    +0.119 A 
ATOM     10  S   LIG    1       29.015 -19.353   7.915  0.00  0.00    -0.060 S 
ATOM     11  C   LIG    1       28.424 -20.961   8.027  0.00  0.00    +0.109 A 
ATOM     12  N   LIG    1       29.319 -21.851   8.405  0.00  0.00    -0.243 NA
BRANCH   9  13
ATOM     13  C   LIG    1       31.619 -18.928   8.697  0.00  0.00    +0.345 C 
ATOM     14  O   LIG    1       32.086 -18.614   9.782  0.00  0.00    -0.244 OA
BRANCH  13  15
ATOM     15  O   LIG    1       32.115 -18.434   7.533  0.00  0.00    -0.477 OA
ATOM     16  H   LIG    1       31.468 -18.490   6.802  0.00  0.00    +0.295 HD
ENDBRANCH  13  15
ENDBRANCH   9  13
ENDBRANCH   1  11
BRANCH   3  17
ATOM     17  C   LIG    1       25.123 -23.941   5.842  0.00  0.00    +0.103 C 
ATOM     18  N   LIG    1       24.933 -24.859   5.163  0.00  0.00    -0.191 NA
ENDBRANCH   3  17
BRANCH   4  19
ATOM     19  O   LIG    1       23.065 -22.248   6.703  0.00  0.00    -0.490 OA
BRANCH  19  20
ATOM     20  C   LIG    1       22.451 -21.602   5.581  0.00  0.00    +0.232 C 
BRANCH  20  21
ATOM     21  C   LIG    1       23.328 -20.438   5.110  0.00  0.00    +0.020 C 
ATOM     22  C   LIG    1       22.490 -19.168   4.953  0.00  0.00    +0.010 C 
ATOM     23  C   LIG    1       24.022 -20.788   3.792  0.00  0.00    +0.010 C 
ENDBRANCH  20  21
ENDBRANCH  19  20
ENDBRANCH   4  19
TORSDOF 7
ENDMDL
MODEL 5
REMARK VINA RESULT:      -7.7      4.791      7.263
REMARK  Name = *****
REMARK                            x       y       z     vdW  Elec       q    Type
REMARK                         _______ _______ _______ _____ _____    ______ ____
ROOT
ATOM      1  C   LIG    1       25.181 -25.771   6.308  0.00  0.00    +0.009 A 
ATOM      2  C   LIG    1       25.621 -24.852   7.274  0.00  0.00    +0.033 A 
ATOM      3  C   LIG    1       25.623 -23.471   7.013  0.00  0.00    +0.094 A 
ATOM      4  C   LIG    1       25.190 -22.992   5.771  0.00  0.00    +0.138 A 
ATOM      5  C   LIG    1       24.715 -23.904   4.822  0.00  0.00    +0.048 A 
ATOM      6  C   LIG    1       24.700 -25.274   5.093  0.00  0.00    +0.014 A 
ENDROOT
BRANCH   1  11
ATOM      7  C   LIG    1       25.945 -29.995   8.710  0.00  0.00    +0.067 C 
ATOM      8  C   LIG    1       25.500 -29.178   7.549  0.00  0.00    +0.060 A 
ATOM      9  C   LIG    1       24.942 -29.632   6.366  0.00  0.00    +0.119 A 
ATOM     10  S   LIG    1       24.572 -28.302   5.353  0.00  0.00    -0.060 S 
ATOM     11  C   LIG    1       25.196 -27.221   6.532  0.00  0.00    +0.109 A 
ATOM     12  N   LIG    1       25.602 -27.797   7.645  0.00  0.00    -0.243 NA
BRANCH   9  13
ATOM     13  C   LIG    1       24.698 -30.988   5.938  0.00  0.00    +0.345 C 
ATOM     14  O   LIG    1       25.550 -31.850   5.782  0.00  0.00    -0.244 OA
BRANCH  13  15
ATOM     15  O   LIG    1       23.376 -31.246   5.757  0.00  0.00    -0.477 OA
ATOM     16  H   LIG    1       23.223 -31.952   5.098  0.00  0.00    +0.295 HD
ENDBRANCH  13  15
ENDBRANCH   9  13
ENDBRANCH   1  11
BRANCH   3  17
ATOM     17  C   LIG    1       26.067 -22.590   8.064  0.00  0.00    +0.103 C 
ATOM     18  N   LIG    1       26.356 -21.834   8.891  0.00  0.00    -0.191 NA
ENDBRANCH   3  17
BRANCH   4  19
ATOM     19  O   LIG    1       25.268 -21.639   5.553  0.00  0.00    -0.490 OA
BRANCH  19  20
ATOM     20  C   LIG    1       24.302 -21.074   4.659  0.00  0.00    +0.232 C 
BRANCH  20  21
ATOM     21  C   LIG    1       23.055 -20.652   5.441  0.00  0.00    +0.020 C 
ATOM     22  C   LIG    1       22.481 -19.355   4.871  0.00  0.00    +0.010 C 
ATOM     23  C   LIG    1       23.384 -20.485   6.926  0.00  0.00    +0.010 C 
ENDBRANCH  20  21
ENDBRANCH  19  20
ENDBRANCH   4  19
TORSDOF 7
ENDMDL
MODEL 6
REMARK VINA RESULT:      -7.6      2.463      7.643
REMARK  Name = *****
REMARK                            x       y       z     vdW  Elec       q    Type
REMARK                         _______ _______ _______ _____ _____    ______ ____
ROOT
ATOM      1  C   LIG    1       26.955 -20.605   6.286  0.00  0.00    +0.009 A 
ATOM      2  C   LIG    1       25.930 -21.461   6.719  0.00  0.00    +0.033 A 
ATOM      3  C   LIG    1       24.691 -21.499   6.058  0.00  0.00    +0.094 A 
ATOM      4  C   LIG    1       24.458 -20.668   4.955  0.00  0.00    +0.138 A 
ATOM      5  C   LIG    1       25.493 -19.843   4.500  0.00  0.00    +0.048 A 
ATOM      6  C   LIG    1       26.729 -19.821   5.151  0.00  0.00    +0.014 A 
ENDROOT
BRANCH   1  11
ATOM      7  C   LIG    1       31.259 -18.640   7.634  0.00  0.00    +0.067 C 
ATOM      8  C   LIG    1       30.209 -19.695   7.640  0.00  0.00    +0.060 A 
ATOM      9  C   LIG    1       30.211 -20.879   8.358  0.00  0.00    +0.119 A 
ATOM     10  S   LIG    1       28.767 -21.745   8.049  0.00  0.00    -0.060 S 
ATOM     11  C   LIG    1       28.250 -20.513   6.971  0.00  0.00    +0.109 A 
ATOM     12  N   LIG    1       29.066 -19.482   6.883  0.00  0.00    -0.243 NA
BRANCH   9  13
ATOM     13  C   LIG    1       31.230 -21.412   9.230  0.00  0.00    +0.345 C 
ATOM     14  O   LIG    1       32.400 -21.057   9.260  0.00  0.00    -0.244 OA
BRANCH  13  15
ATOM     15  O   LIG    1       30.746 -22.353  10.081  0.00  0.00    -0.477 OA
ATOM     16  H   LIG    1       30.430 -23.150   9.611  0.00  0.00    +0.295 HD
ENDBRANCH  13  15
ENDBRANCH   9  13
ENDBRANCH   1  11
BRANCH   3  17
ATOM     17  C   LIG    1       23.697 -22.421   6.547  0.00  0.00    +0.103 C 
ATOM     18  N   LIG    1       22.852 -23.143   6.871  0.00  0.00    -0.191 NA
ENDBRANCH   3  17
BRANCH   4  19
ATOM     19  O   LIG    1       23.210 -20.707   4.385  0.00  0.00    -0.490 OA
BRANCH  19  20
ATOM     20  C   LIG    1       22.224 -19.827   4.935  0.00  0.00    +0.232 C 
BRANCH  20  21
ATOM     21  C   LIG    1       22.015 -18.633   3.999  0.00  0.00    +0.020 C 
ATOM     22  C   LIG    1       22.283 -17.321   4.738  0.00  0.00    +0.010 C 
ATOM     23  C   LIG    1       20.597 -18.644   3.424  0.00  0.00    +0.010 C 
ENDBRANCH  20  21
ENDBRANCH  19  20
ENDBRANCH   4  19
TORSDOF 7
ENDMDL
MODEL 7
REMARK VINA RESULT:      -7.4      2.086      8.034
REMARK  Name = *****
REMARK                            x       y       z     vdW  Elec       q    Type
REMARK                         _______ _______ _______ _____ _____    ______ ____
ROOT
ATOM      1  C   LIG    1       27.333 -20.760   7.547  0.00  0.00    +0.009 A 
ATOM      2  C   LIG    1       26.866 -20.426   6.265  0.00  0.00    +0.033 A 
ATOM      3  C   LIG    1       25.570 -20.777   5.852  0.00  0.00    +0.094 A 
ATOM      4  C   LIG    1       24.723 -21.478   6.720  0.00  0.00    +0.138 A 
ATOM      5  C   LIG    1       25.175 -21.777   8.010  0.00  0.00    +0.048 A 
ATOM      6  C   LIG    1       26.458 -21.411   8.421  0.00  0.00    +0.014 A 
ENDROOT
BRANCH   1  11
ATOM      7  C   LIG    1       31.926 -21.597   9.096  0.00  0.00    +0.067 C 
ATOM      8  C   LIG    1       30.786 -20.727   8.697  0.00  0.00    +0.060 A 
ATOM      9  C   LIG    1       30.766 -19.344   8.635  0.00  0.00    +0.119 A 
ATOM     10  S   LIG    1       29.231 -18.812   8.093  0.00  0.00    -0.060 S 
ATOM     11  C   LIG    1       28.692 -20.440   8.001  0.00  0.00    +0.109 A 
ATOM     12  N   LIG    1       29.608 -21.340   8.294  0.00  0.00    -0.243 NA
BRANCH   9  13
ATOM     13  C   LIG    1       31.803 -18.403   8.981  0.00  0.00    +0.345 C 
ATOM     14  O   LIG    1       32.246 -18.212  10.105  0.00  0.00    -0.244 OA
BRANCH  13  15
ATOM     15  O   LIG    1       32.295 -17.749   7.896  0.00  0.00    -0.477 OA
ATOM     16  H   LIG    1       31.773 -17.925   7.089  0.00  0.00    +0.295 HD
ENDBRANCH  13  15
ENDBRANCH   9  13
ENDBRANCH   1  11
BRANCH   3  17
ATOM     17  C   LIG    1       25.155 -20.379   4.531  0.00  0.00    +0.103 C 
ATOM     18  N   LIG    1       24.745 -20.043   3.502  0.00  0.00    -0.191 NA
ENDBRANCH   3  17
BRANCH   4  19
ATOM     19  O   LIG    1       23.490 -21.843   6.242  0.00  0.00    -0.490 OA
BRANCH  19  20
ATOM     20  C   LIG    1       23.117 -23.216   6.404  0.00  0.00    +0.232 C 
BRANCH  20  21
ATOM     21  C   LIG    1       24.315 -24.119   6.094  0.00  0.00    +0.020 C 
ATOM     22  C   LIG    1       24.685 -24.026   4.614  0.00  0.00    +0.010 C 
ATOM     23  C   LIG    1       24.009 -25.568   6.480  0.00  0.00    +0.010 C 
ENDBRANCH  20  21
ENDBRANCH  19  20
ENDBRANCH   4  19
TORSDOF 7
ENDMDL
MODEL 8
REMARK VINA RESULT:      -7.4      3.314      8.177
REMARK  Name = *****
REMARK                            x       y       z     vdW  Elec       q    Type
REMARK                         _______ _______ _______ _____ _____    ______ ____
ROOT
ATOM      1  C   LIG    1       29.603 -18.658   8.198  0.00  0.00    +0.009 A 
ATOM      2  C   LIG    1       28.616 -19.542   8.663  0.00  0.00    +0.033 A 
ATOM      3  C   LIG    1       27.809 -20.264   7.767  0.00  0.00    +0.094 A 
ATOM      4  C   LIG    1       27.975 -20.100   6.386  0.00  0.00    +0.138 A 
ATOM      5  C   LIG    1       28.985 -19.249   5.923  0.00  0.00    +0.048 A 
ATOM      6  C   LIG    1       29.795 -18.547   6.818  0.00  0.00    +0.014 A 
ENDROOT
BRANCH   1  11
ATOM      7  C   LIG    1       33.025 -15.384   9.526  0.00  0.00    +0.067 C 
ATOM      8  C   LIG    1       31.964 -16.393   9.792  0.00  0.00    +0.060 A 
ATOM      9  C   LIG    1       31.488 -16.807  11.025  0.00  0.00    +0.119 A 
ATOM     10  S   LIG    1       30.248 -17.967  10.806  0.00  0.00    -0.060 S 
ATOM     11  C   LIG    1       30.442 -17.863   9.103  0.00  0.00    +0.109 A 
ATOM     12  N   LIG    1       31.330 -16.976   8.704  0.00  0.00    -0.243 NA
BRANCH   9  13
ATOM     13  C   LIG    1       31.919 -16.414  12.345  0.00  0.00    +0.345 C 
ATOM     14  O   LIG    1       32.846 -16.911  12.969  0.00  0.00    -0.244 OA
BRANCH  13  15
ATOM     15  O   LIG    1       31.202 -15.370  12.837  0.00  0.00    -0.477 OA
ATOM     16  H   LIG    1       30.491 -15.661  13.441  0.00  0.00    +0.295 HD
ENDBRANCH  13  15
ENDBRANCH   9  13
ENDBRANCH   1  11
BRANCH   3  17
ATOM     17  C   LIG    1       26.835 -21.169   8.321  0.00  0.00    +0.103 C 
ATOM     18  N   LIG    1       26.038 -21.838   8.828  0.00  0.00    -0.191 NA
ENDBRANCH   3  17
BRANCH   4  19
ATOM     19  O   LIG    1       27.121 -20.787   5.561  0.00  0.00    -0.490 OA
BRANCH  19  20
ATOM     20  C   LIG    1       26.191 -20.006   4.803  0.00  0.00    +0.232 C 
BRANCH  20  21
ATOM     21  C   LIG    1       24.759 -20.351   5.223  0.00  0.00    +0.020 C 
ATOM     22  C   LIG    1       24.569 -21.867   5.276  0.00  0.00    +0.010 C 
ATOM     23  C   LIG    1       23.751 -19.717   4.263  0.00  0.00    +0.010 C 
ENDBRANCH  20  21
ENDBRANCH  19  20
ENDBRANCH   4  19
TORSDOF 7
ENDMDL
MODEL 9
REMARK VINA RESULT:      -7.3      1.648      2.370
REMARK  Name = *****
REMARK                            x       y       z     vdW  Elec       q    Type
REMARK                         _______ _______ _______ _____ _____    ______ ____
ROOT
ATOM      1  C   LIG    1       27.407 -21.193   6.930  0.00  0.00    +0.009 A 
ATOM      2  C   LIG    1       27.870 -20.113   6.162  0.00  0.00    +0.033 A 
ATOM      3  C   LIG    1       29.133 -19.544   6.400  0.00  0.00    +0.094 A 
ATOM      4  C   LIG    1       29.948 -20.047   7.422  0.00  0.00    +0.138 A 
ATOM      5  C   LIG    1       29.502 -21.148   8.161  0.00  0.00    +0.048 A 
ATOM      6  C   LIG    1       28.254 -21.720   7.909  0.00  0.00    +0.014 A 
ENDROOT
BRANCH   1  11
ATOM      7  C   LIG    1       22.626 -21.384   5.790  0.00  0.00    +0.067 C 
ATOM      8  C   LIG    1       23.921 -21.971   6.227  0.00  0.00    +0.060 A 
ATOM      9  C   LIG    1       24.183 -23.295   6.535  0.00  0.00    +0.119 A 
ATOM     10  S   LIG    1       25.832 -23.476   6.959  0.00  0.00    -0.060 S 
ATOM     11  C   LIG    1       26.082 -21.792   6.733  0.00  0.00    +0.109 A 
ATOM     12  N   LIG    1       25.024 -21.132   6.307  0.00  0.00    -0.243 NA
BRANCH   9  13
ATOM     13  C   LIG    1       23.278 -24.418   6.561  0.00  0.00    +0.345 C 
ATOM     14  O   LIG    1       23.594 -25.592   6.432  0.00  0.00    -0.244 OA
BRANCH  13  15
ATOM     15  O   LIG    1       21.992 -24.044   6.794  0.00  0.00    -0.477 OA
ATOM     16  H   LIG    1       21.900 -23.075   6.888  0.00  0.00    +0.295 HD
ENDBRANCH  13  15
ENDBRANCH   9  13
ENDBRANCH   1  11
BRANCH   3  17
ATOM     17  C   LIG    1       29.548 -18.453   5.554  0.00  0.00    +0.103 C 
ATOM     18  N   LIG    1       29.874 -17.630   4.809  0.00  0.00    -0.191 NA
ENDBRANCH   3  17
BRANCH   4  19
ATOM     19  O   LIG    1       31.145 -19.415   7.645  0.00  0.00    -0.490 OA
BRANCH  19  20
ATOM     20  C   LIG    1       31.438 -19.048   8.998  0.00  0.00    +0.232 C 
BRANCH  20  21
ATOM     21  C   LIG    1       30.987 -17.606   9.253  0.00  0.00    +0.020 C 
ATOM     22  C   LIG    1       32.187 -16.659   9.221  0.00  0.00    +0.010 C 
ATOM     23  C   LIG    1       30.257 -17.502  10.594  0.00  0.00    +0.010 C 
ENDBRANCH  20  21
ENDBRANCH  19  20
ENDBRANCH   4  19
TORSDOF 7
ENDMDL
