MODEL 1
REMARK VINA RESULT:     -10.1      0.000      0.000
REMARK  Name = *****
REMARK                            x       y       z     vdW  Elec       q    Type
REMARK                         _______ _______ _______ _____ _____    ______ ____
ROOT
ATOM      1  C   LIG    1       27.679 -20.888   7.454  0.00  0.00    +0.197 A 
ATOM      2  O   LIG    1       26.818 -20.112   6.756  0.00  0.00    -0.439 OA
ATOM      3  C   LIG    1       25.831 -20.973   6.320  0.00  0.00    +0.163 A 
ATOM      4  C   LIG    1       26.169 -22.243   6.779  0.00  0.00    +0.117 A 
ATOM      5  N   LIG    1       27.339 -22.159   7.515  0.00  0.00    -0.213 NA
ENDROOT
BRANCH   3   6
ATOM      6  C   LIG    1       24.805 -20.315   5.520  0.00  0.00    +0.019 A 
ATOM      7  C   LIG    1       25.098 -19.699   4.299  0.00  0.00    +0.012 A 
ATOM      8  C   LIG    1       24.097 -19.052   3.569  0.00  0.00    +0.001 A 
ATOM      9  C   LIG    1       22.793 -18.994   4.060  0.00  0.00    +0.000 A 
ATOM     10  C   LIG    1       22.484 -19.594   5.276  0.00  0.00    +0.001 A 
ATOM     11  C   LIG    1       23.482 -20.251   5.997  0.00  0.00    +0.012 A 
ENDBRANCH   3   6
BRANCH   4  12
ATOM     12  C   LIG    1       25.486 -23.526   6.608  0.00  0.00    +0.004 A 
ATOM     13  C   LIG    1       24.091 -23.631   6.656  0.00  0.00    +0.010 A 
ATOM     14  C   LIG    1       23.452 -24.865   6.483  0.00  0.00    +0.001 A 
ATOM     15  C   LIG    1       24.199 -26.024   6.283  0.00  0.00    +0.000 A 
ATOM     16  C   LIG    1       25.588 -25.952   6.277  0.00  0.00    +0.001 A 
ATOM     17  C   LIG    1       26.226 -24.714   6.446  0.00  0.00    +0.010 A 
ENDBRANCH   4  12
BRANCH   1  18
ATOM     18  C   LIG    1       28.894 -20.233   8.010  0.00  0.00    +0.107 C 
BRANCH  18  19
ATOM     19  C   LIG    1       30.135 -21.108   7.877  0.00  0.00    +0.130 C 
BRANCH  19  21
ATOM     20  O   LIG    1       31.884 -20.124   9.189  0.00  0.00    -0.251 OA
ATOM     21  C   LIG    1       31.086 -21.024   9.049  0.00  0.00    +0.305 C 
BRANCH  21  22
ATOM     22  O   LIG    1       30.962 -21.996   9.975  0.00  0.00    -0.481 OA
ATOM     23  H   LIG    1       31.038 -21.669  10.898  0.00  0.00    +0.295 HD
ENDBRANCH  21  22
ENDBRANCH  19  21
ENDBRANCH  18  19
ENDBRANCH   1  18
TORSDOF 6
ENDMDL
MODEL 2
REMARK VINA RESULT:     -10.0      2.583      6.042
REMARK  Name = *****
REMARK                            x       y       z     vdW  Elec       q    Type
REMARK                         _______ _______ _______ _____ _____    ______ ____
ROOT
ATOM      1  C   LIG    1       25.737 -23.458   6.776  0.00  0.00    +0.197 A 
ATOM      2  O   LIG    1       26.831 -22.694   7.000  0.00  0.00    -0.439 OA
ATOM      3  C   LIG    1       26.507 -21.449   6.502  0.00  0.00    +0.163 A 
ATOM      4  C   LIG    1       25.218 -21.540   5.985  0.00  0.00    +0.117 A 
ATOM      5  N   LIG    1       24.742 -22.824   6.189  0.00  0.00    -0.213 NA
ENDROOT
BRANCH   3   6
ATOM      6  C   LIG    1       27.586 -20.476   6.637  0.00  0.00    +0.019 A 
ATOM      7  C   LIG    1       28.065 -19.743   5.546  0.00  0.00    +0.012 A 
ATOM      8  C   LIG    1       29.119 -18.839   5.703  0.00  0.00    +0.001 A 
ATOM      9  C   LIG    1       29.724 -18.672   6.948  0.00  0.00    +0.000 A 
ATOM     10  C   LIG    1       29.269 -19.398   8.042  0.00  0.00    +0.001 A 
ATOM     11  C   LIG    1       28.207 -20.291   7.887  0.00  0.00    +0.012 A 
ENDBRANCH   3   6
BRANCH   4  12
ATOM     12  C   LIG    1       24.383 -20.530   5.335  0.00  0.00    +0.004 A 
ATOM     13  C   LIG    1       23.107 -20.210   5.811  0.00  0.00    +0.010 A 
ATOM     14  C   LIG    1       22.323 -19.235   5.182  0.00  0.00    +0.001 A 
ATOM     15  C   LIG    1       22.792 -18.577   4.047  0.00  0.00    +0.000 A 
ATOM     16  C   LIG    1       24.039 -18.909   3.529  0.00  0.00    +0.001 A 
ATOM     17  C   LIG    1       24.825 -19.884   4.163  0.00  0.00    +0.010 A 
ENDBRANCH   4  12
BRANCH   1  18
ATOM     18  C   LIG    1       25.811 -24.892   7.166  0.00  0.00    +0.107 C 
BRANCH  18  19
ATOM     19  C   LIG    1       25.850 -25.820   5.957  0.00  0.00    +0.130 C 
BRANCH  19  21
ATOM     20  O   LIG    1       24.410 -27.671   5.457  0.00  0.00    -0.251 OA
ATOM     21  C   LIG    1       24.528 -26.479   5.635  0.00  0.00    +0.305 C 
BRANCH  21  22
ATOM     22  O   LIG    1       23.457 -25.661   5.604  0.00  0.00    -0.481 OA
ATOM     23  H   LIG    1       23.595 -24.856   5.059  0.00  0.00    +0.295 HD
ENDBRANCH  21  22
ENDBRANCH  19  21
ENDBRANCH  18  19
ENDBRANCH   1  18
TORSDOF 6
ENDMDL
MODEL 3
REMARK VINA RESULT:      -9.9      1.311      4.531
REMARK  Name = *****
REMARK                            x       y       z     vdW  Elec       q    Type
REMARK                         _______ _______ _______ _____ _____    ______ ____
ROOT
ATOM      1  C   LIG    1       27.849 -21.112   7.308  0.00  0.00    +0.197 A 
ATOM      2  O   LIG    1       27.382 -22.382   7.301  0.00  0.00    -0.439 OA
ATOM      3  C   LIG    1       26.174 -22.316   6.637  0.00  0.00    +0.163 A 
ATOM      4  C   LIG    1       25.974 -20.984   6.287  0.00  0.00    +0.117 A 
ATOM      5  N   LIG    1       27.064 -20.240   6.707  0.00  0.00    -0.213 NA
ENDROOT
BRANCH   3   6
ATOM      6  C   LIG    1       25.497 -23.605   6.545  0.00  0.00    +0.019 A 
ATOM      7  C   LIG    1       26.199 -24.801   6.372  0.00  0.00    +0.012 A 
ATOM      8  C   LIG    1       25.519 -26.017   6.258  0.00  0.00    +0.001 A 
ATOM      9  C   LIG    1       24.125 -26.050   6.294  0.00  0.00    +0.000 A 
ATOM     10  C   LIG    1       23.409 -24.870   6.456  0.00  0.00    +0.001 A 
ATOM     11  C   LIG    1       24.090 -23.658   6.583  0.00  0.00    +0.012 A 
ENDBRANCH   3   6
BRANCH   4  12
ATOM     12  C   LIG    1       24.866 -20.346   5.577  0.00  0.00    +0.004 A 
ATOM     13  C   LIG    1       23.571 -20.315   6.106  0.00  0.00    +0.010 A 
ATOM     14  C   LIG    1       22.522 -19.693   5.417  0.00  0.00    +0.001 A 
ATOM     15  C   LIG    1       22.744 -19.110   4.171  0.00  0.00    +0.000 A 
ATOM     16  C   LIG    1       24.012 -19.167   3.605  0.00  0.00    +0.001 A 
ATOM     17  C   LIG    1       25.063 -19.787   4.297  0.00  0.00    +0.010 A 
ENDBRANCH   4  12
BRANCH   1  18
ATOM     18  C   LIG    1       29.134 -20.859   8.014  0.00  0.00    +0.107 C 
BRANCH  18  19
ATOM     19  C   LIG    1       29.546 -19.392   7.959  0.00  0.00    +0.130 C 
BRANCH  19  21
ATOM     20  O   LIG    1       30.241 -18.400   5.890  0.00  0.00    -0.251 OA
ATOM     21  C   LIG    1       30.531 -19.062   6.861  0.00  0.00    +0.305 C 
BRANCH  21  22
ATOM     22  O   LIG    1       31.789 -19.511   7.048  0.00  0.00    -0.481 OA
ATOM     23  H   LIG    1       32.049 -19.563   7.993  0.00  0.00    +0.295 HD
ENDBRANCH  21  22
ENDBRANCH  19  21
ENDBRANCH  18  19
ENDBRANCH   1  18
TORSDOF 6
ENDMDL
MODEL 4
REMARK VINA RESULT:      -9.8      2.585      5.559
REMARK  Name = *****
REMARK                            x       y       z     vdW  Elec       q    Type
REMARK                         _______ _______ _______ _____ _____    ______ ____
ROOT
ATOM      1  C   LIG    1       25.884 -23.397   6.925  0.00  0.00    +0.197 A 
ATOM      2  O   LIG    1       24.923 -22.683   6.294  0.00  0.00    -0.439 OA
ATOM      3  C   LIG    1       25.476 -21.434   6.097  0.00  0.00    +0.163 A 
ATOM      4  C   LIG    1       26.756 -21.465   6.643  0.00  0.00    +0.117 A 
ATOM      5  N   LIG    1       26.999 -22.731   7.147  0.00  0.00    -0.213 NA
ENDROOT
BRANCH   3   6
ATOM      6  C   LIG    1       24.571 -20.501   5.436  0.00  0.00    +0.019 A 
ATOM      7  C   LIG    1       23.274 -20.267   5.904  0.00  0.00    +0.012 A 
ATOM      8  C   LIG    1       22.421 -19.388   5.232  0.00  0.00    +0.001 A 
ATOM      9  C   LIG    1       22.845 -18.747   4.068  0.00  0.00    +0.000 A 
ATOM     10  C   LIG    1       24.127 -18.973   3.582  0.00  0.00    +0.001 A 
ATOM     11  C   LIG    1       24.983 -19.840   4.262  0.00  0.00    +0.012 A 
ENDBRANCH   3   6
BRANCH   4  12
ATOM     12  C   LIG    1       27.780 -20.423   6.720  0.00  0.00    +0.004 A 
ATOM     13  C   LIG    1       28.196 -19.713   5.588  0.00  0.00    +0.010 A 
ATOM     14  C   LIG    1       29.172 -18.713   5.679  0.00  0.00    +0.001 A 
ATOM     15  C   LIG    1       29.770 -18.420   6.903  0.00  0.00    +0.000 A 
ATOM     16  C   LIG    1       29.405 -19.143   8.034  0.00  0.00    +0.001 A 
ATOM     17  C   LIG    1       28.424 -20.142   7.942  0.00  0.00    +0.010 A 
ENDBRANCH   4  12
BRANCH   1  18
ATOM     18  C   LIG    1       25.550 -24.791   7.322  0.00  0.00    +0.107 C 
BRANCH  18  19
ATOM     19  C   LIG    1       24.631 -25.476   6.317  0.00  0.00    +0.130 C 
BRANCH  19  21
ATOM     20  O   LIG    1       25.959 -26.448   4.573  0.00  0.00    -0.251 OA
ATOM     21  C   LIG    1       25.198 -25.571   4.918  0.00  0.00    +0.305 C 
BRANCH  21  22
ATOM     22  O   LIG    1       24.766 -24.639   4.045  0.00  0.00    -0.481 OA
ATOM     23  H   LIG    1       24.912 -24.885   3.106  0.00  0.00    +0.295 HD
ENDBRANCH  21  22
ENDBRANCH  19  21
ENDBRANCH  18  19
ENDBRANCH   1  18
TORSDOF 6
ENDMDL
MODEL 5
REMARK VINA RESULT:      -9.7      0.746      4.471
REMARK  Name = *****
REMARK                            x       y       z     vdW  Elec       q    Type
REMARK                         _______ _______ _______ _____ _____    ______ ____
ROOT
ATOM      1  C   LIG    1       27.651 -20.930   7.555  0.00  0.00    +0.197 A 
ATOM      2  O   LIG    1       27.241 -22.219   7.507  0.00  0.00    -0.439 OA
ATOM      3  C   LIG    1       26.105 -22.205   6.725  0.00  0.00    +0.163 A 
ATOM      4  C   LIG    1       25.884 -20.883   6.350  0.00  0.00    +0.117 A 
ATOM      5  N   LIG    1       26.894 -20.093   6.875  0.00  0.00    -0.213 NA
ENDROOT
BRANCH   3   6
ATOM      6  C   LIG    1       25.496 -23.522   6.570  0.00  0.00    +0.019 A 
ATOM      7  C   LIG    1       24.109 -23.702   6.562  0.00  0.00    +0.012 A 
ATOM      8  C   LIG    1       23.558 -24.980   6.441  0.00  0.00    +0.001 A 
ATOM      9  C   LIG    1       24.385 -26.099   6.348  0.00  0.00    +0.000 A 
ATOM     10  C   LIG    1       25.766 -25.941   6.362  0.00  0.00    +0.001 A 
ATOM     11  C   LIG    1       26.316 -24.663   6.470  0.00  0.00    +0.012 A 
ENDBRANCH   3   6
BRANCH   4  12
ATOM     12  C   LIG    1       24.827 -20.293   5.529  0.00  0.00    +0.004 A 
ATOM     13  C   LIG    1       25.099 -19.687   4.298  0.00  0.00    +0.010 A 
ATOM     14  C   LIG    1       24.075 -19.134   3.521  0.00  0.00    +0.001 A 
ATOM     15  C   LIG    1       22.757 -19.154   3.972  0.00  0.00    +0.000 A 
ATOM     16  C   LIG    1       22.467 -19.712   5.213  0.00  0.00    +0.001 A 
ATOM     17  C   LIG    1       23.494 -20.269   5.989  0.00  0.00    +0.010 A 
ENDBRANCH   4  12
BRANCH   1  18
ATOM     18  C   LIG    1       28.846 -20.622   8.386  0.00  0.00    +0.107 C 
BRANCH  18  19
ATOM     19  C   LIG    1       30.037 -21.508   8.039  0.00  0.00    +0.130 C 
BRANCH  19  21
ATOM     20  O   LIG    1       32.113 -21.007   9.130  0.00  0.00    -0.251 OA
ATOM     21  C   LIG    1       31.070 -21.622   9.138  0.00  0.00    +0.305 C 
BRANCH  21  22
ATOM     22  O   LIG    1       30.740 -22.423  10.171  0.00  0.00    -0.481 OA
ATOM     23  H   LIG    1       31.008 -22.064  11.045  0.00  0.00    +0.295 HD
ENDBRANCH  21  22
ENDBRANCH  19  21
ENDBRANCH  18  19
ENDBRANCH   1  18
TORSDOF 6
ENDMDL
MODEL 6
REMARK VINA RESULT:      -9.6      1.163      1.816
REMARK  Name = *****
REMARK                            x       y       z     vdW  Elec       q    Type
REMARK                         _______ _______ _______ _____ _____    ______ ____
ROOT
ATOM      1  C   LIG    1       27.726 -21.113   7.551  0.00  0.00    +0.197 A 
ATOM      2  O   LIG    1       26.895 -20.308   6.850  0.00  0.00    -0.439 OA
ATOM      3  C   LIG    1       25.903 -21.142   6.376  0.00  0.00    +0.163 A 
ATOM      4  C   LIG    1       26.207 -22.427   6.816  0.00  0.00    +0.117 A 
ATOM      5  N   LIG    1       27.362 -22.380   7.578  0.00  0.00    -0.213 NA
ENDROOT
BRANCH   3   6
ATOM      6  C   LIG    1       24.906 -20.450   5.567  0.00  0.00    +0.019 A 
ATOM      7  C   LIG    1       25.227 -19.855   4.343  0.00  0.00    +0.012 A 
ATOM      8  C   LIG    1       24.255 -19.174   3.605  0.00  0.00    +0.001 A 
ATOM      9  C   LIG    1       22.953 -19.060   4.091  0.00  0.00    +0.000 A 
ATOM     10  C   LIG    1       22.616 -19.639   5.310  0.00  0.00    +0.001 A 
ATOM     11  C   LIG    1       23.585 -20.330   6.039  0.00  0.00    +0.012 A 
ENDBRANCH   3   6
BRANCH   4  12
ATOM     12  C   LIG    1       25.505 -23.694   6.605  0.00  0.00    +0.004 A 
ATOM     13  C   LIG    1       26.190 -24.877   6.309  0.00  0.00    +0.010 A 
ATOM     14  C   LIG    1       25.504 -26.082   6.117  0.00  0.00    +0.001 A 
ATOM     15  C   LIG    1       24.114 -26.123   6.193  0.00  0.00    +0.000 A 
ATOM     16  C   LIG    1       23.408 -24.951   6.442  0.00  0.00    +0.001 A 
ATOM     17  C   LIG    1       24.097 -23.744   6.637  0.00  0.00    +0.010 A 
ENDBRANCH   4  12
BRANCH   1  18
ATOM     18  C   LIG    1       28.940 -20.492   8.145  0.00  0.00    +0.107 C 
BRANCH  18  19
ATOM     19  C   LIG    1       29.215 -19.103   7.581  0.00  0.00    +0.130 C 
BRANCH  19  21
ATOM     20  O   LIG    1       30.301 -18.404   5.560  0.00  0.00    -0.251 OA
ATOM     21  C   LIG    1       30.351 -19.049   6.584  0.00  0.00    +0.305 C 
BRANCH  21  22
ATOM     22  O   LIG    1       31.463 -19.731   6.924  0.00  0.00    -0.481 OA
ATOM     23  H   LIG    1       31.447 -20.671   6.643  0.00  0.00    +0.295 HD
ENDBRANCH  21  22
ENDBRANCH  19  21
ENDBRANCH  18  19
ENDBRANCH   1  18
TORSDOF 6
ENDMDL
MODEL 7
REMARK VINA RESULT:      -9.6      2.613      5.601
REMARK  Name = *****
REMARK                            x       y       z     vdW  Elec       q    Type
REMARK                         _______ _______ _______ _____ _____    ______ ____
ROOT
ATOM      1  C   LIG    1       25.833 -23.441   6.830  0.00  0.00    +0.197 A 
ATOM      2  O   LIG    1       24.904 -22.716   6.164  0.00  0.00    -0.439 OA
ATOM      3  C   LIG    1       25.472 -21.469   6.001  0.00  0.00    +0.163 A 
ATOM      4  C   LIG    1       26.728 -21.512   6.600  0.00  0.00    +0.117 A 
ATOM      5  N   LIG    1       26.942 -22.784   7.104  0.00  0.00    -0.213 NA
ENDROOT
BRANCH   3   6
ATOM      6  C   LIG    1       24.601 -20.526   5.310  0.00  0.00    +0.019 A 
ATOM      7  C   LIG    1       25.036 -19.784   4.207  0.00  0.00    +0.012 A 
ATOM      8  C   LIG    1       24.185 -18.867   3.584  0.00  0.00    +0.001 A 
ATOM      9  C   LIG    1       22.893 -18.663   4.069  0.00  0.00    +0.000 A 
ATOM     10  C   LIG    1       22.445 -19.385   5.169  0.00  0.00    +0.001 A 
ATOM     11  C   LIG    1       23.291 -20.311   5.782  0.00  0.00    +0.012 A 
ENDBRANCH   3   6
BRANCH   4  12
ATOM     12  C   LIG    1       27.754 -20.477   6.727  0.00  0.00    +0.004 A 
ATOM     13  C   LIG    1       28.322 -20.149   7.963  0.00  0.00    +0.010 A 
ATOM     14  C   LIG    1       29.308 -19.161   8.067  0.00  0.00    +0.001 A 
ATOM     15  C   LIG    1       29.730 -18.464   6.937  0.00  0.00    +0.000 A 
ATOM     16  C   LIG    1       29.149 -18.741   5.705  0.00  0.00    +0.001 A 
ATOM     17  C   LIG    1       28.163 -19.734   5.601  0.00  0.00    +0.010 A 
ENDBRANCH   4  12
BRANCH   1  18
ATOM     18  C   LIG    1       25.475 -24.837   7.202  0.00  0.00    +0.107 C 
BRANCH  18  19
ATOM     19  C   LIG    1       24.337 -25.389   6.351  0.00  0.00    +0.130 C 
BRANCH  19  21
ATOM     20  O   LIG    1       25.709 -26.314   4.616  0.00  0.00    -0.251 OA
ATOM     21  C   LIG    1       24.759 -26.445   5.355  0.00  0.00    +0.305 C 
BRANCH  21  22
ATOM     22  O   LIG    1       24.038 -27.585   5.368  0.00  0.00    -0.481 OA
ATOM     23  H   LIG    1       23.495 -27.695   6.179  0.00  0.00    +0.295 HD
ENDBRANCH  21  22
ENDBRANCH  19  21
ENDBRANCH  18  19
ENDBRANCH   1  18
TORSDOF 6
ENDMDL
MODEL 8
REMARK VINA RESULT:      -8.7      2.697      5.446
REMARK  Name = *****
REMARK                            x       y       z     vdW  Elec       q    Type
REMARK                         _______ _______ _______ _____ _____    ______ ____
ROOT
ATOM      1  C   LIG    1       23.668 -20.720   5.810  0.00  0.00    +0.197 A 
ATOM      2  O   LIG    1       24.892 -20.244   6.139  0.00  0.00    -0.439 OA
ATOM      3  C   LIG    1       25.697 -21.361   6.236  0.00  0.00    +0.163 A 
ATOM      4  C   LIG    1       24.894 -22.466   5.968  0.00  0.00    +0.117 A 
ATOM      5  N   LIG    1       23.611 -22.030   5.680  0.00  0.00    -0.213 NA
ENDROOT
BRANCH   3   6
ATOM      6  C   LIG    1       27.072 -21.049   6.608  0.00  0.00    +0.019 A 
ATOM      7  C   LIG    1       27.712 -21.678   7.681  0.00  0.00    +0.012 A 
ATOM      8  C   LIG    1       29.021 -21.336   8.030  0.00  0.00    +0.001 A 
ATOM      9  C   LIG    1       29.702 -20.345   7.325  0.00  0.00    +0.000 A 
ATOM     10  C   LIG    1       29.080 -19.702   6.261  0.00  0.00    +0.001 A 
ATOM     11  C   LIG    1       27.777 -20.053   5.904  0.00  0.00    +0.012 A 
ENDBRANCH   3   6
BRANCH   4  12
ATOM     12  C   LIG    1       25.221 -23.892   5.936  0.00  0.00    +0.004 A 
ATOM     13  C   LIG    1       25.000 -24.675   4.798  0.00  0.00    +0.010 A 
ATOM     14  C   LIG    1       25.326 -26.036   4.781  0.00  0.00    +0.001 A 
ATOM     15  C   LIG    1       25.858 -26.648   5.914  0.00  0.00    +0.000 A 
ATOM     16  C   LIG    1       26.046 -25.900   7.072  0.00  0.00    +0.001 A 
ATOM     17  C   LIG    1       25.722 -24.535   7.086  0.00  0.00    +0.010 A 
ENDBRANCH   4  12
BRANCH   1  18
ATOM     18  C   LIG    1       22.561 -19.734   5.686  0.00  0.00    +0.107 C 
BRANCH  18  19
ATOM     19  C   LIG    1       22.586 -18.999   4.351  0.00  0.00    +0.130 C 
BRANCH  19  21
ATOM     20  O   LIG    1       24.684 -18.221   3.489  0.00  0.00    -0.251 OA
ATOM     21  C   LIG    1       23.888 -19.127   3.593  0.00  0.00    +0.305 C 
BRANCH  21  22
ATOM     22  O   LIG    1       24.145 -20.343   3.070  0.00  0.00    -0.481 OA
ATOM     23  H   LIG    1       23.880 -21.085   3.656  0.00  0.00    +0.295 HD
ENDBRANCH  21  22
ENDBRANCH  19  21
ENDBRANCH  18  19
ENDBRANCH   1  18
TORSDOF 6
ENDMDL
MODEL 9
REMARK VINA RESULT:      -8.4      3.061      6.413
REMARK  Name = *****
REMARK                            x       y       z     vdW  Elec       q    Type
REMARK                         _______ _______ _______ _____ _____    ______ ____
ROOT
ATOM      1  C   LIG    1       23.648 -20.811   5.795  0.00  0.00    +0.197 A 
ATOM      2  O   LIG    1       23.699 -22.161   5.703  0.00  0.00    -0.439 OA
ATOM      3  C   LIG    1       24.992 -22.495   6.050  0.00  0.00    +0.163 A 
ATOM      4  C   LIG    1       25.661 -21.306   6.323  0.00  0.00    +0.117 A 
ATOM      5  N   LIG    1       24.779 -20.249   6.172  0.00  0.00    -0.213 NA
ENDROOT
BRANCH   3   6
ATOM      6  C   LIG    1       25.251 -23.930   5.992  0.00  0.00    +0.019 A 
ATOM      7  C   LIG    1       25.765 -24.636   7.084  0.00  0.00    +0.012 A 
ATOM      8  C   LIG    1       26.029 -26.005   6.986  0.00  0.00    +0.001 A 
ATOM      9  C   LIG    1       25.803 -26.682   5.789  0.00  0.00    +0.000 A 
ATOM     10  C   LIG    1       25.300 -25.996   4.690  0.00  0.00    +0.001 A 
ATOM     11  C   LIG    1       25.024 -24.632   4.792  0.00  0.00    +0.012 A 
ENDBRANCH   3   6
BRANCH   4  12
ATOM     12  C   LIG    1       27.046 -21.068   6.731  0.00  0.00    +0.004 A 
ATOM     13  C   LIG    1       27.596 -21.678   7.864  0.00  0.00    +0.010 A 
ATOM     14  C   LIG    1       28.926 -21.446   8.237  0.00  0.00    +0.001 A 
ATOM     15  C   LIG    1       29.725 -20.579   7.496  0.00  0.00    +0.000 A 
ATOM     16  C   LIG    1       29.188 -19.926   6.392  0.00  0.00    +0.001 A 
ATOM     17  C   LIG    1       27.856 -20.162   6.017  0.00  0.00    +0.010 A 
ENDBRANCH   4  12
BRANCH   1  18
ATOM     18  C   LIG    1       22.371 -20.147   5.421  0.00  0.00    +0.107 C 
BRANCH  18  19
ATOM     19  C   LIG    1       22.578 -19.011   4.425  0.00  0.00    +0.130 C 
BRANCH  19  21
ATOM     20  O   LIG    1       24.624 -18.218   3.459  0.00  0.00    -0.251 OA
ATOM     21  C   LIG    1       23.839 -19.129   3.599  0.00  0.00    +0.305 C 
BRANCH  21  22
ATOM     22  O   LIG    1       24.074 -20.341   3.057  0.00  0.00    -0.481 OA
ATOM     23  H   LIG    1       23.316 -20.693   2.542  0.00  0.00    +0.295 HD
ENDBRANCH  21  22
ENDBRANCH  19  21
ENDBRANCH  18  19
ENDBRANCH   1  18
TORSDOF 6
ENDMDL
