MODEL 1
REMARK VINA RESULT:      -3.7      0.000      0.000
REMARK  Name = *****
REMARK                            x       y       z     vdW  Elec       q    Type
REMARK                         _______ _______ _______ _____ _____    ______ ____
ROOT
ATOM      1  C   LIG    1       24.580 -13.048   1.812  0.00  0.00    +0.276 C 
ATOM      2  N   LIG    1       25.468 -13.686   2.781  0.00  0.00    -0.224 N 
ATOM      3  C   LIG    1       25.034 -14.037   4.059  0.00  0.00    +0.307 C 
ATOM      4  N   LIG    1       25.801 -14.047   5.109  0.00  0.00    -0.083 NA
ATOM      5  C   LIG    1       27.201 -13.665   4.966  0.00  0.00    +0.294 C 
ATOM      6  C   LIG    1       27.740 -14.045   3.606  0.00  0.00    +0.093 C 
ATOM      7  C   LIG    1       26.878 -13.365   2.567  0.00  0.00    +0.229 C 
ENDROOT
BRANCH   3   8
ATOM      8  C   LIG    1       23.622 -14.433   4.401  0.00  0.00    +0.100 C 
ATOM      9  C   LIG    1       23.000 -15.617   4.405  0.00  0.00    +0.023 C 
BRANCH   9  10
ATOM     10  C   LIG    1       23.590 -16.878   4.111  0.00  0.00    +0.012 A 
ATOM     11  S   LIG    1       22.667 -18.319   4.345  0.00  0.00    -0.097 S 
ATOM     12  C   LIG    1       23.914 -19.312   3.733  0.00  0.00    +0.045 A 
ATOM     13  C   LIG    1       25.029 -18.585   3.390  0.00  0.00    +0.008 A 
ATOM     14  C   LIG    1       24.854 -17.195   3.642  0.00  0.00    +0.015 A 
ENDBRANCH   9  10
ENDBRANCH   3   8
TORSDOF 2
ENDMDL
MODEL 2
REMARK VINA RESULT:      -3.5      2.954      5.899
REMARK  Name = *****
REMARK                            x       y       z     vdW  Elec       q    Type
REMARK                         _______ _______ _______ _____ _____    ______ ____
ROOT
ATOM      1  C   LIG    1       25.994 -20.252   5.779  0.00  0.00    +0.276 C 
ATOM      2  N   LIG    1       24.751 -20.074   5.033  0.00  0.00    -0.224 N 
ATOM      3  C   LIG    1       24.587 -19.039   4.112  0.00  0.00    +0.307 C 
ATOM      4  N   LIG    1       23.448 -18.464   3.862  0.00  0.00    -0.083 NA
ATOM      5  C   LIG    1       22.259 -18.906   4.582  0.00  0.00    +0.294 C 
ATOM      6  C   LIG    1       22.330 -20.379   4.912  0.00  0.00    +0.093 C 
ATOM      7  C   LIG    1       23.581 -20.604   5.730  0.00  0.00    +0.229 C 
ENDROOT
BRANCH   3   8
ATOM      8  C   LIG    1       25.701 -18.439   3.296  0.00  0.00    +0.100 C 
ATOM      9  C   LIG    1       26.048 -17.172   3.051  0.00  0.00    +0.023 C 
BRANCH   9  10
ATOM     10  C   LIG    1       25.425 -16.009   3.586  0.00  0.00    +0.012 A 
ATOM     11  S   LIG    1       26.363 -14.579   3.824  0.00  0.00    -0.097 S 
ATOM     12  C   LIG    1       25.009 -13.682   4.349  0.00  0.00    +0.045 A 
ATOM     13  C   LIG    1       23.868 -14.447   4.387  0.00  0.00    +0.008 A 
ATOM     14  C   LIG    1       24.117 -15.791   3.984  0.00  0.00    +0.015 A 
ENDBRANCH   9  10
ENDBRANCH   3   8
TORSDOF 2
ENDMDL
MODEL 3
REMARK VINA RESULT:      -3.4      1.434      2.943
REMARK  Name = *****
REMARK                            x       y       z     vdW  Elec       q    Type
REMARK                         _______ _______ _______ _____ _____    ______ ____
ROOT
ATOM      1  C   LIG    1       26.673 -13.718   5.609  0.00  0.00    +0.276 C 
ATOM      2  N   LIG    1       25.763 -13.842   4.472  0.00  0.00    -0.224 N 
ATOM      3  C   LIG    1       26.102 -14.576   3.335  0.00  0.00    +0.307 C 
ATOM      4  N   LIG    1       25.686 -14.290   2.136  0.00  0.00    -0.083 NA
ATOM      5  C   LIG    1       24.817 -13.133   1.946  0.00  0.00    +0.294 C 
ATOM      6  C   LIG    1       23.935 -12.901   3.151  0.00  0.00    +0.093 C 
ATOM      7  C   LIG    1       24.839 -12.717   4.349  0.00  0.00    +0.229 C 
ENDROOT
BRANCH   3   8
ATOM      8  C   LIG    1       27.003 -15.782   3.335  0.00  0.00    +0.100 C 
ATOM      9  C   LIG    1       26.752 -17.087   3.472  0.00  0.00    +0.023 C 
BRANCH   9  10
ATOM     10  C   LIG    1       25.470 -17.688   3.611  0.00  0.00    +0.012 A 
ATOM     11  S   LIG    1       25.337 -19.410   3.621  0.00  0.00    -0.097 S 
ATOM     12  C   LIG    1       23.654 -19.358   3.902  0.00  0.00    +0.045 A 
ATOM     13  C   LIG    1       23.180 -18.069   3.952  0.00  0.00    +0.008 A 
ATOM     14  C   LIG    1       24.217 -17.115   3.748  0.00  0.00    +0.015 A 
ENDBRANCH   9  10
ENDBRANCH   3   8
TORSDOF 2
ENDMDL
MODEL 4
REMARK VINA RESULT:      -3.3      4.540      5.925
REMARK  Name = *****
REMARK                            x       y       z     vdW  Elec       q    Type
REMARK                         _______ _______ _______ _____ _____    ______ ____
ROOT
ATOM      1  C   LIG    1       28.884 -18.232   5.441  0.00  0.00    +0.276 C 
ATOM      2  N   LIG    1       28.288 -19.548   5.659  0.00  0.00    -0.224 N 
ATOM      3  C   LIG    1       27.042 -19.889   5.131  0.00  0.00    +0.307 C 
ATOM      4  N   LIG    1       26.215 -20.716   5.699  0.00  0.00    -0.083 NA
ATOM      5  C   LIG    1       26.589 -21.331   6.969  0.00  0.00    +0.294 C 
ATOM      6  C   LIG    1       28.083 -21.539   7.062  0.00  0.00    +0.093 C 
ATOM      7  C   LIG    1       28.743 -20.190   6.891  0.00  0.00    +0.229 C 
ENDROOT
BRANCH   3   8
ATOM      8  C   LIG    1       26.480 -19.337   3.849  0.00  0.00    +0.100 C 
ATOM      9  C   LIG    1       25.228 -19.242   3.388  0.00  0.00    +0.023 C 
BRANCH   9  10
ATOM     10  C   LIG    1       24.045 -19.625   4.079  0.00  0.00    +0.012 A 
ATOM     11  S   LIG    1       23.768 -21.294   4.424  0.00  0.00    -0.097 S 
ATOM     12  C   LIG    1       22.330 -20.961   5.282  0.00  0.00    +0.045 A 
ATOM     13  C   LIG    1       22.031 -19.619   5.283  0.00  0.00    +0.008 A 
ATOM     14  C   LIG    1       22.996 -18.860   4.561  0.00  0.00    +0.015 A 
ENDBRANCH   9  10
ENDBRANCH   3   8
TORSDOF 2
ENDMDL
MODEL 5
REMARK VINA RESULT:      -3.1      4.803      6.478
REMARK  Name = *****
REMARK                            x       y       z     vdW  Elec       q    Type
REMARK                         _______ _______ _______ _____ _____    ______ ____
ROOT
ATOM      1  C   LIG    1       24.719 -21.465   3.189  0.00  0.00    +0.276 C 
ATOM      2  N   LIG    1       24.236 -20.342   3.990  0.00  0.00    -0.224 N 
ATOM      3  C   LIG    1       23.945 -20.477   5.347  0.00  0.00    +0.307 C 
ATOM      4  N   LIG    1       23.028 -19.793   5.965  0.00  0.00    -0.083 NA
ATOM      5  C   LIG    1       22.239 -18.825   5.210  0.00  0.00    +0.294 C 
ATOM      6  C   LIG    1       23.045 -18.211   4.088  0.00  0.00    +0.093 C 
ATOM      7  C   LIG    1       23.525 -19.337   3.202  0.00  0.00    +0.229 C 
ENDROOT
BRANCH   3   8
ATOM      8  C   LIG    1       24.637 -21.439   6.276  0.00  0.00    +0.100 C 
ATOM      9  C   LIG    1       25.911 -21.546   6.668  0.00  0.00    +0.023 C 
BRANCH   9  10
ATOM     10  C   LIG    1       26.978 -20.678   6.307  0.00  0.00    +0.012 A 
ATOM     11  S   LIG    1       28.520 -20.871   7.062  0.00  0.00    -0.097 S 
ATOM     12  C   LIG    1       29.228 -19.640   6.113  0.00  0.00    +0.045 A 
ATOM     13  C   LIG    1       28.318 -19.058   5.264  0.00  0.00    +0.008 A 
ATOM     14  C   LIG    1       27.021 -19.629   5.404  0.00  0.00    +0.015 A 
ENDBRANCH   9  10
ENDBRANCH   3   8
TORSDOF 2
ENDMDL
MODEL 6
REMARK VINA RESULT:      -3.1      2.421      4.887
REMARK  Name = *****
REMARK                            x       y       z     vdW  Elec       q    Type
REMARK                         _______ _______ _______ _____ _____    ______ ____
ROOT
ATOM      1  C   LIG    1       21.669 -18.298   4.073  0.00  0.00    +0.276 C 
ATOM      2  N   LIG    1       23.122 -18.234   4.208  0.00  0.00    -0.224 N 
ATOM      3  C   LIG    1       23.827 -17.045   4.023  0.00  0.00    +0.307 C 
ATOM      4  N   LIG    1       25.041 -16.985   3.560  0.00  0.00    -0.083 NA
ATOM      5  C   LIG    1       25.722 -18.224   3.200  0.00  0.00    +0.294 C 
ATOM      6  C   LIG    1       25.280 -19.372   4.079  0.00  0.00    +0.093 C 
ATOM      7  C   LIG    1       23.782 -19.508   3.932  0.00  0.00    +0.229 C 
ENDROOT
BRANCH   3   8
ATOM      8  C   LIG    1       23.279 -15.673   4.315  0.00  0.00    +0.100 C 
ATOM      9  C   LIG    1       23.833 -14.458   4.264  0.00  0.00    +0.023 C 
BRANCH   9  10
ATOM     10  C   LIG    1       25.157 -14.153   3.840  0.00  0.00    +0.012 A 
ATOM     11  S   LIG    1       26.362 -13.790   5.022  0.00  0.00    -0.097 S 
ATOM     12  C   LIG    1       27.590 -13.650   3.844  0.00  0.00    +0.045 A 
ATOM     13  C   LIG    1       27.104 -13.833   2.571  0.00  0.00    +0.008 A 
ATOM     14  C   LIG    1       25.703 -14.085   2.569  0.00  0.00    +0.015 A 
ENDBRANCH   9  10
ENDBRANCH   3   8
TORSDOF 2
ENDMDL
MODEL 7
REMARK VINA RESULT:      -2.9      1.550      2.911
REMARK  Name = *****
REMARK                            x       y       z     vdW  Elec       q    Type
REMARK                         _______ _______ _______ _____ _____    ______ ____
ROOT
ATOM      1  C   LIG    1       27.009 -14.241   2.518  0.00  0.00    +0.276 C 
ATOM      2  N   LIG    1       25.972 -14.558   3.498  0.00  0.00    -0.224 N 
ATOM      3  C   LIG    1       25.381 -15.819   3.562  0.00  0.00    +0.307 C 
ATOM      4  N   LIG    1       24.153 -16.027   3.936  0.00  0.00    -0.083 NA
ATOM      5  C   LIG    1       23.324 -14.886   4.308  0.00  0.00    +0.294 C 
ATOM      6  C   LIG    1       24.149 -13.783   4.929  0.00  0.00    +0.093 C 
ATOM      7  C   LIG    1       25.209 -13.387   3.927  0.00  0.00    +0.229 C 
ENDROOT
BRANCH   3   8
ATOM      8  C   LIG    1       26.073 -17.105   3.195  0.00  0.00    +0.100 C 
ATOM      9  C   LIG    1       25.737 -18.386   3.377  0.00  0.00    +0.023 C 
BRANCH   9  10
ATOM     10  C   LIG    1       24.532 -18.866   3.962  0.00  0.00    +0.012 A 
ATOM     11  S   LIG    1       24.610 -20.072   5.195  0.00  0.00    -0.097 S 
ATOM     12  C   LIG    1       22.919 -20.048   5.437  0.00  0.00    +0.045 A 
ATOM     13  C   LIG    1       22.290 -19.176   4.581  0.00  0.00    +0.008 A 
ATOM     14  C   LIG    1       23.212 -18.528   3.712  0.00  0.00    +0.015 A 
ENDBRANCH   9  10
ENDBRANCH   3   8
TORSDOF 2
ENDMDL
MODEL 8
REMARK VINA RESULT:      -2.9      4.132      6.210
REMARK  Name = *****
REMARK                            x       y       z     vdW  Elec       q    Type
REMARK                         _______ _______ _______ _____ _____    ______ ____
ROOT
ATOM      1  C   LIG    1       22.761 -17.565   4.113  0.00  0.00    +0.276 C 
ATOM      2  N   LIG    1       23.336 -18.858   4.475  0.00  0.00    -0.224 N 
ATOM      3  C   LIG    1       24.541 -19.305   3.934  0.00  0.00    +0.307 C 
ATOM      4  N   LIG    1       24.822 -20.558   3.725  0.00  0.00    -0.083 NA
ATOM      5  C   LIG    1       23.829 -21.572   4.063  0.00  0.00    +0.294 C 
ATOM      6  C   LIG    1       22.992 -21.150   5.249  0.00  0.00    +0.093 C 
ATOM      7  C   LIG    1       22.335 -19.835   4.899  0.00  0.00    +0.229 C 
ENDROOT
BRANCH   3   8
ATOM      8  C   LIG    1       25.669 -18.406   3.503  0.00  0.00    +0.100 C 
ATOM      9  C   LIG    1       26.919 -18.259   3.954  0.00  0.00    +0.023 C 
BRANCH   9  10
ATOM     10  C   LIG    1       27.533 -19.012   4.993  0.00  0.00    +0.012 A 
ATOM     11  S   LIG    1       29.135 -18.609   5.499  0.00  0.00    -0.097 S 
ATOM     12  C   LIG    1       29.127 -19.789   6.734  0.00  0.00    +0.045 A 
ATOM     13  C   LIG    1       27.957 -20.509   6.751  0.00  0.00    +0.008 A 
ATOM     14  C   LIG    1       27.060 -20.087   5.728  0.00  0.00    +0.015 A 
ENDBRANCH   9  10
ENDBRANCH   3   8
TORSDOF 2
ENDMDL
MODEL 9
REMARK VINA RESULT:      -2.8      2.586      3.641
REMARK  Name = *****
REMARK                            x       y       z     vdW  Elec       q    Type
REMARK                         _______ _______ _______ _____ _____    ______ ____
ROOT
ATOM      1  C   LIG    1       23.138 -16.156   4.433  0.00  0.00    +0.276 C 
ATOM      2  N   LIG    1       24.413 -16.052   3.727  0.00  0.00    -0.224 N 
ATOM      3  C   LIG    1       25.179 -17.177   3.421  0.00  0.00    +0.307 C 
ATOM      4  N   LIG    1       26.477 -17.174   3.350  0.00  0.00    -0.083 NA
ATOM      5  C   LIG    1       27.197 -15.932   3.611  0.00  0.00    +0.294 C 
ATOM      6  C   LIG    1       26.392 -14.727   3.180  0.00  0.00    +0.093 C 
ATOM      7  C   LIG    1       25.078 -14.766   3.926  0.00  0.00    +0.229 C 
ENDROOT
BRANCH   3   8
ATOM      8  C   LIG    1       24.613 -18.545   3.147  0.00  0.00    +0.100 C 
ATOM      9  C   LIG    1       24.819 -19.732   3.728  0.00  0.00    +0.023 C 
BRANCH   9  10
ATOM     10  C   LIG    1       25.646 -19.983   4.858  0.00  0.00    +0.012 A 
ATOM     11  S   LIG    1       24.966 -20.739   6.254  0.00  0.00    -0.097 S 
ATOM     12  C   LIG    1       26.471 -20.787   7.060  0.00  0.00    +0.045 A 
ATOM     13  C   LIG    1       27.472 -20.210   6.315  0.00  0.00    +0.008 A 
ATOM     14  C   LIG    1       26.989 -19.717   5.069  0.00  0.00    +0.015 A 
ENDBRANCH   9  10
ENDBRANCH   3   8
TORSDOF 2
ENDMDL
