MODEL 1
REMARK VINA RESULT:      -8.4      0.000      0.000
REMARK  Name = *****
REMARK                            x       y       z     vdW  Elec       q    Type
REMARK                         _______ _______ _______ _____ _____    ______ ____
ROOT
ATOM      1  O   LIG    1       25.332 -24.866   6.104  0.00  0.00    -0.459 OA
ENDROOT
BRANCH   1   2
ATOM      2  C   LIG    1       25.590 -26.030   5.447  0.00  0.00    +0.340 C 
ATOM      3  O   LIG    1       25.791 -26.170   4.270  0.00  0.00    -0.245 OA
BRANCH   2   4
ATOM      4  C   LIG    1       25.512 -27.169   6.393  0.00  0.00    +0.066 A 
ATOM      5  C   LIG    1       26.332 -27.189   7.522  0.00  0.00    +0.064 A 
ATOM      6  C   LIG    1       26.251 -28.251   8.440  0.00  0.00    +0.166 A 
ATOM      7  C   LIG    1       25.324 -29.292   8.218  0.00  0.00    +0.203 A 
ATOM      8  C   LIG    1       24.481 -29.239   7.082  0.00  0.00    +0.166 A 
ATOM      9  C   LIG    1       24.595 -28.186   6.173  0.00  0.00    +0.064 A 
BRANCH   6  10
ATOM     10  O   LIG    1       27.123 -28.355   9.491  0.00  0.00    -0.491 OA
ATOM     11  C   LIG    1       26.630 -27.997  10.778  0.00  0.00    +0.277 C 
ENDBRANCH   6  10
BRANCH   7  12
ATOM     12  O   LIG    1       25.188 -30.421   8.994  0.00  0.00    -0.488 OA
ATOM     13  C   LIG    1       26.181 -31.434   8.884  0.00  0.00    +0.277 C 
ENDBRANCH   7  12
BRANCH   8  14
ATOM     14  O   LIG    1       23.568 -30.254   6.904  0.00  0.00    -0.491 OA
ATOM     15  C   LIG    1       23.949 -31.274   5.981  0.00  0.00    +0.277 C 
ENDBRANCH   8  14
ENDBRANCH   2   4
ENDBRANCH   1   2
BRANCH   1  16
ATOM     16  C   LIG    1       25.051 -23.665   5.345  0.00  0.00    +0.259 C 
BRANCH  16  17
ATOM     17  C   LIG    1       24.718 -22.377   6.230  0.00  0.00    +0.081 C 
BRANCH  17  18
ATOM     18  C   LIG    1       24.166 -21.184   5.381  0.00  0.00    -0.024 A 
ATOM     19  C   LIG    1       24.779 -20.770   4.182  0.00  0.00    +0.005 A 
ATOM     20  C   LIG    1       24.309 -19.650   3.475  0.00  0.00    +0.000 A 
ATOM     21  C   LIG    1       23.217 -18.922   3.942  0.00  0.00    +0.000 A 
ATOM     22  C   LIG    1       22.569 -19.338   5.092  0.00  0.00    +0.000 A 
ATOM     23  C   LIG    1       23.027 -20.465   5.772  0.00  0.00    +0.005 A 
ENDBRANCH  17  18
BRANCH  17  24
ATOM     24  N   LIG    1       25.957 -21.911   6.993  0.00  0.00    -0.296 NA
ATOM     25  C   LIG    1       25.927 -22.227   8.429  0.00  0.00    +0.105 C 
ATOM     26  C   LIG    1       26.307 -20.494   6.837  0.00  0.00    +0.105 C 
ENDBRANCH  17  24
BRANCH  17  28
ATOM     27  C   LIG    1       22.484 -23.703   6.833  0.00  0.00    +0.006 C 
ATOM     28  C   LIG    1       23.601 -22.758   7.288  0.00  0.00    +0.027 C 
ENDBRANCH  17  28
ENDBRANCH  16  17
ENDBRANCH   1  16
TORSDOF 10
ENDMDL
MODEL 2
REMARK VINA RESULT:      -8.3      0.079      2.322
REMARK  Name = *****
REMARK                            x       y       z     vdW  Elec       q    Type
REMARK                         _______ _______ _______ _____ _____    ______ ____
ROOT
ATOM      1  O   LIG    1       25.295 -24.852   6.109  0.00  0.00    -0.459 OA
ENDROOT
BRANCH   1   2
ATOM      2  C   LIG    1       25.588 -26.008   5.453  0.00  0.00    +0.340 C 
ATOM      3  O   LIG    1       25.831 -26.137   4.284  0.00  0.00    -0.245 OA
BRANCH   2   4
ATOM      4  C   LIG    1       25.490 -27.155   6.388  0.00  0.00    +0.066 A 
ATOM      5  C   LIG    1       24.593 -28.190   6.123  0.00  0.00    +0.064 A 
ATOM      6  C   LIG    1       24.506 -29.295   6.989  0.00  0.00    +0.166 A 
ATOM      7  C   LIG    1       25.344 -29.355   8.123  0.00  0.00    +0.203 A 
ATOM      8  C   LIG    1       26.268 -28.310   8.359  0.00  0.00    +0.166 A 
ATOM      9  C   LIG    1       26.320 -27.213   7.499  0.00  0.00    +0.064 A 
BRANCH   6  10
ATOM     10  O   LIG    1       23.554 -30.265   6.817  0.00  0.00    -0.491 OA
ATOM     11  C   LIG    1       23.934 -31.417   6.072  0.00  0.00    +0.277 C 
ENDBRANCH   6  10
BRANCH   7  12
ATOM     12  O   LIG    1       25.316 -30.339   9.086  0.00  0.00    -0.488 OA
ATOM     13  C   LIG    1       26.180 -31.458   8.926  0.00  0.00    +0.277 C 
ENDBRANCH   7  12
BRANCH   8  14
ATOM     14  O   LIG    1       27.092 -28.408   9.458  0.00  0.00    -0.491 OA
ATOM     15  C   LIG    1       26.560 -27.890  10.678  0.00  0.00    +0.277 C 
ENDBRANCH   8  14
ENDBRANCH   2   4
ENDBRANCH   1   2
BRANCH   1  16
ATOM     16  C   LIG    1       25.019 -23.651   5.350  0.00  0.00    +0.259 C 
BRANCH  16  17
ATOM     17  C   LIG    1       24.695 -22.359   6.233  0.00  0.00    +0.081 C 
BRANCH  17  18
ATOM     18  C   LIG    1       24.164 -21.159   5.382  0.00  0.00    -0.024 A 
ATOM     19  C   LIG    1       24.809 -20.731   4.205  0.00  0.00    +0.005 A 
ATOM     20  C   LIG    1       24.357 -19.604   3.497  0.00  0.00    +0.000 A 
ATOM     21  C   LIG    1       23.250 -18.885   3.940  0.00  0.00    +0.000 A 
ATOM     22  C   LIG    1       22.571 -19.314   5.066  0.00  0.00    +0.000 A 
ATOM     23  C   LIG    1       23.012 -20.447   5.748  0.00  0.00    +0.005 A 
ENDBRANCH  17  18
BRANCH  17  24
ATOM     24  N   LIG    1       25.934 -21.910   7.006  0.00  0.00    -0.296 NA
ATOM     25  C   LIG    1       25.865 -22.178   8.451  0.00  0.00    +0.105 C 
ATOM     26  C   LIG    1       26.333 -20.510   6.813  0.00  0.00    +0.105 C 
ENDBRANCH  17  24
BRANCH  17  28
ATOM     27  C   LIG    1       22.467 -23.699   6.833  0.00  0.00    +0.006 C 
ATOM     28  C   LIG    1       23.565 -22.728   7.282  0.00  0.00    +0.027 C 
ENDBRANCH  17  28
ENDBRANCH  16  17
ENDBRANCH   1  16
TORSDOF 10
ENDMDL
MODEL 3
REMARK VINA RESULT:      -7.7      4.012      8.136
REMARK  Name = *****
REMARK                            x       y       z     vdW  Elec       q    Type
REMARK                         _______ _______ _______ _____ _____    ______ ____
ROOT
ATOM      1  O   LIG    1       26.543 -21.946   6.572  0.00  0.00    -0.459 OA
ENDROOT
BRANCH   1   2
ATOM      2  C   LIG    1       27.000 -21.650   7.820  0.00  0.00    +0.340 C 
ATOM      3  O   LIG    1       26.455 -21.879   8.866  0.00  0.00    -0.245 OA
BRANCH   2   4
ATOM      4  C   LIG    1       28.278 -20.904   7.723  0.00  0.00    +0.066 A 
ATOM      5  C   LIG    1       28.339 -19.728   6.974  0.00  0.00    +0.064 A 
ATOM      6  C   LIG    1       29.538 -18.999   6.893  0.00  0.00    +0.166 A 
ATOM      7  C   LIG    1       30.678 -19.457   7.587  0.00  0.00    +0.203 A 
ATOM      8  C   LIG    1       30.589 -20.636   8.366  0.00  0.00    +0.166 A 
ATOM      9  C   LIG    1       29.394 -21.356   8.413  0.00  0.00    +0.064 A 
BRANCH   6  10
ATOM     10  O   LIG    1       29.658 -17.909   6.072  0.00  0.00    -0.491 OA
ATOM     11  C   LIG    1       28.806 -17.864   4.931  0.00  0.00    +0.277 C 
ENDBRANCH   6  10
BRANCH   7  12
ATOM     12  O   LIG    1       31.929 -18.882   7.540  0.00  0.00    -0.488 OA
ATOM     13  C   LIG    1       32.215 -17.827   8.450  0.00  0.00    +0.277 C 
ENDBRANCH   7  12
BRANCH   8  14
ATOM     14  O   LIG    1       31.709 -21.046   9.054  0.00  0.00    -0.491 OA
ATOM     15  C   LIG    1       31.888 -22.459   9.156  0.00  0.00    +0.277 C 
ENDBRANCH   8  14
ENDBRANCH   2   4
ENDBRANCH   1   2
BRANCH   1  16
ATOM     16  C   LIG    1       25.500 -21.133   5.983  0.00  0.00    +0.259 C 
BRANCH  16  17
ATOM     17  C   LIG    1       24.106 -21.884   5.768  0.00  0.00    +0.081 C 
BRANCH  17  18
ATOM     18  C   LIG    1       24.262 -23.438   5.678  0.00  0.00    -0.024 A 
ATOM     19  C   LIG    1       23.746 -24.302   6.664  0.00  0.00    +0.005 A 
ATOM     20  C   LIG    1       23.961 -25.689   6.600  0.00  0.00    +0.000 A 
ATOM     21  C   LIG    1       24.688 -26.247   5.551  0.00  0.00    +0.000 A 
ATOM     22  C   LIG    1       25.164 -25.424   4.545  0.00  0.00    +0.000 A 
ATOM     23  C   LIG    1       24.924 -24.052   4.605  0.00  0.00    +0.005 A 
ENDBRANCH  17  18
BRANCH  17  24
ATOM     24  N   LIG    1       23.412 -21.380   4.504  0.00  0.00    -0.296 NA
ATOM     25  C   LIG    1       24.253 -20.511   3.667  0.00  0.00    +0.105 C 
ATOM     26  C   LIG    1       22.118 -20.716   4.708  0.00  0.00    +0.105 C 
ENDBRANCH  17  24
BRANCH  17  28
ATOM     27  C   LIG    1       23.552 -20.411   7.921  0.00  0.00    +0.006 C 
ATOM     28  C   LIG    1       23.164 -21.577   7.005  0.00  0.00    +0.027 C 
ENDBRANCH  17  28
ENDBRANCH  16  17
ENDBRANCH   1  16
TORSDOF 10
ENDMDL
MODEL 4
REMARK VINA RESULT:      -7.7      3.998      7.996
REMARK  Name = *****
REMARK                            x       y       z     vdW  Elec       q    Type
REMARK                         _______ _______ _______ _____ _____    ______ ____
ROOT
ATOM      1  O   LIG    1       26.537 -21.934   6.523  0.00  0.00    -0.459 OA
ENDROOT
BRANCH   1   2
ATOM      2  C   LIG    1       26.971 -21.640   7.780  0.00  0.00    +0.340 C 
ATOM      3  O   LIG    1       26.399 -21.856   8.814  0.00  0.00    -0.245 OA
BRANCH   2   4
ATOM      4  C   LIG    1       28.262 -20.915   7.708  0.00  0.00    +0.066 A 
ATOM      5  C   LIG    1       29.379 -21.421   8.375  0.00  0.00    +0.064 A 
ATOM      6  C   LIG    1       30.615 -20.755   8.296  0.00  0.00    +0.166 A 
ATOM      7  C   LIG    1       30.722 -19.578   7.526  0.00  0.00    +0.203 A 
ATOM      8  C   LIG    1       29.586 -19.097   6.833  0.00  0.00    +0.166 A 
ATOM      9  C   LIG    1       28.364 -19.761   6.944  0.00  0.00    +0.064 A 
BRANCH   6  10
ATOM     10  O   LIG    1       31.695 -21.163   9.034  0.00  0.00    -0.491 OA
ATOM     11  C   LIG    1       31.823 -22.562   9.272  0.00  0.00    +0.277 C 
ENDBRANCH   6  10
BRANCH   7  12
ATOM     12  O   LIG    1       31.849 -18.792   7.418  0.00  0.00    -0.488 OA
ATOM     13  C   LIG    1       32.121 -17.864   8.461  0.00  0.00    +0.277 C 
ENDBRANCH   7  12
BRANCH   8  14
ATOM     14  O   LIG    1       29.725 -17.961   6.067  0.00  0.00    -0.491 OA
ATOM     15  C   LIG    1       28.841 -17.856   4.950  0.00  0.00    +0.277 C 
ENDBRANCH   8  14
ENDBRANCH   2   4
ENDBRANCH   1   2
BRANCH   1  16
ATOM     16  C   LIG    1       25.480 -21.144   5.930  0.00  0.00    +0.259 C 
BRANCH  16  17
ATOM     17  C   LIG    1       24.087 -21.908   5.761  0.00  0.00    +0.081 C 
BRANCH  17  18
ATOM     18  C   LIG    1       24.253 -23.461   5.675  0.00  0.00    -0.024 A 
ATOM     19  C   LIG    1       23.763 -24.325   6.675  0.00  0.00    +0.005 A 
ATOM     20  C   LIG    1       23.988 -25.711   6.612  0.00  0.00    +0.000 A 
ATOM     21  C   LIG    1       24.699 -26.267   5.553  0.00  0.00    +0.000 A 
ATOM     22  C   LIG    1       25.150 -25.446   4.535  0.00  0.00    +0.000 A 
ATOM     23  C   LIG    1       24.900 -24.075   4.593  0.00  0.00    +0.005 A 
ENDBRANCH  17  18
BRANCH  17  24
ATOM     24  N   LIG    1       23.351 -21.418   4.515  0.00  0.00    -0.296 NA
ATOM     25  C   LIG    1       24.155 -20.536   3.656  0.00  0.00    +0.105 C 
ATOM     26  C   LIG    1       22.052 -20.775   4.752  0.00  0.00    +0.105 C 
ENDBRANCH  17  24
BRANCH  17  28
ATOM     27  C   LIG    1       23.540 -20.383   7.880  0.00  0.00    +0.006 C 
ATOM     28  C   LIG    1       23.179 -21.602   7.023  0.00  0.00    +0.027 C 
ENDBRANCH  17  28
ENDBRANCH  16  17
ENDBRANCH   1  16
TORSDOF 10
ENDMDL
MODEL 5
REMARK VINA RESULT:      -7.5      4.879      8.812
REMARK  Name = *****
REMARK                            x       y       z     vdW  Elec       q    Type
REMARK                         _______ _______ _______ _____ _____    ______ ____
ROOT
ATOM      1  O   LIG    1       27.876 -20.689   6.396  0.00  0.00    -0.459 OA
ENDROOT
BRANCH   1   2
ATOM      2  C   LIG    1       28.613 -19.574   6.138  0.00  0.00    +0.340 C 
ATOM      3  O   LIG    1       28.623 -18.929   5.124  0.00  0.00    -0.245 OA
BRANCH   2   4
ATOM      4  C   LIG    1       29.505 -19.283   7.287  0.00  0.00    +0.066 A 
ATOM      5  C   LIG    1       30.333 -20.286   7.792  0.00  0.00    +0.064 A 
ATOM      6  C   LIG    1       31.201 -20.018   8.865  0.00  0.00    +0.166 A 
ATOM      7  C   LIG    1       31.237 -18.721   9.421  0.00  0.00    +0.203 A 
ATOM      8  C   LIG    1       30.411 -17.709   8.876  0.00  0.00    +0.166 A 
ATOM      9  C   LIG    1       29.542 -18.005   7.825  0.00  0.00    +0.064 A 
BRANCH   6  10
ATOM     10  O   LIG    1       31.936 -21.012   9.455  0.00  0.00    -0.491 OA
ATOM     11  C   LIG    1       31.547 -22.353   9.179  0.00  0.00    +0.277 C 
ENDBRANCH   6  10
BRANCH   7  12
ATOM     12  O   LIG    1       31.985 -18.340  10.513  0.00  0.00    -0.488 OA
ATOM     13  C   LIG    1       31.295 -17.969  11.700  0.00  0.00    +0.277 C 
ENDBRANCH   7  12
BRANCH   8  14
ATOM     14  O   LIG    1       30.487 -16.447   9.420  0.00  0.00    -0.491 OA
ATOM     15  C   LIG    1       31.748 -15.790   9.285  0.00  0.00    +0.277 C 
ENDBRANCH   8  14
ENDBRANCH   2   4
ENDBRANCH   1   2
BRANCH   1  16
ATOM     16  C   LIG    1       26.505 -20.760   5.935  0.00  0.00    +0.259 C 
BRANCH  16  17
ATOM     17  C   LIG    1       25.536 -21.641   6.852  0.00  0.00    +0.081 C 
BRANCH  17  18
ATOM     18  C   LIG    1       25.439 -23.129   6.377  0.00  0.00    -0.024 A 
ATOM     19  C   LIG    1       25.873 -24.202   7.181  0.00  0.00    +0.005 A 
ATOM     20  C   LIG    1       25.843 -25.524   6.705  0.00  0.00    +0.000 A 
ATOM     21  C   LIG    1       25.376 -25.807   5.424  0.00  0.00    +0.000 A 
ATOM     22  C   LIG    1       24.900 -24.776   4.634  0.00  0.00    +0.000 A 
ATOM     23  C   LIG    1       24.910 -23.470   5.124  0.00  0.00    +0.005 A 
ENDBRANCH  17  18
BRANCH  17  24
ATOM     24  N   LIG    1       24.133 -21.038   6.886  0.00  0.00    -0.296 NA
ATOM     25  C   LIG    1       23.092 -21.975   7.336  0.00  0.00    +0.105 C 
ATOM     26  C   LIG    1       23.679 -20.405   5.641  0.00  0.00    +0.105 C 
ENDBRANCH  17  24
BRANCH  17  28
ATOM     27  C   LIG    1       26.060 -20.343   9.122  0.00  0.00    +0.006 C 
ATOM     28  C   LIG    1       26.104 -21.655   8.331  0.00  0.00    +0.027 C 
ENDBRANCH  17  28
ENDBRANCH  16  17
ENDBRANCH   1  16
TORSDOF 10
ENDMDL
MODEL 6
REMARK VINA RESULT:      -7.3      1.075      2.664
REMARK  Name = *****
REMARK                            x       y       z     vdW  Elec       q    Type
REMARK                         _______ _______ _______ _____ _____    ______ ____
ROOT
ATOM      1  O   LIG    1       25.293 -24.931   5.955  0.00  0.00    -0.459 OA
ENDROOT
BRANCH   1   2
ATOM      2  C   LIG    1       25.637 -26.108   5.364  0.00  0.00    +0.340 C 
ATOM      3  O   LIG    1       25.919 -26.285   4.209  0.00  0.00    -0.245 OA
BRANCH   2   4
ATOM      4  C   LIG    1       25.542 -27.212   6.349  0.00  0.00    +0.066 A 
ATOM      5  C   LIG    1       26.350 -27.198   7.486  0.00  0.00    +0.064 A 
ATOM      6  C   LIG    1       26.252 -28.226   8.440  0.00  0.00    +0.166 A 
ATOM      7  C   LIG    1       25.319 -29.267   8.246  0.00  0.00    +0.203 A 
ATOM      8  C   LIG    1       24.487 -29.248   7.102  0.00  0.00    +0.166 A 
ATOM      9  C   LIG    1       24.618 -28.230   6.157  0.00  0.00    +0.064 A 
BRANCH   6  10
ATOM     10  O   LIG    1       27.115 -28.300   9.503  0.00  0.00    -0.491 OA
ATOM     11  C   LIG    1       26.596 -27.946  10.781  0.00  0.00    +0.277 C 
ENDBRANCH   6  10
BRANCH   7  12
ATOM     12  O   LIG    1       25.167 -30.367   9.061  0.00  0.00    -0.488 OA
ATOM     13  C   LIG    1       26.143 -31.399   8.983  0.00  0.00    +0.277 C 
ENDBRANCH   7  12
BRANCH   8  14
ATOM     14  O   LIG    1       23.567 -30.262   6.951  0.00  0.00    -0.491 OA
ATOM     15  C   LIG    1       23.915 -31.277   6.009  0.00  0.00    +0.277 C 
ENDBRANCH   8  14
ENDBRANCH   2   4
ENDBRANCH   1   2
BRANCH   1  16
ATOM     16  C   LIG    1       24.950 -23.792   5.130  0.00  0.00    +0.259 C 
BRANCH  16  17
ATOM     17  C   LIG    1       24.691 -22.436   5.935  0.00  0.00    +0.081 C 
BRANCH  17  18
ATOM     18  C   LIG    1       26.011 -21.775   6.451  0.00  0.00    -0.024 A 
ATOM     19  C   LIG    1       26.748 -22.310   7.526  0.00  0.00    +0.005 A 
ATOM     20  C   LIG    1       27.891 -21.659   8.020  0.00  0.00    +0.000 A 
ATOM     21  C   LIG    1       28.329 -20.465   7.452  0.00  0.00    +0.000 A 
ATOM     22  C   LIG    1       27.649 -19.944   6.365  0.00  0.00    +0.000 A 
ATOM     23  C   LIG    1       26.531 -20.611   5.866  0.00  0.00    +0.005 A 
ENDBRANCH  17  18
BRANCH  17  24
ATOM     24  N   LIG    1       23.763 -22.684   7.124  0.00  0.00    -0.296 NA
ATOM     25  C   LIG    1       22.611 -23.543   6.811  0.00  0.00    +0.105 C 
ATOM     26  C   LIG    1       23.273 -21.483   7.812  0.00  0.00    +0.105 C 
ENDBRANCH  17  24
BRANCH  17  28
ATOM     27  C   LIG    1       24.112 -21.628   3.460  0.00  0.00    +0.006 C 
ATOM     28  C   LIG    1       23.989 -21.393   4.970  0.00  0.00    +0.027 C 
ENDBRANCH  17  28
ENDBRANCH  16  17
ENDBRANCH   1  16
TORSDOF 10
ENDMDL
MODEL 7
REMARK VINA RESULT:      -7.1      1.156      3.568
REMARK  Name = *****
REMARK                            x       y       z     vdW  Elec       q    Type
REMARK                         _______ _______ _______ _____ _____    ______ ____
ROOT
ATOM      1  O   LIG    1       25.255 -24.906   5.951  0.00  0.00    -0.459 OA
ENDROOT
BRANCH   1   2
ATOM      2  C   LIG    1       25.656 -26.061   5.352  0.00  0.00    +0.340 C 
ATOM      3  O   LIG    1       26.017 -26.201   4.214  0.00  0.00    -0.245 OA
BRANCH   2   4
ATOM      4  C   LIG    1       25.511 -27.194   6.298  0.00  0.00    +0.066 A 
ATOM      5  C   LIG    1       24.600 -28.215   6.022  0.00  0.00    +0.064 A 
ATOM      6  C   LIG    1       24.470 -29.306   6.898  0.00  0.00    +0.166 A 
ATOM      7  C   LIG    1       25.277 -29.369   8.054  0.00  0.00    +0.203 A 
ATOM      8  C   LIG    1       26.215 -28.339   8.302  0.00  0.00    +0.166 A 
ATOM      9  C   LIG    1       26.311 -27.254   7.430  0.00  0.00    +0.064 A 
BRANCH   6  10
ATOM     10  O   LIG    1       23.504 -30.260   6.713  0.00  0.00    -0.491 OA
ATOM     11  C   LIG    1       23.921 -31.504   6.160  0.00  0.00    +0.277 C 
ENDBRANCH   6  10
BRANCH   7  12
ATOM     12  O   LIG    1       25.205 -30.341   9.028  0.00  0.00    -0.488 OA
ATOM     13  C   LIG    1       24.102 -30.308   9.926  0.00  0.00    +0.277 C 
ENDBRANCH   7  12
BRANCH   8  14
ATOM     14  O   LIG    1       27.008 -28.439   9.423  0.00  0.00    -0.491 OA
ATOM     15  C   LIG    1       26.531 -27.753  10.581  0.00  0.00    +0.277 C 
ENDBRANCH   8  14
ENDBRANCH   2   4
ENDBRANCH   1   2
BRANCH   1  16
ATOM     16  C   LIG    1       24.926 -23.756   5.135  0.00  0.00    +0.259 C 
BRANCH  16  17
ATOM     17  C   LIG    1       24.681 -22.404   5.952  0.00  0.00    +0.081 C 
BRANCH  17  18
ATOM     18  C   LIG    1       26.009 -21.753   6.460  0.00  0.00    -0.024 A 
ATOM     19  C   LIG    1       26.738 -22.283   7.544  0.00  0.00    +0.005 A 
ATOM     20  C   LIG    1       27.888 -21.639   8.030  0.00  0.00    +0.000 A 
ATOM     21  C   LIG    1       28.342 -20.459   7.446  0.00  0.00    +0.000 A 
ATOM     22  C   LIG    1       27.670 -19.944   6.351  0.00  0.00    +0.000 A 
ATOM     23  C   LIG    1       26.544 -20.604   5.860  0.00  0.00    +0.005 A 
ENDBRANCH  17  18
BRANCH  17  24
ATOM     24  N   LIG    1       23.762 -22.656   7.147  0.00  0.00    -0.296 NA
ATOM     25  C   LIG    1       22.602 -23.505   6.839  0.00  0.00    +0.105 C 
ATOM     26  C   LIG    1       23.285 -21.457   7.848  0.00  0.00    +0.105 C 
ENDBRANCH  17  24
BRANCH  17  28
ATOM     27  C   LIG    1       24.118 -21.555   3.487  0.00  0.00    +0.006 C 
ATOM     28  C   LIG    1       23.975 -21.352   4.999  0.00  0.00    +0.027 C 
ENDBRANCH  17  28
ENDBRANCH  16  17
ENDBRANCH   1  16
TORSDOF 10
ENDMDL
MODEL 8
REMARK VINA RESULT:      -7.0      4.998      8.805
REMARK  Name = *****
REMARK                            x       y       z     vdW  Elec       q    Type
REMARK                         _______ _______ _______ _____ _____    ______ ____
ROOT
ATOM      1  O   LIG    1       27.459 -19.825   6.629  0.00  0.00    -0.459 OA
ENDROOT
BRANCH   1   2
ATOM      2  C   LIG    1       28.628 -19.303   6.165  0.00  0.00    +0.340 C 
ATOM      3  O   LIG    1       28.939 -19.128   5.017  0.00  0.00    -0.245 OA
BRANCH   2   4
ATOM      4  C   LIG    1       29.545 -19.036   7.299  0.00  0.00    +0.066 A 
ATOM      5  C   LIG    1       29.574 -17.770   7.884  0.00  0.00    +0.064 A 
ATOM      6  C   LIG    1       30.421 -17.511   8.976  0.00  0.00    +0.166 A 
ATOM      7  C   LIG    1       31.234 -18.547   9.485  0.00  0.00    +0.203 A 
ATOM      8  C   LIG    1       31.169 -19.832   8.897  0.00  0.00    +0.166 A 
ATOM      9  C   LIG    1       30.337 -20.060   7.800  0.00  0.00    +0.064 A 
BRANCH   6  10
ATOM     10  O   LIG    1       30.557 -16.249   9.492  0.00  0.00    -0.491 OA
ATOM     11  C   LIG    1       31.839 -15.641   9.381  0.00  0.00    +0.277 C 
ENDBRANCH   6  10
BRANCH   7  12
ATOM     12  O   LIG    1       32.156 -18.414  10.499  0.00  0.00    -0.488 OA
ATOM     13  C   LIG    1       31.719 -17.857  11.733  0.00  0.00    +0.277 C 
ENDBRANCH   7  12
BRANCH   8  14
ATOM     14  O   LIG    1       31.953 -20.830   9.430  0.00  0.00    -0.491 OA
ATOM     15  C   LIG    1       31.560 -22.165   9.106  0.00  0.00    +0.277 C 
ENDBRANCH   8  14
ENDBRANCH   2   4
ENDBRANCH   1   2
BRANCH   1  16
ATOM     16  C   LIG    1       27.034 -21.134   6.180  0.00  0.00    +0.259 C 
BRANCH  16  17
ATOM     17  C   LIG    1       25.470 -21.419   6.335  0.00  0.00    +0.081 C 
BRANCH  17  18
ATOM     18  C   LIG    1       25.141 -22.942   6.476  0.00  0.00    -0.024 A 
ATOM     19  C   LIG    1       26.150 -23.917   6.612  0.00  0.00    +0.005 A 
ATOM     20  C   LIG    1       25.835 -25.286   6.664  0.00  0.00    +0.000 A 
ATOM     21  C   LIG    1       24.512 -25.714   6.587  0.00  0.00    +0.000 A 
ATOM     22  C   LIG    1       23.501 -24.773   6.500  0.00  0.00    +0.000 A 
ATOM     23  C   LIG    1       23.821 -23.416   6.475  0.00  0.00    +0.005 A 
ENDBRANCH  17  18
BRANCH  17  24
ATOM     24  N   LIG    1       24.698 -20.854   5.143  0.00  0.00    -0.296 NA
ATOM     25  C   LIG    1       25.512 -20.016   4.249  0.00  0.00    +0.105 C 
ATOM     26  C   LIG    1       23.467 -20.124   5.469  0.00  0.00    +0.105 C 
ENDBRANCH  17  24
BRANCH  17  28
ATOM     27  C   LIG    1       25.806 -20.815   8.911  0.00  0.00    +0.006 C 
ATOM     28  C   LIG    1       24.946 -20.702   7.647  0.00  0.00    +0.027 C 
ENDBRANCH  17  28
ENDBRANCH  16  17
ENDBRANCH   1  16
TORSDOF 10
ENDMDL
MODEL 9
REMARK VINA RESULT:      -6.8      4.591      7.629
REMARK  Name = *****
REMARK                            x       y       z     vdW  Elec       q    Type
REMARK                         _______ _______ _______ _____ _____    ______ ____
ROOT
ATOM      1  O   LIG    1       25.774 -20.384   7.544  0.00  0.00    -0.459 OA
ENDROOT
BRANCH   1   2
ATOM      2  C   LIG    1       26.722 -21.336   7.764  0.00  0.00    +0.340 C 
ATOM      3  O   LIG    1       26.539 -22.487   8.058  0.00  0.00    -0.245 OA
BRANCH   2   4
ATOM      4  C   LIG    1       28.072 -20.732   7.669  0.00  0.00    +0.066 A 
ATOM      5  C   LIG    1       29.119 -21.252   8.432  0.00  0.00    +0.064 A 
ATOM      6  C   LIG    1       30.410 -20.703   8.333  0.00  0.00    +0.166 A 
ATOM      7  C   LIG    1       30.643 -19.630   7.447  0.00  0.00    +0.203 A 
ATOM      8  C   LIG    1       29.576 -19.136   6.661  0.00  0.00    +0.166 A 
ATOM      9  C   LIG    1       28.297 -19.681   6.791  0.00  0.00    +0.064 A 
BRANCH   6  10
ATOM     10  O   LIG    1       31.426 -21.115   9.155  0.00  0.00    -0.491 OA
ATOM     11  C   LIG    1       31.739 -22.504   9.147  0.00  0.00    +0.277 C 
ENDBRANCH   6  10
BRANCH   7  12
ATOM     12  O   LIG    1       31.836 -18.956   7.303  0.00  0.00    -0.488 OA
ATOM     13  C   LIG    1       32.181 -17.987   8.285  0.00  0.00    +0.277 C 
ENDBRANCH   7  12
BRANCH   8  14
ATOM     14  O   LIG    1       29.837 -18.106   5.785  0.00  0.00    -0.491 OA
ATOM     15  C   LIG    1       28.771 -17.762   4.899  0.00  0.00    +0.277 C 
ENDBRANCH   8  14
ENDBRANCH   2   4
ENDBRANCH   1   2
BRANCH   1  16
ATOM     16  C   LIG    1       24.403 -20.783   7.306  0.00  0.00    +0.259 C 
BRANCH  16  17
ATOM     17  C   LIG    1       24.080 -21.204   5.799  0.00  0.00    +0.081 C 
BRANCH  17  18
ATOM     18  C   LIG    1       22.927 -20.357   5.165  0.00  0.00    -0.024 A 
ATOM     19  C   LIG    1       21.764 -20.951   4.635  0.00  0.00    +0.005 A 
ATOM     20  C   LIG    1       20.775 -20.176   4.006  0.00  0.00    +0.000 A 
ATOM     21  C   LIG    1       20.919 -18.796   3.895  0.00  0.00    +0.000 A 
ATOM     22  C   LIG    1       22.029 -18.184   4.449  0.00  0.00    +0.000 A 
ATOM     23  C   LIG    1       22.993 -18.958   5.094  0.00  0.00    +0.005 A 
ENDBRANCH  17  18
BRANCH  17  24
ATOM     24  N   LIG    1       23.708 -22.684   5.721  0.00  0.00    -0.296 NA
ATOM     25  C   LIG    1       23.098 -23.212   6.951  0.00  0.00    +0.105 C 
ATOM     26  C   LIG    1       24.788 -23.593   5.313  0.00  0.00    +0.105 C 
ENDBRANCH  17  24
BRANCH  17  28
ATOM     27  C   LIG    1       25.264 -20.000   3.735  0.00  0.00    +0.006 C 
ATOM     28  C   LIG    1       25.375 -20.973   4.914  0.00  0.00    +0.027 C 
ENDBRANCH  17  28
ENDBRANCH  16  17
ENDBRANCH   1  16
TORSDOF 10
ENDMDL
