MODEL 1
REMARK VINA RESULT:      -9.1      0.000      0.000
REMARK  Name = *****
REMARK                            x       y       z     vdW  Elec       q    Type
REMARK                         _______ _______ _______ _____ _____    ______ ____
ROOT
ATOM      1  C   LIG    1       23.956 -22.728   6.638  0.00  0.00    +0.370 C 
ATOM      2  N   LIG    1       24.670 -21.608   6.272  0.00  0.00    -0.182 N 
ATOM      3  C   LIG    1       26.066 -21.970   6.508  0.00  0.00    +0.212 C 
ATOM      4  C   LIG    1       27.086 -20.864   6.611  0.00  0.00    -0.006 A 
ATOM      5  C   LIG    1       27.272 -20.017   5.494  0.00  0.00    -0.037 A 
ATOM      6  C   LIG    1       26.378 -20.156   4.278  0.00  0.00    +0.074 C 
ATOM      7  C   LIG    1       24.927 -19.846   4.554  0.00  0.00    -0.006 A 
ATOM      8  C   LIG    1       24.289 -18.878   3.746  0.00  0.00    +0.007 A 
ATOM      9  C   LIG    1       22.958 -18.517   3.957  0.00  0.00    +0.001 A 
ATOM     10  C   LIG    1       22.256 -19.089   5.003  0.00  0.00    +0.003 A 
ATOM     11  C   LIG    1       22.870 -20.066   5.786  0.00  0.00    +0.040 A 
ATOM     12  C   LIG    1       28.323 -19.087   5.489  0.00  0.00    +0.004 A 
ATOM     13  C   LIG    1       29.199 -19.003   6.569  0.00  0.00    +0.000 A 
ATOM     14  C   LIG    1       29.022 -19.833   7.671  0.00  0.00    +0.000 A 
ATOM     15  C   LIG    1       27.973 -20.753   7.696  0.00  0.00    +0.007 A 
ATOM     16  C   LIG    1       25.848 -22.913   7.716  0.00  0.00    +0.287 C 
ATOM     17  C   LIG    1       24.187 -20.519   5.546  0.00  0.00    +0.099 A 
ATOM     18  N   LIG    1       24.545 -23.595   7.434  0.00  0.00    -0.113 NA
ENDROOT
BRANCH   1  19
ATOM     19  N   LIG    1       22.772 -23.002   6.053  0.00  0.00    -0.251 N 
ATOM     20  H   LIG    1       22.837 -23.709   5.328  0.00  0.00    +0.241 HD
ATOM     21  H   LIG    1       22.061 -23.224   6.740  0.00  0.00    +0.241 HD
ENDBRANCH   1  19
TORSDOF 1
ENDMDL
MODEL 2
REMARK VINA RESULT:      -8.6      1.652      4.004
REMARK  Name = *****
REMARK                            x       y       z     vdW  Elec       q    Type
REMARK                         _______ _______ _______ _____ _____    ______ ____
ROOT
ATOM      1  C   LIG    1       24.047 -21.019   4.437  0.00  0.00    +0.370 C 
ATOM      2  N   LIG    1       25.089 -21.502   5.197  0.00  0.00    -0.182 N 
ATOM      3  C   LIG    1       25.785 -20.305   5.668  0.00  0.00    +0.212 C 
ATOM      4  C   LIG    1       27.196 -20.450   6.177  0.00  0.00    -0.006 A 
ATOM      5  C   LIG    1       27.424 -21.282   7.297  0.00  0.00    -0.037 A 
ATOM      6  C   LIG    1       26.286 -22.094   7.884  0.00  0.00    +0.074 C 
ATOM      7  C   LIG    1       25.735 -23.135   6.940  0.00  0.00    -0.006 A 
ATOM      8  C   LIG    1       25.675 -24.474   7.389  0.00  0.00    +0.007 A 
ATOM      9  C   LIG    1       25.204 -25.496   6.567  0.00  0.00    +0.001 A 
ATOM     10  C   LIG    1       24.823 -25.204   5.269  0.00  0.00    +0.003 A 
ATOM     11  C   LIG    1       24.852 -23.882   4.829  0.00  0.00    +0.040 A 
ATOM     12  C   LIG    1       28.691 -21.311   7.901  0.00  0.00    +0.004 A 
ATOM     13  C   LIG    1       29.724 -20.511   7.418  0.00  0.00    +0.000 A 
ATOM     14  C   LIG    1       29.507 -19.689   6.317  0.00  0.00    +0.000 A 
ATOM     15  C   LIG    1       28.256 -19.661   5.698  0.00  0.00    +0.007 A 
ATOM     16  C   LIG    1       25.510 -19.396   4.446  0.00  0.00    +0.287 C 
ATOM     17  C   LIG    1       25.240 -22.808   5.663  0.00  0.00    +0.099 A 
ATOM     18  N   LIG    1       24.141 -19.789   3.982  0.00  0.00    -0.113 NA
ENDROOT
BRANCH   1  19
ATOM     19  N   LIG    1       22.903 -21.725   4.324  0.00  0.00    -0.251 N 
ATOM     20  H   LIG    1       22.949 -22.637   4.767  0.00  0.00    +0.241 HD
ATOM     21  H   LIG    1       22.103 -21.189   4.638  0.00  0.00    +0.241 HD
ENDBRANCH   1  19
TORSDOF 1
ENDMDL
MODEL 3
REMARK VINA RESULT:      -8.2      1.929      4.337
REMARK  Name = *****
REMARK                            x       y       z     vdW  Elec       q    Type
REMARK                         _______ _______ _______ _____ _____    ______ ____
ROOT
ATOM      1  C   LIG    1       27.822 -20.309   6.376  0.00  0.00    +0.370 C 
ATOM      2  N   LIG    1       26.614 -20.910   6.100  0.00  0.00    -0.182 N 
ATOM      3  C   LIG    1       26.537 -22.027   7.041  0.00  0.00    +0.212 C 
ATOM      4  C   LIG    1       25.560 -23.139   6.755  0.00  0.00    -0.006 A 
ATOM      5  C   LIG    1       24.184 -22.823   6.689  0.00  0.00    -0.037 A 
ATOM      6  C   LIG    1       23.731 -21.380   6.786  0.00  0.00    +0.074 C 
ATOM      7  C   LIG    1       24.214 -20.516   5.647  0.00  0.00    -0.006 A 
ATOM      8  C   LIG    1       23.252 -19.785   4.913  0.00  0.00    +0.007 A 
ATOM      9  C   LIG    1       23.617 -18.986   3.830  0.00  0.00    +0.001 A 
ATOM     10  C   LIG    1       24.943 -18.935   3.438  0.00  0.00    +0.003 A 
ATOM     11  C   LIG    1       25.901 -19.630   4.175  0.00  0.00    +0.040 A 
ATOM     12  C   LIG    1       23.234 -23.851   6.593  0.00  0.00    +0.004 A 
ATOM     13  C   LIG    1       23.633 -25.186   6.581  0.00  0.00    +0.000 A 
ATOM     14  C   LIG    1       24.985 -25.505   6.646  0.00  0.00    +0.000 A 
ATOM     15  C   LIG    1       25.943 -24.492   6.728  0.00  0.00    +0.007 A 
ATOM     16  C   LIG    1       28.049 -22.350   7.123  0.00  0.00    +0.287 C 
ATOM     17  C   LIG    1       25.579 -20.378   5.331  0.00  0.00    +0.099 A 
ATOM     18  N   LIG    1       28.727 -21.019   7.014  0.00  0.00    -0.113 NA
ENDROOT
BRANCH   1  19
ATOM     19  N   LIG    1       27.990 -18.989   6.157  0.00  0.00    -0.251 N 
ATOM     20  H   LIG    1       27.182 -18.546   5.734  0.00  0.00    +0.241 HD
ATOM     21  H   LIG    1       28.292 -18.508   6.997  0.00  0.00    +0.241 HD
ENDBRANCH   1  19
TORSDOF 1
ENDMDL
MODEL 4
REMARK VINA RESULT:      -6.8      2.388      4.586
REMARK  Name = *****
REMARK                            x       y       z     vdW  Elec       q    Type
REMARK                         _______ _______ _______ _____ _____    ______ ____
ROOT
ATOM      1  C   LIG    1       25.698 -21.099   8.164  0.00  0.00    +0.370 C 
ATOM      2  N   LIG    1       25.075 -21.964   7.292  0.00  0.00    -0.182 N 
ATOM      3  C   LIG    1       25.518 -23.292   7.714  0.00  0.00    +0.212 C 
ATOM      4  C   LIG    1       25.369 -24.439   6.746  0.00  0.00    -0.006 A 
ATOM      5  C   LIG    1       24.070 -24.780   6.304  0.00  0.00    -0.037 A 
ATOM      6  C   LIG    1       22.883 -23.928   6.708  0.00  0.00    +0.074 C 
ATOM      7  C   LIG    1       22.939 -22.518   6.173  0.00  0.00    -0.006 A 
ATOM      8  C   LIG    1       21.832 -22.043   5.433  0.00  0.00    +0.007 A 
ATOM      9  C   LIG    1       21.820 -20.762   4.883  0.00  0.00    +0.001 A 
ATOM     10  C   LIG    1       22.929 -19.948   5.031  0.00  0.00    +0.003 A 
ATOM     11  C   LIG    1       24.013 -20.398   5.784  0.00  0.00    +0.040 A 
ATOM     12  C   LIG    1       23.874 -25.939   5.538  0.00  0.00    +0.004 A 
ATOM     13  C   LIG    1       24.946 -26.772   5.226  0.00  0.00    +0.000 A 
ATOM     14  C   LIG    1       26.227 -26.443   5.658  0.00  0.00    +0.000 A 
ATOM     15  C   LIG    1       26.439 -25.285   6.408  0.00  0.00    +0.007 A 
ATOM     16  C   LIG    1       26.929 -22.904   8.217  0.00  0.00    +0.287 C 
ATOM     17  C   LIG    1       24.023 -21.657   6.429  0.00  0.00    +0.099 A 
ATOM     18  N   LIG    1       26.759 -21.538   8.807  0.00  0.00    -0.113 NA
ENDROOT
BRANCH   1  19
ATOM     19  N   LIG    1       25.129 -19.917   8.472  0.00  0.00    -0.251 N 
ATOM     20  H   LIG    1       24.202 -20.010   8.874  0.00  0.00    +0.241 HD
ATOM     21  H   LIG    1       25.739 -19.349   9.050  0.00  0.00    +0.241 HD
ENDBRANCH   1  19
TORSDOF 1
ENDMDL
MODEL 5
REMARK VINA RESULT:      -6.4      7.146      9.771
REMARK  Name = *****
REMARK                            x       y       z     vdW  Elec       q    Type
REMARK                         _______ _______ _______ _____ _____    ______ ____
ROOT
ATOM      1  C   LIG    1       24.025 -31.286   6.689  0.00  0.00    +0.370 C 
ATOM      2  N   LIG    1       24.396 -30.302   7.579  0.00  0.00    -0.182 N 
ATOM      3  C   LIG    1       24.607 -31.010   8.840  0.00  0.00    +0.212 C 
ATOM      4  C   LIG    1       24.618 -30.210  10.118  0.00  0.00    -0.006 A 
ATOM      5  C   LIG    1       25.600 -29.206  10.273  0.00  0.00    -0.037 A 
ATOM      6  C   LIG    1       26.534 -28.873   9.126  0.00  0.00    +0.074 C 
ATOM      7  C   LIG    1       25.829 -28.313   7.914  0.00  0.00    -0.006 A 
ATOM      8  C   LIG    1       26.275 -27.075   7.399  0.00  0.00    +0.007 A 
ATOM      9  C   LIG    1       25.658 -26.479   6.300  0.00  0.00    +0.001 A 
ATOM     10  C   LIG    1       24.560 -27.092   5.721  0.00  0.00    +0.003 A 
ATOM     11  C   LIG    1       24.132 -28.327   6.206  0.00  0.00    +0.040 A 
ATOM     12  C   LIG    1       25.749 -28.556  11.508  0.00  0.00    +0.004 A 
ATOM     13  C   LIG    1       24.948 -28.907  12.593  0.00  0.00    +0.000 A 
ATOM     14  C   LIG    1       23.980 -29.895  12.449  0.00  0.00    +0.000 A 
ATOM     15  C   LIG    1       23.812 -30.539  11.222  0.00  0.00    +0.007 A 
ATOM     16  C   LIG    1       23.544 -32.119   8.650  0.00  0.00    +0.287 C 
ATOM     17  C   LIG    1       24.789 -29.002   7.261  0.00  0.00    +0.099 A 
ATOM     18  N   LIG    1       23.561 -32.414   7.182  0.00  0.00    -0.113 NA
ENDROOT
BRANCH   1  19
ATOM     19  N   LIG    1       24.300 -31.153   5.375  0.00  0.00    -0.251 N 
ATOM     20  H   LIG    1       25.089 -31.714   5.071  0.00  0.00    +0.241 HD
ATOM     21  H   LIG    1       23.477 -31.312   4.805  0.00  0.00    +0.241 HD
ENDBRANCH   1  19
TORSDOF 1
ENDMDL
MODEL 6
REMARK VINA RESULT:      -6.2      9.976     11.259
REMARK  Name = *****
REMARK                            x       y       z     vdW  Elec       q    Type
REMARK                         _______ _______ _______ _____ _____    ______ ____
ROOT
ATOM      1  C   LIG    1       21.737 -31.638  10.139  0.00  0.00    +0.370 C 
ATOM      2  N   LIG    1       22.449 -30.546  10.582  0.00  0.00    -0.182 N 
ATOM      3  C   LIG    1       21.796 -30.165  11.833  0.00  0.00    +0.212 C 
ATOM      4  C   LIG    1       22.042 -28.780  12.378  0.00  0.00    -0.006 A 
ATOM      5  C   LIG    1       23.366 -28.415  12.710  0.00  0.00    -0.037 A 
ATOM      6  C   LIG    1       24.513 -29.359  12.409  0.00  0.00    +0.074 C 
ATOM      7  C   LIG    1       24.715 -29.616  10.935  0.00  0.00    -0.006 A 
ATOM      8  C   LIG    1       25.998 -29.386  10.390  0.00  0.00    +0.007 A 
ATOM      9  C   LIG    1       26.257 -29.573   9.032  0.00  0.00    +0.001 A 
ATOM     10  C   LIG    1       25.228 -29.956   8.191  0.00  0.00    +0.003 A 
ATOM     11  C   LIG    1       23.966 -30.213   8.726  0.00  0.00    +0.040 A 
ATOM     12  C   LIG    1       23.612 -27.202  13.372  0.00  0.00    +0.004 A 
ATOM     13  C   LIG    1       22.559 -26.362  13.725  0.00  0.00    +0.000 A 
ATOM     14  C   LIG    1       21.253 -26.715  13.401  0.00  0.00    +0.000 A 
ATOM     15  C   LIG    1       20.995 -27.911  12.730  0.00  0.00    +0.007 A 
ATOM     16  C   LIG    1       20.354 -30.590  11.467  0.00  0.00    +0.287 C 
ATOM     17  C   LIG    1       23.691 -30.119  10.110  0.00  0.00    +0.099 A 
ATOM     18  N   LIG    1       20.523 -31.810  10.615  0.00  0.00    -0.113 NA
ENDROOT
BRANCH   1  19
ATOM     19  N   LIG    1       22.337 -32.583   9.387  0.00  0.00    -0.251 N 
ATOM     20  H   LIG    1       22.195 -33.525   9.737  0.00  0.00    +0.241 HD
ATOM     21  H   LIG    1       22.084 -32.497   8.409  0.00  0.00    +0.241 HD
ENDBRANCH   1  19
TORSDOF 1
ENDMDL
MODEL 7
REMARK VINA RESULT:      -6.1      9.483     10.546
REMARK  Name = *****
REMARK                            x       y       z     vdW  Elec       q    Type
REMARK                         _______ _______ _______ _____ _____    ______ ____
ROOT
ATOM      1  C   LIG    1       25.279 -26.447  14.458  0.00  0.00    +0.370 C 
ATOM      2  N   LIG    1       24.776 -27.198  13.420  0.00  0.00    -0.182 N 
ATOM      3  C   LIG    1       25.930 -27.932  12.905  0.00  0.00    +0.212 C 
ATOM      4  C   LIG    1       25.843 -28.529  11.523  0.00  0.00    -0.006 A 
ATOM      5  C   LIG    1       24.846 -29.500  11.274  0.00  0.00    -0.037 A 
ATOM      6  C   LIG    1       23.824 -29.833  12.344  0.00  0.00    +0.074 C 
ATOM      7  C   LIG    1       22.925 -28.675  12.702  0.00  0.00    -0.006 A 
ATOM      8  C   LIG    1       21.527 -28.873  12.633  0.00  0.00    +0.007 A 
ATOM      9  C   LIG    1       20.631 -27.844  12.923  0.00  0.00    +0.001 A 
ATOM     10  C   LIG    1       21.117 -26.590  13.248  0.00  0.00    +0.003 A 
ATOM     11  C   LIG    1       22.494 -26.395  13.346  0.00  0.00    +0.040 A 
ATOM     12  C   LIG    1       24.838 -30.198  10.056  0.00  0.00    +0.004 A 
ATOM     13  C   LIG    1       25.818 -29.958   9.095  0.00  0.00    +0.000 A 
ATOM     14  C   LIG    1       26.802 -29.004   9.334  0.00  0.00    +0.000 A 
ATOM     15  C   LIG    1       26.813 -28.292  10.535  0.00  0.00    +0.007 A 
ATOM     16  C   LIG    1       27.017 -26.871  13.203  0.00  0.00    +0.287 C 
ATOM     17  C   LIG    1       23.429 -27.437  13.146  0.00  0.00    +0.099 A 
ATOM     18  N   LIG    1       26.576 -26.226  14.481  0.00  0.00    -0.113 NA
ENDROOT
BRANCH   1  19
ATOM     19  N   LIG    1       24.491 -26.111  15.500  0.00  0.00    -0.251 N 
ATOM     20  H   LIG    1       24.997 -25.671  16.261  0.00  0.00    +0.241 HD
ATOM     21  H   LIG    1       23.696 -25.558  15.201  0.00  0.00    +0.241 HD
ENDBRANCH   1  19
TORSDOF 1
ENDMDL
