MODEL 1
REMARK VINA RESULT:      -3.8      0.000      0.000
REMARK  Name = *****
REMARK                            x       y       z     vdW  Elec       q    Type
REMARK                         _______ _______ _______ _____ _____    ______ ____
ROOT
ATOM      1  C   LIG    1       25.920 -15.569   3.463  0.00  0.00    -0.011 A 
ATOM      2  C   LIG    1       24.870 -14.816   4.033  0.00  0.00    +0.043 A 
ATOM      3  C   LIG    1       25.127 -13.487   4.430  0.00  0.00    +0.040 A 
ATOM      4 BR   LIG    1       23.742 -12.393   5.133  0.00  0.00    -0.048 Br
ATOM      5  C   LIG    1       26.411 -12.945   4.354  0.00  0.00    +0.032 A 
ATOM      6  C   LIG    1       27.448 -13.715   3.842  0.00  0.00    +0.019 A 
ATOM      7 BR   LIG    1       29.196 -12.999   3.752  0.00  0.00    -0.050 Br
ATOM      8  C   LIG    1       27.211 -15.012   3.389  0.00  0.00    +0.022 A 
ENDROOT
BRANCH   2   9
ATOM      9  N   LIG    1       23.552 -15.327   4.015  0.00  0.00    -0.357 N 
ATOM     10  H   LIG    1       23.554 -16.320   3.746  0.00  0.00    +0.142 HD
ATOM     11  H   LIG    1       23.075 -15.182   4.895  0.00  0.00    +0.142 HD
ENDBRANCH   2   9
BRANCH   1  12
ATOM     12  C   LIG    1       25.709 -16.989   2.952  0.00  0.00    +0.121 C 
BRANCH  12  14
ATOM     13  C   LIG    1       27.204 -18.274   4.361  0.00  0.00    +0.105 C 
ATOM     14  N   LIG    1       25.811 -18.017   4.013  0.00  0.00    -0.298 NA
BRANCH  14  15
ATOM     15  C   LIG    1       24.970 -19.206   3.728  0.00  0.00    +0.057 C 
ATOM     16  C   LIG    1       25.182 -20.469   4.589  0.00  0.00    +0.019 C 
ATOM     17  C   LIG    1       24.408 -20.483   5.902  0.00  0.00    +0.002 C 
ATOM     18  C   LIG    1       22.919 -20.264   5.672  0.00  0.00    +0.000 C 
ATOM     19  C   LIG    1       22.642 -18.985   4.894  0.00  0.00    +0.002 C 
ATOM     20  C   LIG    1       23.460 -18.882   3.604  0.00  0.00    +0.019 C 
ENDBRANCH  14  15
ENDBRANCH  12  14
ENDBRANCH   1  12
TORSDOF 4
ENDMDL
MODEL 2
REMARK VINA RESULT:      -3.6      3.259      6.674
REMARK  Name = *****
REMARK                            x       y       z     vdW  Elec       q    Type
REMARK                         _______ _______ _______ _____ _____    ______ ____
ROOT
ATOM      1  C   LIG    1       25.471 -18.923   4.056  0.00  0.00    -0.011 A 
ATOM      2  C   LIG    1       26.439 -19.435   4.948  0.00  0.00    +0.043 A 
ATOM      3  C   LIG    1       26.092 -20.531   5.767  0.00  0.00    +0.040 A 
ATOM      4 BR   LIG    1       27.368 -21.317   6.935  0.00  0.00    -0.048 Br
ATOM      5  C   LIG    1       24.796 -21.047   5.774  0.00  0.00    +0.032 A 
ATOM      6  C   LIG    1       23.838 -20.498   4.931  0.00  0.00    +0.019 A 
ATOM      7 BR   LIG    1       22.073 -21.176   4.945  0.00  0.00    -0.050 Br
ATOM      8  C   LIG    1       24.166 -19.453   4.069  0.00  0.00    +0.022 A 
ENDROOT
BRANCH   2   9
ATOM      9  N   LIG    1       27.775 -18.982   4.867  0.00  0.00    -0.357 N 
ATOM     10  H   LIG    1       28.123 -18.716   5.799  0.00  0.00    +0.142 HD
ATOM     11  H   LIG    1       28.381 -19.660   4.424  0.00  0.00    +0.142 HD
ENDBRANCH   2   9
BRANCH   1  12
ATOM     12  C   LIG    1       25.784 -17.783   3.094  0.00  0.00    +0.121 C 
BRANCH  12  14
ATOM     13  C   LIG    1       24.442 -15.876   3.753  0.00  0.00    +0.105 C 
ATOM     14  N   LIG    1       25.783 -16.450   3.741  0.00  0.00    -0.298 NA
BRANCH  14  15
ATOM     15  C   LIG    1       26.872 -15.579   3.236  0.00  0.00    +0.057 C 
ATOM     16  C   LIG    1       26.515 -14.501   2.191  0.00  0.00    +0.019 C 
ATOM     17  C   LIG    1       26.005 -13.189   2.777  0.00  0.00    +0.002 C 
ATOM     18  C   LIG    1       26.986 -12.615   3.789  0.00  0.00    +0.000 C 
ATOM     19  C   LIG    1       27.315 -13.609   4.894  0.00  0.00    +0.002 C 
ATOM     20  C   LIG    1       27.753 -14.974   4.358  0.00  0.00    +0.019 C 
ENDBRANCH  14  15
ENDBRANCH  12  14
ENDBRANCH   1  12
TORSDOF 4
ENDMDL
MODEL 3
REMARK VINA RESULT:      -3.5      3.189      6.229
REMARK  Name = *****
REMARK                            x       y       z     vdW  Elec       q    Type
REMARK                         _______ _______ _______ _____ _____    ______ ____
ROOT
ATOM      1  C   LIG    1       25.667 -18.859   4.138  0.00  0.00    -0.011 A 
ATOM      2  C   LIG    1       24.473 -19.574   4.382  0.00  0.00    +0.043 A 
ATOM      3  C   LIG    1       24.472 -20.571   5.380  0.00  0.00    +0.040 A 
ATOM      4 BR   LIG    1       22.882 -21.518   5.811  0.00  0.00    -0.048 Br
ATOM      5  C   LIG    1       25.643 -20.921   6.053  0.00  0.00    +0.032 A 
ATOM      6  C   LIG    1       26.824 -20.249   5.765  0.00  0.00    +0.019 A 
ATOM      7 BR   LIG    1       28.421 -20.727   6.657  0.00  0.00    -0.050 Br
ATOM      8  C   LIG    1       26.842 -19.219   4.825  0.00  0.00    +0.022 A 
ENDROOT
BRANCH   2   9
ATOM      9  N   LIG    1       23.268 -19.151   3.776  0.00  0.00    -0.357 N 
ATOM     10  H   LIG    1       23.462 -18.502   3.002  0.00  0.00    +0.142 HD
ATOM     11  H   LIG    1       22.700 -19.931   3.473  0.00  0.00    +0.142 HD
ENDBRANCH   2   9
BRANCH   1  12
ATOM     12  C   LIG    1       25.735 -17.725   3.123  0.00  0.00    +0.121 C 
BRANCH  12  14
ATOM     13  C   LIG    1       24.410 -15.794   3.744  0.00  0.00    +0.105 C 
ATOM     14  N   LIG    1       25.745 -16.380   3.745  0.00  0.00    -0.298 NA
BRANCH  14  15
ATOM     15  C   LIG    1       26.843 -15.528   3.224  0.00  0.00    +0.057 C 
ATOM     16  C   LIG    1       26.487 -14.430   2.199  0.00  0.00    +0.019 C 
ATOM     17  C   LIG    1       26.021 -13.114   2.811  0.00  0.00    +0.002 C 
ATOM     18  C   LIG    1       27.037 -12.574   3.807  0.00  0.00    +0.000 C 
ATOM     19  C   LIG    1       27.369 -13.588   4.893  0.00  0.00    +0.002 C 
ATOM     20  C   LIG    1       27.762 -14.957   4.332  0.00  0.00    +0.019 C 
ENDBRANCH  14  15
ENDBRANCH  12  14
ENDBRANCH   1  12
TORSDOF 4
ENDMDL
MODEL 4
REMARK VINA RESULT:      -3.4      3.119      6.428
REMARK  Name = *****
REMARK                            x       y       z     vdW  Elec       q    Type
REMARK                         _______ _______ _______ _____ _____    ______ ____
ROOT
ATOM      1  C   LIG    1       26.008 -17.896   3.741  0.00  0.00    -0.011 A 
ATOM      2  C   LIG    1       27.173 -18.217   4.471  0.00  0.00    +0.043 A 
ATOM      3  C   LIG    1       27.292 -19.510   5.023  0.00  0.00    +0.040 A 
ATOM      4 BR   LIG    1       28.865 -20.032   5.953  0.00  0.00    -0.048 Br
ATOM      5  C   LIG    1       26.248 -20.431   4.938  0.00  0.00    +0.032 A 
ATOM      6  C   LIG    1       25.084 -20.085   4.263  0.00  0.00    +0.019 A 
ATOM      7 BR   LIG    1       23.654 -21.318   4.157  0.00  0.00    -0.050 Br
ATOM      8  C   LIG    1       24.961 -18.834   3.659  0.00  0.00    +0.022 A 
ENDROOT
BRANCH   2   9
ATOM      9  N   LIG    1       28.268 -17.323   4.470  0.00  0.00    -0.357 N 
ATOM     10  H   LIG    1       28.448 -16.974   3.519  0.00  0.00    +0.142 HD
ATOM     11  H   LIG    1       28.141 -16.564   5.126  0.00  0.00    +0.142 HD
ENDBRANCH   2   9
BRANCH   1  12
ATOM     12  C   LIG    1       25.829 -16.544   3.060  0.00  0.00    +0.121 C 
BRANCH  12  14
ATOM     13  C   LIG    1       23.844 -15.572   4.054  0.00  0.00    +0.105 C 
ATOM     14  N   LIG    1       25.298 -15.497   3.964  0.00  0.00    -0.298 NA
BRANCH  14  15
ATOM     15  C   LIG    1       25.877 -14.161   3.678  0.00  0.00    +0.057 C 
ATOM     16  C   LIG    1       25.841 -13.651   2.221  0.00  0.00    +0.019 C 
ATOM     17  C   LIG    1       24.544 -12.957   1.821  0.00  0.00    +0.002 C 
ATOM     18  C   LIG    1       24.209 -11.816   2.771  0.00  0.00    +0.000 C 
ATOM     19  C   LIG    1       24.150 -12.277   4.220  0.00  0.00    +0.002 C 
ATOM     20  C   LIG    1       25.395 -13.056   4.650  0.00  0.00    +0.019 C 
ENDBRANCH  14  15
ENDBRANCH  12  14
ENDBRANCH   1  12
TORSDOF 4
ENDMDL
MODEL 5
REMARK VINA RESULT:      -3.0      3.130      6.077
REMARK  Name = *****
REMARK                            x       y       z     vdW  Elec       q    Type
REMARK                         _______ _______ _______ _____ _____    ______ ____
ROOT
ATOM      1  C   LIG    1       25.206 -18.614   4.103  0.00  0.00    -0.011 A 
ATOM      2  C   LIG    1       24.094 -19.423   4.427  0.00  0.00    +0.043 A 
ATOM      3  C   LIG    1       24.273 -20.491   5.331  0.00  0.00    +0.040 A 
ATOM      4 BR   LIG    1       22.805 -21.571   5.867  0.00  0.00    -0.048 Br
ATOM      5  C   LIG    1       25.536 -20.812   5.829  0.00  0.00    +0.032 A 
ATOM      6  C   LIG    1       26.632 -20.043   5.461  0.00  0.00    +0.019 A 
ATOM      7 BR   LIG    1       28.352 -20.479   6.115  0.00  0.00    -0.050 Br
ATOM      8  C   LIG    1       26.476 -18.946   4.614  0.00  0.00    +0.022 A 
ENDROOT
BRANCH   2   9
ATOM      9  N   LIG    1       22.801 -19.037   4.004  0.00  0.00    -0.357 N 
ATOM     10  H   LIG    1       22.328 -19.818   3.530  0.00  0.00    +0.142 HD
ATOM     11  H   LIG    1       22.244 -18.674   4.767  0.00  0.00    +0.142 HD
ENDBRANCH   2   9
BRANCH   1  12
ATOM     12  C   LIG    1       25.084 -17.404   3.185  0.00  0.00    +0.121 C 
BRANCH  12  14
ATOM     13  C   LIG    1       23.432 -15.941   4.184  0.00  0.00    +0.105 C 
ATOM     14  N   LIG    1       24.851 -16.135   3.913  0.00  0.00    -0.298 NA
BRANCH  14  15
ATOM     15  C   LIG    1       25.571 -14.993   3.296  0.00  0.00    +0.057 C 
ATOM     16  C   LIG    1       25.192 -13.567   3.748  0.00  0.00    +0.019 C 
ATOM     17  C   LIG    1       25.909 -13.084   5.003  0.00  0.00    +0.002 C 
ATOM     18  C   LIG    1       27.420 -13.190   4.855  0.00  0.00    +0.000 C 
ATOM     19  C   LIG    1       27.862 -14.599   4.487  0.00  0.00    +0.002 C 
ATOM     20  C   LIG    1       27.110 -15.165   3.280  0.00  0.00    +0.019 C 
ENDBRANCH  14  15
ENDBRANCH  12  14
ENDBRANCH   1  12
TORSDOF 4
ENDMDL
MODEL 6
REMARK VINA RESULT:      -2.5      3.158      5.997
REMARK  Name = *****
REMARK                            x       y       z     vdW  Elec       q    Type
REMARK                         _______ _______ _______ _____ _____    ______ ____
ROOT
ATOM      1  C   LIG    1       25.721 -18.713   4.052  0.00  0.00    -0.011 A 
ATOM      2  C   LIG    1       24.559 -19.439   4.395  0.00  0.00    +0.043 A 
ATOM      3  C   LIG    1       24.647 -20.423   5.402  0.00  0.00    +0.040 A 
ATOM      4 BR   LIG    1       23.107 -21.383   5.964  0.00  0.00    -0.048 Br
ATOM      5  C   LIG    1       25.870 -20.749   5.989  0.00  0.00    +0.032 A 
ATOM      6  C   LIG    1       27.016 -20.066   5.605  0.00  0.00    +0.019 A 
ATOM      7 BR   LIG    1       28.683 -20.511   6.380  0.00  0.00    -0.050 Br
ATOM      8  C   LIG    1       26.950 -19.049   4.653  0.00  0.00    +0.022 A 
ENDROOT
BRANCH   2   9
ATOM      9  N   LIG    1       23.307 -19.040   3.876  0.00  0.00    -0.357 N 
ATOM     10  H   LIG    1       22.863 -18.350   4.496  0.00  0.00    +0.142 HD
ATOM     11  H   LIG    1       23.380 -18.693   2.928  0.00  0.00    +0.142 HD
ENDBRANCH   2   9
BRANCH   1  12
ATOM     12  C   LIG    1       25.698 -17.592   3.020  0.00  0.00    +0.121 C 
BRANCH  12  14
ATOM     13  C   LIG    1       27.586 -16.918   4.382  0.00  0.00    +0.105 C 
ATOM     14  N   LIG    1       26.766 -16.585   3.222  0.00  0.00    -0.298 NA
BRANCH  14  15
ATOM     15  C   LIG    1       26.250 -15.196   3.152  0.00  0.00    +0.057 C 
ATOM     16  C   LIG    1       25.590 -14.602   4.416  0.00  0.00    +0.019 C 
ATOM     17  C   LIG    1       26.564 -13.980   5.410  0.00  0.00    +0.002 C 
ATOM     18  C   LIG    1       27.439 -12.927   4.746  0.00  0.00    +0.000 C 
ATOM     19  C   LIG    1       28.180 -13.478   3.537  0.00  0.00    +0.002 C 
ATOM     20  C   LIG    1       27.258 -14.190   2.544  0.00  0.00    +0.019 C 
ENDBRANCH  14  15
ENDBRANCH  12  14
ENDBRANCH   1  12
TORSDOF 4
ENDMDL
MODEL 7
REMARK VINA RESULT:      -2.4      1.494      2.774
REMARK  Name = *****
REMARK                            x       y       z     vdW  Elec       q    Type
REMARK                         _______ _______ _______ _____ _____    ______ ____
ROOT
ATOM      1  C   LIG    1       25.935 -15.620   3.426  0.00  0.00    -0.011 A 
ATOM      2  C   LIG    1       27.209 -15.099   3.742  0.00  0.00    +0.043 A 
ATOM      3  C   LIG    1       27.444 -13.721   3.549  0.00  0.00    +0.040 A 
ATOM      4 BR   LIG    1       29.111 -12.941   4.024  0.00  0.00    -0.048 Br
ATOM      5  C   LIG    1       26.479 -12.897   2.971  0.00  0.00    +0.032 A 
ATOM      6  C   LIG    1       25.248 -13.432   2.614  0.00  0.00    +0.019 A 
ATOM      7 BR   LIG    1       23.937 -12.330   1.812  0.00  0.00    -0.050 Br
ATOM      8  C   LIG    1       24.966 -14.778   2.845  0.00  0.00    +0.022 A 
ENDROOT
BRANCH   2   9
ATOM      9  N   LIG    1       28.148 -15.909   4.420  0.00  0.00    -0.357 N 
ATOM     10  H   LIG    1       27.710 -16.787   4.729  0.00  0.00    +0.142 HD
ATOM     11  H   LIG    1       28.975 -16.083   3.863  0.00  0.00    +0.142 HD
ENDBRANCH   2   9
BRANCH   1  12
ATOM     12  C   LIG    1       25.580 -17.083   3.664  0.00  0.00    +0.121 C 
BRANCH  12  14
ATOM     13  C   LIG    1       23.342 -16.616   4.466  0.00  0.00    +0.105 C 
ATOM     14  N   LIG    1       24.136 -17.370   3.503  0.00  0.00    -0.298 NA
BRANCH  14  15
ATOM     15  C   LIG    1       23.858 -18.826   3.412  0.00  0.00    +0.057 C 
ATOM     16  C   LIG    1       25.013 -19.805   3.713  0.00  0.00    +0.019 C 
ATOM     17  C   LIG    1       25.201 -20.134   5.189  0.00  0.00    +0.002 C 
ATOM     18  C   LIG    1       23.913 -20.655   5.810  0.00  0.00    +0.000 C 
ATOM     19  C   LIG    1       22.752 -19.690   5.615  0.00  0.00    +0.002 C 
ATOM     20  C   LIG    1       22.572 -19.260   4.157  0.00  0.00    +0.019 C 
ENDBRANCH  14  15
ENDBRANCH  12  14
ENDBRANCH   1  12
TORSDOF 4
ENDMDL
MODEL 8
REMARK VINA RESULT:      -2.4      1.432      2.529
REMARK  Name = *****
REMARK                            x       y       z     vdW  Elec       q    Type
REMARK                         _______ _______ _______ _____ _____    ______ ____
ROOT
ATOM      1  C   LIG    1       26.237 -16.141   3.451  0.00  0.00    -0.011 A 
ATOM      2  C   LIG    1       27.307 -15.471   4.085  0.00  0.00    +0.043 A 
ATOM      3  C   LIG    1       27.152 -14.108   4.416  0.00  0.00    +0.040 A 
ATOM      4 BR   LIG    1       28.521 -13.167   5.337  0.00  0.00    -0.048 Br
ATOM      5  C   LIG    1       26.009 -13.400   4.046  0.00  0.00    +0.032 A 
ATOM      6  C   LIG    1       24.986 -14.056   3.374  0.00  0.00    +0.019 A 
ATOM      7 BR   LIG    1       23.439 -13.103   2.850  0.00  0.00    -0.050 Br
ATOM      8  C   LIG    1       25.086 -15.416   3.084  0.00  0.00    +0.022 A 
ENDROOT
BRANCH   2   9
ATOM      9  N   LIG    1       28.418 -16.210   4.549  0.00  0.00    -0.357 N 
ATOM     10  H   LIG    1       28.176 -16.726   5.406  0.00  0.00    +0.142 HD
ATOM     11  H   LIG    1       28.789 -16.827   3.838  0.00  0.00    +0.142 HD
ENDBRANCH   2   9
BRANCH   1  12
ATOM     12  C   LIG    1       26.300 -17.626   3.116  0.00  0.00    +0.121 C 
BRANCH  12  14
ATOM     13  C   LIG    1       26.466 -19.385   4.775  0.00  0.00    +0.105 C 
ATOM     14  N   LIG    1       25.562 -18.477   4.078  0.00  0.00    -0.298 NA
BRANCH  14  15
ATOM     15  C   LIG    1       24.348 -19.083   3.477  0.00  0.00    +0.057 C 
ATOM     16  C   LIG    1       24.268 -20.622   3.396  0.00  0.00    +0.019 C 
ATOM     17  C   LIG    1       23.742 -21.300   4.656  0.00  0.00    +0.002 C 
ATOM     18  C   LIG    1       22.388 -20.738   5.064  0.00  0.00    +0.000 C 
ATOM     19  C   LIG    1       22.424 -19.226   5.238  0.00  0.00    +0.002 C 
ATOM     20  C   LIG    1       23.024 -18.500   4.032  0.00  0.00    +0.019 C 
ENDBRANCH  14  15
ENDBRANCH  12  14
ENDBRANCH   1  12
TORSDOF 4
ENDMDL
MODEL 9
REMARK VINA RESULT:      -2.0      3.047      6.123
REMARK  Name = *****
REMARK                            x       y       z     vdW  Elec       q    Type
REMARK                         _______ _______ _______ _____ _____    ______ ____
ROOT
ATOM      1  C   LIG    1       25.540 -18.003   3.834  0.00  0.00    -0.011 A 
ATOM      2  C   LIG    1       26.013 -19.076   4.621  0.00  0.00    +0.043 A 
ATOM      3  C   LIG    1       25.097 -20.062   5.043  0.00  0.00    +0.040 A 
ATOM      4 BR   LIG    1       25.679 -21.571   6.040  0.00  0.00    -0.048 Br
ATOM      5  C   LIG    1       23.733 -19.944   4.775  0.00  0.00    +0.032 A 
ATOM      6  C   LIG    1       23.272 -18.855   4.046  0.00  0.00    +0.019 A 
ATOM      7 BR   LIG    1       21.423 -18.674   3.692  0.00  0.00    -0.050 Br
ATOM      8  C   LIG    1       24.161 -17.894   3.567  0.00  0.00    +0.022 A 
ENDROOT
BRANCH   2   9
ATOM      9  N   LIG    1       27.404 -19.249   4.804  0.00  0.00    -0.357 N 
ATOM     10  H   LIG    1       27.590 -20.063   5.405  0.00  0.00    +0.142 HD
ATOM     11  H   LIG    1       27.898 -19.316   3.924  0.00  0.00    +0.142 HD
ENDBRANCH   2   9
BRANCH   1  12
ATOM     12  C   LIG    1       26.474 -16.930   3.286  0.00  0.00    +0.121 C 
BRANCH  12  14
ATOM     13  C   LIG    1       26.666 -14.724   2.304  0.00  0.00    +0.105 C 
ATOM     14  N   LIG    1       25.802 -15.631   3.049  0.00  0.00    -0.298 NA
BRANCH  14  15
ATOM     15  C   LIG    1       25.177 -15.089   4.281  0.00  0.00    +0.057 C 
ATOM     16  C   LIG    1       26.025 -14.162   5.178  0.00  0.00    +0.019 C 
ATOM     17  C   LIG    1       26.018 -12.694   4.765  0.00  0.00    +0.002 C 
ATOM     18  C   LIG    1       24.599 -12.153   4.666  0.00  0.00    +0.000 C 
ATOM     19  C   LIG    1       23.734 -12.983   3.728  0.00  0.00    +0.002 C 
ATOM     20  C   LIG    1       23.773 -14.480   4.047  0.00  0.00    +0.019 C 
ENDBRANCH  14  15
ENDBRANCH  12  14
ENDBRANCH   1  12
TORSDOF 4
ENDMDL
