MODEL 1
REMARK VINA RESULT:      -2.3      0.000      0.000
REMARK  Name = *****
REMARK                            x       y       z     vdW  Elec       q    Type
REMARK                         _______ _______ _______ _____ _____    ______ ____
ROOT
ATOM      1  C   LIG    1       27.554 -13.892   3.295  0.00  0.00    +0.088 C 
ENDROOT
BRANCH   1   2
ATOM      2  N   LIG    1       26.843 -14.135   2.038  0.00  0.00    -0.329 NA
ATOM      3  H   LIG    1       26.758 -15.139   1.881  0.00  0.00    +0.118 HD
ATOM      4  H   LIG    1       25.889 -13.783   2.122  0.00  0.00    +0.118 HD
ENDBRANCH   1   2
BRANCH   1   5
ATOM      5  C   LIG    1       26.579 -13.779   4.470  0.00  0.00    +0.080 C 
BRANCH   5   6
ATOM      6  S   LIG    1       24.888 -14.199   3.949  0.00  0.00    -0.177 S 
ATOM      7  H   LIG    1       24.684 -13.106   3.199  0.00  0.00    +0.102 HD
ENDBRANCH   5   6
ENDBRANCH   1   5
TORSDOF 3
ENDMDL
MODEL 2
REMARK VINA RESULT:      -2.3      1.260      1.260
REMARK  Name = *****
REMARK                            x       y       z     vdW  Elec       q    Type
REMARK                         _______ _______ _______ _____ _____    ______ ____
ROOT
ATOM      1  C   LIG    1       26.410 -14.873   3.222  0.00  0.00    +0.088 C 
ENDROOT
BRANCH   1   2
ATOM      2  N   LIG    1       26.765 -14.108   2.025  0.00  0.00    -0.329 NA
ATOM      3  H   LIG    1       27.272 -14.706   1.373  0.00  0.00    +0.118 HD
ATOM      4  H   LIG    1       25.911 -13.829   1.542  0.00  0.00    +0.118 HD
ENDBRANCH   1   2
BRANCH   1   5
ATOM      5  C   LIG    1       25.391 -14.117   4.079  0.00  0.00    +0.080 C 
BRANCH   5   6
ATOM      6  S   LIG    1       24.301 -13.097   3.041  0.00  0.00    -0.177 S 
ATOM      7  H   LIG    1       25.276 -12.401   2.435  0.00  0.00    +0.102 HD
ENDBRANCH   5   6
ENDBRANCH   1   5
TORSDOF 3
ENDMDL
MODEL 3
REMARK VINA RESULT:      -2.3      1.685      1.685
REMARK  Name = *****
REMARK                            x       y       z     vdW  Elec       q    Type
REMARK                         _______ _______ _______ _____ _____    ______ ____
ROOT
ATOM      1  C   LIG    1       25.698 -13.434   2.496  0.00  0.00    +0.088 C 
ENDROOT
BRANCH   1   2
ATOM      2  N   LIG    1       26.882 -14.148   2.012  0.00  0.00    -0.329 NA
ATOM      3  H   LIG    1       26.740 -15.153   2.109  0.00  0.00    +0.118 HD
ATOM      4  H   LIG    1       26.990 -13.976   1.012  0.00  0.00    +0.118 HD
ENDBRANCH   1   2
BRANCH   1   5
ATOM      5  C   LIG    1       25.389 -13.799   3.950  0.00  0.00    +0.080 C 
BRANCH   5   6
ATOM      6  S   LIG    1       26.853 -13.559   5.003  0.00  0.00    -0.177 S 
ATOM      7  H   LIG    1       27.611 -14.502   4.425  0.00  0.00    +0.102 HD
ENDBRANCH   5   6
ENDBRANCH   1   5
TORSDOF 3
ENDMDL
MODEL 4
REMARK VINA RESULT:      -2.3      2.047      2.047
REMARK  Name = *****
REMARK                            x       y       z     vdW  Elec       q    Type
REMARK                         _______ _______ _______ _____ _____    ______ ____
ROOT
ATOM      1  C   LIG    1       26.410 -14.731   3.224  0.00  0.00    +0.088 C 
ENDROOT
BRANCH   1   2
ATOM      2  N   LIG    1       26.793 -14.160   1.931  0.00  0.00    -0.329 NA
ATOM      3  H   LIG    1       27.454 -13.397   2.075  0.00  0.00    +0.118 HD
ATOM      4  H   LIG    1       27.294 -14.865   1.390  0.00  0.00    +0.118 HD
ENDBRANCH   1   2
BRANCH   1   5
ATOM      5  C   LIG    1       27.002 -13.923   4.382  0.00  0.00    +0.080 C 
BRANCH   5   6
ATOM      6  S   LIG    1       28.529 -13.080   3.869  0.00  0.00    -0.177 S 
ATOM      7  H   LIG    1       29.131 -14.160   3.348  0.00  0.00    +0.102 HD
ENDBRANCH   5   6
ENDBRANCH   1   5
TORSDOF 3
ENDMDL
MODEL 5
REMARK VINA RESULT:      -2.3      1.816      1.946
REMARK  Name = *****
REMARK                            x       y       z     vdW  Elec       q    Type
REMARK                         _______ _______ _______ _____ _____    ______ ____
ROOT
ATOM      1  C   LIG    1       27.776 -13.763   3.781  0.00  0.00    +0.088 C 
ENDROOT
BRANCH   1   2
ATOM      2  N   LIG    1       29.109 -13.303   3.383  0.00  0.00    -0.329 NA
ATOM      3  H   LIG    1       29.219 -12.319   3.627  0.00  0.00    +0.118 HD
ATOM      4  H   LIG    1       29.811 -13.806   3.926  0.00  0.00    +0.118 HD
ENDBRANCH   1   2
BRANCH   1   5
ATOM      5  C   LIG    1       26.918 -14.094   2.557  0.00  0.00    +0.080 C 
BRANCH   5   6
ATOM      6  S   LIG    1       25.384 -13.118   2.559  0.00  0.00    -0.177 S 
ATOM      7  H   LIG    1       24.972 -13.481   1.335  0.00  0.00    +0.102 HD
ENDBRANCH   5   6
ENDBRANCH   1   5
TORSDOF 3
ENDMDL
MODEL 6
REMARK VINA RESULT:      -2.2      6.611      6.666
REMARK  Name = *****
REMARK                            x       y       z     vdW  Elec       q    Type
REMARK                         _______ _______ _______ _____ _____    ______ ____
ROOT
ATOM      1  C   LIG    1       25.348 -20.042   4.298  0.00  0.00    +0.088 C 
ENDROOT
BRANCH   1   2
ATOM      2  N   LIG    1       26.740 -20.056   4.751  0.00  0.00    -0.329 NA
ATOM      3  H   LIG    1       27.331 -19.596   4.058  0.00  0.00    +0.118 HD
ATOM      4  H   LIG    1       26.820 -19.497   5.601  0.00  0.00    +0.118 HD
ENDBRANCH   1   2
BRANCH   1   5
ATOM      5  C   LIG    1       24.416 -20.636   5.357  0.00  0.00    +0.080 C 
BRANCH   5   6
ATOM      6  S   LIG    1       22.742 -19.939   5.211  0.00  0.00    -0.177 S 
ATOM      7  H   LIG    1       22.107 -21.107   5.034  0.00  0.00    +0.102 HD
ENDBRANCH   5   6
ENDBRANCH   1   5
TORSDOF 3
ENDMDL
MODEL 7
REMARK VINA RESULT:      -2.2      1.570      1.589
REMARK  Name = *****
REMARK                            x       y       z     vdW  Elec       q    Type
REMARK                         _______ _______ _______ _____ _____    ______ ____
ROOT
ATOM      1  C   LIG    1       26.812 -14.065   2.560  0.00  0.00    +0.088 C 
ENDROOT
BRANCH   1   2
ATOM      2  N   LIG    1       27.973 -13.324   3.057  0.00  0.00    -0.329 NA
ATOM      3  H   LIG    1       27.764 -12.326   3.071  0.00  0.00    +0.118 HD
ATOM      4  H   LIG    1       28.146 -13.587   4.028  0.00  0.00    +0.118 HD
ENDBRANCH   1   2
BRANCH   1   5
ATOM      5  C   LIG    1       25.576 -13.165   2.480  0.00  0.00    +0.080 C 
BRANCH   5   6
ATOM      6  S   LIG    1       24.318 -13.683   3.688  0.00  0.00    -0.177 S 
ATOM      7  H   LIG    1       23.300 -12.994   3.152  0.00  0.00    +0.102 HD
ENDBRANCH   5   6
ENDBRANCH   1   5
TORSDOF 3
ENDMDL
MODEL 8
REMARK VINA RESULT:      -2.1      7.162      7.197
REMARK  Name = *****
REMARK                            x       y       z     vdW  Elec       q    Type
REMARK                         _______ _______ _______ _____ _____    ______ ____
ROOT
ATOM      1  C   LIG    1       25.800 -20.623   5.835  0.00  0.00    +0.088 C 
ENDROOT
BRANCH   1   2
ATOM      2  N   LIG    1       26.487 -20.214   4.608  0.00  0.00    -0.329 NA
ATOM      3  H   LIG    1       26.319 -19.224   4.434  0.00  0.00    +0.118 HD
ATOM      4  H   LIG    1       27.494 -20.307   4.743  0.00  0.00    +0.118 HD
ENDBRANCH   1   2
BRANCH   1   5
ATOM      5  C   LIG    1       26.707 -20.458   7.058  0.00  0.00    +0.080 C 
BRANCH   5   6
ATOM      6  S   LIG    1       28.452 -20.352   6.559  0.00  0.00    -0.177 S 
ATOM      7  H   LIG    1       28.363 -21.189   5.515  0.00  0.00    +0.102 HD
ENDBRANCH   5   6
ENDBRANCH   1   5
TORSDOF 3
ENDMDL
MODEL 9
REMARK VINA RESULT:      -2.1      5.747      5.791
REMARK  Name = *****
REMARK                            x       y       z     vdW  Elec       q    Type
REMARK                         _______ _______ _______ _____ _____    ______ ____
ROOT
ATOM      1  C   LIG    1       25.078 -19.493   3.749  0.00  0.00    +0.088 C 
ENDROOT
BRANCH   1   2
ATOM      2  N   LIG    1       25.928 -18.371   3.344  0.00  0.00    -0.329 NA
ATOM      3  H   LIG    1       25.345 -17.583   3.062  0.00  0.00    +0.118 HD
ATOM      4  H   LIG    1       26.461 -18.048   4.152  0.00  0.00    +0.118 HD
ENDBRANCH   1   2
BRANCH   1   5
ATOM      5  C   LIG    1       23.603 -19.085   3.782  0.00  0.00    +0.080 C 
BRANCH   5   6
ATOM      6  S   LIG    1       22.739 -19.890   5.165  0.00  0.00    -0.177 S 
ATOM      7  H   LIG    1       23.294 -19.153   6.139  0.00  0.00    +0.102 HD
ENDBRANCH   5   6
ENDBRANCH   1   5
TORSDOF 3
ENDMDL
