MODEL 1
REMARK VINA RESULT:      -9.6      0.000      0.000
REMARK  Name = *****
REMARK                            x       y       z     vdW  Elec       q    Type
REMARK                         _______ _______ _______ _____ _____    ______ ____
ROOT
ATOM      1  S   LIG    1       24.803 -21.078   6.738  0.00  0.00    +0.025 S 
ATOM      2  O   LIG    1       24.310 -20.458   5.515  0.00  0.00    -0.164 OA
ATOM      3  O   LIG    1       24.238 -20.715   8.025  0.00  0.00    -0.164 OA
ENDROOT
BRANCH   1   7
ATOM      4  C   LIG    1       29.315 -20.210   6.912  0.00  0.00    +0.028 A 
ATOM      5  C   LIG    1       28.539 -19.794   5.821  0.00  0.00    +0.025 A 
ATOM      6  C   LIG    1       27.164 -20.054   5.767  0.00  0.00    +0.029 A 
ATOM      7  C   LIG    1       26.553 -20.770   6.796  0.00  0.00    +0.094 A 
ATOM      8  C   LIG    1       27.311 -21.239   7.869  0.00  0.00    +0.029 A 
ATOM      9  C   LIG    1       28.685 -20.972   7.909  0.00  0.00    +0.025 A 
BRANCH   4  10
ATOM     10  N   LIG    1       30.703 -20.019   6.981  0.00  0.00    -0.325 N 
ATOM     11  H   LIG    1       31.172 -20.814   7.416  0.00  0.00    +0.148 HD
BRANCH  10  12
ATOM     12  C   LIG    1       31.185 -18.766   7.561  0.00  0.00    +0.278 C 
BRANCH  12  14
ATOM     13  O   LIG    1       32.331 -18.062   9.925  0.00  0.00    -0.165 OA
ATOM     14  S   LIG    1       31.305 -19.012   9.385  0.00  0.00    +0.012 S 
BRANCH  14  15
ATOM     15  O   LIG    1       32.073 -20.418   9.262  0.00  0.00    -0.268 OA
ATOM     16  H   LIG    1       33.039 -20.211   9.272  0.00  0.00    +0.243 HD
ENDBRANCH  14  15
ENDBRANCH  12  14
ENDBRANCH  10  12
ENDBRANCH   4  10
ENDBRANCH   1   7
BRANCH   1  17
ATOM     17  C   LIG    1       24.613 -22.836   6.562  0.00  0.00    +0.094 A 
ATOM     18  C   LIG    1       23.350 -23.411   6.698  0.00  0.00    +0.029 A 
ATOM     19  C   LIG    1       23.194 -24.786   6.505  0.00  0.00    +0.025 A 
ATOM     20  C   LIG    1       24.292 -25.608   6.222  0.00  0.00    +0.028 A 
ATOM     21  C   LIG    1       25.553 -25.001   6.094  0.00  0.00    +0.025 A 
ATOM     22  C   LIG    1       25.725 -23.628   6.286  0.00  0.00    +0.029 A 
BRANCH  20  23
ATOM     23  N   LIG    1       24.175 -26.972   5.926  0.00  0.00    -0.325 N 
ATOM     24  H   LIG    1       24.208 -27.145   4.925  0.00  0.00    +0.148 HD
BRANCH  23  25
ATOM     25  C   LIG    1       24.997 -27.914   6.677  0.00  0.00    +0.278 C 
BRANCH  25  26
ATOM     26  S   LIG    1       24.441 -29.626   6.275  0.00  0.00    +0.012 S 
ATOM     27  O   LIG    1       23.729 -30.178   7.472  0.00  0.00    -0.165 OA
BRANCH  26  28
ATOM     28  O   LIG    1       23.267 -29.160   5.282  0.00  0.00    -0.268 OA
ATOM     29  H   LIG    1       22.835 -29.984   4.952  0.00  0.00    +0.243 HD
ENDBRANCH  26  28
ENDBRANCH  25  26
ENDBRANCH  23  25
ENDBRANCH  20  23
ENDBRANCH   1  17
TORSDOF 10
ENDMDL
MODEL 2
REMARK VINA RESULT:      -9.5      0.819      8.944
REMARK  Name = *****
REMARK                            x       y       z     vdW  Elec       q    Type
REMARK                         _______ _______ _______ _____ _____    ______ ____
ROOT
ATOM      1  S   LIG    1       25.114 -21.008   6.893  0.00  0.00    +0.025 S 
ATOM      2  O   LIG    1       24.528 -20.628   8.172  0.00  0.00    -0.164 OA
ATOM      3  O   LIG    1       24.729 -20.319   5.675  0.00  0.00    -0.164 OA
ENDROOT
BRANCH   1   7
ATOM      4  C   LIG    1       24.240 -25.477   6.258  0.00  0.00    +0.028 A 
ATOM      5  C   LIG    1       23.208 -24.569   6.536  0.00  0.00    +0.025 A 
ATOM      6  C   LIG    1       23.471 -23.208   6.726  0.00  0.00    +0.029 A 
ATOM      7  C   LIG    1       24.784 -22.741   6.675  0.00  0.00    +0.094 A 
ATOM      8  C   LIG    1       25.835 -23.630   6.452  0.00  0.00    +0.029 A 
ATOM      9  C   LIG    1       25.557 -24.990   6.264  0.00  0.00    +0.025 A 
BRANCH   4  10
ATOM     10  N   LIG    1       24.028 -26.856   6.115  0.00  0.00    -0.325 N 
ATOM     11  H   LIG    1       23.624 -27.265   6.959  0.00  0.00    +0.148 HD
BRANCH  10  12
ATOM     12  C   LIG    1       25.150 -27.667   5.646  0.00  0.00    +0.278 C 
BRANCH  12  14
ATOM     13  O   LIG    1       25.571 -30.308   5.148  0.00  0.00    -0.165 OA
ATOM     14  S   LIG    1       24.773 -29.424   6.060  0.00  0.00    +0.012 S 
BRANCH  14  15
ATOM     15  O   LIG    1       23.304 -29.384   5.411  0.00  0.00    -0.268 OA
ATOM     16  H   LIG    1       22.689 -29.094   6.128  0.00  0.00    +0.243 HD
ENDBRANCH  14  15
ENDBRANCH  12  14
ENDBRANCH  10  12
ENDBRANCH   4  10
ENDBRANCH   1   7
BRANCH   1  17
ATOM     17  C   LIG    1       26.878 -20.853   7.045  0.00  0.00    +0.094 A 
ATOM     18  C   LIG    1       27.593 -20.133   6.087  0.00  0.00    +0.029 A 
ATOM     19  C   LIG    1       28.972 -19.966   6.238  0.00  0.00    +0.025 A 
ATOM     20  C   LIG    1       29.660 -20.549   7.311  0.00  0.00    +0.028 A 
ATOM     21  C   LIG    1       28.915 -21.271   8.257  0.00  0.00    +0.025 A 
ATOM     22  C   LIG    1       27.535 -21.448   8.119  0.00  0.00    +0.029 A 
BRANCH  20  23
ATOM     23  N   LIG    1       31.022 -20.332   7.558  0.00  0.00    -0.325 N 
ATOM     24  H   LIG    1       31.600 -21.056   7.141  0.00  0.00    +0.148 HD
BRANCH  23  25
ATOM     25  C   LIG    1       31.560 -18.995   7.328  0.00  0.00    +0.278 C 
BRANCH  25  26
ATOM     26  S   LIG    1       31.311 -17.995   8.858  0.00  0.00    +0.012 S 
ATOM     27  O   LIG    1       31.927 -18.737  10.005  0.00  0.00    -0.165 OA
BRANCH  26  28
ATOM     28  O   LIG    1       32.394 -16.874   8.469  0.00  0.00    -0.268 OA
ATOM     29  H   LIG    1       31.891 -16.124   8.070  0.00  0.00    +0.243 HD
ENDBRANCH  26  28
ENDBRANCH  25  26
ENDBRANCH  23  25
ENDBRANCH  20  23
ENDBRANCH   1  17
TORSDOF 10
ENDMDL
MODEL 3
REMARK VINA RESULT:      -9.4      0.674      1.291
REMARK  Name = *****
REMARK                            x       y       z     vdW  Elec       q    Type
REMARK                         _______ _______ _______ _____ _____    ______ ____
ROOT
ATOM      1  S   LIG    1       24.805 -21.584   7.028  0.00  0.00    +0.025 S 
ATOM      2  O   LIG    1       24.167 -20.946   5.883  0.00  0.00    -0.164 OA
ATOM      3  O   LIG    1       24.296 -21.364   8.368  0.00  0.00    -0.164 OA
ENDROOT
BRANCH   1   7
ATOM      4  C   LIG    1       29.243 -20.388   6.920  0.00  0.00    +0.028 A 
ATOM      5  C   LIG    1       28.727 -21.164   7.968  0.00  0.00    +0.025 A 
ATOM      6  C   LIG    1       27.377 -21.532   8.001  0.00  0.00    +0.029 A 
ATOM      7  C   LIG    1       26.514 -21.095   6.997  0.00  0.00    +0.094 A 
ATOM      8  C   LIG    1       26.990 -20.279   5.971  0.00  0.00    +0.029 A 
ATOM      9  C   LIG    1       28.343 -19.918   5.950  0.00  0.00    +0.025 A 
BRANCH   4  10
ATOM     10  N   LIG    1       30.576 -19.951   6.876  0.00  0.00    -0.325 N 
ATOM     11  H   LIG    1       31.205 -20.613   7.332  0.00  0.00    +0.148 HD
BRANCH  10  12
ATOM     12  C   LIG    1       30.855 -18.590   7.330  0.00  0.00    +0.278 C 
BRANCH  12  14
ATOM     13  O   LIG    1       31.997 -20.135   9.255  0.00  0.00    -0.165 OA
ATOM     14  S   LIG    1       31.597 -18.711   9.015  0.00  0.00    +0.012 S 
BRANCH  14  15
ATOM     15  O   LIG    1       30.190 -18.547   9.773  0.00  0.00    -0.268 OA
ATOM     16  H   LIG    1       29.584 -18.085   9.143  0.00  0.00    +0.243 HD
ENDBRANCH  14  15
ENDBRANCH  12  14
ENDBRANCH  10  12
ENDBRANCH   4  10
ENDBRANCH   1   7
BRANCH   1  17
ATOM     17  C   LIG    1       24.785 -23.338   6.743  0.00  0.00    +0.094 A 
ATOM     18  C   LIG    1       23.570 -23.987   6.521  0.00  0.00    +0.029 A 
ATOM     19  C   LIG    1       23.561 -25.356   6.243  0.00  0.00    +0.025 A 
ATOM     20  C   LIG    1       24.748 -26.102   6.229  0.00  0.00    +0.028 A 
ATOM     21  C   LIG    1       25.955 -25.422   6.460  0.00  0.00    +0.025 A 
ATOM     22  C   LIG    1       25.980 -24.053   6.741  0.00  0.00    +0.029 A 
BRANCH  20  23
ATOM     23  N   LIG    1       24.801 -27.452   5.863  0.00  0.00    -0.325 N 
ATOM     24  H   LIG    1       25.359 -27.594   5.024  0.00  0.00    +0.148 HD
BRANCH  23  25
ATOM     25  C   LIG    1       25.101 -28.436   6.898  0.00  0.00    +0.278 C 
BRANCH  25  26
ATOM     26  S   LIG    1       24.378 -30.056   6.391  0.00  0.00    +0.012 S 
ATOM     27  O   LIG    1       23.622 -30.614   7.559  0.00  0.00    -0.165 OA
BRANCH  26  28
ATOM     28  O   LIG    1       23.250 -29.414   5.445  0.00  0.00    -0.268 OA
ATOM     29  H   LIG    1       23.413 -28.440   5.434  0.00  0.00    +0.243 HD
ENDBRANCH  26  28
ENDBRANCH  25  26
ENDBRANCH  23  25
ENDBRANCH  20  23
ENDBRANCH   1  17
TORSDOF 10
ENDMDL
MODEL 4
REMARK VINA RESULT:      -8.4      1.150      8.864
REMARK  Name = *****
REMARK                            x       y       z     vdW  Elec       q    Type
REMARK                         _______ _______ _______ _____ _____    ______ ____
ROOT
ATOM      1  S   LIG    1       24.895 -21.132   6.397  0.00  0.00    +0.025 S 
ATOM      2  O   LIG    1       24.195 -20.915   7.656  0.00  0.00    -0.164 OA
ATOM      3  O   LIG    1       24.352 -20.611   5.156  0.00  0.00    -0.164 OA
ENDROOT
BRANCH   1   7
ATOM      4  C   LIG    1       25.343 -25.688   5.977  0.00  0.00    +0.028 A 
ATOM      5  C   LIG    1       25.728 -25.028   7.152  0.00  0.00    +0.025 A 
ATOM      6  C   LIG    1       25.589 -23.641   7.284  0.00  0.00    +0.029 A 
ATOM      7  C   LIG    1       25.093 -22.890   6.219  0.00  0.00    +0.094 A 
ATOM      8  C   LIG    1       24.751 -23.514   5.020  0.00  0.00    +0.029 A 
ATOM      9  C   LIG    1       24.895 -24.902   4.903  0.00  0.00    +0.025 A 
BRANCH   4  10
ATOM     10  N   LIG    1       25.516 -27.067   5.782  0.00  0.00    -0.325 N 
ATOM     11  H   LIG    1       25.596 -27.301   4.792  0.00  0.00    +0.148 HD
BRANCH  10  12
ATOM     12  C   LIG    1       24.569 -27.966   6.441  0.00  0.00    +0.278 C 
BRANCH  12  14
ATOM     13  O   LIG    1       23.622 -30.490   6.080  0.00  0.00    -0.165 OA
ATOM     14  S   LIG    1       24.806 -29.645   5.715  0.00  0.00    +0.012 S 
BRANCH  14  15
ATOM     15  O   LIG    1       25.948 -30.065   6.764  0.00  0.00    -0.268 OA
ATOM     16  H   LIG    1       25.861 -31.040   6.897  0.00  0.00    +0.243 HD
ENDBRANCH  14  15
ENDBRANCH  12  14
ENDBRANCH  10  12
ENDBRANCH   4  10
ENDBRANCH   1   7
BRANCH   1  17
ATOM     17  C   LIG    1       26.532 -20.462   6.572  0.00  0.00    +0.094 A 
ATOM     18  C   LIG    1       27.143 -20.452   7.826  0.00  0.00    +0.029 A 
ATOM     19  C   LIG    1       28.450 -19.975   7.952  0.00  0.00    +0.025 A 
ATOM     20  C   LIG    1       29.145 -19.462   6.849  0.00  0.00    +0.028 A 
ATOM     21  C   LIG    1       28.502 -19.481   5.600  0.00  0.00    +0.025 A 
ATOM     22  C   LIG    1       27.195 -19.954   5.458  0.00  0.00    +0.029 A 
BRANCH  20  23
ATOM     23  N   LIG    1       30.486 -19.062   6.904  0.00  0.00    -0.325 N 
ATOM     24  H   LIG    1       30.580 -18.052   6.844  0.00  0.00    +0.148 HD
BRANCH  23  25
ATOM     25  C   LIG    1       31.335 -19.636   7.943  0.00  0.00    +0.278 C 
BRANCH  25  26
ATOM     26  S   LIG    1       31.775 -18.303   9.139  0.00  0.00    +0.012 S 
ATOM     27  O   LIG    1       31.121 -17.034   8.684  0.00  0.00    -0.165 OA
BRANCH  26  28
ATOM     28  O   LIG    1       30.829 -18.852  10.314  0.00  0.00    -0.268 OA
ATOM     29  H   LIG    1       31.419 -19.053  11.079  0.00  0.00    +0.243 HD
ENDBRANCH  26  28
ENDBRANCH  25  26
ENDBRANCH  23  25
ENDBRANCH  20  23
ENDBRANCH   1  17
TORSDOF 10
ENDMDL
MODEL 5
REMARK VINA RESULT:      -7.9      3.405      9.129
REMARK  Name = *****
REMARK                            x       y       z     vdW  Elec       q    Type
REMARK                         _______ _______ _______ _____ _____    ______ ____
ROOT
ATOM      1  S   LIG    1       24.410 -21.853   7.548  0.00  0.00    +0.025 S 
ATOM      2  O   LIG    1       25.361 -21.665   8.636  0.00  0.00    -0.164 OA
ATOM      3  O   LIG    1       22.993 -21.624   7.764  0.00  0.00    -0.164 OA
ENDROOT
BRANCH   1   7
ATOM      4  C   LIG    1       24.945 -26.142   5.979  0.00  0.00    +0.028 A 
ATOM      5  C   LIG    1       23.672 -25.566   6.095  0.00  0.00    +0.025 A 
ATOM      6  C   LIG    1       23.507 -24.259   6.569  0.00  0.00    +0.029 A 
ATOM      7  C   LIG    1       24.619 -23.521   6.969  0.00  0.00    +0.094 A 
ATOM      8  C   LIG    1       25.893 -24.087   6.914  0.00  0.00    +0.029 A 
ATOM      9  C   LIG    1       26.043 -25.396   6.438  0.00  0.00    +0.025 A 
BRANCH   4  10
ATOM     10  N   LIG    1       25.152 -27.465   5.562  0.00  0.00    -0.325 N 
ATOM     11  H   LIG    1       24.418 -27.779   4.926  0.00  0.00    +0.148 HD
BRANCH  10  12
ATOM     12  C   LIG    1       25.390 -28.470   6.597  0.00  0.00    +0.278 C 
BRANCH  12  14
ATOM     13  O   LIG    1       25.285 -30.669   5.000  0.00  0.00    -0.165 OA
ATOM     14  S   LIG    1       24.501 -30.004   6.091  0.00  0.00    +0.012 S 
BRANCH  14  15
ATOM     15  O   LIG    1       23.328 -29.213   5.330  0.00  0.00    -0.268 OA
ATOM     16  H   LIG    1       23.019 -29.804   4.600  0.00  0.00    +0.243 HD
ENDBRANCH  14  15
ENDBRANCH  12  14
ENDBRANCH  10  12
ENDBRANCH   4  10
ENDBRANCH   1   7
BRANCH   1  17
ATOM     17  C   LIG    1       24.912 -20.796   6.210  0.00  0.00    +0.094 A 
ATOM     18  C   LIG    1       23.955 -20.313   5.316  0.00  0.00    +0.029 A 
ATOM     19  C   LIG    1       24.343 -19.439   4.298  0.00  0.00    +0.025 A 
ATOM     20  C   LIG    1       25.685 -19.073   4.128  0.00  0.00    +0.028 A 
ATOM     21  C   LIG    1       26.626 -19.578   5.041  0.00  0.00    +0.025 A 
ATOM     22  C   LIG    1       26.254 -20.455   6.063  0.00  0.00    +0.029 A 
BRANCH  20  23
ATOM     23  N   LIG    1       26.110 -18.128   3.186  0.00  0.00    -0.325 N 
ATOM     24  H   LIG    1       26.199 -18.534   2.258  0.00  0.00    +0.148 HD
BRANCH  23  25
ATOM     25  C   LIG    1       25.440 -16.831   3.159  0.00  0.00    +0.278 C 
BRANCH  25  26
ATOM     26  S   LIG    1       26.710 -15.513   3.387  0.00  0.00    +0.012 S 
ATOM     27  O   LIG    1       26.767 -14.699   2.130  0.00  0.00    -0.165 OA
BRANCH  26  28
ATOM     28  O   LIG    1       25.823 -14.639   4.400  0.00  0.00    -0.268 OA
ATOM     29  H   LIG    1       26.039 -14.958   5.309  0.00  0.00    +0.243 HD
ENDBRANCH  26  28
ENDBRANCH  25  26
ENDBRANCH  23  25
ENDBRANCH  20  23
ENDBRANCH   1  17
TORSDOF 10
ENDMDL
MODEL 6
REMARK VINA RESULT:      -7.6      4.772      6.497
REMARK  Name = *****
REMARK                            x       y       z     vdW  Elec       q    Type
REMARK                         _______ _______ _______ _____ _____    ______ ____
ROOT
ATOM      1  S   LIG    1       26.016 -26.641   5.441  0.00  0.00    +0.025 S 
ATOM      2  O   LIG    1       27.428 -26.532   5.786  0.00  0.00    -0.164 OA
ATOM      3  O   LIG    1       25.608 -26.779   4.056  0.00  0.00    -0.164 OA
ENDROOT
BRANCH   1   7
ATOM      4  C   LIG    1       23.952 -22.890   7.116  0.00  0.00    +0.028 A 
ATOM      5  C   LIG    1       25.350 -22.994   7.081  0.00  0.00    +0.025 A 
ATOM      6  C   LIG    1       25.981 -24.133   6.569  0.00  0.00    +0.029 A 
ATOM      7  C   LIG    1       25.214 -25.205   6.115  0.00  0.00    +0.094 A 
ATOM      8  C   LIG    1       23.822 -25.151   6.185  0.00  0.00    +0.029 A 
ATOM      9  C   LIG    1       23.204 -24.004   6.701  0.00  0.00    +0.025 A 
BRANCH   4  10
ATOM     10  N   LIG    1       23.279 -21.791   7.671  0.00  0.00    -0.325 N 
ATOM     11  H   LIG    1       22.287 -21.988   7.811  0.00  0.00    +0.148 HD
BRANCH  10  12
ATOM     12  C   LIG    1       23.453 -20.494   7.020  0.00  0.00    +0.278 C 
BRANCH  12  14
ATOM     13  O   LIG    1       23.830 -20.831   4.348  0.00  0.00    -0.165 OA
ATOM     14  S   LIG    1       22.719 -20.621   5.333  0.00  0.00    +0.012 S 
BRANCH  14  15
ATOM     15  O   LIG    1       22.377 -19.054   5.237  0.00  0.00    -0.268 OA
ATOM     16  H   LIG    1       21.566 -18.979   4.676  0.00  0.00    +0.243 HD
ENDBRANCH  14  15
ENDBRANCH  12  14
ENDBRANCH  10  12
ENDBRANCH   4  10
ENDBRANCH   1   7
BRANCH   1  17
ATOM     17  C   LIG    1       25.357 -28.038   6.321  0.00  0.00    +0.094 A 
ATOM     18  C   LIG    1       24.566 -28.968   5.647  0.00  0.00    +0.029 A 
ATOM     19  C   LIG    1       24.094 -30.094   6.327  0.00  0.00    +0.025 A 
ATOM     20  C   LIG    1       24.362 -30.283   7.689  0.00  0.00    +0.028 A 
ATOM     21  C   LIG    1       25.158 -29.328   8.343  0.00  0.00    +0.025 A 
ATOM     22  C   LIG    1       25.635 -28.196   7.677  0.00  0.00    +0.029 A 
BRANCH  20  23
ATOM     23  N   LIG    1       23.994 -31.438   8.391  0.00  0.00    -0.325 N 
ATOM     24  H   LIG    1       24.247 -32.283   7.885  0.00  0.00    +0.148 HD
BRANCH  23  25
ATOM     25  C   LIG    1       24.331 -31.522   9.808  0.00  0.00    +0.278 C 
BRANCH  25  26
ATOM     26  S   LIG    1       25.638 -32.805  10.023  0.00  0.00    +0.012 S 
ATOM     27  O   LIG    1       26.932 -32.242   9.519  0.00  0.00    -0.165 OA
BRANCH  26  28
ATOM     28  O   LIG    1       25.721 -32.652  11.620  0.00  0.00    -0.268 OA
ATOM     29  H   LIG    1       25.978 -31.716  11.799  0.00  0.00    +0.243 HD
ENDBRANCH  26  28
ENDBRANCH  25  26
ENDBRANCH  23  25
ENDBRANCH  20  23
ENDBRANCH   1  17
TORSDOF 10
ENDMDL
MODEL 7
REMARK VINA RESULT:      -7.5      4.681      9.269
REMARK  Name = *****
REMARK                            x       y       z     vdW  Elec       q    Type
REMARK                         _______ _______ _______ _____ _____    ______ ____
ROOT
ATOM      1  S   LIG    1       25.986 -26.596   5.426  0.00  0.00    +0.025 S 
ATOM      2  O   LIG    1       25.556 -26.688   4.036  0.00  0.00    -0.164 OA
ATOM      3  O   LIG    1       27.396 -26.503   5.753  0.00  0.00    -0.164 OA
ENDROOT
BRANCH   1   7
ATOM      4  C   LIG    1       24.309 -30.309   7.558  0.00  0.00    +0.028 A 
ATOM      5  C   LIG    1       24.028 -30.060   6.207  0.00  0.00    +0.025 A 
ATOM      6  C   LIG    1       24.540 -28.932   5.554  0.00  0.00    +0.029 A 
ATOM      7  C   LIG    1       25.316 -28.015   6.262  0.00  0.00    +0.094 A 
ATOM      8  C   LIG    1       25.569 -28.211   7.619  0.00  0.00    +0.029 A 
ATOM      9  C   LIG    1       25.050 -29.343   8.259  0.00  0.00    +0.025 A 
BRANCH   4  10
ATOM     10  N   LIG    1       23.773 -31.396   8.264  0.00  0.00    -0.325 N 
ATOM     11  H   LIG    1       22.753 -31.413   8.211  0.00  0.00    +0.148 HD
BRANCH  10  12
ATOM     12  C   LIG    1       24.212 -31.587   9.645  0.00  0.00    +0.278 C 
BRANCH  12  14
ATOM     13  O   LIG    1       21.600 -30.867   9.875  0.00  0.00    -0.165 OA
ATOM     14  S   LIG    1       22.764 -31.253  10.737  0.00  0.00    +0.012 S 
BRANCH  14  15
ATOM     15  O   LIG    1       23.349 -29.860  11.283  0.00  0.00    -0.268 OA
ATOM     16  H   LIG    1       23.956 -30.084  12.030  0.00  0.00    +0.243 HD
ENDBRANCH  14  15
ENDBRANCH  12  14
ENDBRANCH  10  12
ENDBRANCH   4  10
ENDBRANCH   1   7
BRANCH   1  17
ATOM     17  C   LIG    1       25.190 -25.177   6.140  0.00  0.00    +0.094 A 
ATOM     18  C   LIG    1       25.964 -24.163   6.705  0.00  0.00    +0.029 A 
ATOM     19  C   LIG    1       25.339 -23.023   7.217  0.00  0.00    +0.025 A 
ATOM     20  C   LIG    1       23.943 -22.898   7.215  0.00  0.00    +0.028 A 
ATOM     21  C   LIG    1       23.190 -23.936   6.643  0.00  0.00    +0.025 A 
ATOM     22  C   LIG    1       23.800 -25.083   6.128  0.00  0.00    +0.029 A 
BRANCH  20  23
ATOM     23  N   LIG    1       23.276 -21.737   7.627  0.00  0.00    -0.325 N 
ATOM     24  H   LIG    1       23.246 -21.660   8.641  0.00  0.00    +0.148 HD
BRANCH  23  25
ATOM     25  C   LIG    1       23.628 -20.475   6.986  0.00  0.00    +0.278 C 
BRANCH  25  26
ATOM     26  S   LIG    1       22.867 -20.441   5.306  0.00  0.00    +0.012 S 
ATOM     27  O   LIG    1       22.467 -19.028   5.005  0.00  0.00    -0.165 OA
BRANCH  26  28
ATOM     28  O   LIG    1       24.253 -20.648   4.522  0.00  0.00    -0.268 OA
ATOM     29  H   LIG    1       24.519 -21.588   4.667  0.00  0.00    +0.243 HD
ENDBRANCH  26  28
ENDBRANCH  25  26
ENDBRANCH  23  25
ENDBRANCH  20  23
ENDBRANCH   1  17
TORSDOF 10
ENDMDL
MODEL 8
REMARK VINA RESULT:      -7.5      4.694      9.331
REMARK  Name = *****
REMARK                            x       y       z     vdW  Elec       q    Type
REMARK                         _______ _______ _______ _____ _____    ______ ____
ROOT
ATOM      1  S   LIG    1       25.906 -26.813   5.806  0.00  0.00    +0.025 S 
ATOM      2  O   LIG    1       25.199 -27.306   4.631  0.00  0.00    -0.164 OA
ATOM      3  O   LIG    1       27.334 -26.563   5.753  0.00  0.00    -0.164 OA
ENDROOT
BRANCH   1   7
ATOM      4  C   LIG    1       25.070 -29.771   9.226  0.00  0.00    +0.028 A 
ATOM      5  C   LIG    1       26.135 -28.862   9.298  0.00  0.00    +0.025 A 
ATOM      6  C   LIG    1       26.390 -27.959   8.260  0.00  0.00    +0.029 A 
ATOM      7  C   LIG    1       25.597 -27.978   7.113  0.00  0.00    +0.094 A 
ATOM      8  C   LIG    1       24.562 -28.905   6.993  0.00  0.00    +0.029 A 
ATOM      9  C   LIG    1       24.320 -29.804   8.039  0.00  0.00    +0.025 A 
BRANCH   4  10
ATOM     10  N   LIG    1       24.813 -30.730  10.217  0.00  0.00    -0.325 N 
ATOM     11  H   LIG    1       24.761 -31.671   9.827  0.00  0.00    +0.148 HD
BRANCH  10  12
ATOM     12  C   LIG    1       23.684 -30.488  11.114  0.00  0.00    +0.278 C 
BRANCH  12  14
ATOM     13  O   LIG    1       22.990 -32.749   9.771  0.00  0.00    -0.165 OA
ATOM     14  S   LIG    1       22.429 -31.800  10.787  0.00  0.00    +0.012 S 
BRANCH  14  15
ATOM     15  O   LIG    1       21.461 -30.829   9.950  0.00  0.00    -0.268 OA
ATOM     16  H   LIG    1       20.596 -30.816  10.428  0.00  0.00    +0.243 HD
ENDBRANCH  14  15
ENDBRANCH  12  14
ENDBRANCH  10  12
ENDBRANCH   4  10
ENDBRANCH   1   7
BRANCH   1  17
ATOM     17  C   LIG    1       25.128 -25.293   6.300  0.00  0.00    +0.094 A 
ATOM     18  C   LIG    1       23.740 -25.174   6.231  0.00  0.00    +0.029 A 
ATOM     19  C   LIG    1       23.126 -23.999   6.671  0.00  0.00    +0.025 A 
ATOM     20  C   LIG    1       23.883 -22.916   7.139  0.00  0.00    +0.028 A 
ATOM     21  C   LIG    1       25.279 -23.064   7.193  0.00  0.00    +0.025 A 
ATOM     22  C   LIG    1       25.908 -24.233   6.755  0.00  0.00    +0.029 A 
BRANCH  20  23
ATOM     23  N   LIG    1       23.313 -21.757   7.679  0.00  0.00    -0.325 N 
ATOM     24  H   LIG    1       23.410 -21.725   8.690  0.00  0.00    +0.148 HD
BRANCH  23  25
ATOM     25  C   LIG    1       23.628 -20.477   7.053  0.00  0.00    +0.278 C 
BRANCH  25  26
ATOM     26  S   LIG    1       22.841 -20.433   5.385  0.00  0.00    +0.012 S 
ATOM     27  O   LIG    1       22.344 -19.040   5.142  0.00  0.00    -0.165 OA
BRANCH  26  28
ATOM     28  O   LIG    1       24.225 -20.519   4.576  0.00  0.00    -0.268 OA
ATOM     29  H   LIG    1       24.814 -21.123   5.090  0.00  0.00    +0.243 HD
ENDBRANCH  26  28
ENDBRANCH  25  26
ENDBRANCH  23  25
ENDBRANCH  20  23
ENDBRANCH   1  17
TORSDOF 10
ENDMDL
MODEL 9
REMARK VINA RESULT:      -7.5      4.790      6.530
REMARK  Name = *****
REMARK                            x       y       z     vdW  Elec       q    Type
REMARK                         _______ _______ _______ _____ _____    ______ ____
ROOT
ATOM      1  S   LIG    1       25.905 -26.762   5.771  0.00  0.00    +0.025 S 
ATOM      2  O   LIG    1       27.342 -26.520   5.781  0.00  0.00    -0.164 OA
ATOM      3  O   LIG    1       25.241 -27.189   4.554  0.00  0.00    -0.164 OA
ENDROOT
BRANCH   1   7
ATOM      4  C   LIG    1       23.921 -22.847   7.142  0.00  0.00    +0.028 A 
ATOM      5  C   LIG    1       25.310 -23.022   7.219  0.00  0.00    +0.025 A 
ATOM      6  C   LIG    1       25.917 -24.211   6.799  0.00  0.00    +0.029 A 
ATOM      7  C   LIG    1       25.131 -25.261   6.327  0.00  0.00    +0.094 A 
ATOM      8  C   LIG    1       23.743 -25.134   6.287  0.00  0.00    +0.029 A 
ATOM      9  C   LIG    1       23.149 -23.939   6.711  0.00  0.00    +0.025 A 
BRANCH   4  10
ATOM     10  N   LIG    1       23.268 -21.694   7.602  0.00  0.00    -0.325 N 
ATOM     11  H   LIG    1       22.268 -21.855   7.734  0.00  0.00    +0.148 HD
BRANCH  10  12
ATOM     12  C   LIG    1       23.489 -20.452   6.864  0.00  0.00    +0.278 C 
BRANCH  12  14
ATOM     13  O   LIG    1       23.661 -20.926   4.191  0.00  0.00    -0.165 OA
ATOM     14  S   LIG    1       22.633 -20.616   5.238  0.00  0.00    +0.012 S 
BRANCH  14  15
ATOM     15  O   LIG    1       22.361 -19.040   5.091  0.00  0.00    -0.268 OA
ATOM     16  H   LIG    1       23.201 -18.640   4.757  0.00  0.00    +0.243 HD
ENDBRANCH  14  15
ENDBRANCH  12  14
ENDBRANCH  10  12
ENDBRANCH   4  10
ENDBRANCH   1   7
BRANCH   1  17
ATOM     17  C   LIG    1       25.560 -27.988   7.012  0.00  0.00    +0.094 A 
ATOM     18  C   LIG    1       26.292 -27.993   8.199  0.00  0.00    +0.029 A 
ATOM     19  C   LIG    1       25.983 -28.923   9.195  0.00  0.00    +0.025 A 
ATOM     20  C   LIG    1       24.980 -29.883   9.005  0.00  0.00    +0.028 A 
ATOM     21  C   LIG    1       24.263 -29.856   7.798  0.00  0.00    +0.025 A 
ATOM     22  C   LIG    1       24.562 -28.934   6.791  0.00  0.00    +0.029 A 
BRANCH  20  23
ATOM     23  N   LIG    1       24.569 -30.772  10.006  0.00  0.00    -0.325 N 
ATOM     24  H   LIG    1       24.156 -30.284  10.797  0.00  0.00    +0.148 HD
BRANCH  23  25
ATOM     25  C   LIG    1       23.792 -31.943   9.613  0.00  0.00    +0.278 C 
BRANCH  25  26
ATOM     26  S   LIG    1       22.183 -31.906  10.513  0.00  0.00    +0.012 S 
ATOM     27  O   LIG    1       21.429 -30.689  10.070  0.00  0.00    -0.165 OA
BRANCH  26  28
ATOM     28  O   LIG    1       21.530 -33.115   9.681  0.00  0.00    -0.268 OA
ATOM     29  H   LIG    1       21.522 -32.833   8.735  0.00  0.00    +0.243 HD
ENDBRANCH  26  28
ENDBRANCH  25  26
ENDBRANCH  23  25
ENDBRANCH  20  23
ENDBRANCH   1  17
TORSDOF 10
ENDMDL
