MODEL 1
REMARK VINA RESULT:      -8.5      0.000      0.000
REMARK  Name = *****
REMARK                            x       y       z     vdW  Elec       q    Type
REMARK                         _______ _______ _______ _____ _____    ______ ____
ROOT
ATOM      1  C   LIG    1       25.292 -21.385   7.186  0.00  0.00    +0.095 C 
ENDROOT
BRANCH   1   2
ATOM      2  C   LIG    1       24.731 -22.813   7.585  0.00  0.00    +0.025 C 
ATOM      3  C   LIG    1       23.495 -23.328   6.809  0.00  0.00    +0.006 C 
ATOM      4  C   LIG    1       23.785 -23.919   5.436  0.00  0.00    +0.000 C 
ATOM      5  C   LIG    1       24.835 -25.019   5.485  0.00  0.00    +0.000 C 
ATOM      6  C   LIG    1       26.081 -24.625   6.268  0.00  0.00    +0.000 C 
ATOM      7  C   LIG    1       25.784 -23.953   7.611  0.00  0.00    +0.006 C 
ENDBRANCH   1   2
BRANCH   1   8
ATOM      8  C   LIG    1       24.507 -20.681   6.036  0.00  0.00    -0.016 A 
ATOM      9  C   LIG    1       23.183 -20.233   6.216  0.00  0.00    +0.006 A 
ATOM     10  C   LIG    1       22.518 -19.499   5.220  0.00  0.00    +0.000 A 
ATOM     11  C   LIG    1       23.145 -19.212   4.015  0.00  0.00    +0.000 A 
ATOM     12  C   LIG    1       24.437 -19.671   3.794  0.00  0.00    +0.000 A 
ATOM     13  C   LIG    1       25.110 -20.385   4.803  0.00  0.00    +0.006 A 
ENDBRANCH   1   8
BRANCH   1  14
ATOM     14  O   LIG    1       25.194 -20.553   8.356  0.00  0.00    -0.384 OA
ATOM     15  H   LIG    1       25.420 -19.647   8.081  0.00  0.00    +0.211 HD
ENDBRANCH   1  14
BRANCH   1  16
ATOM     16  C   LIG    1       26.816 -21.414   6.818  0.00  0.00    +0.055 C 
BRANCH  16  17
ATOM     17  C   LIG    1       27.776 -20.968   7.939  0.00  0.00    +0.087 C 
BRANCH  17  18
ATOM     18  N   LIG    1       28.700 -19.884   7.565  0.00  0.00    -0.302 NA
ATOM     19  C   LIG    1       30.097 -20.275   7.793  0.00  0.00    +0.084 C 
ATOM     20  C   LIG    1       30.875 -19.184   7.080  0.00  0.00    +0.017 C 
ATOM     21  C   LIG    1       29.979 -18.778   5.917  0.00  0.00    +0.017 C 
ATOM     22  C   LIG    1       28.658 -19.510   6.148  0.00  0.00    +0.084 C 
ENDBRANCH  17  18
ENDBRANCH  16  17
ENDBRANCH   1  16
TORSDOF 6
ENDMDL
MODEL 2
REMARK VINA RESULT:      -8.3      1.534      2.290
REMARK  Name = *****
REMARK                            x       y       z     vdW  Elec       q    Type
REMARK                         _______ _______ _______ _____ _____    ______ ____
ROOT
ATOM      1  C   LIG    1       24.223 -22.629   6.299  0.00  0.00    +0.095 C 
ENDROOT
BRANCH   1   2
ATOM      2  C   LIG    1       25.246 -23.621   5.607  0.00  0.00    +0.025 C 
ATOM      3  C   LIG    1       26.282 -24.319   6.521  0.00  0.00    +0.006 C 
ATOM      4  C   LIG    1       25.765 -25.525   7.293  0.00  0.00    +0.000 C 
ATOM      5  C   LIG    1       25.122 -26.564   6.387  0.00  0.00    +0.000 C 
ATOM      6  C   LIG    1       24.112 -25.970   5.413  0.00  0.00    +0.000 C 
ATOM      7  C   LIG    1       24.604 -24.707   4.702  0.00  0.00    +0.006 C 
ENDBRANCH   1   2
BRANCH   1   8
ATOM      8  C   LIG    1       23.810 -21.407   5.420  0.00  0.00    -0.016 A 
ATOM      9  C   LIG    1       22.735 -20.571   5.781  0.00  0.00    +0.006 A 
ATOM     10  C   LIG    1       22.436 -19.408   5.052  0.00  0.00    +0.000 A 
ATOM     11  C   LIG    1       23.185 -19.061   3.935  0.00  0.00    +0.000 A 
ATOM     12  C   LIG    1       24.229 -19.885   3.534  0.00  0.00    +0.000 A 
ATOM     13  C   LIG    1       24.541 -21.036   4.281  0.00  0.00    +0.006 A 
ENDBRANCH   1   8
BRANCH   1  14
ATOM     14  O   LIG    1       23.032 -23.384   6.584  0.00  0.00    -0.384 OA
ATOM     15  H   LIG    1       22.427 -23.258   5.833  0.00  0.00    +0.211 HD
ENDBRANCH   1  14
BRANCH   1  16
ATOM     16  C   LIG    1       24.731 -22.107   7.688  0.00  0.00    +0.055 C 
BRANCH  16  17
ATOM     17  C   LIG    1       25.192 -20.636   7.714  0.00  0.00    +0.087 C 
BRANCH  17  18
ATOM     18  N   LIG    1       26.652 -20.446   7.665  0.00  0.00    -0.302 NA
ATOM     19  C   LIG    1       27.358 -21.621   8.193  0.00  0.00    +0.084 C 
ATOM     20  C   LIG    1       28.797 -21.364   7.781  0.00  0.00    +0.017 C 
ATOM     21  C   LIG    1       28.685 -20.594   6.472  0.00  0.00    +0.017 C 
ATOM     22  C   LIG    1       27.199 -20.274   6.315  0.00  0.00    +0.084 C 
ENDBRANCH  17  18
ENDBRANCH  16  17
ENDBRANCH   1  16
TORSDOF 6
ENDMDL
MODEL 3
REMARK VINA RESULT:      -8.1      1.371      3.865
REMARK  Name = *****
REMARK                            x       y       z     vdW  Elec       q    Type
REMARK                         _______ _______ _______ _____ _____    ______ ____
ROOT
ATOM      1  C   LIG    1       25.388 -22.372   6.757  0.00  0.00    +0.095 C 
ENDROOT
BRANCH   1   2
ATOM      2  C   LIG    1       23.965 -21.904   7.274  0.00  0.00    +0.025 C 
ATOM      3  C   LIG    1       23.605 -20.410   7.096  0.00  0.00    +0.006 C 
ATOM      4  C   LIG    1       23.136 -20.011   5.703  0.00  0.00    +0.000 C 
ATOM      5  C   LIG    1       21.975 -20.864   5.214  0.00  0.00    +0.000 C 
ATOM      6  C   LIG    1       22.213 -22.359   5.386  0.00  0.00    +0.000 C 
ATOM      7  C   LIG    1       22.766 -22.745   6.760  0.00  0.00    +0.006 C 
ENDBRANCH   1   2
BRANCH   1   8
ATOM      8  C   LIG    1       25.462 -23.873   6.335  0.00  0.00    -0.016 A 
ATOM      9  C   LIG    1       25.806 -24.880   7.258  0.00  0.00    +0.006 A 
ATOM     10  C   LIG    1       25.762 -26.239   6.907  0.00  0.00    +0.000 A 
ATOM     11  C   LIG    1       25.396 -26.627   5.625  0.00  0.00    +0.000 A 
ATOM     12  C   LIG    1       25.085 -25.655   4.683  0.00  0.00    +0.000 A 
ATOM     13  C   LIG    1       25.106 -24.295   5.044  0.00  0.00    +0.006 A 
ENDBRANCH   1   8
BRANCH   1  14
ATOM     14  O   LIG    1       25.696 -21.576   5.599  0.00  0.00    -0.384 OA
ATOM     15  H   LIG    1       25.494 -20.651   5.826  0.00  0.00    +0.211 HD
ENDBRANCH   1  14
BRANCH   1  16
ATOM     16  C   LIG    1       26.533 -22.076   7.786  0.00  0.00    +0.055 C 
BRANCH  16  17
ATOM     17  C   LIG    1       27.921 -21.806   7.173  0.00  0.00    +0.087 C 
BRANCH  17  18
ATOM     18  N   LIG    1       28.311 -20.386   7.129  0.00  0.00    -0.302 NA
ATOM     19  C   LIG    1       29.575 -20.160   7.844  0.00  0.00    +0.084 C 
ATOM     20  C   LIG    1       29.949 -18.748   7.432  0.00  0.00    +0.017 C 
ATOM     21  C   LIG    1       29.397 -18.607   6.019  0.00  0.00    +0.017 C 
ATOM     22  C   LIG    1       28.563 -19.865   5.782  0.00  0.00    +0.084 C 
ENDBRANCH  17  18
ENDBRANCH  16  17
ENDBRANCH   1  16
TORSDOF 6
ENDMDL
MODEL 4
REMARK VINA RESULT:      -8.1      2.292      5.012
REMARK  Name = *****
REMARK                            x       y       z     vdW  Elec       q    Type
REMARK                         _______ _______ _______ _____ _____    ______ ____
ROOT
ATOM      1  C   LIG    1       24.456 -22.146   6.163  0.00  0.00    +0.095 C 
ENDROOT
BRANCH   1   2
ATOM      2  C   LIG    1       25.077 -21.908   7.601  0.00  0.00    +0.025 C 
ATOM      3  C   LIG    1       26.263 -22.811   8.016  0.00  0.00    +0.006 C 
ATOM      4  C   LIG    1       27.620 -22.408   7.455  0.00  0.00    +0.000 C 
ATOM      5  C   LIG    1       27.969 -20.959   7.761  0.00  0.00    +0.000 C 
ATOM      6  C   LIG    1       26.844 -19.987   7.426  0.00  0.00    +0.000 C 
ATOM      7  C   LIG    1       25.467 -20.439   7.918  0.00  0.00    +0.006 C 
ENDBRANCH   1   2
BRANCH   1   8
ATOM      8  C   LIG    1       23.987 -20.846   5.438  0.00  0.00    -0.016 A 
ATOM      9  C   LIG    1       24.735 -20.280   4.386  0.00  0.00    +0.006 A 
ATOM     10  C   LIG    1       24.256 -19.177   3.660  0.00  0.00    +0.000 A 
ATOM     11  C   LIG    1       23.034 -18.598   3.975  0.00  0.00    +0.000 A 
ATOM     12  C   LIG    1       22.291 -19.112   5.030  0.00  0.00    +0.000 A 
ATOM     13  C   LIG    1       22.761 -20.232   5.740  0.00  0.00    +0.006 A 
ENDBRANCH   1   8
BRANCH   1  14
ATOM     14  O   LIG    1       25.482 -22.750   5.356  0.00  0.00    -0.384 OA
ATOM     15  H   LIG    1       25.128 -22.826   4.453  0.00  0.00    +0.211 HD
ENDBRANCH   1  14
BRANCH   1  16
ATOM     16  C   LIG    1       23.273 -23.175   6.177  0.00  0.00    +0.055 C 
BRANCH  16  17
ATOM     17  C   LIG    1       23.624 -24.580   6.705  0.00  0.00    +0.087 C 
BRANCH  17  18
ATOM     18  N   LIG    1       24.656 -25.290   5.929  0.00  0.00    -0.302 NA
ATOM     19  C   LIG    1       25.733 -25.778   6.801  0.00  0.00    +0.084 C 
ATOM     20  C   LIG    1       26.506 -26.715   5.891  0.00  0.00    +0.017 C 
ATOM     21  C   LIG    1       25.452 -27.287   4.952  0.00  0.00    +0.017 C 
ATOM     22  C   LIG    1       24.179 -26.494   5.241  0.00  0.00    +0.084 C 
ENDBRANCH  17  18
ENDBRANCH  16  17
ENDBRANCH   1  16
TORSDOF 6
ENDMDL
MODEL 5
REMARK VINA RESULT:      -8.0      1.856      5.472
REMARK  Name = *****
REMARK                            x       y       z     vdW  Elec       q    Type
REMARK                         _______ _______ _______ _____ _____    ______ ____
ROOT
ATOM      1  C   LIG    1       24.688 -21.463   6.579  0.00  0.00    +0.095 C 
ENDROOT
BRANCH   1   2
ATOM      2  C   LIG    1       23.949 -21.477   5.177  0.00  0.00    +0.025 C 
ATOM      3  C   LIG    1       22.504 -20.924   5.136  0.00  0.00    +0.006 C 
ATOM      4  C   LIG    1       22.384 -19.407   5.090  0.00  0.00    +0.000 C 
ATOM      5  C   LIG    1       23.183 -18.795   3.948  0.00  0.00    +0.000 C 
ATOM      6  C   LIG    1       24.616 -19.309   3.875  0.00  0.00    +0.000 C 
ATOM      7  C   LIG    1       24.738 -20.829   4.008  0.00  0.00    +0.006 C 
ENDBRANCH   1   2
BRANCH   1   8
ATOM      8  C   LIG    1       26.217 -21.158   6.501  0.00  0.00    -0.016 A 
ATOM      9  C   LIG    1       26.718 -20.113   5.699  0.00  0.00    +0.006 A 
ATOM     10  C   LIG    1       28.079 -19.767   5.717  0.00  0.00    +0.000 A 
ATOM     11  C   LIG    1       28.976 -20.463   6.516  0.00  0.00    +0.000 A 
ATOM     12  C   LIG    1       28.517 -21.521   7.291  0.00  0.00    +0.000 A 
ATOM     13  C   LIG    1       27.149 -21.850   7.289  0.00  0.00    +0.006 A 
ENDBRANCH   1   8
BRANCH   1  14
ATOM     14  O   LIG    1       24.075 -20.428   7.368  0.00  0.00    -0.384 OA
ATOM     15  H   LIG    1       23.374 -20.848   7.896  0.00  0.00    +0.211 HD
ENDBRANCH   1  14
BRANCH   1  16
ATOM     16  C   LIG    1       24.475 -22.789   7.389  0.00  0.00    +0.055 C 
BRANCH  16  17
ATOM     17  C   LIG    1       23.795 -23.935   6.614  0.00  0.00    +0.087 C 
BRANCH  17  18
ATOM     18  N   LIG    1       24.723 -24.851   5.927  0.00  0.00    -0.302 NA
ATOM     19  C   LIG    1       25.844 -25.224   6.800  0.00  0.00    +0.084 C 
ATOM     20  C   LIG    1       26.492 -26.371   6.046  0.00  0.00    +0.017 C 
ATOM     21  C   LIG    1       25.337 -27.049   5.321  0.00  0.00    +0.017 C 
ATOM     22  C   LIG    1       24.132 -26.134   5.534  0.00  0.00    +0.084 C 
ENDBRANCH  17  18
ENDBRANCH  16  17
ENDBRANCH   1  16
TORSDOF 6
ENDMDL
MODEL 6
REMARK VINA RESULT:      -8.0      1.906      5.666
REMARK  Name = *****
REMARK                            x       y       z     vdW  Elec       q    Type
REMARK                         _______ _______ _______ _____ _____    ______ ____
ROOT
ATOM      1  C   LIG    1       26.712 -21.451   7.389  0.00  0.00    +0.095 C 
ENDROOT
BRANCH   1   2
ATOM      2  C   LIG    1       25.515 -20.490   6.994  0.00  0.00    +0.025 C 
ATOM      3  C   LIG    1       25.102 -20.455   5.503  0.00  0.00    +0.006 C 
ATOM      4  C   LIG    1       24.220 -21.607   5.041  0.00  0.00    +0.000 C 
ATOM      5  C   LIG    1       22.973 -21.765   5.898  0.00  0.00    +0.000 C 
ATOM      6  C   LIG    1       23.268 -21.769   7.393  0.00  0.00    +0.000 C 
ATOM      7  C   LIG    1       24.224 -20.660   7.839  0.00  0.00    +0.006 C 
ENDBRANCH   1   2
BRANCH   1   8
ATOM      8  C   LIG    1       28.128 -20.810   7.249  0.00  0.00    -0.016 A 
ATOM      9  C   LIG    1       28.375 -19.764   6.339  0.00  0.00    +0.006 A 
ATOM     10  C   LIG    1       29.619 -19.112   6.293  0.00  0.00    +0.000 A 
ATOM     11  C   LIG    1       30.652 -19.499   7.137  0.00  0.00    +0.000 A 
ATOM     12  C   LIG    1       30.449 -20.552   8.021  0.00  0.00    +0.000 A 
ATOM     13  C   LIG    1       29.195 -21.186   8.081  0.00  0.00    +0.006 A 
ENDBRANCH   1   8
BRANCH   1  14
ATOM     14  O   LIG    1       26.527 -21.805   8.771  0.00  0.00    -0.384 OA
ATOM     15  H   LIG    1       25.689 -21.403   9.060  0.00  0.00    +0.211 HD
ENDBRANCH   1  14
BRANCH   1  16
ATOM     16  C   LIG    1       26.687 -22.806   6.601  0.00  0.00    +0.055 C 
BRANCH  16  17
ATOM     17  C   LIG    1       25.894 -23.946   7.271  0.00  0.00    +0.087 C 
BRANCH  17  18
ATOM     18  N   LIG    1       25.629 -25.107   6.403  0.00  0.00    -0.302 NA
ATOM     19  C   LIG    1       26.106 -26.351   7.022  0.00  0.00    +0.084 C 
ATOM     20  C   LIG    1       25.483 -27.424   6.147  0.00  0.00    +0.017 C 
ATOM     21  C   LIG    1       24.168 -26.814   5.678  0.00  0.00    +0.017 C 
ATOM     22  C   LIG    1       24.209 -25.358   6.139  0.00  0.00    +0.084 C 
ENDBRANCH  17  18
ENDBRANCH  16  17
ENDBRANCH   1  16
TORSDOF 6
ENDMDL
MODEL 7
REMARK VINA RESULT:      -7.7      2.402      5.820
REMARK  Name = *****
REMARK                            x       y       z     vdW  Elec       q    Type
REMARK                         _______ _______ _______ _____ _____    ______ ____
ROOT
ATOM      1  C   LIG    1       24.268 -22.755   5.916  0.00  0.00    +0.095 C 
ENDROOT
BRANCH   1   2
ATOM      2  C   LIG    1       23.343 -22.071   4.826  0.00  0.00    +0.025 C 
ATOM      3  C   LIG    1       22.282 -21.063   5.332  0.00  0.00    +0.006 C 
ATOM      4  C   LIG    1       22.803 -19.667   5.645  0.00  0.00    +0.000 C 
ATOM      5  C   LIG    1       23.556 -19.051   4.474  0.00  0.00    +0.000 C 
ATOM      6  C   LIG    1       24.600 -19.984   3.874  0.00  0.00    +0.000 C 
ATOM      7  C   LIG    1       24.096 -21.411   3.640  0.00  0.00    +0.006 C 
ENDBRANCH   1   2
BRANCH   1   8
ATOM      8  C   LIG    1       25.216 -21.771   6.670  0.00  0.00    -0.016 A 
ATOM      9  C   LIG    1       24.977 -21.400   8.008  0.00  0.00    +0.006 A 
ATOM     10  C   LIG    1       25.890 -20.605   8.721  0.00  0.00    +0.000 A 
ATOM     11  C   LIG    1       27.051 -20.144   8.114  0.00  0.00    +0.000 A 
ATOM     12  C   LIG    1       27.296 -20.464   6.785  0.00  0.00    +0.000 A 
ATOM     13  C   LIG    1       26.391 -21.281   6.081  0.00  0.00    +0.006 A 
ENDBRANCH   1   8
BRANCH   1  14
ATOM     14  O   LIG    1       23.396 -23.355   6.891  0.00  0.00    -0.384 OA
ATOM     15  H   LIG    1       22.498 -23.346   6.515  0.00  0.00    +0.211 HD
ENDBRANCH   1  14
BRANCH   1  16
ATOM     16  C   LIG    1       25.120 -23.935   5.333  0.00  0.00    +0.055 C 
BRANCH  16  17
ATOM     17  C   LIG    1       25.798 -24.842   6.379  0.00  0.00    +0.087 C 
BRANCH  17  18
ATOM     18  N   LIG    1       25.104 -26.116   6.634  0.00  0.00    -0.302 NA
ATOM     19  C   LIG    1       24.582 -26.695   5.388  0.00  0.00    +0.084 C 
ATOM     20  C   LIG    1       24.193 -28.102   5.805  0.00  0.00    +0.017 C 
ATOM     21  C   LIG    1       25.189 -28.462   6.901  0.00  0.00    +0.017 C 
ATOM     22  C   LIG    1       25.956 -27.172   7.191  0.00  0.00    +0.084 C 
ENDBRANCH  17  18
ENDBRANCH  16  17
ENDBRANCH   1  16
TORSDOF 6
ENDMDL
MODEL 8
REMARK VINA RESULT:      -7.6      2.258      4.512
REMARK  Name = *****
REMARK                            x       y       z     vdW  Elec       q    Type
REMARK                         _______ _______ _______ _____ _____    ______ ____
ROOT
ATOM      1  C   LIG    1       24.393 -22.711   6.275  0.00  0.00    +0.095 C 
ENDROOT
BRANCH   1   2
ATOM      2  C   LIG    1       24.411 -24.141   6.960  0.00  0.00    +0.025 C 
ATOM      3  C   LIG    1       23.568 -25.254   6.293  0.00  0.00    +0.006 C 
ATOM      4  C   LIG    1       24.205 -25.919   5.081  0.00  0.00    +0.000 C 
ATOM      5  C   LIG    1       25.596 -26.460   5.378  0.00  0.00    +0.000 C 
ATOM      6  C   LIG    1       26.497 -25.449   6.077  0.00  0.00    +0.000 C 
ATOM      7  C   LIG    1       25.823 -24.720   7.243  0.00  0.00    +0.006 C 
ENDBRANCH   1   2
BRANCH   1   8
ATOM      8  C   LIG    1       25.462 -21.716   6.827  0.00  0.00    -0.016 A 
ATOM      9  C   LIG    1       25.468 -21.320   8.178  0.00  0.00    +0.006 A 
ATOM     10  C   LIG    1       26.495 -20.515   8.699  0.00  0.00    +0.000 A 
ATOM     11  C   LIG    1       27.527 -20.069   7.884  0.00  0.00    +0.000 A 
ATOM     12  C   LIG    1       27.528 -20.415   6.538  0.00  0.00    +0.000 A 
ATOM     13  C   LIG    1       26.511 -21.241   6.025  0.00  0.00    +0.006 A 
ENDBRANCH   1   8
BRANCH   1  14
ATOM     14  O   LIG    1       24.663 -22.912   4.877  0.00  0.00    -0.384 OA
ATOM     15  H   LIG    1       24.895 -23.850   4.762  0.00  0.00    +0.211 HD
ENDBRANCH   1  14
BRANCH   1  16
ATOM     16  C   LIG    1       22.983 -22.028   6.337  0.00  0.00    +0.055 C 
BRANCH  16  17
ATOM     17  C   LIG    1       22.561 -21.264   5.066  0.00  0.00    +0.087 C 
BRANCH  17  18
ATOM     18  N   LIG    1       23.178 -19.936   4.912  0.00  0.00    -0.302 NA
ATOM     19  C   LIG    1       24.070 -19.897   3.744  0.00  0.00    +0.084 C 
ATOM     20  C   LIG    1       24.351 -18.414   3.582  0.00  0.00    +0.017 C 
ATOM     21  C   LIG    1       23.080 -17.731   4.070  0.00  0.00    +0.017 C 
ATOM     22  C   LIG    1       22.226 -18.846   4.673  0.00  0.00    +0.084 C 
ENDBRANCH  17  18
ENDBRANCH  16  17
ENDBRANCH   1  16
TORSDOF 6
ENDMDL
MODEL 9
REMARK VINA RESULT:      -7.5      1.036      1.908
REMARK  Name = *****
REMARK                            x       y       z     vdW  Elec       q    Type
REMARK                         _______ _______ _______ _____ _____    ______ ____
ROOT
ATOM      1  C   LIG    1       24.850 -22.000   6.651  0.00  0.00    +0.095 C 
ENDROOT
BRANCH   1   2
ATOM      2  C   LIG    1       25.566 -23.165   5.850  0.00  0.00    +0.025 C 
ATOM      3  C   LIG    1       26.408 -24.172   6.669  0.00  0.00    +0.006 C 
ATOM      4  C   LIG    1       25.616 -25.261   7.379  0.00  0.00    +0.000 C 
ATOM      5  C   LIG    1       24.706 -26.030   6.432  0.00  0.00    +0.000 C 
ATOM      6  C   LIG    1       23.861 -25.124   5.545  0.00  0.00    +0.000 C 
ATOM      7  C   LIG    1       24.645 -23.978   4.901  0.00  0.00    +0.006 C 
ENDBRANCH   1   2
BRANCH   1   8
ATOM      8  C   LIG    1       24.268 -20.862   5.756  0.00  0.00    -0.016 A 
ATOM      9  C   LIG    1       24.963 -20.388   4.626  0.00  0.00    +0.006 A 
ATOM     10  C   LIG    1       24.389 -19.445   3.757  0.00  0.00    +0.000 A 
ATOM     11  C   LIG    1       23.121 -18.936   4.003  0.00  0.00    +0.000 A 
ATOM     12  C   LIG    1       22.426 -19.358   5.129  0.00  0.00    +0.000 A 
ATOM     13  C   LIG    1       22.993 -20.321   5.984  0.00  0.00    +0.006 A 
ENDBRANCH   1   8
BRANCH   1  14
ATOM     14  O   LIG    1       23.754 -22.596   7.368  0.00  0.00    -0.384 OA
ATOM     15  H   LIG    1       23.952 -23.545   7.456  0.00  0.00    +0.211 HD
ENDBRANCH   1  14
BRANCH   1  16
ATOM     16  C   LIG    1       25.772 -21.363   7.748  0.00  0.00    +0.055 C 
BRANCH  16  17
ATOM     17  C   LIG    1       27.284 -21.418   7.454  0.00  0.00    +0.087 C 
BRANCH  17  18
ATOM     18  N   LIG    1       27.909 -20.110   7.190  0.00  0.00    -0.302 NA
ATOM     19  C   LIG    1       29.206 -19.994   7.872  0.00  0.00    +0.084 C 
ATOM     20  C   LIG    1       29.808 -18.750   7.245  0.00  0.00    +0.017 C 
ATOM     21  C   LIG    1       29.263 -18.740   5.823  0.00  0.00    +0.017 C 
ATOM     22  C   LIG    1       28.222 -19.858   5.780  0.00  0.00    +0.084 C 
ENDBRANCH  17  18
ENDBRANCH  16  17
ENDBRANCH   1  16
TORSDOF 6
ENDMDL
