MODEL 1
REMARK VINA RESULT:      -5.5      0.000      0.000
REMARK  Name = *****
REMARK                            x       y       z     vdW  Elec       q    Type
REMARK                         _______ _______ _______ _____ _____    ______ ____
ROOT
ATOM      1  C   LIG    1       26.016 -21.225   7.062  0.00  0.00    +0.000 A 
ATOM      2  C   LIG    1       24.655 -20.988   6.875  0.00  0.00    +0.004 A 
ATOM      3  C   LIG    1       24.197 -20.272   5.758  0.00  0.00    -0.043 A 
ATOM      4  C   LIG    1       22.712 -20.084   5.578  0.00  0.00    +0.035 C 
ATOM      5  C   LIG    1       22.358 -18.959   4.613  0.00  0.00    +0.006 C 
ATOM      6  C   LIG    1       23.162 -19.081   3.323  0.00  0.00    +0.020 C 
ATOM      7  C   LIG    1       24.678 -19.037   3.571  0.00  0.00    +0.134 C 
ATOM      8  C   LIG    1       25.123 -19.804   4.806  0.00  0.00    -0.030 A 
ATOM      9  C   LIG    1       26.492 -20.057   5.007  0.00  0.00    +0.005 A 
ATOM     10  C   LIG    1       26.935 -20.759   6.127  0.00  0.00    +0.000 A 
ENDROOT
BRANCH   7  11
ATOM     11  C   LIG    1       25.180 -17.594   3.581  0.00  0.00    +0.288 C 
ATOM     12  N   LIG    1       24.358 -16.561   3.971  0.00  0.00    -0.233 N 
ATOM     13  H   LIG    1       23.363 -16.667   3.822  0.00  0.00    +0.291 HD
ATOM     14  C   LIG    1       24.977 -15.327   3.548  0.00  0.00    +0.272 C 
ATOM     15  C   LIG    1       26.426 -15.777   3.355  0.00  0.00    +0.333 C 
ATOM     16  N   LIG    1       26.388 -17.257   3.199  0.00  0.00    -0.083 NA
ENDBRANCH   7  11
TORSDOF 1
ENDMDL
MODEL 2
REMARK VINA RESULT:      -5.2      1.943      3.476
REMARK  Name = *****
REMARK                            x       y       z     vdW  Elec       q    Type
REMARK                         _______ _______ _______ _____ _____    ______ ____
ROOT
ATOM      1  C   LIG    1       22.733 -20.847   6.786  0.00  0.00    +0.000 A 
ATOM      2  C   LIG    1       22.725 -19.926   5.740  0.00  0.00    +0.004 A 
ATOM      3  C   LIG    1       23.874 -19.709   4.965  0.00  0.00    -0.043 A 
ATOM      4  C   LIG    1       23.799 -18.736   3.814  0.00  0.00    +0.035 C 
ATOM      5  C   LIG    1       25.165 -18.261   3.335  0.00  0.00    +0.006 C 
ATOM      6  C   LIG    1       26.107 -19.441   3.131  0.00  0.00    +0.020 C 
ATOM      7  C   LIG    1       26.311 -20.258   4.417  0.00  0.00    +0.134 C 
ATOM      8  C   LIG    1       25.044 -20.445   5.236  0.00  0.00    -0.030 A 
ATOM      9  C   LIG    1       25.033 -21.374   6.291  0.00  0.00    +0.005 A 
ATOM     10  C   LIG    1       23.887 -21.571   7.062  0.00  0.00    +0.000 A 
ENDROOT
BRANCH   7  11
ATOM     11  C   LIG    1       27.451 -19.675   5.249  0.00  0.00    +0.288 C 
ATOM     12  N   LIG    1       28.117 -18.541   4.842  0.00  0.00    -0.233 N 
ATOM     13  H   LIG    1       28.176 -18.359   3.849  0.00  0.00    +0.291 HD
ATOM     14  C   LIG    1       29.329 -18.444   5.620  0.00  0.00    +0.272 C 
ATOM     15  C   LIG    1       28.989 -19.344   6.809  0.00  0.00    +0.333 C 
ATOM     16  N   LIG    1       27.874 -20.224   6.362  0.00  0.00    -0.083 NA
ENDBRANCH   7  11
TORSDOF 1
ENDMDL
MODEL 3
REMARK VINA RESULT:      -4.5      1.929      3.979
REMARK  Name = *****
REMARK                            x       y       z     vdW  Elec       q    Type
REMARK                         _______ _______ _______ _____ _____    ______ ____
ROOT
ATOM      1  C   LIG    1       21.689 -20.336   5.172  0.00  0.00    +0.000 A 
ATOM      2  C   LIG    1       22.113 -19.128   4.622  0.00  0.00    +0.004 A 
ATOM      3  C   LIG    1       23.447 -18.947   4.227  0.00  0.00    -0.043 A 
ATOM      4  C   LIG    1       23.844 -17.638   3.592  0.00  0.00    +0.035 C 
ATOM      5  C   LIG    1       25.347 -17.390   3.607  0.00  0.00    +0.006 C 
ATOM      6  C   LIG    1       26.102 -18.614   3.103  0.00  0.00    +0.020 C 
ATOM      7  C   LIG    1       25.817 -19.868   3.946  0.00  0.00    +0.134 C 
ATOM      8  C   LIG    1       24.364 -20.007   4.371  0.00  0.00    -0.030 A 
ATOM      9  C   LIG    1       23.918 -21.221   4.924  0.00  0.00    +0.005 A 
ATOM     10  C   LIG    1       22.592 -21.383   5.323  0.00  0.00    +0.000 A 
ENDROOT
BRANCH   7  11
ATOM     11  C   LIG    1       26.772 -19.945   5.134  0.00  0.00    +0.288 C 
ATOM     12  N   LIG    1       27.950 -19.232   5.144  0.00  0.00    -0.233 N 
ATOM     13  H   LIG    1       28.389 -19.032   4.254  0.00  0.00    +0.291 HD
ATOM     14  C   LIG    1       28.776 -19.767   6.200  0.00  0.00    +0.272 C 
ATOM     15  C   LIG    1       27.729 -20.479   7.059  0.00  0.00    +0.333 C 
ATOM     16  N   LIG    1       26.548 -20.701   6.181  0.00  0.00    -0.083 NA
ENDBRANCH   7  11
TORSDOF 1
ENDMDL
MODEL 4
REMARK VINA RESULT:      -4.0      1.724      2.880
REMARK  Name = *****
REMARK                            x       y       z     vdW  Elec       q    Type
REMARK                         _______ _______ _______ _____ _____    ______ ____
ROOT
ATOM      1  C   LIG    1       28.284 -19.622   6.006  0.00  0.00    +0.000 A 
ATOM      2  C   LIG    1       27.397 -20.418   6.728  0.00  0.00    +0.004 A 
ATOM      3  C   LIG    1       26.100 -20.664   6.252  0.00  0.00    -0.043 A 
ATOM      4  C   LIG    1       25.196 -21.572   7.047  0.00  0.00    +0.035 C 
ATOM      5  C   LIG    1       23.723 -21.421   6.689  0.00  0.00    +0.006 C 
ATOM      6  C   LIG    1       23.527 -21.466   5.178  0.00  0.00    +0.020 C 
ATOM      7  C   LIG    1       24.309 -20.360   4.452  0.00  0.00    +0.134 C 
ATOM      8  C   LIG    1       25.697 -20.113   5.020  0.00  0.00    -0.030 A 
ATOM      9  C   LIG    1       26.607 -19.316   4.301  0.00  0.00    +0.005 A 
ATOM     10  C   LIG    1       27.889 -19.070   4.792  0.00  0.00    +0.000 A 
ENDROOT
BRANCH   7  11
ATOM     11  C   LIG    1       23.483 -19.077   4.379  0.00  0.00    +0.288 C 
ATOM     12  N   LIG    1       23.982 -17.948   3.769  0.00  0.00    -0.233 N 
ATOM     13  H   LIG    1       24.984 -17.811   3.774  0.00  0.00    +0.291 HD
ATOM     14  C   LIG    1       23.147 -16.837   4.159  0.00  0.00    +0.272 C 
ATOM     15  C   LIG    1       21.882 -17.565   4.615  0.00  0.00    +0.333 C 
ATOM     16  N   LIG    1       22.288 -18.968   4.906  0.00  0.00    -0.083 NA
ENDBRANCH   7  11
TORSDOF 1
ENDMDL
MODEL 5
REMARK VINA RESULT:      -3.9      2.177      5.114
REMARK  Name = *****
REMARK                            x       y       z     vdW  Elec       q    Type
REMARK                         _______ _______ _______ _____ _____    ______ ____
ROOT
ATOM      1  C   LIG    1       22.980 -15.379   4.507  0.00  0.00    +0.000 A 
ATOM      2  C   LIG    1       24.220 -15.802   4.031  0.00  0.00    +0.004 A 
ATOM      3  C   LIG    1       24.497 -17.167   3.861  0.00  0.00    -0.043 A 
ATOM      4  C   LIG    1       25.837 -17.570   3.297  0.00  0.00    +0.035 C 
ATOM      5  C   LIG    1       26.188 -19.029   3.560  0.00  0.00    +0.006 C 
ATOM      6  C   LIG    1       25.024 -19.941   3.189  0.00  0.00    +0.020 C 
ATOM      7  C   LIG    1       23.746 -19.609   3.977  0.00  0.00    +0.134 C 
ATOM      8  C   LIG    1       23.502 -18.120   4.157  0.00  0.00    -0.030 A 
ATOM      9  C   LIG    1       22.255 -17.675   4.631  0.00  0.00    +0.005 A 
ATOM     10  C   LIG    1       21.997 -16.316   4.807  0.00  0.00    +0.000 A 
ENDROOT
BRANCH   7  11
ATOM     11  C   LIG    1       23.724 -20.359   5.307  0.00  0.00    +0.288 C 
ATOM     12  N   LIG    1       24.860 -20.467   6.078  0.00  0.00    -0.233 N 
ATOM     13  H   LIG    1       25.755 -20.461   5.605  0.00  0.00    +0.291 HD
ATOM     14  C   LIG    1       24.624 -21.496   7.062  0.00  0.00    +0.272 C 
ATOM     15  C   LIG    1       23.096 -21.561   7.058  0.00  0.00    +0.333 C 
ATOM     16  N   LIG    1       22.654 -20.956   5.771  0.00  0.00    -0.083 NA
ENDBRANCH   7  11
TORSDOF 1
ENDMDL
MODEL 6
REMARK VINA RESULT:      -3.4      3.102      5.020
REMARK  Name = *****
REMARK                            x       y       z     vdW  Elec       q    Type
REMARK                         _______ _______ _______ _____ _____    ______ ____
ROOT
ATOM      1  C   LIG    1       22.479 -17.896   4.173  0.00  0.00    +0.000 A 
ATOM      2  C   LIG    1       23.792 -17.991   3.714  0.00  0.00    +0.004 A 
ATOM      3  C   LIG    1       24.659 -16.891   3.784  0.00  0.00    -0.043 A 
ATOM      4  C   LIG    1       26.084 -17.061   3.318  0.00  0.00    +0.035 C 
ATOM      5  C   LIG    1       26.787 -15.740   3.034  0.00  0.00    +0.006 C 
ATOM      6  C   LIG    1       26.590 -14.763   4.187  0.00  0.00    +0.020 C 
ATOM      7  C   LIG    1       25.106 -14.464   4.455  0.00  0.00    +0.134 C 
ATOM      8  C   LIG    1       24.202 -15.681   4.343  0.00  0.00    -0.030 A 
ATOM      9  C   LIG    1       22.877 -15.604   4.806  0.00  0.00    +0.005 A 
ATOM     10  C   LIG    1       22.021 -16.702   4.719  0.00  0.00    +0.000 A 
ENDROOT
BRANCH   7  11
ATOM     11  C   LIG    1       24.623 -13.309   3.581  0.00  0.00    +0.288 C 
ATOM     12  N   LIG    1       25.001 -13.214   2.261  0.00  0.00    -0.233 N 
ATOM     13  H   LIG    1       25.895 -13.607   1.995  0.00  0.00    +0.291 HD
ATOM     14  C   LIG    1       24.691 -11.878   1.812  0.00  0.00    +0.272 C 
ATOM     15  C   LIG    1       23.663 -11.447   2.861  0.00  0.00    +0.333 C 
ATOM     16  N   LIG    1       23.862 -12.343   4.033  0.00  0.00    -0.083 NA
ENDBRANCH   7  11
TORSDOF 1
ENDMDL
MODEL 7
REMARK VINA RESULT:      -3.2      2.983      4.884
REMARK  Name = *****
REMARK                            x       y       z     vdW  Elec       q    Type
REMARK                         _______ _______ _______ _____ _____    ______ ____
ROOT
ATOM      1  C   LIG    1       24.867 -18.124   3.888  0.00  0.00    +0.000 A 
ATOM      2  C   LIG    1       23.936 -17.128   4.178  0.00  0.00    +0.004 A 
ATOM      3  C   LIG    1       24.203 -15.784   3.873  0.00  0.00    -0.043 A 
ATOM      4  C   LIG    1       23.143 -14.752   4.163  0.00  0.00    +0.035 C 
ATOM      5  C   LIG    1       23.683 -13.328   4.206  0.00  0.00    +0.006 C 
ATOM      6  C   LIG    1       24.555 -13.044   2.988  0.00  0.00    +0.020 C 
ATOM      7  C   LIG    1       25.750 -14.004   2.886  0.00  0.00    +0.134 C 
ATOM      8  C   LIG    1       25.419 -15.442   3.250  0.00  0.00    -0.030 A 
ATOM      9  C   LIG    1       26.344 -16.460   2.960  0.00  0.00    +0.005 A 
ATOM     10  C   LIG    1       26.071 -17.791   3.279  0.00  0.00    +0.000 A 
ENDROOT
BRANCH   7  11
ATOM     11  C   LIG    1       26.938 -13.470   3.684  0.00  0.00    +0.288 C 
ATOM     12  N   LIG    1       28.055 -12.977   3.047  0.00  0.00    -0.233 N 
ATOM     13  H   LIG    1       28.286 -13.355   2.137  0.00  0.00    +0.291 HD
ATOM     14  C   LIG    1       29.111 -12.884   4.027  0.00  0.00    +0.272 C 
ATOM     15  C   LIG    1       28.306 -12.893   5.328  0.00  0.00    +0.333 C 
ATOM     16  N   LIG    1       26.977 -13.477   4.994  0.00  0.00    -0.083 NA
ENDBRANCH   7  11
TORSDOF 1
ENDMDL
MODEL 8
REMARK VINA RESULT:      -2.6      2.077      4.295
REMARK  Name = *****
REMARK                            x       y       z     vdW  Elec       q    Type
REMARK                         _______ _______ _______ _____ _____    ______ ____
ROOT
ATOM      1  C   LIG    1       22.036 -18.133   4.483  0.00  0.00    +0.000 A 
ATOM      2  C   LIG    1       22.549 -16.837   4.478  0.00  0.00    +0.004 A 
ATOM      3  C   LIG    1       23.879 -16.592   4.105  0.00  0.00    -0.043 A 
ATOM      4  C   LIG    1       24.371 -15.166   4.070  0.00  0.00    +0.035 C 
ATOM      5  C   LIG    1       25.890 -15.051   4.083  0.00  0.00    +0.006 C 
ATOM      6  C   LIG    1       26.512 -15.981   3.047  0.00  0.00    +0.020 C 
ATOM      7  C   LIG    1       26.144 -17.455   3.287  0.00  0.00    +0.134 C 
ATOM      8  C   LIG    1       24.700 -17.667   3.714  0.00  0.00    -0.030 A 
ATOM      9  C   LIG    1       24.165 -18.968   3.719  0.00  0.00    +0.005 A 
ATOM     10  C   LIG    1       22.844 -19.199   4.104  0.00  0.00    +0.000 A 
ENDROOT
BRANCH   7  11
ATOM     11  C   LIG    1       27.129 -18.105   4.255  0.00  0.00    +0.288 C 
ATOM     12  N   LIG    1       28.309 -17.480   4.591  0.00  0.00    -0.233 N 
ATOM     13  H   LIG    1       28.726 -16.859   3.909  0.00  0.00    +0.291 HD
ATOM     14  C   LIG    1       29.161 -18.462   5.218  0.00  0.00    +0.272 C 
ATOM     15  C   LIG    1       28.134 -19.518   5.633  0.00  0.00    +0.333 C 
ATOM     16  N   LIG    1       26.929 -19.284   4.790  0.00  0.00    -0.083 NA
ENDBRANCH   7  11
TORSDOF 1
ENDMDL
