MODEL 1
REMARK VINA RESULT:      -6.2      0.000      0.000
REMARK  Name = *****
REMARK                            x       y       z     vdW  Elec       q    Type
REMARK                         _______ _______ _______ _____ _____    ______ ____
ROOT
ATOM      1  C   LIG    1       30.255 -17.784   9.454  0.00  0.00    +0.178 C 
ATOM      2  C   LIG    1       31.522 -18.208   8.718  0.00  0.00    +0.179 C 
ATOM      3  C   LIG    1       30.938 -18.934   7.518  0.00  0.00    +0.207 C 
ATOM      4  C   LIG    1       29.751 -19.655   8.161  0.00  0.00    +0.221 C 
ATOM      5  O   LIG    1       29.244 -18.783   9.177  0.00  0.00    -0.336 OA
ENDROOT
BRANCH   2   6
ATOM      6  O   LIG    1       32.315 -17.093   8.321  0.00  0.00    -0.386 OA
ATOM      7  H   LIG    1       32.787 -17.371   7.513  0.00  0.00    +0.210 HD
ENDBRANCH   2   6
BRANCH   3   8
ATOM      8  O   LIG    1       31.896 -19.808   6.925  0.00  0.00    -0.384 OA
ATOM      9  H   LIG    1       31.754 -19.732   5.957  0.00  0.00    +0.210 HD
ENDBRANCH   3   8
BRANCH   4  10
ATOM     10  O   LIG    1       30.211 -20.840   8.811  0.00  0.00    -0.361 OA
ATOM     11  H   LIG    1       31.149 -20.634   8.988  0.00  0.00    +0.213 HD
ENDBRANCH   4  10
BRANCH   1  12
ATOM     12  C   LIG    1       30.452 -17.637  10.962  0.00  0.00    +0.190 C 
BRANCH  12  13
ATOM     13  O   LIG    1       30.387 -16.265  11.356  0.00  0.00    -0.392 OA
ATOM     14  H   LIG    1       29.754 -16.217  12.095  0.00  0.00    +0.209 HD
ENDBRANCH  12  13
ENDBRANCH   1  12
BRANCH   4  15
ATOM     15  C   LIG    1       28.670 -20.034   7.137  0.00  0.00    +0.223 C 
BRANCH  15  16
ATOM     16  O   LIG    1       29.111 -21.084   6.268  0.00  0.00    -0.390 OA
ATOM     17  H   LIG    1       29.671 -21.665   6.814  0.00  0.00    +0.210 HD
ENDBRANCH  15  16
ENDBRANCH   4  15
TORSDOF 7
ENDMDL
MODEL 2
REMARK VINA RESULT:      -6.1      1.678      2.726
REMARK  Name = *****
REMARK                            x       y       z     vdW  Elec       q    Type
REMARK                         _______ _______ _______ _____ _____    ______ ____
ROOT
ATOM      1  C   LIG    1       31.742 -17.853   9.851  0.00  0.00    +0.178 C 
ATOM      2  C   LIG    1       30.621 -17.472   8.889  0.00  0.00    +0.179 C 
ATOM      3  C   LIG    1       30.022 -18.833   8.579  0.00  0.00    +0.207 C 
ATOM      4  C   LIG    1       31.282 -19.699   8.507  0.00  0.00    +0.221 C 
ATOM      5  O   LIG    1       32.193 -19.179   9.481  0.00  0.00    -0.336 OA
ENDROOT
BRANCH   2   6
ATOM      6  O   LIG    1       29.667 -16.602   9.488  0.00  0.00    -0.386 OA
ATOM      7  H   LIG    1       29.051 -17.176   9.983  0.00  0.00    +0.210 HD
ENDBRANCH   2   6
BRANCH   3   8
ATOM      8  O   LIG    1       29.267 -18.804   7.370  0.00  0.00    -0.384 OA
ATOM      9  H   LIG    1       29.914 -18.585   6.664  0.00  0.00    +0.210 HD
ENDBRANCH   3   8
BRANCH   4  10
ATOM     10  O   LIG    1       31.895 -19.540   7.227  0.00  0.00    -0.361 OA
ATOM     11  H   LIG    1       32.513 -18.800   7.379  0.00  0.00    +0.213 HD
ENDBRANCH   4  10
BRANCH   1  12
ATOM     12  C   LIG    1       32.915 -16.873   9.834  0.00  0.00    +0.190 C 
BRANCH  12  13
ATOM     13  O   LIG    1       32.703 -15.838   8.873  0.00  0.00    -0.392 OA
ATOM     14  H   LIG    1       33.400 -15.173   9.022  0.00  0.00    +0.209 HD
ENDBRANCH  12  13
ENDBRANCH   1  12
BRANCH   4  15
ATOM     15  C   LIG    1       30.984 -21.189   8.736  0.00  0.00    +0.223 C 
BRANCH  15  16
ATOM     16  O   LIG    1       32.030 -21.828   9.477  0.00  0.00    -0.390 OA
ATOM     17  H   LIG    1       32.496 -22.401   8.841  0.00  0.00    +0.210 HD
ENDBRANCH  15  16
ENDBRANCH   4  15
TORSDOF 7
ENDMDL
MODEL 3
REMARK VINA RESULT:      -5.9      1.641      4.020
REMARK  Name = *****
REMARK                            x       y       z     vdW  Elec       q    Type
REMARK                         _______ _______ _______ _____ _____    ______ ____
ROOT
ATOM      1  C   LIG    1       29.432 -19.254   7.402  0.00  0.00    +0.178 C 
ATOM      2  C   LIG    1       30.396 -20.392   7.725  0.00  0.00    +0.179 C 
ATOM      3  C   LIG    1       30.993 -19.910   9.035  0.00  0.00    +0.207 C 
ATOM      4  C   LIG    1       31.120 -18.409   8.767  0.00  0.00    +0.221 C 
ATOM      5  O   LIG    1       29.998 -18.042   7.956  0.00  0.00    -0.336 OA
ENDROOT
BRANCH   2   6
ATOM      6  O   LIG    1       29.728 -21.640   7.880  0.00  0.00    -0.386 OA
ATOM      7  H   LIG    1       28.856 -21.433   8.268  0.00  0.00    +0.210 HD
ENDBRANCH   2   6
BRANCH   3   8
ATOM      8  O   LIG    1       32.234 -20.558   9.308  0.00  0.00    -0.384 OA
ATOM      9  H   LIG    1       32.866 -20.201   8.647  0.00  0.00    +0.210 HD
ENDBRANCH   3   8
BRANCH   4  10
ATOM     10  O   LIG    1       32.297 -18.162   7.996  0.00  0.00    -0.361 OA
ATOM     11  H   LIG    1       32.583 -17.288   8.321  0.00  0.00    +0.213 HD
ENDBRANCH   4  10
BRANCH   1  12
ATOM     12  C   LIG    1       29.178 -19.082   5.905  0.00  0.00    +0.190 C 
BRANCH  12  13
ATOM     13  O   LIG    1       29.996 -18.045   5.362  0.00  0.00    -0.392 OA
ATOM     14  H   LIG    1       29.933 -17.290   5.976  0.00  0.00    +0.209 HD
ENDBRANCH  12  13
ENDBRANCH   1  12
BRANCH   4  15
ATOM     15  C   LIG    1       31.188 -17.584  10.061  0.00  0.00    +0.223 C 
BRANCH  15  16
ATOM     16  O   LIG    1       30.813 -18.362  11.203  0.00  0.00    -0.390 OA
ATOM     17  H   LIG    1       30.344 -19.142  10.853  0.00  0.00    +0.210 HD
ENDBRANCH  15  16
ENDBRANCH   4  15
TORSDOF 7
ENDMDL
MODEL 4
REMARK VINA RESULT:      -5.9      1.844      4.264
REMARK  Name = *****
REMARK                            x       y       z     vdW  Elec       q    Type
REMARK                         _______ _______ _______ _____ _____    ______ ____
ROOT
ATOM      1  C   LIG    1       31.270 -19.603   8.419  0.00  0.00    +0.178 C 
ATOM      2  C   LIG    1       30.035 -18.715   8.531  0.00  0.00    +0.179 C 
ATOM      3  C   LIG    1       30.659 -17.387   8.923  0.00  0.00    +0.207 C 
ATOM      4  C   LIG    1       31.766 -17.852   9.873  0.00  0.00    +0.221 C 
ATOM      5  O   LIG    1       32.247 -19.099   9.362  0.00  0.00    -0.336 OA
ENDROOT
BRANCH   2   6
ATOM      6  O   LIG    1       29.325 -18.618   7.301  0.00  0.00    -0.386 OA
ATOM      7  H   LIG    1       28.381 -18.729   7.524  0.00  0.00    +0.210 HD
ENDBRANCH   2   6
BRANCH   3   8
ATOM      8  O   LIG    1       29.701 -16.522   9.528  0.00  0.00    -0.384 OA
ATOM      9  H   LIG    1       29.356 -17.015  10.303  0.00  0.00    +0.210 HD
ENDBRANCH   3   8
BRANCH   4  10
ATOM     10  O   LIG    1       31.207 -18.111  11.162  0.00  0.00    -0.361 OA
ATOM     11  H   LIG    1       31.048 -19.074  11.134  0.00  0.00    +0.213 HD
ENDBRANCH   4  10
BRANCH   1  12
ATOM     12  C   LIG    1       30.983 -21.078   8.694  0.00  0.00    +0.190 C 
BRANCH  12  13
ATOM     13  O   LIG    1       32.059 -21.686   9.410  0.00  0.00    -0.392 OA
ATOM     14  H   LIG    1       31.707 -21.932  10.285  0.00  0.00    +0.209 HD
ENDBRANCH  12  13
ENDBRANCH   1  12
BRANCH   4  15
ATOM     15  C   LIG    1       32.891 -16.816  10.016  0.00  0.00    +0.223 C 
BRANCH  15  16
ATOM     16  O   LIG    1       32.937 -15.928   8.892  0.00  0.00    -0.390 OA
ATOM     17  H   LIG    1       33.423 -15.140   9.195  0.00  0.00    +0.210 HD
ENDBRANCH  15  16
ENDBRANCH   4  15
TORSDOF 7
ENDMDL
MODEL 5
REMARK VINA RESULT:      -5.9      2.378      4.069
REMARK  Name = *****
REMARK                            x       y       z     vdW  Elec       q    Type
REMARK                         _______ _______ _______ _____ _____    ______ ____
ROOT
ATOM      1  C   LIG    1       27.642 -20.853   7.353  0.00  0.00    +0.178 C 
ATOM      2  C   LIG    1       28.202 -19.808   6.393  0.00  0.00    +0.179 C 
ATOM      3  C   LIG    1       29.693 -19.942   6.648  0.00  0.00    +0.207 C 
ATOM      4  C   LIG    1       29.714 -20.162   8.162  0.00  0.00    +0.221 C 
ATOM      5  O   LIG    1       28.547 -20.929   8.480  0.00  0.00    -0.336 OA
ENDROOT
BRANCH   2   6
ATOM      6  O   LIG    1       27.874 -20.090   5.036  0.00  0.00    -0.386 OA
ATOM      7  H   LIG    1       28.084 -21.033   4.897  0.00  0.00    +0.210 HD
ENDBRANCH   2   6
BRANCH   3   8
ATOM      8  O   LIG    1       30.398 -18.778   6.221  0.00  0.00    -0.384 OA
ATOM      9  H   LIG    1       29.734 -18.056   6.220  0.00  0.00    +0.210 HD
ENDBRANCH   3   8
BRANCH   4  10
ATOM     10  O   LIG    1       29.587 -18.904   8.827  0.00  0.00    -0.361 OA
ATOM     11  H   LIG    1       30.253 -18.356   8.370  0.00  0.00    +0.213 HD
ENDBRANCH   4  10
BRANCH   1  12
ATOM     12  C   LIG    1       26.226 -20.537   7.833  0.00  0.00    +0.190 C 
BRANCH  12  13
ATOM     13  O   LIG    1       26.163 -20.506   9.260  0.00  0.00    -0.392 OA
ATOM     14  H   LIG    1       25.334 -20.048   9.492  0.00  0.00    +0.209 HD
ENDBRANCH  12  13
ENDBRANCH   1  12
BRANCH   4  15
ATOM     15  C   LIG    1       31.002 -20.851   8.638  0.00  0.00    +0.223 C 
BRANCH  15  16
ATOM     16  O   LIG    1       31.937 -19.908   9.174  0.00  0.00    -0.390 OA
ATOM     17  H   LIG    1       32.779 -20.391   9.269  0.00  0.00    +0.210 HD
ENDBRANCH  15  16
ENDBRANCH   4  15
TORSDOF 7
ENDMDL
MODEL 6
REMARK VINA RESULT:      -5.8      2.230      3.472
REMARK  Name = *****
REMARK                            x       y       z     vdW  Elec       q    Type
REMARK                         _______ _______ _______ _____ _____    ______ ____
ROOT
ATOM      1  C   LIG    1       29.579 -19.054   7.802  0.00  0.00    +0.178 C 
ATOM      2  C   LIG    1       29.453 -19.305   6.303  0.00  0.00    +0.179 C 
ATOM      3  C   LIG    1       27.969 -19.601   6.176  0.00  0.00    +0.207 C 
ATOM      4  C   LIG    1       27.722 -20.416   7.448  0.00  0.00    +0.221 C 
ATOM      5  O   LIG    1       28.574 -19.865   8.458  0.00  0.00    -0.336 OA
ENDROOT
BRANCH   2   6
ATOM      6  O   LIG    1       29.829 -18.169   5.531  0.00  0.00    -0.386 OA
ATOM      7  H   LIG    1       30.206 -18.518   4.701  0.00  0.00    +0.210 HD
ENDBRANCH   2   6
BRANCH   3   8
ATOM      8  O   LIG    1       27.682 -20.307   4.971  0.00  0.00    -0.384 OA
ATOM      9  H   LIG    1       27.053 -19.737   4.478  0.00  0.00    +0.210 HD
ENDBRANCH   3   8
BRANCH   4  10
ATOM     10  O   LIG    1       28.137 -21.766   7.236  0.00  0.00    -0.361 OA
ATOM     11  H   LIG    1       28.120 -21.841   6.263  0.00  0.00    +0.213 HD
ENDBRANCH   4  10
BRANCH   1  12
ATOM     12  C   LIG    1       30.965 -19.380   8.356  0.00  0.00    +0.190 C 
BRANCH  12  13
ATOM     13  O   LIG    1       31.883 -19.676   7.302  0.00  0.00    -0.392 OA
ATOM     14  H   LIG    1       32.239 -20.565   7.483  0.00  0.00    +0.209 HD
ENDBRANCH  12  13
ENDBRANCH   1  12
BRANCH   4  15
ATOM     15  C   LIG    1       26.246 -20.407   7.874  0.00  0.00    +0.223 C 
BRANCH  15  16
ATOM     16  O   LIG    1       26.107 -20.494   9.297  0.00  0.00    -0.390 OA
ATOM     17  H   LIG    1       25.550 -19.738   9.558  0.00  0.00    +0.210 HD
ENDBRANCH  15  16
ENDBRANCH   4  15
TORSDOF 7
ENDMDL
MODEL 7
REMARK VINA RESULT:      -5.6      1.644      2.338
REMARK  Name = *****
REMARK                            x       y       z     vdW  Elec       q    Type
REMARK                         _______ _______ _______ _____ _____    ______ ____
ROOT
ATOM      1  C   LIG    1       31.591 -18.734   8.212  0.00  0.00    +0.178 C 
ATOM      2  C   LIG    1       31.226 -19.973   9.024  0.00  0.00    +0.179 C 
ATOM      3  C   LIG    1       30.296 -20.693   8.062  0.00  0.00    +0.207 C 
ATOM      4  C   LIG    1       29.530 -19.514   7.457  0.00  0.00    +0.221 C 
ATOM      5  O   LIG    1       30.458 -18.428   7.365  0.00  0.00    -0.336 OA
ENDROOT
BRANCH   2   6
ATOM      6  O   LIG    1       32.366 -20.765   9.343  0.00  0.00    -0.386 OA
ATOM      7  H   LIG    1       32.923 -20.773   8.541  0.00  0.00    +0.210 HD
ENDBRANCH   2   6
BRANCH   3   8
ATOM      8  O   LIG    1       29.470 -21.632   8.746  0.00  0.00    -0.384 OA
ATOM      9  H   LIG    1       28.555 -21.286   8.661  0.00  0.00    +0.210 HD
ENDBRANCH   3   8
BRANCH   4  10
ATOM     10  O   LIG    1       28.494 -19.111   8.353  0.00  0.00    -0.361 OA
ATOM     11  H   LIG    1       28.247 -19.951   8.783  0.00  0.00    +0.213 HD
ENDBRANCH   4  10
BRANCH   1  12
ATOM     12  C   LIG    1       31.945 -17.526   9.078  0.00  0.00    +0.190 C 
BRANCH  12  13
ATOM     13  O   LIG    1       32.254 -17.925  10.414  0.00  0.00    -0.392 OA
ATOM     14  H   LIG    1       32.169 -18.896  10.441  0.00  0.00    +0.209 HD
ENDBRANCH  12  13
ENDBRANCH   1  12
BRANCH   4  15
ATOM     15  C   LIG    1       28.908 -19.856   6.095  0.00  0.00    +0.223 C 
BRANCH  15  16
ATOM     16  O   LIG    1       27.902 -20.869   6.213  0.00  0.00    -0.390 OA
ATOM     17  H   LIG    1       27.794 -21.243   5.319  0.00  0.00    +0.210 HD
ENDBRANCH  15  16
ENDBRANCH   4  15
TORSDOF 7
ENDMDL
MODEL 8
REMARK VINA RESULT:      -5.5      1.264      3.910
REMARK  Name = *****
REMARK                            x       y       z     vdW  Elec       q    Type
REMARK                         _______ _______ _______ _____ _____    ______ ____
ROOT
ATOM      1  C   LIG    1       29.893 -19.494   8.388  0.00  0.00    +0.178 C 
ATOM      2  C   LIG    1       30.998 -18.755   7.639  0.00  0.00    +0.179 C 
ATOM      3  C   LIG    1       31.745 -18.098   8.786  0.00  0.00    +0.207 C 
ATOM      4  C   LIG    1       30.585 -17.699   9.702  0.00  0.00    +0.221 C 
ATOM      5  O   LIG    1       29.595 -18.725   9.579  0.00  0.00    -0.336 OA
ENDROOT
BRANCH   2   6
ATOM      6  O   LIG    1       31.838 -19.640   6.904  0.00  0.00    -0.386 OA
ATOM      7  H   LIG    1       31.387 -20.507   6.909  0.00  0.00    +0.210 HD
ENDBRANCH   2   6
BRANCH   3   8
ATOM      8  O   LIG    1       32.530 -16.998   8.331  0.00  0.00    -0.384 OA
ATOM      9  H   LIG    1       31.903 -16.250   8.239  0.00  0.00    +0.210 HD
ENDBRANCH   3   8
BRANCH   4  10
ATOM     10  O   LIG    1       30.000 -16.487   9.225  0.00  0.00    -0.361 OA
ATOM     11  H   LIG    1       30.715 -16.106   8.681  0.00  0.00    +0.213 HD
ENDBRANCH   4  10
BRANCH   1  12
ATOM     12  C   LIG    1       28.626 -19.693   7.557  0.00  0.00    +0.190 C 
BRANCH  12  13
ATOM     13  O   LIG    1       27.563 -20.208   8.359  0.00  0.00    -0.392 OA
ATOM     14  H   LIG    1       27.099 -19.438   8.736  0.00  0.00    +0.209 HD
ENDBRANCH  12  13
ENDBRANCH   1  12
BRANCH   4  15
ATOM     15  C   LIG    1       31.029 -17.500  11.159  0.00  0.00    +0.223 C 
BRANCH  15  16
ATOM     16  O   LIG    1       32.456 -17.455  11.275  0.00  0.00    -0.390 OA
ATOM     17  H   LIG    1       32.641 -17.226  12.204  0.00  0.00    +0.210 HD
ENDBRANCH  15  16
ENDBRANCH   4  15
TORSDOF 7
ENDMDL
MODEL 9
REMARK VINA RESULT:      -5.3      4.185      6.289
REMARK  Name = *****
REMARK                            x       y       z     vdW  Elec       q    Type
REMARK                         _______ _______ _______ _____ _____    ______ ____
ROOT
ATOM      1  C   LIG    1       27.083 -21.936   7.904  0.00  0.00    +0.178 C 
ATOM      2  C   LIG    1       25.931 -20.958   8.112  0.00  0.00    +0.179 C 
ATOM      3  C   LIG    1       24.732 -21.853   7.849  0.00  0.00    +0.207 C 
ATOM      4  C   LIG    1       25.251 -22.705   6.688  0.00  0.00    +0.221 C 
ATOM      5  O   LIG    1       26.648 -22.908   6.922  0.00  0.00    -0.336 OA
ENDROOT
BRANCH   2   6
ATOM      6  O   LIG    1       25.907 -20.423   9.432  0.00  0.00    -0.386 OA
ATOM      7  H   LIG    1       25.370 -21.041   9.964  0.00  0.00    +0.210 HD
ENDBRANCH   2   6
BRANCH   3   8
ATOM      8  O   LIG    1       23.572 -21.085   7.533  0.00  0.00    -0.384 OA
ATOM      9  H   LIG    1       23.487 -20.430   8.258  0.00  0.00    +0.210 HD
ENDBRANCH   3   8
BRANCH   4  10
ATOM     10  O   LIG    1       25.128 -21.972   5.469  0.00  0.00    -0.361 OA
ATOM     11  H   LIG    1       24.320 -21.445   5.619  0.00  0.00    +0.213 HD
ENDBRANCH   4  10
BRANCH   1  12
ATOM     12  C   LIG    1       28.375 -21.262   7.445  0.00  0.00    +0.190 C 
BRANCH  12  13
ATOM     13  O   LIG    1       28.673 -20.122   8.251  0.00  0.00    -0.392 OA
ATOM     14  H   LIG    1       28.388 -19.339   7.744  0.00  0.00    +0.209 HD
ENDBRANCH  12  13
ENDBRANCH   1  12
BRANCH   4  15
ATOM     15  C   LIG    1       24.492 -24.034   6.551  0.00  0.00    +0.223 C 
BRANCH  15  16
ATOM     16  O   LIG    1       23.076 -23.829   6.478  0.00  0.00    -0.390 OA
ATOM     17  H   LIG    1       22.685 -24.429   7.138  0.00  0.00    +0.210 HD
ENDBRANCH  15  16
ENDBRANCH   4  15
TORSDOF 7
ENDMDL
