MODEL 1
REMARK VINA RESULT:      -5.3      0.000      0.000
REMARK  Name = *****
REMARK                            x       y       z     vdW  Elec       q    Type
REMARK                         _______ _______ _______ _____ _____    ______ ____
ROOT
ATOM      1  C   LIG    1       25.205 -16.889   3.197  0.00  0.00    +0.161 C 
ENDROOT
BRANCH   1   2
ATOM      2  C   LIG    1       24.475 -18.090   3.787  0.00  0.00    -0.014 A 
ATOM      3  C   LIG    1       25.107 -19.311   4.070  0.00  0.00    +0.055 A 
ATOM      4  C   LIG    1       24.379 -20.378   4.568  0.00  0.00    +0.159 A 
ATOM      5  C   LIG    1       23.019 -20.257   4.838  0.00  0.00    +0.158 A 
ATOM      6  C   LIG    1       22.371 -19.051   4.608  0.00  0.00    +0.049 A 
ATOM      7  C   LIG    1       23.098 -17.977   4.082  0.00  0.00    +0.010 A 
BRANCH   4   8
ATOM      8  O   LIG    1       25.010 -21.572   4.776  0.00  0.00    -0.503 OA
ATOM      9  H   LIG    1       24.673 -22.154   4.068  0.00  0.00    +0.292 HD
ENDBRANCH   4   8
BRANCH   5  10
ATOM     10  O   LIG    1       22.367 -21.353   5.329  0.00  0.00    -0.503 OA
ATOM     11  H   LIG    1       21.459 -21.342   4.984  0.00  0.00    +0.292 HD
ENDBRANCH   5  10
ENDBRANCH   1   2
BRANCH   1  12
ATOM     12  O   LIG    1       26.558 -17.296   2.932  0.00  0.00    -0.386 OA
ATOM     13  H   LIG    1       26.946 -16.539   2.449  0.00  0.00    +0.210 HD
ENDBRANCH   1  12
BRANCH   1  14
ATOM     14  C   LIG    1       25.242 -15.558   4.034  0.00  0.00    +0.087 C 
BRANCH  14  16
ATOM     15  C   LIG    1       23.840 -13.501   3.336  0.00  0.00    +0.005 C 
ATOM     16  C   LIG    1       23.869 -14.842   4.054  0.00  0.00    +0.018 C 
ENDBRANCH  14  16
BRANCH  14  17
ATOM     17  N   LIG    1       26.260 -14.643   3.443  0.00  0.00    -0.308 NA
ATOM     18  H   LIG    1       26.655 -15.073   2.603  0.00  0.00    +0.122 HD
BRANCH  17  19
ATOM     19  C   LIG    1       27.363 -14.235   4.327  0.00  0.00    +0.048 C 
ATOM     20  C   LIG    1       26.750 -13.509   5.527  0.00  0.00    +0.024 C 
ATOM     21  C   LIG    1       28.399 -13.332   3.656  0.00  0.00    +0.024 C 
ENDBRANCH  17  19
ENDBRANCH  14  17
ENDBRANCH   1  14
TORSDOF 8
ENDMDL
MODEL 2
REMARK VINA RESULT:      -5.0      1.109      2.017
REMARK  Name = *****
REMARK                            x       y       z     vdW  Elec       q    Type
REMARK                         _______ _______ _______ _____ _____    ______ ____
ROOT
ATOM      1  C   LIG    1       26.346 -17.101   3.258  0.00  0.00    +0.161 C 
ENDROOT
BRANCH   1   2
ATOM      2  C   LIG    1       25.332 -18.171   3.646  0.00  0.00    -0.014 A 
ATOM      3  C   LIG    1       23.951 -17.933   3.713  0.00  0.00    +0.055 A 
ATOM      4  C   LIG    1       23.084 -18.938   4.112  0.00  0.00    +0.159 A 
ATOM      5  C   LIG    1       23.553 -20.211   4.417  0.00  0.00    +0.158 A 
ATOM      6  C   LIG    1       24.910 -20.493   4.322  0.00  0.00    +0.049 A 
ATOM      7  C   LIG    1       25.791 -19.474   3.942  0.00  0.00    +0.010 A 
BRANCH   4   8
ATOM      8  O   LIG    1       21.752 -18.657   4.225  0.00  0.00    -0.503 OA
ATOM      9  H   LIG    1       21.324 -19.234   3.562  0.00  0.00    +0.292 HD
ENDBRANCH   4   8
BRANCH   5  10
ATOM     10  O   LIG    1       22.639 -21.152   4.803  0.00  0.00    -0.503 OA
ATOM     11  H   LIG    1       21.813 -20.693   5.029  0.00  0.00    +0.292 HD
ENDBRANCH   5  10
ENDBRANCH   1   2
BRANCH   1  12
ATOM     12  O   LIG    1       27.645 -17.583   3.637  0.00  0.00    -0.386 OA
ATOM     13  H   LIG    1       27.730 -18.438   3.169  0.00  0.00    +0.210 HD
ENDBRANCH   1  12
BRANCH   1  14
ATOM     14  C   LIG    1       26.161 -15.655   3.848  0.00  0.00    +0.087 C 
BRANCH  14  16
ATOM     15  C   LIG    1       23.950 -14.319   3.961  0.00  0.00    +0.005 C 
ATOM     16  C   LIG    1       25.080 -14.847   3.088  0.00  0.00    +0.018 C 
ENDBRANCH  14  16
BRANCH  14  17
ATOM     17  N   LIG    1       27.461 -14.929   3.766  0.00  0.00    -0.308 NA
ATOM     18  H   LIG    1       28.161 -15.426   4.321  0.00  0.00    +0.122 HD
BRANCH  17  19
ATOM     19  C   LIG    1       27.447 -13.518   4.179  0.00  0.00    +0.048 C 
ATOM     20  C   LIG    1       28.828 -12.932   3.870  0.00  0.00    +0.024 C 
ATOM     21  C   LIG    1       27.119 -13.303   5.657  0.00  0.00    +0.024 C 
ENDBRANCH  17  19
ENDBRANCH  14  17
ENDBRANCH   1  14
TORSDOF 8
ENDMDL
MODEL 3
REMARK VINA RESULT:      -4.4      2.798      5.440
REMARK  Name = *****
REMARK                            x       y       z     vdW  Elec       q    Type
REMARK                         _______ _______ _______ _____ _____    ______ ____
ROOT
ATOM      1  C   LIG    1       24.491 -20.630   4.056  0.00  0.00    +0.161 C 
ENDROOT
BRANCH   1   2
ATOM      2  C   LIG    1       24.070 -19.165   4.068  0.00  0.00    -0.014 A 
ATOM      3  C   LIG    1       24.919 -18.119   3.678  0.00  0.00    +0.055 A 
ATOM      4  C   LIG    1       24.490 -16.803   3.751  0.00  0.00    +0.159 A 
ATOM      5  C   LIG    1       23.202 -16.491   4.172  0.00  0.00    +0.158 A 
ATOM      6  C   LIG    1       22.321 -17.504   4.526  0.00  0.00    +0.049 A 
ATOM      7  C   LIG    1       22.759 -18.833   4.477  0.00  0.00    +0.010 A 
BRANCH   4   8
ATOM      8  O   LIG    1       25.361 -15.803   3.422  0.00  0.00    -0.503 OA
ATOM      9  H   LIG    1       24.893 -15.287   2.737  0.00  0.00    +0.292 HD
ENDBRANCH   4   8
BRANCH   5  10
ATOM     10  O   LIG    1       22.849 -15.171   4.218  0.00  0.00    -0.503 OA
ATOM     11  H   LIG    1       23.277 -14.772   4.993  0.00  0.00    +0.292 HD
ENDBRANCH   5  10
ENDBRANCH   1   2
BRANCH   1  12
ATOM     12  O   LIG    1       23.293 -21.422   4.004  0.00  0.00    -0.386 OA
ATOM     13  H   LIG    1       23.244 -21.723   3.075  0.00  0.00    +0.210 HD
ENDBRANCH   1  12
BRANCH   1  14
ATOM     14  C   LIG    1       25.383 -21.156   5.240  0.00  0.00    +0.087 C 
BRANCH  14  16
ATOM     15  C   LIG    1       23.577 -21.476   7.062  0.00  0.00    +0.005 C 
ATOM     16  C   LIG    1       24.830 -20.731   6.622  0.00  0.00    +0.018 C 
ENDBRANCH  14  16
BRANCH  14  17
ATOM     17  N   LIG    1       26.765 -20.618   5.081  0.00  0.00    -0.308 NA
ATOM     18  H   LIG    1       27.322 -21.274   4.530  0.00  0.00    +0.122 HD
BRANCH  17  19
ATOM     19  C   LIG    1       27.491 -20.307   6.321  0.00  0.00    +0.048 C 
ATOM     20  C   LIG    1       28.662 -19.391   5.956  0.00  0.00    +0.024 C 
ATOM     21  C   LIG    1       28.017 -21.538   7.061  0.00  0.00    +0.024 C 
ENDBRANCH  17  19
ENDBRANCH  14  17
ENDBRANCH   1  14
TORSDOF 8
ENDMDL
MODEL 4
REMARK VINA RESULT:      -4.3      2.528      6.096
REMARK  Name = *****
REMARK                            x       y       z     vdW  Elec       q    Type
REMARK                         _______ _______ _______ _____ _____    ______ ____
ROOT
ATOM      1  C   LIG    1       26.030 -18.977   3.677  0.00  0.00    +0.161 C 
ENDROOT
BRANCH   1   2
ATOM      2  C   LIG    1       25.985 -17.454   3.652  0.00  0.00    -0.014 A 
ATOM      3  C   LIG    1       27.136 -16.652   3.621  0.00  0.00    +0.055 A 
ATOM      4  C   LIG    1       27.029 -15.271   3.641  0.00  0.00    +0.159 A 
ATOM      5  C   LIG    1       25.785 -14.647   3.651  0.00  0.00    +0.158 A 
ATOM      6  C   LIG    1       24.625 -15.410   3.640  0.00  0.00    +0.049 A 
ATOM      7  C   LIG    1       24.729 -16.806   3.645  0.00  0.00    +0.010 A 
BRANCH   4   8
ATOM      8  O   LIG    1       28.168 -14.518   3.671  0.00  0.00    -0.503 OA
ATOM      9  H   LIG    1       28.862 -15.110   3.320  0.00  0.00    +0.292 HD
ENDBRANCH   4   8
BRANCH   5  10
ATOM     10  O   LIG    1       25.758 -13.280   3.670  0.00  0.00    -0.503 OA
ATOM     11  H   LIG    1       24.836 -12.997   3.561  0.00  0.00    +0.292 HD
ENDBRANCH   5  10
ENDBRANCH   1   2
BRANCH   1  12
ATOM     12  O   LIG    1       25.312 -19.448   2.525  0.00  0.00    -0.386 OA
ATOM     13  H   LIG    1       24.609 -18.781   2.390  0.00  0.00    +0.210 HD
ENDBRANCH   1  12
BRANCH   1  14
ATOM     14  C   LIG    1       25.468 -19.715   4.948  0.00  0.00    +0.087 C 
BRANCH  14  16
ATOM     15  C   LIG    1       27.959 -19.791   5.637  0.00  0.00    +0.005 C 
ATOM     16  C   LIG    1       26.583 -20.433   5.747  0.00  0.00    +0.018 C 
ENDBRANCH  14  16
BRANCH  14  17
ATOM     17  N   LIG    1       24.454 -20.719   4.515  0.00  0.00    -0.308 NA
ATOM     18  H   LIG    1       24.286 -20.620   3.512  0.00  0.00    +0.122 HD
BRANCH  17  19
ATOM     19  C   LIG    1       23.161 -20.684   5.215  0.00  0.00    +0.048 C 
ATOM     20  C   LIG    1       22.483 -19.356   4.870  0.00  0.00    +0.024 C 
ATOM     21  C   LIG    1       23.271 -20.823   6.735  0.00  0.00    +0.024 C 
ENDBRANCH  17  19
ENDBRANCH  14  17
ENDBRANCH   1  14
TORSDOF 8
ENDMDL
MODEL 5
REMARK VINA RESULT:      -4.3      2.741      6.364
REMARK  Name = *****
REMARK                            x       y       z     vdW  Elec       q    Type
REMARK                         _______ _______ _______ _____ _____    ______ ____
ROOT
ATOM      1  C   LIG    1       24.849 -18.975   3.563  0.00  0.00    +0.161 C 
ENDROOT
BRANCH   1   2
ATOM      2  C   LIG    1       25.163 -17.485   3.618  0.00  0.00    -0.014 A 
ATOM      3  C   LIG    1       24.201 -16.507   3.915  0.00  0.00    +0.055 A 
ATOM      4  C   LIG    1       24.541 -15.164   3.909  0.00  0.00    +0.159 A 
ATOM      5  C   LIG    1       25.845 -14.754   3.649  0.00  0.00    +0.158 A 
ATOM      6  C   LIG    1       26.831 -15.697   3.390  0.00  0.00    +0.049 A 
ATOM      7  C   LIG    1       26.486 -17.054   3.372  0.00  0.00    +0.010 A 
BRANCH   4   8
ATOM      8  O   LIG    1       23.569 -14.234   4.143  0.00  0.00    -0.503 OA
ATOM      9  H   LIG    1       24.034 -13.376   4.099  0.00  0.00    +0.292 HD
ENDBRANCH   4   8
BRANCH   5  10
ATOM     10  O   LIG    1       26.105 -13.413   3.660  0.00  0.00    -0.503 OA
ATOM     11  H   LIG    1       26.207 -13.118   2.740  0.00  0.00    +0.292 HD
ENDBRANCH   5  10
ENDBRANCH   1   2
BRANCH   1  12
ATOM     12  O   LIG    1       23.465 -19.111   3.202  0.00  0.00    -0.386 OA
ATOM     13  H   LIG    1       23.485 -19.588   2.348  0.00  0.00    +0.210 HD
ENDBRANCH   1  12
BRANCH   1  14
ATOM     14  C   LIG    1       25.113 -19.837   4.852  0.00  0.00    +0.087 C 
BRANCH  14  16
ATOM     15  C   LIG    1       26.986 -20.446   6.527  0.00  0.00    +0.005 C 
ATOM     16  C   LIG    1       26.623 -20.079   5.095  0.00  0.00    +0.018 C 
ENDBRANCH  14  16
BRANCH  14  17
ATOM     17  N   LIG    1       24.425 -21.152   4.704  0.00  0.00    -0.308 NA
ATOM     18  H   LIG    1       23.985 -21.202   3.783  0.00  0.00    +0.122 HD
BRANCH  17  19
ATOM     19  C   LIG    1       23.418 -21.480   5.725  0.00  0.00    +0.048 C 
ATOM     20  C   LIG    1       22.038 -21.335   5.079  0.00  0.00    +0.024 C 
ATOM     21  C   LIG    1       23.491 -20.604   6.977  0.00  0.00    +0.024 C 
ENDBRANCH  17  19
ENDBRANCH  14  17
ENDBRANCH   1  14
TORSDOF 8
ENDMDL
MODEL 6
REMARK VINA RESULT:      -4.2      2.529      6.017
REMARK  Name = *****
REMARK                            x       y       z     vdW  Elec       q    Type
REMARK                         _______ _______ _______ _____ _____    ______ ____
ROOT
ATOM      1  C   LIG    1       25.148 -17.703   3.824  0.00  0.00    +0.161 C 
ENDROOT
BRANCH   1   2
ATOM      2  C   LIG    1       25.036 -16.192   3.652  0.00  0.00    -0.014 A 
ATOM      3  C   LIG    1       26.048 -15.407   3.078  0.00  0.00    +0.055 A 
ATOM      4  C   LIG    1       25.902 -14.033   2.988  0.00  0.00    +0.159 A 
ATOM      5  C   LIG    1       24.740 -13.403   3.424  0.00  0.00    +0.158 A 
ATOM      6  C   LIG    1       23.702 -14.154   3.959  0.00  0.00    +0.049 A 
ATOM      7  C   LIG    1       23.856 -15.541   4.075  0.00  0.00    +0.010 A 
BRANCH   4   8
ATOM      8  O   LIG    1       26.929 -13.290   2.479  0.00  0.00    -0.503 OA
ATOM      9  H   LIG    1       27.563 -13.950   2.138  0.00  0.00    +0.292 HD
ENDBRANCH   4   8
BRANCH   5  10
ATOM     10  O   LIG    1       24.668 -12.044   3.302  0.00  0.00    -0.503 OA
ATOM     11  H   LIG    1       23.737 -11.803   3.168  0.00  0.00    +0.292 HD
ENDBRANCH   5  10
ENDBRANCH   1   2
BRANCH   1  12
ATOM     12  O   LIG    1       26.186 -18.161   2.942  0.00  0.00    -0.386 OA
ATOM     13  H   LIG    1       25.892 -17.872   2.055  0.00  0.00    +0.210 HD
ENDBRANCH   1  12
BRANCH   1  14
ATOM     14  C   LIG    1       23.863 -18.575   3.575  0.00  0.00    +0.087 C 
BRANCH  14  16
ATOM     15  C   LIG    1       21.301 -18.555   3.917  0.00  0.00    +0.005 C 
ATOM     16  C   LIG    1       22.661 -18.104   4.429  0.00  0.00    +0.018 C 
ENDBRANCH  14  16
BRANCH  14  17
ATOM     17  N   LIG    1       24.171 -19.996   3.908  0.00  0.00    -0.308 NA
ATOM     18  H   LIG    1       23.513 -20.608   3.421  0.00  0.00    +0.122 HD
BRANCH  17  19
ATOM     19  C   LIG    1       24.172 -20.346   5.336  0.00  0.00    +0.048 C 
ATOM     20  C   LIG    1       25.594 -20.774   5.708  0.00  0.00    +0.024 C 
ATOM     21  C   LIG    1       23.189 -21.458   5.707  0.00  0.00    +0.024 C 
ENDBRANCH  17  19
ENDBRANCH  14  17
ENDBRANCH   1  14
TORSDOF 8
ENDMDL
MODEL 7
REMARK VINA RESULT:      -4.1      1.380      2.630
REMARK  Name = *****
REMARK                            x       y       z     vdW  Elec       q    Type
REMARK                         _______ _______ _______ _____ _____    ______ ____
ROOT
ATOM      1  C   LIG    1       27.023 -16.668   3.337  0.00  0.00    +0.161 C 
ENDROOT
BRANCH   1   2
ATOM      2  C   LIG    1       26.209 -17.896   3.728  0.00  0.00    -0.014 A 
ATOM      3  C   LIG    1       26.724 -18.944   4.506  0.00  0.00    +0.055 A 
ATOM      4  C   LIG    1       25.944 -20.052   4.793  0.00  0.00    +0.159 A 
ATOM      5  C   LIG    1       24.627 -20.137   4.355  0.00  0.00    +0.158 A 
ATOM      6  C   LIG    1       24.072 -19.100   3.617  0.00  0.00    +0.049 A 
ATOM      7  C   LIG    1       24.864 -17.988   3.304  0.00  0.00    +0.010 A 
BRANCH   4   8
ATOM      8  O   LIG    1       26.494 -21.083   5.503  0.00  0.00    -0.503 OA
ATOM      9  H   LIG    1       25.914 -21.846   5.314  0.00  0.00    +0.292 HD
ENDBRANCH   4   8
BRANCH   5  10
ATOM     10  O   LIG    1       23.919 -21.261   4.677  0.00  0.00    -0.503 OA
ATOM     11  H   LIG    1       24.158 -21.517   5.583  0.00  0.00    +0.292 HD
ENDBRANCH   5  10
ENDBRANCH   1   2
BRANCH   1  12
ATOM     12  O   LIG    1       27.935 -16.396   4.413  0.00  0.00    -0.386 OA
ATOM     13  H   LIG    1       27.479 -15.717   4.949  0.00  0.00    +0.210 HD
ENDBRANCH   1  12
BRANCH   1  14
ATOM     14  C   LIG    1       26.250 -15.343   2.994  0.00  0.00    +0.087 C 
BRANCH  14  16
ATOM     15  C   LIG    1       27.732 -13.329   3.649  0.00  0.00    +0.005 C 
ATOM     16  C   LIG    1       27.202 -14.213   2.530  0.00  0.00    +0.018 C 
ENDBRANCH  14  16
BRANCH  14  17
ATOM     17  N   LIG    1       25.508 -14.889   4.205  0.00  0.00    -0.308 NA
ATOM     18  H   LIG    1       25.470 -15.651   4.884  0.00  0.00    +0.122 HD
BRANCH  17  19
ATOM     19  C   LIG    1       24.143 -14.386   3.985  0.00  0.00    +0.048 C 
ATOM     20  C   LIG    1       24.120 -12.912   4.398  0.00  0.00    +0.024 C 
ATOM     21  C   LIG    1       23.065 -15.151   4.755  0.00  0.00    +0.024 C 
ENDBRANCH  17  19
ENDBRANCH  14  17
ENDBRANCH   1  14
TORSDOF 8
ENDMDL
MODEL 8
REMARK VINA RESULT:      -4.0      1.278      2.780
REMARK  Name = *****
REMARK                            x       y       z     vdW  Elec       q    Type
REMARK                         _______ _______ _______ _____ _____    ______ ____
ROOT
ATOM      1  C   LIG    1       26.424 -16.936   3.149  0.00  0.00    +0.161 C 
ENDROOT
BRANCH   1   2
ATOM      2  C   LIG    1       25.350 -17.915   3.609  0.00  0.00    -0.014 A 
ATOM      3  C   LIG    1       23.987 -17.587   3.672  0.00  0.00    +0.055 A 
ATOM      4  C   LIG    1       23.065 -18.509   4.138  0.00  0.00    +0.159 A 
ATOM      5  C   LIG    1       23.457 -19.790   4.514  0.00  0.00    +0.158 A 
ATOM      6  C   LIG    1       24.792 -20.162   4.426  0.00  0.00    +0.049 A 
ATOM      7  C   LIG    1       25.731 -19.224   3.978  0.00  0.00    +0.010 A 
BRANCH   4   8
ATOM      8  O   LIG    1       21.754 -18.140   4.245  0.00  0.00    -0.503 OA
ATOM      9  H   LIG    1       21.479 -17.947   3.327  0.00  0.00    +0.292 HD
ENDBRANCH   4   8
BRANCH   5  10
ATOM     10  O   LIG    1       22.491 -20.646   4.963  0.00  0.00    -0.503 OA
ATOM     11  H   LIG    1       22.889 -21.224   5.634  0.00  0.00    +0.292 HD
ENDBRANCH   5  10
ENDBRANCH   1   2
BRANCH   1  12
ATOM     12  O   LIG    1       27.643 -17.286   3.824  0.00  0.00    -0.386 OA
ATOM     13  H   LIG    1       27.688 -16.664   4.578  0.00  0.00    +0.210 HD
ENDBRANCH   1  12
BRANCH   1  14
ATOM     14  C   LIG    1       26.165 -15.398   3.358  0.00  0.00    +0.087 C 
BRANCH  14  16
ATOM     15  C   LIG    1       28.042 -13.647   3.659  0.00  0.00    +0.005 C 
ATOM     16  C   LIG    1       27.211 -14.751   4.297  0.00  0.00    +0.018 C 
ENDBRANCH  14  16
BRANCH  14  17
ATOM     17  N   LIG    1       24.805 -15.212   3.941  0.00  0.00    -0.308 NA
ATOM     18  H   LIG    1       24.215 -16.007   3.685  0.00  0.00    +0.122 HD
BRANCH  17  19
ATOM     19  C   LIG    1       24.104 -13.970   3.580  0.00  0.00    +0.048 C 
ATOM     20  C   LIG    1       24.664 -13.497   2.236  0.00  0.00    +0.024 C 
ATOM     21  C   LIG    1       24.244 -12.852   4.615  0.00  0.00    +0.024 C 
ENDBRANCH  17  19
ENDBRANCH  14  17
ENDBRANCH   1  14
TORSDOF 8
ENDMDL
MODEL 9
REMARK VINA RESULT:      -3.9      2.722      6.150
REMARK  Name = *****
REMARK                            x       y       z     vdW  Elec       q    Type
REMARK                         _______ _______ _______ _____ _____    ______ ____
ROOT
ATOM      1  C   LIG    1       26.330 -17.113   3.959  0.00  0.00    +0.161 C 
ENDROOT
BRANCH   1   2
ATOM      2  C   LIG    1       26.068 -15.680   3.509  0.00  0.00    -0.014 A 
ATOM      3  C   LIG    1       24.797 -15.085   3.540  0.00  0.00    +0.055 A 
ATOM      4  C   LIG    1       24.618 -13.791   3.078  0.00  0.00    +0.159 A 
ATOM      5  C   LIG    1       25.691 -13.040   2.612  0.00  0.00    +0.158 A 
ATOM      6  C   LIG    1       26.969 -13.583   2.605  0.00  0.00    +0.049 A 
ATOM      7  C   LIG    1       27.151 -14.899   3.048  0.00  0.00    +0.010 A 
BRANCH   4   8
ATOM      8  O   LIG    1       23.359 -13.261   3.066  0.00  0.00    -0.503 OA
ATOM      9  H   LIG    1       23.479 -12.337   3.359  0.00  0.00    +0.292 HD
ENDBRANCH   4   8
BRANCH   5  10
ATOM     10  O   LIG    1       25.437 -11.770   2.172  0.00  0.00    -0.503 OA
ATOM     11  H   LIG    1       25.733 -11.150   2.858  0.00  0.00    +0.292 HD
ENDBRANCH   5  10
ENDBRANCH   1   2
BRANCH   1  12
ATOM     12  O   LIG    1       27.675 -17.444   3.579  0.00  0.00    -0.386 OA
ATOM     13  H   LIG    1       27.690 -17.312   2.610  0.00  0.00    +0.210 HD
ENDBRANCH   1  12
BRANCH   1  14
ATOM     14  C   LIG    1       25.372 -18.243   3.432  0.00  0.00    +0.087 C 
BRANCH  14  16
ATOM     15  C   LIG    1       22.934 -19.102   3.459  0.00  0.00    +0.005 C 
ATOM     16  C   LIG    1       23.961 -18.156   4.064  0.00  0.00    +0.018 C 
ENDBRANCH  14  16
BRANCH  14  17
ATOM     17  N   LIG    1       25.969 -19.572   3.753  0.00  0.00    -0.308 NA
ATOM     18  H   LIG    1       25.588 -20.276   3.117  0.00  0.00    +0.122 HD
BRANCH  17  19
ATOM     19  C   LIG    1       25.802 -20.045   5.135  0.00  0.00    +0.048 C 
ATOM     20  C   LIG    1       27.197 -20.152   5.759  0.00  0.00    +0.024 C 
ATOM     21  C   LIG    1       25.085 -21.391   5.251  0.00  0.00    +0.024 C 
ENDBRANCH  17  19
ENDBRANCH  14  17
ENDBRANCH   1  14
TORSDOF 8
ENDMDL
