MODEL 1
REMARK VINA RESULT:      -6.9      0.000      0.000
REMARK  Name = *****
REMARK                            x       y       z     vdW  Elec       q    Type
REMARK                         _______ _______ _______ _____ _____    ______ ____
ROOT
ATOM      1  C   LIG    1       25.781 -22.403   6.952  0.00  0.00    +0.058 C 
ATOM      2  C   LIG    1       25.785 -23.937   7.080  0.00  0.00    +0.024 C 
ENDROOT
BRANCH   1   3
ATOM      3  N   LIG    1       26.583 -21.826   8.076  0.00  0.00    -0.292 NA
ATOM      4  C   LIG    1       25.991 -20.634   8.686  0.00  0.00    +0.106 C 
BRANCH   3   5
ATOM      5  C   LIG    1       27.988 -21.530   7.694  0.00  0.00    +0.173 C 
BRANCH   5   7
ATOM      6  C   LIG    1       28.211 -19.743   5.721  0.00  0.00    +0.005 C 
ATOM      7  C   LIG    1       28.084 -20.543   6.595  0.00  0.00    -0.090 C 
ENDBRANCH   5   7
ENDBRANCH   3   5
ENDBRANCH   1   3
BRANCH   1   8
ATOM      8  C   LIG    1       24.284 -21.911   6.709  0.00  0.00    +0.053 C 
BRANCH   8   9
ATOM      9  C   LIG    1       23.945 -20.844   5.674  0.00  0.00    -0.046 A 
ATOM     10  C   LIG    1       24.797 -20.601   4.584  0.00  0.00    +0.003 A 
ATOM     11  C   LIG    1       24.532 -19.572   3.668  0.00  0.00    +0.000 A 
ATOM     12  C   LIG    1       23.386 -18.793   3.798  0.00  0.00    +0.000 A 
ATOM     13  C   LIG    1       22.471 -19.096   4.799  0.00  0.00    +0.000 A 
ATOM     14  C   LIG    1       22.733 -20.137   5.698  0.00  0.00    +0.003 A 
ENDBRANCH   8   9
ENDBRANCH   1   8
TORSDOF 5
ENDMDL
MODEL 2
REMARK VINA RESULT:      -6.6      1.228      2.341
REMARK  Name = *****
REMARK                            x       y       z     vdW  Elec       q    Type
REMARK                         _______ _______ _______ _____ _____    ______ ____
ROOT
ATOM      1  C   LIG    1       24.187 -23.109   6.196  0.00  0.00    +0.058 C 
ATOM      2  C   LIG    1       23.267 -24.239   6.691  0.00  0.00    +0.024 C 
ENDROOT
BRANCH   1   3
ATOM      3  N   LIG    1       25.578 -23.375   6.680  0.00  0.00    -0.292 NA
ATOM      4  C   LIG    1       25.923 -24.795   6.768  0.00  0.00    +0.106 C 
BRANCH   3   5
ATOM      5  C   LIG    1       25.873 -22.722   7.981  0.00  0.00    +0.173 C 
BRANCH   5   7
ATOM      6  C   LIG    1       27.279 -20.472   7.662  0.00  0.00    +0.005 C 
ATOM      7  C   LIG    1       26.666 -21.481   7.829  0.00  0.00    -0.090 C 
ENDBRANCH   5   7
ENDBRANCH   3   5
ENDBRANCH   1   3
BRANCH   1   8
ATOM      8  C   LIG    1       23.493 -21.707   6.504  0.00  0.00    +0.053 C 
BRANCH   8   9
ATOM      9  C   LIG    1       23.545 -20.547   5.516  0.00  0.00    -0.046 A 
ATOM     10  C   LIG    1       22.488 -19.627   5.429  0.00  0.00    +0.003 A 
ATOM     11  C   LIG    1       22.493 -18.601   4.472  0.00  0.00    +0.000 A 
ATOM     12  C   LIG    1       23.576 -18.448   3.610  0.00  0.00    +0.000 A 
ATOM     13  C   LIG    1       24.683 -19.274   3.762  0.00  0.00    +0.000 A 
ATOM     14  C   LIG    1       24.678 -20.283   4.732  0.00  0.00    +0.003 A 
ENDBRANCH   8   9
ENDBRANCH   1   8
TORSDOF 5
ENDMDL
MODEL 3
REMARK VINA RESULT:      -6.5      1.346      2.925
REMARK  Name = *****
REMARK                            x       y       z     vdW  Elec       q    Type
REMARK                         _______ _______ _______ _____ _____    ______ ____
ROOT
ATOM      1  C   LIG    1       24.564 -22.113   7.707  0.00  0.00    +0.058 C 
ATOM      2  C   LIG    1       25.125 -20.726   8.067  0.00  0.00    +0.024 C 
ENDROOT
BRANCH   1   3
ATOM      3  N   LIG    1       25.707 -23.032   7.415  0.00  0.00    -0.292 NA
ATOM      4  C   LIG    1       26.990 -22.354   7.220  0.00  0.00    +0.106 C 
BRANCH   3   5
ATOM      5  C   LIG    1       25.450 -23.929   6.259  0.00  0.00    +0.173 C 
BRANCH   5   7
ATOM      6  C   LIG    1       25.899 -26.489   6.880  0.00  0.00    +0.005 C 
ATOM      7  C   LIG    1       25.703 -25.353   6.576  0.00  0.00    -0.090 C 
ENDBRANCH   5   7
ENDBRANCH   3   5
ENDBRANCH   1   3
BRANCH   1   8
ATOM      8  C   LIG    1       23.396 -21.933   6.636  0.00  0.00    +0.053 C 
BRANCH   8   9
ATOM      9  C   LIG    1       23.452 -20.861   5.553  0.00  0.00    -0.046 A 
ATOM     10  C   LIG    1       24.399 -20.933   4.518  0.00  0.00    +0.003 A 
ATOM     11  C   LIG    1       24.508 -19.913   3.560  0.00  0.00    +0.000 A 
ATOM     12  C   LIG    1       23.644 -18.822   3.593  0.00  0.00    +0.000 A 
ATOM     13  C   LIG    1       22.625 -18.794   4.537  0.00  0.00    +0.000 A 
ATOM     14  C   LIG    1       22.511 -19.824   5.478  0.00  0.00    +0.003 A 
ENDBRANCH   8   9
ENDBRANCH   1   8
TORSDOF 5
ENDMDL
MODEL 4
REMARK VINA RESULT:      -6.5      1.664      3.470
REMARK  Name = *****
REMARK                            x       y       z     vdW  Elec       q    Type
REMARK                         _______ _______ _______ _____ _____    ______ ____
ROOT
ATOM      1  C   LIG    1       24.859 -22.641   7.555  0.00  0.00    +0.058 C 
ATOM      2  C   LIG    1       26.334 -22.214   7.658  0.00  0.00    +0.024 C 
ENDROOT
BRANCH   1   3
ATOM      3  N   LIG    1       24.751 -23.760   6.566  0.00  0.00    -0.292 NA
ATOM      4  C   LIG    1       23.456 -24.444   6.572  0.00  0.00    +0.106 C 
BRANCH   3   5
ATOM      5  C   LIG    1       25.834 -24.766   6.709  0.00  0.00    +0.173 C 
BRANCH   5   7
ATOM      6  C   LIG    1       25.755 -26.658   4.824  0.00  0.00    +0.005 C 
ATOM      7  C   LIG    1       25.798 -25.796   5.646  0.00  0.00    -0.090 C 
ENDBRANCH   5   7
ENDBRANCH   3   5
ENDBRANCH   1   3
BRANCH   1   8
ATOM      8  C   LIG    1       23.956 -21.338   7.381  0.00  0.00    +0.053 C 
BRANCH   8   9
ATOM      9  C   LIG    1       23.903 -20.563   6.069  0.00  0.00    -0.046 A 
ATOM     10  C   LIG    1       22.752 -19.849   5.700  0.00  0.00    +0.003 A 
ATOM     11  C   LIG    1       22.666 -19.195   4.462  0.00  0.00    +0.000 A 
ATOM     12  C   LIG    1       23.747 -19.206   3.585  0.00  0.00    +0.000 A 
ATOM     13  C   LIG    1       24.936 -19.805   3.983  0.00  0.00    +0.000 A 
ATOM     14  C   LIG    1       25.020 -20.439   5.229  0.00  0.00    +0.003 A 
ENDBRANCH   8   9
ENDBRANCH   1   8
TORSDOF 5
ENDMDL
MODEL 5
REMARK VINA RESULT:      -6.4      2.945      4.685
REMARK  Name = *****
REMARK                            x       y       z     vdW  Elec       q    Type
REMARK                         _______ _______ _______ _____ _____    ______ ____
ROOT
ATOM      1  C   LIG    1       29.601 -19.478   7.158  0.00  0.00    +0.058 C 
ATOM      2  C   LIG    1       29.693 -18.514   5.962  0.00  0.00    +0.024 C 
ENDROOT
BRANCH   1   3
ATOM      3  N   LIG    1       30.978 -19.706   7.698  0.00  0.00    -0.292 NA
ATOM      4  C   LIG    1       31.067 -20.787   8.682  0.00  0.00    +0.106 C 
BRANCH   3   5
ATOM      5  C   LIG    1       31.588 -18.478   8.269  0.00  0.00    +0.173 C 
BRANCH   5   7
ATOM      6  C   LIG    1       30.248 -17.485  10.357  0.00  0.00    +0.005 C 
ATOM      7  C   LIG    1       30.823 -17.944   9.419  0.00  0.00    -0.090 C 
ENDBRANCH   5   7
ENDBRANCH   3   5
ENDBRANCH   1   3
BRANCH   1   8
ATOM      8  C   LIG    1       28.693 -20.723   6.749  0.00  0.00    +0.053 C 
BRANCH   8   9
ATOM      9  C   LIG    1       27.178 -20.707   6.923  0.00  0.00    -0.046 A 
ATOM     10  C   LIG    1       26.600 -20.771   8.201  0.00  0.00    +0.003 A 
ATOM     11  C   LIG    1       25.208 -20.832   8.368  0.00  0.00    +0.000 A 
ATOM     12  C   LIG    1       24.364 -20.788   7.261  0.00  0.00    +0.000 A 
ATOM     13  C   LIG    1       24.914 -20.604   5.999  0.00  0.00    +0.000 A 
ATOM     14  C   LIG    1       26.303 -20.524   5.842  0.00  0.00    +0.003 A 
ENDBRANCH   8   9
ENDBRANCH   1   8
TORSDOF 5
ENDMDL
MODEL 6
REMARK VINA RESULT:      -6.4      1.610      5.311
REMARK  Name = *****
REMARK                            x       y       z     vdW  Elec       q    Type
REMARK                         _______ _______ _______ _____ _____    ______ ____
ROOT
ATOM      1  C   LIG    1       25.889 -21.225   7.306  0.00  0.00    +0.058 C 
ATOM      2  C   LIG    1       25.824 -20.617   8.718  0.00  0.00    +0.024 C 
ENDROOT
BRANCH   1   3
ATOM      3  N   LIG    1       24.726 -22.150   7.127  0.00  0.00    -0.292 NA
ATOM      4  C   LIG    1       24.712 -22.858   5.846  0.00  0.00    +0.106 C 
BRANCH   3   5
ATOM      5  C   LIG    1       23.416 -21.480   7.327  0.00  0.00    +0.173 C 
BRANCH   5   7
ATOM      6  C   LIG    1       22.761 -19.794   5.360  0.00  0.00    +0.005 C 
ATOM      7  C   LIG    1       23.074 -20.557   6.221  0.00  0.00    -0.090 C 
ENDBRANCH   5   7
ENDBRANCH   3   5
ENDBRANCH   1   3
BRANCH   1   8
ATOM      8  C   LIG    1       27.370 -21.751   7.039  0.00  0.00    +0.053 C 
BRANCH   8   9
ATOM      9  C   LIG    1       28.573 -20.814   7.056  0.00  0.00    -0.046 A 
ATOM     10  C   LIG    1       28.610 -19.675   6.236  0.00  0.00    +0.003 A 
ATOM     11  C   LIG    1       29.743 -18.848   6.189  0.00  0.00    +0.000 A 
ATOM     12  C   LIG    1       30.846 -19.120   6.994  0.00  0.00    +0.000 A 
ATOM     13  C   LIG    1       30.781 -20.173   7.898  0.00  0.00    +0.000 A 
ATOM     14  C   LIG    1       29.639 -20.982   7.953  0.00  0.00    +0.003 A 
ENDBRANCH   8   9
ENDBRANCH   1   8
TORSDOF 5
ENDMDL
MODEL 7
REMARK VINA RESULT:      -6.4      2.525      3.555
REMARK  Name = *****
REMARK                            x       y       z     vdW  Elec       q    Type
REMARK                         _______ _______ _______ _____ _____    ______ ____
ROOT
ATOM      1  C   LIG    1       28.495 -20.364   7.292  0.00  0.00    +0.058 C 
ATOM      2  C   LIG    1       29.422 -21.417   7.924  0.00  0.00    +0.024 C 
ENDROOT
BRANCH   1   3
ATOM      3  N   LIG    1       29.208 -19.049   7.268  0.00  0.00    -0.292 NA
ATOM      4  C   LIG    1       29.575 -18.589   5.927  0.00  0.00    +0.106 C 
BRANCH   3   5
ATOM      5  C   LIG    1       30.413 -19.026   8.137  0.00  0.00    +0.173 C 
BRANCH   5   7
ATOM      6  C   LIG    1       30.306 -17.183  10.068  0.00  0.00    +0.005 C 
ATOM      7  C   LIG    1       30.334 -17.990   9.191  0.00  0.00    -0.090 C 
ENDBRANCH   5   7
ENDBRANCH   3   5
ENDBRANCH   1   3
BRANCH   1   8
ATOM      8  C   LIG    1       27.055 -20.474   7.968  0.00  0.00    +0.053 C 
BRANCH   8   9
ATOM      9  C   LIG    1       25.779 -20.561   7.136  0.00  0.00    -0.046 A 
ATOM     10  C   LIG    1       25.822 -20.450   5.737  0.00  0.00    +0.003 A 
ATOM     11  C   LIG    1       24.647 -20.454   4.970  0.00  0.00    +0.000 A 
ATOM     12  C   LIG    1       23.408 -20.612   5.583  0.00  0.00    +0.000 A 
ATOM     13  C   LIG    1       23.355 -20.843   6.952  0.00  0.00    +0.000 A 
ATOM     14  C   LIG    1       24.533 -20.857   7.708  0.00  0.00    +0.003 A 
ENDBRANCH   8   9
ENDBRANCH   1   8
TORSDOF 5
ENDMDL
MODEL 8
REMARK VINA RESULT:      -6.3      2.336      4.011
REMARK  Name = *****
REMARK                            x       y       z     vdW  Elec       q    Type
REMARK                         _______ _______ _______ _____ _____    ______ ____
ROOT
ATOM      1  C   LIG    1       27.282 -20.441   7.206  0.00  0.00    +0.058 C 
ATOM      2  C   LIG    1       26.579 -20.282   5.846  0.00  0.00    +0.024 C 
ENDROOT
BRANCH   1   3
ATOM      3  N   LIG    1       28.719 -20.781   6.967  0.00  0.00    -0.292 NA
ATOM      4  C   LIG    1       29.378 -21.436   8.099  0.00  0.00    +0.106 C 
BRANCH   3   5
ATOM      5  C   LIG    1       29.530 -19.611   6.543  0.00  0.00    +0.173 C 
BRANCH   5   7
ATOM      6  C   LIG    1       30.195 -18.061   8.615  0.00  0.00    +0.005 C 
ATOM      7  C   LIG    1       29.924 -18.750   7.680  0.00  0.00    -0.090 C 
ENDBRANCH   5   7
ENDBRANCH   3   5
ENDBRANCH   1   3
BRANCH   1   8
ATOM      8  C   LIG    1       26.389 -21.374   8.142  0.00  0.00    +0.053 C 
BRANCH   8   9
ATOM      9  C   LIG    1       25.430 -22.411   7.566  0.00  0.00    -0.046 A 
ATOM     10  C   LIG    1       24.074 -22.105   7.366  0.00  0.00    +0.003 A 
ATOM     11  C   LIG    1       23.170 -23.075   6.907  0.00  0.00    +0.000 A 
ATOM     12  C   LIG    1       23.611 -24.358   6.599  0.00  0.00    +0.000 A 
ATOM     13  C   LIG    1       24.968 -24.644   6.676  0.00  0.00    +0.000 A 
ATOM     14  C   LIG    1       25.868 -23.666   7.116  0.00  0.00    +0.003 A 
ENDBRANCH   8   9
ENDBRANCH   1   8
TORSDOF 5
ENDMDL
MODEL 9
REMARK VINA RESULT:      -6.3      1.918      4.715
REMARK  Name = *****
REMARK                            x       y       z     vdW  Elec       q    Type
REMARK                         _______ _______ _______ _____ _____    ______ ____
ROOT
ATOM      1  C   LIG    1       23.822 -20.690   5.982  0.00  0.00    +0.058 C 
ATOM      2  C   LIG    1       22.471 -20.620   5.248  0.00  0.00    +0.024 C 
ENDROOT
BRANCH   1   3
ATOM      3  N   LIG    1       24.919 -20.751   4.966  0.00  0.00    -0.292 NA
ATOM      4  C   LIG    1       26.204 -20.231   5.436  0.00  0.00    +0.106 C 
BRANCH   3   5
ATOM      5  C   LIG    1       24.562 -20.082   3.688  0.00  0.00    +0.173 C 
BRANCH   5   7
ATOM      6  C   LIG    1       25.775 -17.728   3.335  0.00  0.00    +0.005 C 
ATOM      7  C   LIG    1       25.254 -18.786   3.511  0.00  0.00    -0.090 C 
ENDBRANCH   5   7
ENDBRANCH   3   5
ENDBRANCH   1   3
BRANCH   1   8
ATOM      8  C   LIG    1       23.732 -21.803   7.121  0.00  0.00    +0.053 C 
BRANCH   8   9
ATOM      9  C   LIG    1       24.230 -23.227   6.897  0.00  0.00    -0.046 A 
ATOM     10  C   LIG    1       25.576 -23.562   7.116  0.00  0.00    +0.003 A 
ATOM     11  C   LIG    1       26.059 -24.851   6.842  0.00  0.00    +0.000 A 
ATOM     12  C   LIG    1       25.197 -25.842   6.383  0.00  0.00    +0.000 A 
ATOM     13  C   LIG    1       23.841 -25.562   6.275  0.00  0.00    +0.000 A 
ATOM     14  C   LIG    1       23.363 -24.280   6.569  0.00  0.00    +0.003 A 
ENDBRANCH   8   9
ENDBRANCH   1   8
TORSDOF 5
ENDMDL
