MODEL 1
REMARK VINA RESULT:      -9.4      0.000      0.000
REMARK  Name = *****
REMARK                            x       y       z     vdW  Elec       q    Type
REMARK                         _______ _______ _______ _____ _____    ______ ____
ROOT
ATOM      1  N   LIG    1       24.970 -25.249   5.650  0.00  0.00    -0.296 NA
ATOM      2  C   LIG    1       24.025 -24.174   5.286  0.00  0.00    +0.100 C 
ATOM      3  C   LIG    1       23.743 -23.143   6.403  0.00  0.00    +0.100 C 
ATOM      4  N   LIG    1       24.955 -22.501   6.983  0.00  0.00    -0.289 NA
ATOM      5  C   LIG    1       25.843 -23.606   7.409  0.00  0.00    +0.100 C 
ATOM      6  C   LIG    1       26.156 -24.653   6.306  0.00  0.00    +0.100 C 
ENDROOT
BRANCH   1   7
ATOM      7  C   LIG    1       24.380 -26.277   6.521  0.00  0.00    +0.112 C 
BRANCH   7   8
ATOM      8  C   LIG    1       25.088 -27.591   6.421  0.00  0.00    -0.011 C 
ATOM      9  C   LIG    1       24.512 -28.785   6.687  0.00  0.00    +0.005 C 
BRANCH   9  10
ATOM     10  C   LIG    1       25.216 -30.063   6.547  0.00  0.00    -0.025 A 
ATOM     11  C   LIG    1       25.605 -30.767   7.701  0.00  0.00    +0.008 A 
ATOM     12  C   LIG    1       26.262 -31.995   7.586  0.00  0.00    +0.001 A 
ATOM     13  C   LIG    1       26.528 -32.539   6.329  0.00  0.00    +0.000 A 
ATOM     14  C   LIG    1       26.128 -31.853   5.182  0.00  0.00    +0.001 A 
ATOM     15  C   LIG    1       25.470 -30.634   5.293  0.00  0.00    +0.008 A 
ENDBRANCH   9  10
ENDBRANCH   7   8
ENDBRANCH   1   7
BRANCH   4  16
ATOM     16  C   LIG    1       25.598 -21.538   6.027  0.00  0.00    +0.117 C 
BRANCH  16  17
ATOM     17  C   LIG    1       26.812 -20.783   6.619  0.00  0.00    -0.026 A 
ATOM     18  C   LIG    1       26.991 -20.579   7.996  0.00  0.00    +0.005 A 
ATOM     19  C   LIG    1       28.126 -19.918   8.487  0.00  0.00    +0.000 A 
ATOM     20  C   LIG    1       29.120 -19.476   7.615  0.00  0.00    +0.000 A 
ATOM     21  C   LIG    1       28.967 -19.670   6.249  0.00  0.00    +0.000 A 
ATOM     22  C   LIG    1       27.818 -20.294   5.757  0.00  0.00    +0.005 A 
ENDBRANCH  16  17
BRANCH  16  23
ATOM     23  C   LIG    1       24.574 -20.574   5.386  0.00  0.00    -0.026 A 
ATOM     24  C   LIG    1       24.835 -20.011   4.125  0.00  0.00    +0.005 A 
ATOM     25  C   LIG    1       23.909 -19.160   3.514  0.00  0.00    +0.000 A 
ATOM     26  C   LIG    1       22.711 -18.850   4.154  0.00  0.00    +0.000 A 
ATOM     27  C   LIG    1       22.432 -19.396   5.404  0.00  0.00    +0.000 A 
ATOM     28  C   LIG    1       23.358 -20.244   6.017  0.00  0.00    +0.005 A 
ENDBRANCH  16  23
ENDBRANCH   4  16
TORSDOF 6
ENDMDL
MODEL 2
REMARK VINA RESULT:      -8.8      1.460      2.124
REMARK  Name = *****
REMARK                            x       y       z     vdW  Elec       q    Type
REMARK                         _______ _______ _______ _____ _____    ______ ____
ROOT
ATOM      1  N   LIG    1       25.372 -25.592   5.243  0.00  0.00    -0.296 NA
ATOM      2  C   LIG    1       24.450 -24.580   4.687  0.00  0.00    +0.100 C 
ATOM      3  C   LIG    1       23.790 -23.651   5.731  0.00  0.00    +0.100 C 
ATOM      4  N   LIG    1       24.742 -22.947   6.635  0.00  0.00    -0.289 NA
ATOM      5  C   LIG    1       25.595 -23.998   7.233  0.00  0.00    +0.100 C 
ATOM      6  C   LIG    1       26.284 -24.941   6.211  0.00  0.00    +0.100 C 
ENDROOT
BRANCH   1   7
ATOM      7  C   LIG    1       24.683 -26.721   5.887  0.00  0.00    +0.112 C 
BRANCH   7   8
ATOM      8  C   LIG    1       25.503 -27.356   6.965  0.00  0.00    -0.011 C 
ATOM      9  C   LIG    1       25.146 -28.481   7.624  0.00  0.00    +0.005 C 
BRANCH   9  10
ATOM     10  C   LIG    1       25.983 -29.106   8.652  0.00  0.00    -0.025 A 
ATOM     11  C   LIG    1       26.539 -28.308   9.669  0.00  0.00    +0.008 A 
ATOM     12  C   LIG    1       27.326 -28.890  10.667  0.00  0.00    +0.001 A 
ATOM     13  C   LIG    1       27.557 -30.266  10.671  0.00  0.00    +0.000 A 
ATOM     14  C   LIG    1       26.994 -31.064   9.676  0.00  0.00    +0.001 A 
ATOM     15  C   LIG    1       26.207 -30.489   8.684  0.00  0.00    +0.008 A 
ENDBRANCH   9  10
ENDBRANCH   7   8
ENDBRANCH   1   7
BRANCH   4  16
ATOM     16  C   LIG    1       25.510 -21.873   5.920  0.00  0.00    +0.117 C 
BRANCH  16  17
ATOM     17  C   LIG    1       26.648 -21.249   6.764  0.00  0.00    -0.026 A 
ATOM     18  C   LIG    1       27.983 -21.200   6.334  0.00  0.00    +0.005 A 
ATOM     19  C   LIG    1       28.973 -20.592   7.120  0.00  0.00    +0.000 A 
ATOM     20  C   LIG    1       28.644 -19.994   8.334  0.00  0.00    +0.000 A 
ATOM     21  C   LIG    1       27.329 -20.026   8.779  0.00  0.00    +0.000 A 
ATOM     22  C   LIG    1       26.350 -20.665   8.014  0.00  0.00    +0.005 A 
ENDBRANCH  16  17
BRANCH  16  23
ATOM     23  C   LIG    1       24.586 -20.796   5.309  0.00  0.00    -0.026 A 
ATOM     24  C   LIG    1       24.960 -20.141   4.123  0.00  0.00    +0.005 A 
ATOM     25  C   LIG    1       24.125 -19.185   3.537  0.00  0.00    +0.000 A 
ATOM     26  C   LIG    1       22.906 -18.860   4.129  0.00  0.00    +0.000 A 
ATOM     27  C   LIG    1       22.515 -19.496   5.304  0.00  0.00    +0.000 A 
ATOM     28  C   LIG    1       23.351 -20.449   5.893  0.00  0.00    +0.005 A 
ENDBRANCH  16  23
ENDBRANCH   4  16
TORSDOF 6
ENDMDL
MODEL 3
REMARK VINA RESULT:      -8.5      1.016      4.023
REMARK  Name = *****
REMARK                            x       y       z     vdW  Elec       q    Type
REMARK                         _______ _______ _______ _____ _____    ______ ____
ROOT
ATOM      1  N   LIG    1       24.166 -25.001   6.764  0.00  0.00    -0.296 NA
ATOM      2  C   LIG    1       25.421 -24.421   7.284  0.00  0.00    +0.100 C 
ATOM      3  C   LIG    1       26.322 -23.751   6.221  0.00  0.00    +0.100 C 
ATOM      4  N   LIG    1       25.649 -22.708   5.397  0.00  0.00    -0.289 NA
ATOM      5  C   LIG    1       24.441 -23.348   4.829  0.00  0.00    +0.100 C 
ATOM      6  C   LIG    1       23.508 -24.020   5.872  0.00  0.00    +0.100 C 
ENDROOT
BRANCH   1   7
ATOM      7  C   LIG    1       24.360 -26.274   6.051  0.00  0.00    +0.112 C 
BRANCH   7   8
ATOM      8  C   LIG    1       25.142 -27.267   6.851  0.00  0.00    -0.011 C 
ATOM      9  C   LIG    1       24.692 -28.499   7.179  0.00  0.00    +0.005 C 
BRANCH   9  10
ATOM     10  C   LIG    1       25.491 -29.469   7.933  0.00  0.00    -0.025 A 
ATOM     11  C   LIG    1       26.160 -29.055   9.099  0.00  0.00    +0.008 A 
ATOM     12  C   LIG    1       26.912 -29.971   9.840  0.00  0.00    +0.001 A 
ATOM     13  C   LIG    1       26.998 -31.304   9.437  0.00  0.00    +0.000 A 
ATOM     14  C   LIG    1       26.322 -31.723   8.291  0.00  0.00    +0.001 A 
ATOM     15  C   LIG    1       25.569 -30.816   7.555  0.00  0.00    +0.008 A 
ENDBRANCH   9  10
ENDBRANCH   7   8
ENDBRANCH   1   7
BRANCH   4  16
ATOM     16  C   LIG    1       25.365 -21.461   6.184  0.00  0.00    +0.117 C 
BRANCH  16  17
ATOM     17  C   LIG    1       24.429 -20.463   5.461  0.00  0.00    -0.026 A 
ATOM     18  C   LIG    1       24.779 -19.810   4.269  0.00  0.00    +0.005 A 
ATOM     19  C   LIG    1       23.882 -18.939   3.632  0.00  0.00    +0.000 A 
ATOM     20  C   LIG    1       22.609 -18.728   4.156  0.00  0.00    +0.000 A 
ATOM     21  C   LIG    1       22.237 -19.366   5.332  0.00  0.00    +0.000 A 
ATOM     22  C   LIG    1       23.144 -20.203   5.986  0.00  0.00    +0.005 A 
ENDBRANCH  16  17
BRANCH  16  23
ATOM     23  C   LIG    1       26.655 -20.780   6.692  0.00  0.00    -0.026 A 
ATOM     24  C   LIG    1       26.878 -20.642   8.073  0.00  0.00    +0.005 A 
ATOM     25  C   LIG    1       28.053 -20.055   8.555  0.00  0.00    +0.000 A 
ATOM     26  C   LIG    1       29.021 -19.589   7.667  0.00  0.00    +0.000 A 
ATOM     27  C   LIG    1       28.820 -19.715   6.295  0.00  0.00    +0.000 A 
ATOM     28  C   LIG    1       27.645 -20.298   5.812  0.00  0.00    +0.005 A 
ENDBRANCH  16  23
ENDBRANCH   4  16
TORSDOF 6
ENDMDL
MODEL 4
REMARK VINA RESULT:      -8.4      3.044      9.203
REMARK  Name = *****
REMARK                            x       y       z     vdW  Elec       q    Type
REMARK                         _______ _______ _______ _____ _____    ______ ____
ROOT
ATOM      1  N   LIG    1       28.609 -20.395   8.281  0.00  0.00    -0.296 NA
ATOM      2  C   LIG    1       27.713 -19.575   7.439  0.00  0.00    +0.100 C 
ATOM      3  C   LIG    1       27.473 -20.122   6.013  0.00  0.00    +0.100 C 
ATOM      4  N   LIG    1       26.986 -21.528   5.955  0.00  0.00    -0.289 NA
ATOM      5  C   LIG    1       27.950 -22.331   6.742  0.00  0.00    +0.100 C 
ATOM      6  C   LIG    1       28.204 -21.815   8.184  0.00  0.00    +0.100 C 
ENDROOT
BRANCH   1   7
ATOM      7  C   LIG    1       30.031 -20.254   7.933  0.00  0.00    +0.112 C 
BRANCH   7   8
ATOM      8  C   LIG    1       30.778 -19.394   8.902  0.00  0.00    -0.011 C 
ATOM      9  C   LIG    1       30.667 -18.048   8.963  0.00  0.00    +0.005 C 
BRANCH   9  10
ATOM     10  C   LIG    1       31.383 -17.229   9.945  0.00  0.00    -0.025 A 
ATOM     11  C   LIG    1       31.135 -17.422  11.317  0.00  0.00    +0.008 A 
ATOM     12  C   LIG    1       31.820 -16.662  12.268  0.00  0.00    +0.001 A 
ATOM     13  C   LIG    1       32.763 -15.714  11.869  0.00  0.00    +0.000 A 
ATOM     14  C   LIG    1       33.025 -15.531  10.511  0.00  0.00    +0.001 A 
ATOM     15  C   LIG    1       32.349 -16.289   9.562  0.00  0.00    +0.008 A 
ENDBRANCH   9  10
ENDBRANCH   7   8
ENDBRANCH   1   7
BRANCH   4  16
ATOM     16  C   LIG    1       25.565 -21.655   6.423  0.00  0.00    +0.117 C 
BRANCH  16  17
ATOM     17  C   LIG    1       25.050 -23.113   6.478  0.00  0.00    -0.026 A 
ATOM     18  C   LIG    1       23.686 -23.444   6.485  0.00  0.00    +0.005 A 
ATOM     19  C   LIG    1       23.268 -24.783   6.501  0.00  0.00    +0.000 A 
ATOM     20  C   LIG    1       24.203 -25.816   6.479  0.00  0.00    +0.000 A 
ATOM     21  C   LIG    1       25.558 -25.514   6.468  0.00  0.00    +0.000 A 
ATOM     22  C   LIG    1       25.974 -24.180   6.491  0.00  0.00    +0.005 A 
ENDBRANCH  16  17
BRANCH  16  23
ATOM     23  C   LIG    1       24.604 -20.732   5.639  0.00  0.00    -0.026 A 
ATOM     24  C   LIG    1       24.924 -20.338   4.328  0.00  0.00    +0.005 A 
ATOM     25  C   LIG    1       24.055 -19.528   3.590  0.00  0.00    +0.000 A 
ATOM     26  C   LIG    1       22.857 -19.090   4.150  0.00  0.00    +0.000 A 
ATOM     27  C   LIG    1       22.521 -19.467   5.448  0.00  0.00    +0.000 A 
ATOM     28  C   LIG    1       23.390 -20.274   6.188  0.00  0.00    +0.005 A 
ENDBRANCH  16  23
ENDBRANCH   4  16
TORSDOF 6
ENDMDL
MODEL 5
REMARK VINA RESULT:      -7.9      2.495     10.773
REMARK  Name = *****
REMARK                            x       y       z     vdW  Elec       q    Type
REMARK                         _______ _______ _______ _____ _____    ______ ____
ROOT
ATOM      1  N   LIG    1       25.534 -27.647   6.172  0.00  0.00    -0.296 NA
ATOM      2  C   LIG    1       25.502 -28.302   7.496  0.00  0.00    +0.100 C 
ATOM      3  C   LIG    1       24.268 -29.196   7.755  0.00  0.00    +0.100 C 
ATOM      4  N   LIG    1       24.028 -30.246   6.726  0.00  0.00    -0.289 NA
ATOM      5  C   LIG    1       23.987 -29.543   5.423  0.00  0.00    +0.100 C 
ATOM      6  C   LIG    1       25.218 -28.646   5.127  0.00  0.00    +0.100 C 
ENDROOT
BRANCH   1   7
ATOM      7  C   LIG    1       24.617 -26.502   6.064  0.00  0.00    +0.112 C 
BRANCH   7   8
ATOM      8  C   LIG    1       25.251 -25.215   6.489  0.00  0.00    -0.011 C 
ATOM      9  C   LIG    1       24.560 -24.089   6.776  0.00  0.00    +0.005 C 
BRANCH   9  10
ATOM     10  C   LIG    1       25.201 -22.850   7.226  0.00  0.00    -0.025 A 
ATOM     11  C   LIG    1       26.604 -22.755   7.217  0.00  0.00    +0.008 A 
ATOM     12  C   LIG    1       27.231 -21.575   7.627  0.00  0.00    +0.001 A 
ATOM     13  C   LIG    1       26.472 -20.478   8.037  0.00  0.00    +0.000 A 
ATOM     14  C   LIG    1       25.080 -20.561   8.031  0.00  0.00    +0.001 A 
ATOM     15  C   LIG    1       24.453 -21.731   7.619  0.00  0.00    +0.008 A 
ENDBRANCH   9  10
ENDBRANCH   7   8
ENDBRANCH   1   7
BRANCH   4  16
ATOM     16  C   LIG    1       25.048 -31.346   6.791  0.00  0.00    +0.117 C 
BRANCH  16  17
ATOM     17  C   LIG    1       25.101 -32.228   5.521  0.00  0.00    -0.026 A 
ATOM     18  C   LIG    1       24.049 -33.071   5.128  0.00  0.00    +0.005 A 
ATOM     19  C   LIG    1       24.132 -33.825   3.948  0.00  0.00    +0.000 A 
ATOM     20  C   LIG    1       25.250 -33.730   3.123  0.00  0.00    +0.000 A 
ATOM     21  C   LIG    1       26.302 -32.900   3.489  0.00  0.00    +0.000 A 
ATOM     22  C   LIG    1       26.237 -32.178   4.683  0.00  0.00    +0.005 A 
ENDBRANCH  16  17
BRANCH  16  23
ATOM     23  C   LIG    1       24.917 -32.193   8.077  0.00  0.00    -0.026 A 
ATOM     24  C   LIG    1       23.645 -32.577   8.538  0.00  0.00    +0.005 A 
ATOM     25  C   LIG    1       23.506 -33.368   9.683  0.00  0.00    +0.000 A 
ATOM     26  C   LIG    1       24.631 -33.782  10.392  0.00  0.00    +0.000 A 
ATOM     27  C   LIG    1       25.900 -33.412   9.954  0.00  0.00    +0.000 A 
ATOM     28  C   LIG    1       26.041 -32.619   8.813  0.00  0.00    +0.005 A 
ENDBRANCH  16  23
ENDBRANCH   4  16
TORSDOF 6
ENDMDL
MODEL 6
REMARK VINA RESULT:      -7.7      2.452     10.023
REMARK  Name = *****
REMARK                            x       y       z     vdW  Elec       q    Type
REMARK                         _______ _______ _______ _____ _____    ______ ____
ROOT
ATOM      1  N   LIG    1       25.926 -27.128   5.051  0.00  0.00    -0.296 NA
ATOM      2  C   LIG    1       26.254 -27.154   6.491  0.00  0.00    +0.100 C 
ATOM      3  C   LIG    1       25.103 -27.605   7.418  0.00  0.00    +0.100 C 
ATOM      4  N   LIG    1       24.497 -28.921   7.069  0.00  0.00    -0.289 NA
ATOM      5  C   LIG    1       24.109 -28.831   5.643  0.00  0.00    +0.100 C 
ATOM      6  C   LIG    1       25.247 -28.391   4.683  0.00  0.00    +0.100 C 
ENDROOT
BRANCH   1   7
ATOM      7  C   LIG    1       25.093 -25.980   4.661  0.00  0.00    +0.112 C 
BRANCH   7   8
ATOM      8  C   LIG    1       25.424 -24.741   5.430  0.00  0.00    -0.011 C 
ATOM      9  C   LIG    1       24.532 -24.051   6.176  0.00  0.00    +0.005 C 
BRANCH   9  10
ATOM     10  C   LIG    1       24.888 -22.860   6.952  0.00  0.00    -0.025 A 
ATOM     11  C   LIG    1       26.155 -22.783   7.558  0.00  0.00    +0.008 A 
ATOM     12  C   LIG    1       26.517 -21.647   8.286  0.00  0.00    +0.001 A 
ATOM     13  C   LIG    1       25.632 -20.575   8.410  0.00  0.00    +0.000 A 
ATOM     14  C   LIG    1       24.381 -20.639   7.797  0.00  0.00    +0.001 A 
ATOM     15  C   LIG    1       24.019 -21.766   7.067  0.00  0.00    +0.008 A 
ENDBRANCH   9  10
ENDBRANCH   7   8
ENDBRANCH   1   7
BRANCH   4  16
ATOM     16  C   LIG    1       25.418 -30.067   7.377  0.00  0.00    +0.117 C 
BRANCH  16  17
ATOM     17  C   LIG    1       25.057 -31.377   6.638  0.00  0.00    -0.026 A 
ATOM     18  C   LIG    1       25.971 -32.082   5.838  0.00  0.00    +0.005 A 
ATOM     19  C   LIG    1       25.606 -33.285   5.216  0.00  0.00    +0.000 A 
ATOM     20  C   LIG    1       24.335 -33.824   5.405  0.00  0.00    +0.000 A 
ATOM     21  C   LIG    1       23.416 -33.147   6.195  0.00  0.00    +0.000 A 
ATOM     22  C   LIG    1       23.766 -31.929   6.784  0.00  0.00    +0.005 A 
ENDBRANCH  16  17
BRANCH  16  23
ATOM     23  C   LIG    1       25.591 -30.289   8.897  0.00  0.00    -0.026 A 
ATOM     24  C   LIG    1       26.863 -30.168   9.482  0.00  0.00    +0.005 A 
ATOM     25  C   LIG    1       27.037 -30.336  10.860  0.00  0.00    +0.000 A 
ATOM     26  C   LIG    1       25.947 -30.635  11.675  0.00  0.00    +0.000 A 
ATOM     27  C   LIG    1       24.678 -30.759  11.115  0.00  0.00    +0.000 A 
ATOM     28  C   LIG    1       24.503 -30.596   9.739  0.00  0.00    +0.005 A 
ENDBRANCH  16  23
ENDBRANCH   4  16
TORSDOF 6
ENDMDL
MODEL 7
REMARK VINA RESULT:      -7.5      2.362      9.952
REMARK  Name = *****
REMARK                            x       y       z     vdW  Elec       q    Type
REMARK                         _______ _______ _______ _____ _____    ______ ____
ROOT
ATOM      1  N   LIG    1       24.458 -26.021   5.887  0.00  0.00    -0.296 NA
ATOM      2  C   LIG    1       24.311 -27.160   4.956  0.00  0.00    +0.100 C 
ATOM      3  C   LIG    1       25.491 -28.159   4.953  0.00  0.00    +0.100 C 
ATOM      4  N   LIG    1       25.847 -28.711   6.290  0.00  0.00    -0.289 NA
ATOM      5  C   LIG    1       26.063 -27.543   7.174  0.00  0.00    +0.100 C 
ATOM      6  C   LIG    1       24.892 -26.526   7.209  0.00  0.00    +0.100 C 
ENDROOT
BRANCH   1   7
ATOM      7  C   LIG    1       25.395 -24.993   5.411  0.00  0.00    +0.112 C 
BRANCH   7   8
ATOM      8  C   LIG    1       24.705 -23.727   5.010  0.00  0.00    -0.011 C 
ATOM      9  C   LIG    1       24.897 -22.535   5.618  0.00  0.00    +0.005 C 
BRANCH   9  10
ATOM     10  C   LIG    1       24.237 -21.300   5.184  0.00  0.00    -0.025 A 
ATOM     11  C   LIG    1       24.736 -20.604   4.069  0.00  0.00    +0.008 A 
ATOM     12  C   LIG    1       24.109 -19.435   3.631  0.00  0.00    +0.001 A 
ATOM     13  C   LIG    1       22.977 -18.952   4.289  0.00  0.00    +0.000 A 
ATOM     14  C   LIG    1       22.467 -19.648   5.386  0.00  0.00    +0.001 A 
ATOM     15  C   LIG    1       23.086 -20.815   5.820  0.00  0.00    +0.008 A 
ENDBRANCH   9  10
ENDBRANCH   7   8
ENDBRANCH   1   7
BRANCH   4  16
ATOM     16  C   LIG    1       24.814 -29.675   6.798  0.00  0.00    +0.117 C 
BRANCH  16  17
ATOM     17  C   LIG    1       24.914 -29.961   8.315  0.00  0.00    -0.026 A 
ATOM     18  C   LIG    1       23.830 -29.815   9.196  0.00  0.00    +0.005 A 
ATOM     19  C   LIG    1       23.962 -30.120  10.559  0.00  0.00    +0.000 A 
ATOM     20  C   LIG    1       25.167 -30.605  11.063  0.00  0.00    +0.000 A 
ATOM     21  C   LIG    1       26.252 -30.761  10.210  0.00  0.00    +0.000 A 
ATOM     22  C   LIG    1       26.132 -30.421   8.861  0.00  0.00    +0.005 A 
ENDBRANCH  16  17
BRANCH  16  23
ATOM     23  C   LIG    1       24.766 -30.977   5.966  0.00  0.00    -0.026 A 
ATOM     24  C   LIG    1       23.673 -31.852   6.096  0.00  0.00    +0.005 A 
ATOM     25  C   LIG    1       23.596 -33.020   5.332  0.00  0.00    +0.000 A 
ATOM     26  C   LIG    1       24.610 -33.340   4.431  0.00  0.00    +0.000 A 
ATOM     27  C   LIG    1       25.702 -32.488   4.288  0.00  0.00    +0.000 A 
ATOM     28  C   LIG    1       25.783 -31.322   5.054  0.00  0.00    +0.005 A 
ENDBRANCH  16  23
ENDBRANCH   4  16
TORSDOF 6
ENDMDL
MODEL 8
REMARK VINA RESULT:      -7.5      3.092      9.201
REMARK  Name = *****
REMARK                            x       y       z     vdW  Elec       q    Type
REMARK                         _______ _______ _______ _____ _____    ______ ____
ROOT
ATOM      1  N   LIG    1       28.880 -21.193   7.565  0.00  0.00    -0.296 NA
ATOM      2  C   LIG    1       28.202 -22.503   7.487  0.00  0.00    +0.100 C 
ATOM      3  C   LIG    1       26.772 -22.535   8.074  0.00  0.00    +0.100 C 
ATOM      4  N   LIG    1       25.843 -21.512   7.519  0.00  0.00    -0.289 NA
ATOM      5  C   LIG    1       26.522 -20.206   7.686  0.00  0.00    +0.100 C 
ATOM      6  C   LIG    1       27.956 -20.136   7.097  0.00  0.00    +0.100 C 
ENDROOT
BRANCH   1   7
ATOM      7  C   LIG    1       29.371 -20.867   8.913  0.00  0.00    +0.112 C 
BRANCH   7   8
ATOM      8  C   LIG    1       30.218 -19.634   8.934  0.00  0.00    -0.011 C 
ATOM      9  C   LIG    1       30.471 -18.907  10.046  0.00  0.00    +0.005 C 
BRANCH   9  10
ATOM     10  C   LIG    1       31.333 -17.722  10.049  0.00  0.00    -0.025 A 
ATOM     11  C   LIG    1       31.604 -17.068  11.265  0.00  0.00    +0.008 A 
ATOM     12  C   LIG    1       32.439 -15.947  11.289  0.00  0.00    +0.001 A 
ATOM     13  C   LIG    1       33.018 -15.474  10.111  0.00  0.00    +0.000 A 
ATOM     14  C   LIG    1       32.767 -16.129   8.906  0.00  0.00    +0.001 A 
ATOM     15  C   LIG    1       31.942 -17.247   8.880  0.00  0.00    +0.008 A 
ENDBRANCH   9  10
ENDBRANCH   7   8
ENDBRANCH   1   7
BRANCH   4  16
ATOM     16  C   LIG    1       25.449 -21.815   6.102  0.00  0.00    +0.117 C 
BRANCH  16  17
ATOM     17  C   LIG    1       24.516 -20.754   5.470  0.00  0.00    -0.026 A 
ATOM     18  C   LIG    1       23.287 -20.379   6.036  0.00  0.00    +0.005 A 
ATOM     19  C   LIG    1       22.493 -19.386   5.443  0.00  0.00    +0.000 A 
ATOM     20  C   LIG    1       22.923 -18.728   4.293  0.00  0.00    +0.000 A 
ATOM     21  C   LIG    1       24.137 -19.079   3.717  0.00  0.00    +0.000 A 
ATOM     22  C   LIG    1       24.910 -20.094   4.286  0.00  0.00    +0.005 A 
ENDBRANCH  16  17
BRANCH  16  23
ATOM     23  C   LIG    1       24.888 -23.246   5.942  0.00  0.00    -0.026 A 
ATOM     24  C   LIG    1       25.502 -24.144   5.052  0.00  0.00    +0.005 A 
ATOM     25  C   LIG    1       25.030 -25.453   4.913  0.00  0.00    +0.000 A 
ATOM     26  C   LIG    1       23.932 -25.886   5.654  0.00  0.00    +0.000 A 
ATOM     27  C   LIG    1       23.308 -25.013   6.541  0.00  0.00    +0.000 A 
ATOM     28  C   LIG    1       23.777 -23.703   6.678  0.00  0.00    +0.005 A 
ENDBRANCH  16  23
ENDBRANCH   4  16
TORSDOF 6
ENDMDL
MODEL 9
REMARK VINA RESULT:      -7.3      2.328      9.717
REMARK  Name = *****
REMARK                            x       y       z     vdW  Elec       q    Type
REMARK                         _______ _______ _______ _____ _____    ______ ____
ROOT
ATOM      1  N   LIG    1       24.246 -26.867   5.284  0.00  0.00    -0.296 NA
ATOM      2  C   LIG    1       24.469 -28.238   4.779  0.00  0.00    +0.100 C 
ATOM      3  C   LIG    1       25.718 -28.950   5.348  0.00  0.00    +0.100 C 
ATOM      4  N   LIG    1       25.787 -29.000   6.835  0.00  0.00    -0.289 NA
ATOM      5  C   LIG    1       25.640 -27.603   7.301  0.00  0.00    +0.100 C 
ATOM      6  C   LIG    1       24.389 -26.862   6.757  0.00  0.00    +0.100 C 
ENDROOT
BRANCH   1   7
ATOM      7  C   LIG    1       25.150 -25.870   4.690  0.00  0.00    +0.112 C 
BRANCH   7   8
ATOM      8  C   LIG    1       25.533 -24.794   5.656  0.00  0.00    -0.011 C 
ATOM      9  C   LIG    1       24.992 -23.555   5.664  0.00  0.00    +0.005 C 
BRANCH   9  10
ATOM     10  C   LIG    1       25.358 -22.528   6.644  0.00  0.00    -0.025 A 
ATOM     11  C   LIG    1       24.363 -21.675   7.154  0.00  0.00    +0.008 A 
ATOM     12  C   LIG    1       24.690 -20.701   8.101  0.00  0.00    +0.001 A 
ATOM     13  C   LIG    1       26.003 -20.573   8.557  0.00  0.00    +0.000 A 
ATOM     14  C   LIG    1       26.990 -21.428   8.067  0.00  0.00    +0.001 A 
ATOM     15  C   LIG    1       26.666 -22.401   7.129  0.00  0.00    +0.008 A 
ENDBRANCH   9  10
ENDBRANCH   7   8
ENDBRANCH   1   7
BRANCH   4  16
ATOM     16  C   LIG    1       24.776 -29.945   7.417  0.00  0.00    +0.117 C 
BRANCH  16  17
ATOM     17  C   LIG    1       24.845 -30.066   8.958  0.00  0.00    -0.026 A 
ATOM     18  C   LIG    1       26.054 -30.145   9.668  0.00  0.00    +0.005 A 
ATOM     19  C   LIG    1       26.065 -30.218  11.068  0.00  0.00    +0.000 A 
ATOM     20  C   LIG    1       24.873 -30.182  11.789  0.00  0.00    +0.000 A 
ATOM     21  C   LIG    1       23.664 -30.100  11.109  0.00  0.00    +0.000 A 
ATOM     22  C   LIG    1       23.652 -30.066   9.713  0.00  0.00    +0.005 A 
ENDBRANCH  16  17
BRANCH  16  23
ATOM     23  C   LIG    1       24.800 -31.328   6.727  0.00  0.00    -0.026 A 
ATOM     24  C   LIG    1       23.628 -31.840   6.142  0.00  0.00    +0.005 A 
ATOM     25  C   LIG    1       23.634 -33.075   5.488  0.00  0.00    +0.000 A 
ATOM     26  C   LIG    1       24.806 -33.825   5.412  0.00  0.00    +0.000 A 
ATOM     27  C   LIG    1       25.978 -33.338   5.986  0.00  0.00    +0.000 A 
ATOM     28  C   LIG    1       25.972 -32.105   6.643  0.00  0.00    +0.005 A 
ENDBRANCH  16  23
ENDBRANCH   4  16
TORSDOF 6
ENDMDL
