MODEL 1
REMARK VINA RESULT:      -3.9      0.000      0.000
REMARK  Name = *****
REMARK                            x       y       z     vdW  Elec       q    Type
REMARK                         _______ _______ _______ _____ _____    ______ ____
ROOT
ATOM      1  C   LIG    1       25.495 -19.566   3.836  0.00  0.00    +0.165 C 
ATOM      2  C   LIG    1       24.281 -20.368   4.249  0.00  0.00    +0.013 A 
ATOM      3  C   LIG    1       24.100 -20.673   5.602  0.00  0.00    +0.133 A 
ATOM      4  C   LIG    1       22.910 -21.248   6.043  0.00  0.00    +0.046 A 
ATOM      5  C   LIG    1       21.912 -21.569   5.124  0.00  0.00    +0.004 A 
ATOM      6  C   LIG    1       22.115 -21.339   3.764  0.00  0.00    +0.001 A 
ATOM      7  O   LIG    1       25.057 -20.420   6.557  0.00  0.00    -0.455 OA
ATOM      8  C   LIG    1       26.337 -20.161   6.124  0.00  0.00    +0.133 A 
ATOM      9  C   LIG    1       27.360 -20.321   7.060  0.00  0.00    +0.046 A 
ATOM     10  C   LIG    1       28.682 -20.065   6.696  0.00  0.00    +0.004 A 
ATOM     11  C   LIG    1       28.979 -19.636   5.403  0.00  0.00    +0.001 A 
ATOM     12  C   LIG    1       27.956 -19.474   4.466  0.00  0.00    +0.008 A 
ATOM     13  C   LIG    1       23.295 -20.739   3.322  0.00  0.00    +0.008 A 
ATOM     14  C   LIG    1       26.627 -19.747   4.820  0.00  0.00    +0.013 A 
ENDROOT
BRANCH   1  15
ATOM     15  C   LIG    1       25.163 -18.089   3.702  0.00  0.00    +0.319 C 
ATOM     16  O   LIG    1       24.100 -17.587   4.067  0.00  0.00    -0.250 OA
BRANCH  15  17
ATOM     17  O   LIG    1       26.118 -17.388   3.041  0.00  0.00    -0.459 OA
BRANCH  17  18
ATOM     18  C   LIG    1       26.590 -16.191   3.701  0.00  0.00    +0.282 C 
BRANCH  18  19
ATOM     19  C   LIG    1       26.442 -14.927   2.836  0.00  0.00    +0.174 C 
BRANCH  19  20
ATOM     20  N   LIG    1       25.668 -13.755   3.533  0.00  0.00    +0.243 N 
ATOM     21  C   LIG    1       24.228 -14.230   3.762  0.00  0.00    +0.192 C 
BRANCH  20  23
ATOM     22  C   LIG    1       27.822 -13.159   4.804  0.00  0.00    +0.060 C 
ATOM     23  C   LIG    1       26.309 -13.354   4.879  0.00  0.00    +0.129 C 
ENDBRANCH  20  23
BRANCH  20  24
ATOM     24  C   LIG    1       25.655 -12.567   2.528  0.00  0.00    +0.129 C 
ATOM     25  C   LIG    1       24.283 -11.992   2.215  0.00  0.00    +0.060 C 
ENDBRANCH  20  24
ENDBRANCH  19  20
ENDBRANCH  18  19
ENDBRANCH  17  18
ENDBRANCH  15  17
ENDBRANCH   1  15
TORSDOF 7
ENDMDL
MODEL 2
REMARK VINA RESULT:      -3.7      1.224      4.059
REMARK  Name = *****
REMARK                            x       y       z     vdW  Elec       q    Type
REMARK                         _______ _______ _______ _____ _____    ______ ____
ROOT
ATOM      1  C   LIG    1       25.629 -18.943   4.620  0.00  0.00    +0.165 C 
ATOM      2  C   LIG    1       26.749 -19.511   5.464  0.00  0.00    +0.013 A 
ATOM      3  C   LIG    1       26.642 -20.824   5.933  0.00  0.00    +0.133 A 
ATOM      4  C   LIG    1       27.725 -21.442   6.555  0.00  0.00    +0.046 A 
ATOM      5  C   LIG    1       28.907 -20.731   6.759  0.00  0.00    +0.004 A 
ATOM      6  C   LIG    1       28.995 -19.396   6.362  0.00  0.00    +0.001 A 
ATOM      7  O   LIG    1       25.494 -21.571   5.802  0.00  0.00    -0.455 OA
ATOM      8  C   LIG    1       24.331 -20.904   5.495  0.00  0.00    +0.133 A 
ATOM      9  C   LIG    1       23.135 -21.569   5.770  0.00  0.00    +0.046 A 
ATOM     10  C   LIG    1       21.916 -20.959   5.474  0.00  0.00    +0.004 A 
ATOM     11  C   LIG    1       21.893 -19.693   4.890  0.00  0.00    +0.001 A 
ATOM     12  C   LIG    1       23.089 -19.027   4.612  0.00  0.00    +0.008 A 
ATOM     13  C   LIG    1       27.921 -18.783   5.716  0.00  0.00    +0.008 A 
ATOM     14  C   LIG    1       24.318 -19.628   4.924  0.00  0.00    +0.013 A 
ENDROOT
BRANCH   1  15
ATOM     15  C   LIG    1       25.940 -19.062   3.137  0.00  0.00    +0.319 C 
ATOM     16  O   LIG    1       26.062 -20.133   2.543  0.00  0.00    -0.250 OA
BRANCH  15  17
ATOM     17  O   LIG    1       26.173 -17.864   2.545  0.00  0.00    -0.459 OA
BRANCH  17  18
ATOM     18  C   LIG    1       25.774 -16.699   3.303  0.00  0.00    +0.282 C 
BRANCH  18  19
ATOM     19  C   LIG    1       26.905 -15.669   3.465  0.00  0.00    +0.174 C 
BRANCH  19  20
ATOM     20  N   LIG    1       26.411 -14.198   3.692  0.00  0.00    +0.243 N 
ATOM     21  C   LIG    1       26.436 -13.491   2.331  0.00  0.00    +0.192 C 
BRANCH  20  23
ATOM     22  C   LIG    1       24.051 -13.190   3.549  0.00  0.00    +0.060 C 
ATOM     23  C   LIG    1       24.987 -14.148   4.284  0.00  0.00    +0.129 C 
ENDBRANCH  20  23
BRANCH  20  24
ATOM     24  C   LIG    1       27.447 -13.518   4.633  0.00  0.00    +0.129 C 
ATOM     25  C   LIG    1       28.653 -12.904   3.941  0.00  0.00    +0.060 C 
ENDBRANCH  20  24
ENDBRANCH  19  20
ENDBRANCH  18  19
ENDBRANCH  17  18
ENDBRANCH  15  17
ENDBRANCH   1  15
TORSDOF 7
ENDMDL
MODEL 3
REMARK VINA RESULT:      -3.5      1.142      3.758
REMARK  Name = *****
REMARK                            x       y       z     vdW  Elec       q    Type
REMARK                         _______ _______ _______ _____ _____    ______ ____
ROOT
ATOM      1  C   LIG    1       25.551 -18.908   4.601  0.00  0.00    +0.165 C 
ATOM      2  C   LIG    1       26.615 -19.558   5.458  0.00  0.00    +0.013 A 
ATOM      3  C   LIG    1       26.434 -20.883   5.870  0.00  0.00    +0.133 A 
ATOM      4  C   LIG    1       27.468 -21.572   6.502  0.00  0.00    +0.046 A 
ATOM      5  C   LIG    1       28.672 -20.923   6.772  0.00  0.00    +0.004 A 
ATOM      6  C   LIG    1       28.832 -19.579   6.433  0.00  0.00    +0.001 A 
ATOM      7  O   LIG    1       25.261 -21.571   5.672  0.00  0.00    -0.455 OA
ATOM      8  C   LIG    1       24.139 -20.842   5.354  0.00  0.00    +0.133 A 
ATOM      9  C   LIG    1       22.906 -21.462   5.564  0.00  0.00    +0.046 A 
ATOM     10  C   LIG    1       21.726 -20.788   5.253  0.00  0.00    +0.004 A 
ATOM     11  C   LIG    1       21.778 -19.500   4.719  0.00  0.00    +0.001 A 
ATOM     12  C   LIG    1       23.011 -18.878   4.507  0.00  0.00    +0.008 A 
ATOM     13  C   LIG    1       27.808 -18.894   5.777  0.00  0.00    +0.008 A 
ATOM     14  C   LIG    1       24.201 -19.545   4.834  0.00  0.00    +0.013 A 
ENDROOT
BRANCH   1  15
ATOM     15  C   LIG    1       25.906 -18.984   3.125  0.00  0.00    +0.319 C 
ATOM     16  O   LIG    1       25.994 -20.035   2.492  0.00  0.00    -0.250 OA
BRANCH  15  17
ATOM     17  O   LIG    1       26.221 -17.777   2.592  0.00  0.00    -0.459 OA
BRANCH  17  18
ATOM     18  C   LIG    1       25.755 -16.623   3.327  0.00  0.00    +0.282 C 
BRANCH  18  19
ATOM     19  C   LIG    1       26.752 -15.451   3.305  0.00  0.00    +0.174 C 
BRANCH  19  20
ATOM     20  N   LIG    1       26.132 -14.069   3.713  0.00  0.00    +0.243 N 
ATOM     21  C   LIG    1       24.703 -14.334   4.201  0.00  0.00    +0.192 C 
BRANCH  20  23
ATOM     22  C   LIG    1       28.360 -12.984   4.397  0.00  0.00    +0.060 C 
ATOM     23  C   LIG    1       26.946 -13.372   4.823  0.00  0.00    +0.129 C 
ENDBRANCH  20  23
BRANCH  20  24
ATOM     24  C   LIG    1       26.073 -13.206   2.419  0.00  0.00    +0.129 C 
ATOM     25  C   LIG    1       24.779 -12.439   2.205  0.00  0.00    +0.060 C 
ENDBRANCH  20  24
ENDBRANCH  19  20
ENDBRANCH  18  19
ENDBRANCH  17  18
ENDBRANCH  15  17
ENDBRANCH   1  15
TORSDOF 7
ENDMDL
