MODEL 1
REMARK VINA RESULT:      -8.6      0.000      0.000
REMARK  Name = *****
REMARK                            x       y       z     vdW  Elec       q    Type
REMARK                         _______ _______ _______ _____ _____    ______ ____
ROOT
ATOM      1  C   LIG    1       24.867 -28.666   7.163  0.00  0.00    +0.027 C 
ATOM      2  C   LIG    1       24.616 -29.594   5.964  0.00  0.00    +0.121 C 
ATOM      3  C   LIG    1       24.401 -30.939   6.641  0.00  0.00    +0.063 C 
ATOM      4  C   LIG    1       25.497 -30.974   7.704  0.00  0.00    +0.120 C 
ATOM      5  C   LIG    1       25.803 -29.502   8.066  0.00  0.00    +0.024 C 
ENDROOT
BRANCH   4   6
ATOM      6  O   LIG    1       26.673 -31.567   7.154  0.00  0.00    -0.391 OA
ATOM      7  H   LIG    1       27.230 -30.823   6.840  0.00  0.00    +0.210 HD
ENDBRANCH   4   6
BRANCH   2   8
ATOM      8  O   LIG    1       25.762 -29.693   5.120  0.00  0.00    -0.391 OA
ATOM      9  H   LIG    1       25.862 -28.832   4.672  0.00  0.00    +0.210 HD
ENDBRANCH   2   8
BRANCH   1  10
ATOM     10  C   LIG    1       25.452 -27.291   6.805  0.00  0.00    +0.033 C 
BRANCH  10  12
ATOM     11  C   LIG    1       24.412 -25.027   6.324  0.00  0.00    -0.031 C 
ATOM     12  C   LIG    1       24.389 -26.365   6.283  0.00  0.00    -0.031 C 
BRANCH  11  13
ATOM     13  C   LIG    1       25.504 -24.157   6.878  0.00  0.00    +0.027 C 
BRANCH  13  14
ATOM     14  C   LIG    1       25.201 -22.702   6.535  0.00  0.00    +0.015 C 
BRANCH  14  15
ATOM     15  C   LIG    1       24.714 -21.904   7.731  0.00  0.00    +0.121 C 
BRANCH  15  17
ATOM     16  O   LIG    1       25.979 -20.600   9.330  0.00  0.00    -0.251 OA
ATOM     17  C   LIG    1       25.793 -20.952   8.172  0.00  0.00    +0.307 C 
BRANCH  17  18
ATOM     18  O   LIG    1       26.451 -20.474   7.080  0.00  0.00    -0.465 OA
BRANCH  18  19
ATOM     19  C   LIG    1       27.867 -20.326   7.231  0.00  0.00    +0.232 C 
BRANCH  19  20
ATOM     20  C   LIG    1       28.421 -19.653   5.978  0.00  0.00    +0.045 C 
BRANCH  20  21
ATOM     21  C   LIG    1       29.618 -18.742   6.288  0.00  0.00    +0.051 C 
BRANCH  21  22
ATOM     22  C   LIG    1       30.658 -19.478   7.132  0.00  0.00    +0.321 C 
BRANCH  22  23
ATOM     23  O   LIG    1       31.443 -18.506   7.812  0.00  0.00    -0.217 OA
BRANCH  23  24
ATOM     24  N   LIG    1       31.902 -18.956   9.069  0.00  0.00    +0.284 N 
ATOM     25  O   LIG    1       32.052 -18.098   9.948  0.00  0.00    -0.534 OA
ATOM     26  O   LIG    1       32.072 -20.166   9.109  0.00  0.00    +0.093 OA
ENDBRANCH  23  24
ENDBRANCH  22  23
ENDBRANCH  21  22
ENDBRANCH  20  21
ENDBRANCH  19  20
ENDBRANCH  18  19
ENDBRANCH  17  18
ENDBRANCH  15  17
ENDBRANCH  14  15
ENDBRANCH  13  14
ENDBRANCH  11  13
ENDBRANCH  10  12
ENDBRANCH   1  10
BRANCH   5  27
ATOM     27  C   LIG    1       25.596 -29.196   9.558  0.00  0.00    +0.009 C 
BRANCH  27  28
ATOM     28  C   LIG    1       26.632 -28.214  10.134  0.00  0.00    +0.032 C 
BRANCH  28  29
ATOM     29  C   LIG    1       27.126 -28.616  11.530  0.00  0.00    +0.115 C 
BRANCH  29  30
ATOM     30  O   LIG    1       28.517 -28.928  11.453  0.00  0.00    -0.392 OA
ATOM     31  H   LIG    1       28.614 -29.881  11.624  0.00  0.00    +0.210 HD
ENDBRANCH  29  30
BRANCH  29  32
ATOM     32  C   LIG    1       26.899 -27.512  12.566  0.00  0.00    +0.036 C 
BRANCH  32  33
ATOM     33  C   LIG    1       26.005 -27.997  13.712  0.00  0.00    +0.037 C 
BRANCH  33  34
ATOM     34  C   LIG    1       24.543 -27.753  13.427  0.00  0.00    -0.047 A 
ATOM     35  C   LIG    1       23.972 -26.499  13.673  0.00  0.00    +0.003 A 
ATOM     36  C   LIG    1       22.620 -26.274  13.407  0.00  0.00    +0.000 A 
ATOM     37  C   LIG    1       21.829 -27.302  12.898  0.00  0.00    +0.000 A 
ATOM     38  C   LIG    1       22.385 -28.558  12.660  0.00  0.00    +0.000 A 
ATOM     39  C   LIG    1       23.737 -28.783  12.926  0.00  0.00    +0.003 A 
ENDBRANCH  33  34
ENDBRANCH  32  33
ENDBRANCH  29  32
ENDBRANCH  28  29
ENDBRANCH  27  28
ENDBRANCH   5  27
TORSDOF 22
ENDMDL
MODEL 2
REMARK VINA RESULT:      -8.5      1.703      2.818
REMARK  Name = *****
REMARK                            x       y       z     vdW  Elec       q    Type
REMARK                         _______ _______ _______ _____ _____    ______ ____
ROOT
ATOM      1  C   LIG    1       24.733 -25.945   6.488  0.00  0.00    +0.027 C 
ATOM      2  C   LIG    1       24.439 -26.058   4.984  0.00  0.00    +0.121 C 
ATOM      3  C   LIG    1       24.759 -27.519   4.705  0.00  0.00    +0.063 C 
ATOM      4  C   LIG    1       26.057 -27.745   5.476  0.00  0.00    +0.120 C 
ATOM      5  C   LIG    1       26.051 -26.737   6.649  0.00  0.00    +0.024 C 
ENDROOT
BRANCH   4   6
ATOM      6  O   LIG    1       27.169 -27.457   4.629  0.00  0.00    -0.391 OA
ATOM      7  H   LIG    1       27.948 -27.878   5.051  0.00  0.00    +0.210 HD
ENDBRANCH   4   6
BRANCH   2   8
ATOM      8  O   LIG    1       25.319 -25.248   4.208  0.00  0.00    -0.391 OA
ATOM      9  H   LIG    1       25.286 -25.584   3.293  0.00  0.00    +0.210 HD
ENDBRANCH   2   8
BRANCH   1  10
ATOM     10  C   LIG    1       24.831 -24.507   7.021  0.00  0.00    +0.033 C 
BRANCH  10  12
ATOM     11  C   LIG    1       23.331 -22.675   6.107  0.00  0.00    -0.031 C 
ATOM     12  C   LIG    1       23.531 -23.772   6.849  0.00  0.00    -0.031 C 
BRANCH  11  13
ATOM     13  C   LIG    1       24.347 -21.951   5.271  0.00  0.00    +0.027 C 
BRANCH  13  14
ATOM     14  C   LIG    1       24.743 -20.659   5.980  0.00  0.00    +0.015 C 
BRANCH  14  15
ATOM     15  C   LIG    1       24.475 -20.701   7.474  0.00  0.00    +0.121 C 
BRANCH  15  17
ATOM     16  O   LIG    1       25.885 -20.641   9.440  0.00  0.00    -0.251 OA
ATOM     17  C   LIG    1       25.779 -20.625   8.220  0.00  0.00    +0.307 C 
BRANCH  17  18
ATOM     18  O   LIG    1       26.798 -20.435   7.337  0.00  0.00    -0.465 OA
BRANCH  18  19
ATOM     19  C   LIG    1       27.917 -21.315   7.488  0.00  0.00    +0.232 C 
BRANCH  19  20
ATOM     20  C   LIG    1       29.137 -20.665   6.841  0.00  0.00    +0.045 C 
BRANCH  20  21
ATOM     21  C   LIG    1       29.690 -19.502   7.679  0.00  0.00    +0.051 C 
BRANCH  21  22
ATOM     22  C   LIG    1       31.115 -19.796   8.144  0.00  0.00    +0.321 C 
BRANCH  22  23
ATOM     23  O   LIG    1       31.047 -20.349   9.453  0.00  0.00    -0.217 OA
BRANCH  23  24
ATOM     24  N   LIG    1       31.327 -21.733   9.476  0.00  0.00    +0.284 N 
ATOM     25  O   LIG    1       32.253 -22.127   8.756  0.00  0.00    -0.534 OA
ATOM     26  O   LIG    1       30.603 -22.353  10.241  0.00  0.00    +0.093 OA
ENDBRANCH  23  24
ENDBRANCH  22  23
ENDBRANCH  21  22
ENDBRANCH  20  21
ENDBRANCH  19  20
ENDBRANCH  18  19
ENDBRANCH  17  18
ENDBRANCH  15  17
ENDBRANCH  14  15
ENDBRANCH  13  14
ENDBRANCH  11  13
ENDBRANCH  10  12
ENDBRANCH   1  10
BRANCH   5  27
ATOM     27  C   LIG    1       26.155 -27.417   8.025  0.00  0.00    +0.009 C 
BRANCH  27  28
ATOM     28  C   LIG    1       25.580 -28.845   8.049  0.00  0.00    +0.032 C 
BRANCH  28  29
ATOM     29  C   LIG    1       26.104 -29.682   9.224  0.00  0.00    +0.115 C 
BRANCH  29  30
ATOM     30  O   LIG    1       27.461 -29.318   9.477  0.00  0.00    -0.392 OA
ATOM     31  H   LIG    1       27.752 -28.743   8.748  0.00  0.00    +0.210 HD
ENDBRANCH  29  30
BRANCH  29  32
ATOM     32  C   LIG    1       25.270 -29.487  10.492  0.00  0.00    +0.036 C 
BRANCH  32  33
ATOM     33  C   LIG    1       26.161 -29.225  11.711  0.00  0.00    +0.037 C 
BRANCH  33  34
ATOM     34  C   LIG    1       25.823 -27.917  12.383  0.00  0.00    -0.047 A 
ATOM     35  C   LIG    1       26.764 -26.881  12.434  0.00  0.00    +0.003 A 
ATOM     36  C   LIG    1       26.449 -25.671  13.054  0.00  0.00    +0.000 A 
ATOM     37  C   LIG    1       25.194 -25.488  13.632  0.00  0.00    +0.000 A 
ATOM     38  C   LIG    1       24.253 -26.517  13.595  0.00  0.00    +0.000 A 
ATOM     39  C   LIG    1       24.568 -27.727  12.976  0.00  0.00    +0.003 A 
ENDBRANCH  33  34
ENDBRANCH  32  33
ENDBRANCH  29  32
ENDBRANCH  28  29
ENDBRANCH  27  28
ENDBRANCH   5  27
TORSDOF 22
ENDMDL
MODEL 3
REMARK VINA RESULT:      -8.5      1.184      1.505
REMARK  Name = *****
REMARK                            x       y       z     vdW  Elec       q    Type
REMARK                         _______ _______ _______ _____ _____    ______ ____
ROOT
ATOM      1  C   LIG    1       24.947 -29.079   7.351  0.00  0.00    +0.027 C 
ATOM      2  C   LIG    1       24.751 -30.133   6.251  0.00  0.00    +0.121 C 
ATOM      3  C   LIG    1       24.626 -31.416   7.057  0.00  0.00    +0.063 C 
ATOM      4  C   LIG    1       25.727 -31.279   8.106  0.00  0.00    +0.120 C 
ATOM      5  C   LIG    1       25.940 -29.762   8.321  0.00  0.00    +0.024 C 
ENDROOT
BRANCH   4   6
ATOM      6  O   LIG    1       26.936 -31.846   7.603  0.00  0.00    -0.391 OA
ATOM      7  H   LIG    1       27.598 -31.755   8.321  0.00  0.00    +0.210 HD
ENDBRANCH   4   6
BRANCH   2   8
ATOM      8  O   LIG    1       25.897 -30.240   5.408  0.00  0.00    -0.391 OA
ATOM      9  H   LIG    1       25.572 -30.408   4.504  0.00  0.00    +0.210 HD
ENDBRANCH   2   8
BRANCH   1  10
ATOM     10  C   LIG    1       25.442 -27.711   6.856  0.00  0.00    +0.033 C 
BRANCH  10  12
ATOM     11  C   LIG    1       24.255 -25.650   5.969  0.00  0.00    -0.031 C 
ATOM     12  C   LIG    1       24.360 -26.977   6.112  0.00  0.00    -0.031 C 
BRANCH  11  13
ATOM     13  C   LIG    1       25.198 -24.605   6.496  0.00  0.00    +0.027 C 
BRANCH  13  14
ATOM     14  C   LIG    1       24.677 -23.225   6.107  0.00  0.00    +0.015 C 
BRANCH  14  15
ATOM     15  C   LIG    1       23.561 -22.739   7.013  0.00  0.00    +0.121 C 
BRANCH  15  17
ATOM     16  O   LIG    1       23.538 -20.377   7.538  0.00  0.00    -0.251 OA
ATOM     17  C   LIG    1       24.003 -21.493   7.731  0.00  0.00    +0.307 C 
BRANCH  17  18
ATOM     18  O   LIG    1       25.058 -21.785   8.541  0.00  0.00    -0.465 OA
BRANCH  18  19
ATOM     19  C   LIG    1       26.081 -20.786   8.604  0.00  0.00    +0.232 C 
BRANCH  19  20
ATOM     20  C   LIG    1       27.312 -21.305   7.864  0.00  0.00    +0.045 C 
BRANCH  20  21
ATOM     21  C   LIG    1       28.166 -20.165   7.288  0.00  0.00    +0.051 C 
BRANCH  21  22
ATOM     22  C   LIG    1       29.654 -20.502   7.377  0.00  0.00    +0.321 C 
BRANCH  22  23
ATOM     23  O   LIG    1       29.858 -21.289   8.545  0.00  0.00    -0.217 OA
BRANCH  23  24
ATOM     24  N   LIG    1       31.072 -20.987   9.201  0.00  0.00    +0.284 N 
ATOM     25  O   LIG    1       31.204 -19.833   9.628  0.00  0.00    -0.534 OA
ATOM     26  O   LIG    1       31.828 -21.945   9.268  0.00  0.00    +0.093 OA
ENDBRANCH  23  24
ENDBRANCH  22  23
ENDBRANCH  21  22
ENDBRANCH  20  21
ENDBRANCH  19  20
ENDBRANCH  18  19
ENDBRANCH  17  18
ENDBRANCH  15  17
ENDBRANCH  14  15
ENDBRANCH  13  14
ENDBRANCH  11  13
ENDBRANCH  10  12
ENDBRANCH   1  10
BRANCH   5  27
ATOM     27  C   LIG    1       25.720 -29.326   9.779  0.00  0.00    +0.009 C 
BRANCH  27  28
ATOM     28  C   LIG    1       26.681 -28.215  10.239  0.00  0.00    +0.032 C 
BRANCH  28  29
ATOM     29  C   LIG    1       27.086 -28.347  11.713  0.00  0.00    +0.115 C 
BRANCH  29  30
ATOM     30  O   LIG    1       27.524 -27.073  12.185  0.00  0.00    -0.392 OA
ATOM     31  H   LIG    1       27.220 -26.403  11.548  0.00  0.00    +0.210 HD
ENDBRANCH  29  30
BRANCH  29  32
ATOM     32  C   LIG    1       25.938 -28.857  12.588  0.00  0.00    +0.036 C 
BRANCH  32  33
ATOM     33  C   LIG    1       25.275 -27.713  13.362  0.00  0.00    +0.037 C 
BRANCH  33  34
ATOM     34  C   LIG    1       23.779 -27.692  13.161  0.00  0.00    -0.047 A 
ATOM     35  C   LIG    1       23.034 -26.554  13.495  0.00  0.00    +0.003 A 
ATOM     36  C   LIG    1       21.652 -26.536  13.307  0.00  0.00    +0.000 A 
ATOM     37  C   LIG    1       21.003 -27.655  12.789  0.00  0.00    +0.000 A 
ATOM     38  C   LIG    1       21.733 -28.796  12.463  0.00  0.00    +0.000 A 
ATOM     39  C   LIG    1       23.116 -28.816  12.651  0.00  0.00    +0.003 A 
ENDBRANCH  33  34
ENDBRANCH  32  33
ENDBRANCH  29  32
ENDBRANCH  28  29
ENDBRANCH  27  28
ENDBRANCH   5  27
TORSDOF 22
ENDMDL
MODEL 4
REMARK VINA RESULT:      -8.4      3.447     10.165
REMARK  Name = *****
REMARK                            x       y       z     vdW  Elec       q    Type
REMARK                         _______ _______ _______ _____ _____    ______ ____
ROOT
ATOM      1  C   LIG    1       25.572 -23.263   6.483  0.00  0.00    +0.027 C 
ATOM      2  C   LIG    1       24.270 -23.017   5.707  0.00  0.00    +0.121 C 
ATOM      3  C   LIG    1       24.197 -21.498   5.679  0.00  0.00    +0.063 C 
ATOM      4  C   LIG    1       24.588 -21.103   7.101  0.00  0.00    +0.120 C 
ATOM      5  C   LIG    1       25.495 -22.236   7.636  0.00  0.00    +0.024 C 
ENDROOT
BRANCH   4   6
ATOM      6  O   LIG    1       23.416 -21.031   7.913  0.00  0.00    -0.391 OA
ATOM      7  H   LIG    1       23.671 -21.388   8.790  0.00  0.00    +0.210 HD
ENDBRANCH   4   6
BRANCH   2   8
ATOM      8  O   LIG    1       23.131 -23.509   6.410  0.00  0.00    -0.391 OA
ATOM      9  H   LIG    1       23.268 -24.465   6.545  0.00  0.00    +0.210 HD
ENDBRANCH   2   8
BRANCH   1  10
ATOM     10  C   LIG    1       25.766 -24.705   6.979  0.00  0.00    +0.033 C 
BRANCH  10  12
ATOM     11  C   LIG    1       25.676 -26.865   5.650  0.00  0.00    -0.031 C 
ATOM     12  C   LIG    1       26.139 -25.624   5.849  0.00  0.00    -0.031 C 
BRANCH  11  13
ATOM     13  C   LIG    1       24.674 -27.603   6.491  0.00  0.00    +0.027 C 
BRANCH  13  14
ATOM     14  C   LIG    1       24.161 -28.808   5.709  0.00  0.00    +0.015 C 
BRANCH  14  15
ATOM     15  C   LIG    1       25.056 -30.026   5.849  0.00  0.00    +0.121 C 
BRANCH  15  17
ATOM     16  O   LIG    1       24.113 -32.208   5.398  0.00  0.00    -0.251 OA
ATOM     17  C   LIG    1       24.212 -31.238   6.137  0.00  0.00    +0.307 C 
BRANCH  17  18
ATOM     18  O   LIG    1       23.508 -31.039   7.286  0.00  0.00    -0.465 OA
BRANCH  18  19
ATOM     19  C   LIG    1       24.226 -31.289   8.499  0.00  0.00    +0.232 C 
BRANCH  19  20
ATOM     20  C   LIG    1       23.822 -30.236   9.528  0.00  0.00    +0.045 C 
BRANCH  20  21
ATOM     21  C   LIG    1       25.031 -29.671  10.287  0.00  0.00    +0.051 C 
BRANCH  21  22
ATOM     22  C   LIG    1       26.286 -29.708   9.416  0.00  0.00    +0.321 C 
BRANCH  22  23
ATOM     23  O   LIG    1       27.132 -28.635   9.815  0.00  0.00    -0.217 OA
BRANCH  23  24
ATOM     24  N   LIG    1       27.741 -28.857  11.069  0.00  0.00    +0.284 N 
ATOM     25  O   LIG    1       28.474 -29.850  11.166  0.00  0.00    -0.534 OA
ATOM     26  O   LIG    1       27.459 -28.000  11.894  0.00  0.00    +0.093 OA
ENDBRANCH  23  24
ENDBRANCH  22  23
ENDBRANCH  21  22
ENDBRANCH  20  21
ENDBRANCH  19  20
ENDBRANCH  18  19
ENDBRANCH  17  18
ENDBRANCH  15  17
ENDBRANCH  14  15
ENDBRANCH  13  14
ENDBRANCH  11  13
ENDBRANCH  10  12
ENDBRANCH   1  10
BRANCH   5  27
ATOM     27  C   LIG    1       26.886 -21.739   8.064  0.00  0.00    +0.009 C 
BRANCH  27  28
ATOM     28  C   LIG    1       27.215 -20.323   7.558  0.00  0.00    +0.032 C 
BRANCH  28  29
ATOM     29  C   LIG    1       28.223 -20.320   6.401  0.00  0.00    +0.115 C 
BRANCH  29  30
ATOM     30  O   LIG    1       27.508 -20.229   5.169  0.00  0.00    -0.392 OA
ATOM     31  H   LIG    1       27.475 -21.121   4.782  0.00  0.00    +0.210 HD
ENDBRANCH  29  30
BRANCH  29  32
ATOM     32  C   LIG    1       29.224 -19.166   6.507  0.00  0.00    +0.036 C 
BRANCH  32  33
ATOM     33  C   LIG    1       30.465 -19.574   7.308  0.00  0.00    +0.037 C 
BRANCH  33  34
ATOM     34  C   LIG    1       30.792 -18.571   8.387  0.00  0.00    -0.047 A 
ATOM     35  C   LIG    1       32.022 -17.900   8.383  0.00  0.00    +0.003 A 
ATOM     36  C   LIG    1       32.322 -16.971   9.380  0.00  0.00    +0.000 A 
ATOM     37  C   LIG    1       31.399 -16.709  10.391  0.00  0.00    +0.000 A 
ATOM     38  C   LIG    1       30.177 -17.379  10.410  0.00  0.00    +0.000 A 
ATOM     39  C   LIG    1       29.876 -18.308   9.413  0.00  0.00    +0.003 A 
ENDBRANCH  33  34
ENDBRANCH  32  33
ENDBRANCH  29  32
ENDBRANCH  28  29
ENDBRANCH  27  28
ENDBRANCH   5  27
TORSDOF 22
ENDMDL
MODEL 5
REMARK VINA RESULT:      -8.4      4.101     10.812
REMARK  Name = *****
REMARK                            x       y       z     vdW  Elec       q    Type
REMARK                         _______ _______ _______ _____ _____    ______ ____
ROOT
ATOM      1  C   LIG    1       25.288 -22.797   6.063  0.00  0.00    +0.027 C 
ATOM      2  C   LIG    1       24.006 -22.216   5.446  0.00  0.00    +0.121 C 
ATOM      3  C   LIG    1       24.215 -20.721   5.624  0.00  0.00    +0.063 C 
ATOM      4  C   LIG    1       24.763 -20.611   7.045  0.00  0.00    +0.120 C 
ATOM      5  C   LIG    1       25.478 -21.950   7.343  0.00  0.00    +0.024 C 
ENDROOT
BRANCH   4   6
ATOM      6  O   LIG    1       23.680 -20.454   7.961  0.00  0.00    -0.391 OA
ATOM      7  H   LIG    1       24.086 -20.223   8.824  0.00  0.00    +0.210 HD
ENDBRANCH   4   6
BRANCH   2   8
ATOM      8  O   LIG    1       22.844 -22.599   6.178  0.00  0.00    -0.391 OA
ATOM      9  H   LIG    1       22.206 -21.865   6.107  0.00  0.00    +0.210 HD
ENDBRANCH   2   8
BRANCH   1  10
ATOM     10  C   LIG    1       25.243 -24.306   6.347  0.00  0.00    +0.033 C 
BRANCH  10  12
ATOM     11  C   LIG    1       25.583 -26.351   4.881  0.00  0.00    -0.031 C 
ATOM     12  C   LIG    1       25.150 -25.098   5.071  0.00  0.00    -0.031 C 
BRANCH  11  13
ATOM     13  C   LIG    1       26.235 -27.246   5.895  0.00  0.00    +0.027 C 
BRANCH  13  14
ATOM     14  C   LIG    1       25.152 -28.011   6.650  0.00  0.00    +0.015 C 
BRANCH  14  15
ATOM     15  C   LIG    1       24.193 -28.740   5.727  0.00  0.00    +0.121 C 
BRANCH  15  17
ATOM     16  O   LIG    1       23.335 -30.986   5.999  0.00  0.00    -0.251 OA
ATOM     17  C   LIG    1       24.291 -30.222   5.970  0.00  0.00    +0.307 C 
BRANCH  17  18
ATOM     18  O   LIG    1       25.582 -30.552   6.252  0.00  0.00    -0.465 OA
BRANCH  18  19
ATOM     19  C   LIG    1       25.760 -31.774   6.975  0.00  0.00    +0.232 C 
BRANCH  19  20
ATOM     20  C   LIG    1       26.251 -31.439   8.381  0.00  0.00    +0.045 C 
BRANCH  20  21
ATOM     21  C   LIG    1       25.123 -31.510   9.422  0.00  0.00    +0.051 C 
BRANCH  21  22
ATOM     22  C   LIG    1       24.504 -30.131   9.648  0.00  0.00    +0.321 C 
BRANCH  22  23
ATOM     23  O   LIG    1       23.144 -30.185   9.233  0.00  0.00    -0.217 OA
BRANCH  23  24
ATOM     24  N   LIG    1       22.251 -30.371  10.310  0.00  0.00    +0.284 N 
ATOM     25  O   LIG    1       22.588 -29.898  11.403  0.00  0.00    -0.534 OA
ATOM     26  O   LIG    1       21.237 -30.975   9.990  0.00  0.00    +0.093 OA
ENDBRANCH  23  24
ENDBRANCH  22  23
ENDBRANCH  21  22
ENDBRANCH  20  21
ENDBRANCH  19  20
ENDBRANCH  18  19
ENDBRANCH  17  18
ENDBRANCH  15  17
ENDBRANCH  14  15
ENDBRANCH  13  14
ENDBRANCH  11  13
ENDBRANCH  10  12
ENDBRANCH   1  10
BRANCH   5  27
ATOM     27  C   LIG    1       26.961 -21.771   7.706  0.00  0.00    +0.009 C 
BRANCH  27  28
ATOM     28  C   LIG    1       27.481 -20.340   7.476  0.00  0.00    +0.032 C 
BRANCH  28  29
ATOM     29  C   LIG    1       28.471 -20.244   6.307  0.00  0.00    +0.115 C 
BRANCH  29  30
ATOM     30  O   LIG    1       27.733 -20.166   5.087  0.00  0.00    -0.392 OA
ATOM     31  H   LIG    1       27.919 -19.299   4.686  0.00  0.00    +0.210 HD
ENDBRANCH  29  30
BRANCH  29  32
ATOM     32  C   LIG    1       29.399 -19.033   6.430  0.00  0.00    +0.036 C 
BRANCH  32  33
ATOM     33  C   LIG    1       30.671 -19.381   7.209  0.00  0.00    +0.037 C 
BRANCH  33  34
ATOM     34  C   LIG    1       30.911 -18.423   8.350  0.00  0.00    -0.047 A 
ATOM     35  C   LIG    1       32.148 -17.779   8.488  0.00  0.00    +0.003 A 
ATOM     36  C   LIG    1       32.368 -16.892   9.542  0.00  0.00    +0.000 A 
ATOM     37  C   LIG    1       31.356 -16.645  10.469  0.00  0.00    +0.000 A 
ATOM     38  C   LIG    1       30.126 -17.289  10.347  0.00  0.00    +0.000 A 
ATOM     39  C   LIG    1       29.906 -18.176   9.293  0.00  0.00    +0.003 A 
ENDBRANCH  33  34
ENDBRANCH  32  33
ENDBRANCH  29  32
ENDBRANCH  28  29
ENDBRANCH  27  28
ENDBRANCH   5  27
TORSDOF 22
ENDMDL
MODEL 6
REMARK VINA RESULT:      -8.3      4.319     10.905
REMARK  Name = *****
REMARK                            x       y       z     vdW  Elec       q    Type
REMARK                         _______ _______ _______ _____ _____    ______ ____
ROOT
ATOM      1  C   LIG    1       24.424 -20.829   5.433  0.00  0.00    +0.027 C 
ATOM      2  C   LIG    1       23.515 -20.390   4.275  0.00  0.00    +0.121 C 
ATOM      3  C   LIG    1       24.484 -20.362   3.103  0.00  0.00    +0.063 C 
ATOM      4  C   LIG    1       25.724 -19.694   3.691  0.00  0.00    +0.120 C 
ATOM      5  C   LIG    1       25.709 -19.999   5.207  0.00  0.00    +0.024 C 
ENDROOT
BRANCH   4   6
ATOM      6  O   LIG    1       25.636 -18.282   3.505  0.00  0.00    -0.391 OA
ATOM      7  H   LIG    1       26.384 -17.894   4.008  0.00  0.00    +0.210 HD
ENDBRANCH   4   6
BRANCH   2   8
ATOM      8  O   LIG    1       23.005 -19.073   4.469  0.00  0.00    -0.391 OA
ATOM      9  H   LIG    1       23.764 -18.501   4.689  0.00  0.00    +0.210 HD
ENDBRANCH   2   8
BRANCH   1  10
ATOM     10  C   LIG    1       23.825 -20.632   6.835  0.00  0.00    +0.033 C 
BRANCH  10  12
ATOM     11  C   LIG    1       23.191 -23.064   7.191  0.00  0.00    -0.031 C 
ATOM     12  C   LIG    1       22.895 -21.758   7.193  0.00  0.00    -0.031 C 
BRANCH  11  13
ATOM     13  C   LIG    1       24.514 -23.691   6.852  0.00  0.00    +0.027 C 
BRANCH  13  14
ATOM     14  C   LIG    1       24.266 -25.024   6.154  0.00  0.00    +0.015 C 
BRANCH  14  15
ATOM     15  C   LIG    1       25.251 -25.293   5.030  0.00  0.00    +0.121 C 
BRANCH  15  17
ATOM     16  O   LIG    1       26.848 -27.080   4.698  0.00  0.00    -0.251 OA
ATOM     17  C   LIG    1       25.775 -26.698   5.146  0.00  0.00    +0.307 C 
BRANCH  17  18
ATOM     18  O   LIG    1       24.831 -27.488   5.730  0.00  0.00    -0.465 OA
BRANCH  18  19
ATOM     19  C   LIG    1       24.726 -28.814   5.202  0.00  0.00    +0.232 C 
BRANCH  19  20
ATOM     20  C   LIG    1       24.756 -29.803   6.364  0.00  0.00    +0.045 C 
BRANCH  20  21
ATOM     21  C   LIG    1       25.088 -29.121   7.700  0.00  0.00    +0.051 C 
BRANCH  21  22
ATOM     22  C   LIG    1       24.649 -29.989   8.878  0.00  0.00    +0.321 C 
BRANCH  22  23
ATOM     23  O   LIG    1       23.246 -30.203   8.769  0.00  0.00    -0.217 OA
BRANCH  23  24
ATOM     24  N   LIG    1       22.616 -30.340  10.025  0.00  0.00    +0.284 N 
ATOM     25  O   LIG    1       21.494 -30.863  10.032  0.00  0.00    -0.534 OA
ATOM     26  O   LIG    1       23.299 -29.925  10.949  0.00  0.00    +0.093 OA
ENDBRANCH  23  24
ENDBRANCH  22  23
ENDBRANCH  21  22
ENDBRANCH  20  21
ENDBRANCH  19  20
ENDBRANCH  18  19
ENDBRANCH  17  18
ENDBRANCH  15  17
ENDBRANCH  14  15
ENDBRANCH  13  14
ENDBRANCH  11  13
ENDBRANCH  10  12
ENDBRANCH   1  10
BRANCH   5  27
ATOM     27  C   LIG    1       26.969 -20.740   5.682  0.00  0.00    +0.009 C 
BRANCH  27  28
ATOM     28  C   LIG    1       27.890 -19.881   6.568  0.00  0.00    +0.032 C 
BRANCH  28  29
ATOM     29  C   LIG    1       29.154 -19.408   5.836  0.00  0.00    +0.115 C 
BRANCH  29  30
ATOM     30  O   LIG    1       28.813 -18.301   5.001  0.00  0.00    -0.392 OA
ATOM     31  H   LIG    1       27.914 -18.454   4.662  0.00  0.00    +0.210 HD
ENDBRANCH  29  30
BRANCH  29  32
ATOM     32  C   LIG    1       30.268 -19.004   6.804  0.00  0.00    +0.036 C 
BRANCH  32  33
ATOM     33  C   LIG    1       29.766 -18.971   8.251  0.00  0.00    +0.037 C 
BRANCH  33  34
ATOM     34  C   LIG    1       30.570 -18.020   9.104  0.00  0.00    -0.047 A 
ATOM     35  C   LIG    1       31.853 -17.623   8.707  0.00  0.00    +0.003 A 
ATOM     36  C   LIG    1       32.595 -16.743   9.495  0.00  0.00    +0.000 A 
ATOM     37  C   LIG    1       32.063 -16.256  10.688  0.00  0.00    +0.000 A 
ATOM     38  C   LIG    1       30.792 -16.654  11.098  0.00  0.00    +0.000 A 
ATOM     39  C   LIG    1       30.049 -17.535  10.310  0.00  0.00    +0.003 A 
ENDBRANCH  33  34
ENDBRANCH  32  33
ENDBRANCH  29  32
ENDBRANCH  28  29
ENDBRANCH  27  28
ENDBRANCH   5  27
TORSDOF 22
ENDMDL
MODEL 7
REMARK VINA RESULT:      -8.2      2.919      9.680
REMARK  Name = *****
REMARK                            x       y       z     vdW  Elec       q    Type
REMARK                         _______ _______ _______ _____ _____    ______ ____
ROOT
ATOM      1  C   LIG    1       25.612 -23.032   6.574  0.00  0.00    +0.027 C 
ATOM      2  C   LIG    1       24.440 -22.720   5.631  0.00  0.00    +0.121 C 
ATOM      3  C   LIG    1       24.452 -21.199   5.598  0.00  0.00    +0.063 C 
ATOM      4  C   LIG    1       24.668 -20.821   7.062  0.00  0.00    +0.120 C 
ATOM      5  C   LIG    1       25.435 -21.998   7.710  0.00  0.00    +0.024 C 
ENDROOT
BRANCH   4   6
ATOM      6  O   LIG    1       23.404 -20.684   7.709  0.00  0.00    -0.391 OA
ATOM      7  H   LIG    1       23.048 -19.813   7.429  0.00  0.00    +0.210 HD
ENDBRANCH   4   6
BRANCH   2   8
ATOM      8  O   LIG    1       23.193 -23.149   6.173  0.00  0.00    -0.391 OA
ATOM      9  H   LIG    1       23.361 -23.980   6.655  0.00  0.00    +0.210 HD
ENDBRANCH   2   8
BRANCH   1  10
ATOM     10  C   LIG    1       25.661 -24.480   7.087  0.00  0.00    +0.033 C 
BRANCH  10  12
ATOM     11  C   LIG    1       25.670 -26.450   5.487  0.00  0.00    -0.031 C 
ATOM     12  C   LIG    1       26.268 -25.400   6.063  0.00  0.00    -0.031 C 
BRANCH  11  13
ATOM     13  C   LIG    1       24.265 -26.930   5.716  0.00  0.00    +0.027 C 
BRANCH  13  14
ATOM     14  C   LIG    1       24.304 -28.388   6.161  0.00  0.00    +0.015 C 
BRANCH  14  15
ATOM     15  C   LIG    1       25.220 -28.617   7.350  0.00  0.00    +0.121 C 
BRANCH  15  17
ATOM     16  O   LIG    1       23.591 -30.270   8.034  0.00  0.00    -0.251 OA
ATOM     17  C   LIG    1       24.580 -29.597   8.295  0.00  0.00    +0.307 C 
BRANCH  17  18
ATOM     18  O   LIG    1       25.206 -29.540   9.502  0.00  0.00    -0.465 OA
BRANCH  18  19
ATOM     19  C   LIG    1       26.611 -29.269   9.455  0.00  0.00    +0.232 C 
BRANCH  19  20
ATOM     20  C   LIG    1       27.001 -28.503  10.716  0.00  0.00    +0.045 C 
BRANCH  20  21
ATOM     21  C   LIG    1       26.090 -28.840  11.907  0.00  0.00    +0.051 C 
BRANCH  21  22
ATOM     22  C   LIG    1       25.713 -27.577  12.679  0.00  0.00    +0.321 C 
BRANCH  22  23
ATOM     23  O   LIG    1       26.673 -26.572  12.376  0.00  0.00    -0.217 OA
BRANCH  23  24
ATOM     24  N   LIG    1       27.227 -25.980  13.532  0.00  0.00    +0.284 N 
ATOM     25  O   LIG    1       27.414 -26.722  14.504  0.00  0.00    -0.534 OA
ATOM     26  O   LIG    1       27.462 -24.789  13.391  0.00  0.00    +0.093 OA
ENDBRANCH  23  24
ENDBRANCH  22  23
ENDBRANCH  21  22
ENDBRANCH  20  21
ENDBRANCH  19  20
ENDBRANCH  18  19
ENDBRANCH  17  18
ENDBRANCH  15  17
ENDBRANCH  14  15
ENDBRANCH  13  14
ENDBRANCH  11  13
ENDBRANCH  10  12
ENDBRANCH   1  10
BRANCH   5  27
ATOM     27  C   LIG    1       26.779 -21.573   8.323  0.00  0.00    +0.009 C 
BRANCH  27  28
ATOM     28  C   LIG    1       27.397 -20.334   7.650  0.00  0.00    +0.032 C 
BRANCH  28  29
ATOM     29  C   LIG    1       28.541 -20.683   6.688  0.00  0.00    +0.115 C 
BRANCH  29  30
ATOM     30  O   LIG    1       28.254 -20.118   5.409  0.00  0.00    -0.392 OA
ATOM     31  H   LIG    1       28.505 -20.774   4.735  0.00  0.00    +0.210 HD
ENDBRANCH  29  30
BRANCH  29  32
ATOM     32  C   LIG    1       29.895 -20.175   7.187  0.00  0.00    +0.036 C 
BRANCH  32  33
ATOM     33  C   LIG    1       29.969 -18.645   7.142  0.00  0.00    +0.037 C 
BRANCH  33  34
ATOM     34  C   LIG    1       30.555 -18.072   8.408  0.00  0.00    -0.047 A 
ATOM     35  C   LIG    1       31.878 -17.613   8.434  0.00  0.00    +0.003 A 
ATOM     36  C   LIG    1       32.418 -17.082   9.606  0.00  0.00    +0.000 A 
ATOM     37  C   LIG    1       31.642 -17.009  10.762  0.00  0.00    +0.000 A 
ATOM     38  C   LIG    1       30.328 -17.474  10.750  0.00  0.00    +0.000 A 
ATOM     39  C   LIG    1       29.787 -18.005   9.578  0.00  0.00    +0.003 A 
ENDBRANCH  33  34
ENDBRANCH  32  33
ENDBRANCH  29  32
ENDBRANCH  28  29
ENDBRANCH  27  28
ENDBRANCH   5  27
TORSDOF 22
ENDMDL
MODEL 8
REMARK VINA RESULT:      -8.2      3.671     10.267
REMARK  Name = *****
REMARK                            x       y       z     vdW  Elec       q    Type
REMARK                         _______ _______ _______ _____ _____    ______ ____
ROOT
ATOM      1  C   LIG    1       24.267 -20.865   5.425  0.00  0.00    +0.027 C 
ATOM      2  C   LIG    1       23.365 -20.444   4.256  0.00  0.00    +0.121 C 
ATOM      3  C   LIG    1       24.362 -20.306   3.116  0.00  0.00    +0.063 C 
ATOM      4  C   LIG    1       25.537 -19.579   3.767  0.00  0.00    +0.120 C 
ATOM      5  C   LIG    1       25.499 -19.942   5.269  0.00  0.00    +0.024 C 
ENDROOT
BRANCH   4   6
ATOM      6  O   LIG    1       25.357 -18.169   3.630  0.00  0.00    -0.391 OA
ATOM      7  H   LIG    1       24.904 -17.873   4.448  0.00  0.00    +0.210 HD
ENDBRANCH   4   6
BRANCH   2   8
ATOM      8  O   LIG    1       22.760 -19.173   4.482  0.00  0.00    -0.391 OA
ATOM      9  H   LIG    1       22.038 -19.079   3.832  0.00  0.00    +0.210 HD
ENDBRANCH   2   8
BRANCH   1  10
ATOM     10  C   LIG    1       23.616 -20.763   6.814  0.00  0.00    +0.033 C 
BRANCH  10  12
ATOM     11  C   LIG    1       23.526 -23.280   7.124  0.00  0.00    -0.031 C 
ATOM     12  C   LIG    1       22.974 -22.063   7.211  0.00  0.00    -0.031 C 
BRANCH  11  13
ATOM     13  C   LIG    1       24.906 -23.615   6.634  0.00  0.00    +0.027 C 
BRANCH  13  14
ATOM     14  C   LIG    1       25.005 -25.123   6.422  0.00  0.00    +0.015 C 
BRANCH  14  15
ATOM     15  C   LIG    1       25.229 -25.500   4.969  0.00  0.00    +0.121 C 
BRANCH  15  17
ATOM     16  O   LIG    1       26.955 -27.162   4.634  0.00  0.00    -0.251 OA
ATOM     17  C   LIG    1       25.789 -26.894   4.893  0.00  0.00    +0.307 C 
BRANCH  17  18
ATOM     18  O   LIG    1       24.784 -27.798   5.055  0.00  0.00    -0.465 OA
BRANCH  18  19
ATOM     19  C   LIG    1       25.186 -29.090   5.524  0.00  0.00    +0.232 C 
BRANCH  19  20
ATOM     20  C   LIG    1       24.762 -29.231   6.983  0.00  0.00    +0.045 C 
BRANCH  20  21
ATOM     21  C   LIG    1       25.695 -28.469   7.937  0.00  0.00    +0.051 C 
BRANCH  21  22
ATOM     22  C   LIG    1       25.890 -29.241   9.240  0.00  0.00    +0.321 C 
BRANCH  22  23
ATOM     23  O   LIG    1       27.191 -28.949   9.736  0.00  0.00    -0.217 OA
BRANCH  23  24
ATOM     24  N   LIG    1       27.750 -30.020  10.468  0.00  0.00    +0.284 N 
ATOM     25  O   LIG    1       28.645 -29.737  11.274  0.00  0.00    -0.534 OA
ATOM     26  O   LIG    1       27.239 -31.097  10.201  0.00  0.00    +0.093 OA
ENDBRANCH  23  24
ENDBRANCH  22  23
ENDBRANCH  21  22
ENDBRANCH  20  21
ENDBRANCH  19  20
ENDBRANCH  18  19
ENDBRANCH  17  18
ENDBRANCH  15  17
ENDBRANCH  14  15
ENDBRANCH  13  14
ENDBRANCH  11  13
ENDBRANCH  10  12
ENDBRANCH   1  10
BRANCH   5  27
ATOM     27  C   LIG    1       26.793 -20.614   5.756  0.00  0.00    +0.009 C 
BRANCH  27  28
ATOM     28  C   LIG    1       27.106 -20.343   7.239  0.00  0.00    +0.032 C 
BRANCH  28  29
ATOM     29  C   LIG    1       28.598 -20.476   7.570  0.00  0.00    +0.115 C 
BRANCH  29  30
ATOM     30  O   LIG    1       29.221 -21.277   6.566  0.00  0.00    -0.392 OA
ATOM     31  H   LIG    1       28.550 -21.475   5.890  0.00  0.00    +0.210 HD
ENDBRANCH  29  30
BRANCH  29  32
ATOM     32  C   LIG    1       29.297 -19.118   7.658  0.00  0.00    +0.036 C 
BRANCH  32  33
ATOM     33  C   LIG    1       30.746 -19.265   8.134  0.00  0.00    +0.037 C 
BRANCH  33  34
ATOM     34  C   LIG    1       31.124 -18.194   9.127  0.00  0.00    -0.047 A 
ATOM     35  C   LIG    1       32.260 -17.401   8.920  0.00  0.00    +0.003 A 
ATOM     36  C   LIG    1       32.606 -16.410   9.838  0.00  0.00    +0.000 A 
ATOM     37  C   LIG    1       31.823 -16.205  10.973  0.00  0.00    +0.000 A 
ATOM     38  C   LIG    1       30.696 -16.996  11.195  0.00  0.00    +0.000 A 
ATOM     39  C   LIG    1       30.350 -17.988  10.277  0.00  0.00    +0.003 A 
ENDBRANCH  33  34
ENDBRANCH  32  33
ENDBRANCH  29  32
ENDBRANCH  28  29
ENDBRANCH  27  28
ENDBRANCH   5  27
TORSDOF 22
ENDMDL
MODEL 9
REMARK VINA RESULT:      -8.2      4.490      9.368
REMARK  Name = *****
REMARK                            x       y       z     vdW  Elec       q    Type
REMARK                         _______ _______ _______ _____ _____    ______ ____
ROOT
ATOM      1  C   LIG    1       25.677 -29.191   7.519  0.00  0.00    +0.027 C 
ATOM      2  C   LIG    1       25.398 -30.597   6.966  0.00  0.00    +0.121 C 
ATOM      3  C   LIG    1       25.295 -30.338   5.471  0.00  0.00    +0.063 C 
ATOM      4  C   LIG    1       24.457 -29.064   5.395  0.00  0.00    +0.120 C 
ATOM      5  C   LIG    1       24.704 -28.297   6.715  0.00  0.00    +0.024 C 
ENDROOT
BRANCH   4   6
ATOM      6  O   LIG    1       23.074 -29.410   5.316  0.00  0.00    -0.391 OA
ATOM      7  H   LIG    1       22.986 -30.281   5.759  0.00  0.00    +0.210 HD
ENDBRANCH   4   6
BRANCH   2   8
ATOM      8  O   LIG    1       24.148 -31.109   7.422  0.00  0.00    -0.391 OA
ATOM      9  H   LIG    1       23.496 -30.943   6.717  0.00  0.00    +0.210 HD
ENDBRANCH   2   8
BRANCH   1  10
ATOM     10  C   LIG    1       25.503 -29.047   9.039  0.00  0.00    +0.033 C 
BRANCH  10  12
ATOM     11  C   LIG    1       26.893 -28.155  10.966  0.00  0.00    -0.031 C 
ATOM     12  C   LIG    1       26.677 -28.340   9.658  0.00  0.00    -0.031 C 
BRANCH  11  13
ATOM     13  C   LIG    1       26.030 -28.627  12.101  0.00  0.00    +0.027 C 
BRANCH  13  14
ATOM     14  C   LIG    1       26.258 -27.722  13.308  0.00  0.00    +0.015 C 
BRANCH  14  15
ATOM     15  C   LIG    1       26.461 -26.267  12.923  0.00  0.00    +0.121 C 
BRANCH  15  17
ATOM     16  O   LIG    1       25.500 -24.178  13.674  0.00  0.00    -0.251 OA
ATOM     17  C   LIG    1       25.538 -25.400  13.735  0.00  0.00    +0.307 C 
BRANCH  17  18
ATOM     18  O   LIG    1       24.836 -26.175  14.607  0.00  0.00    -0.465 OA
BRANCH  18  19
ATOM     19  C   LIG    1       23.436 -25.890  14.694  0.00  0.00    +0.232 C 
BRANCH  19  20
ATOM     20  C   LIG    1       22.780 -26.273  13.370  0.00  0.00    +0.045 C 
BRANCH  20  21
ATOM     21  C   LIG    1       22.445 -27.771  13.299  0.00  0.00    +0.051 C 
BRANCH  21  22
ATOM     22  C   LIG    1       21.009 -27.985  12.820  0.00  0.00    +0.321 C 
BRANCH  22  23
ATOM     23  O   LIG    1       20.303 -26.760  12.981  0.00  0.00    -0.217 OA
BRANCH  23  24
ATOM     24  N   LIG    1       19.146 -26.898  13.778  0.00  0.00    +0.284 N 
ATOM     25  O   LIG    1       18.421 -25.901  13.888  0.00  0.00    -0.534 OA
ATOM     26  O   LIG    1       19.018 -28.022  14.243  0.00  0.00    +0.093 OA
ENDBRANCH  23  24
ENDBRANCH  22  23
ENDBRANCH  21  22
ENDBRANCH  20  21
ENDBRANCH  19  20
ENDBRANCH  18  19
ENDBRANCH  17  18
ENDBRANCH  15  17
ENDBRANCH  14  15
ENDBRANCH  13  14
ENDBRANCH  11  13
ENDBRANCH  10  12
ENDBRANCH   1  10
BRANCH   5  27
ATOM     27  C   LIG    1       25.264 -26.883   6.492  0.00  0.00    +0.009 C 
BRANCH  27  28
ATOM     28  C   LIG    1       24.178 -25.828   6.214  0.00  0.00    +0.032 C 
BRANCH  28  29
ATOM     29  C   LIG    1       24.747 -24.413   6.047  0.00  0.00    +0.115 C 
BRANCH  29  30
ATOM     30  O   LIG    1       24.951 -24.162   4.657  0.00  0.00    -0.392 OA
ATOM     31  H   LIG    1       25.480 -24.896   4.300  0.00  0.00    +0.210 HD
ENDBRANCH  29  30
BRANCH  29  32
ATOM     32  C   LIG    1       23.825 -23.343   6.637  0.00  0.00    +0.036 C 
BRANCH  32  33
ATOM     33  C   LIG    1       24.567 -22.018   6.843  0.00  0.00    +0.037 C 
BRANCH  33  34
ATOM     34  C   LIG    1       24.144 -20.975   5.838  0.00  0.00    -0.047 A 
ATOM     35  C   LIG    1       25.007 -20.596   4.803  0.00  0.00    +0.003 A 
ATOM     36  C   LIG    1       24.613 -19.632   3.873  0.00  0.00    +0.000 A 
ATOM     37  C   LIG    1       23.356 -19.037   3.974  0.00  0.00    +0.000 A 
ATOM     38  C   LIG    1       22.494 -19.400   5.007  0.00  0.00    +0.000 A 
ATOM     39  C   LIG    1       22.887 -20.364   5.937  0.00  0.00    +0.003 A 
ENDBRANCH  33  34
ENDBRANCH  32  33
ENDBRANCH  29  32
ENDBRANCH  28  29
ENDBRANCH  27  28
ENDBRANCH   5  27
TORSDOF 22
ENDMDL
