MODEL 1
REMARK VINA RESULT:      -5.0      0.000      0.000
REMARK  Name = *****
REMARK                            x       y       z     vdW  Elec       q    Type
REMARK                         _______ _______ _______ _____ _____    ______ ____
ROOT
ATOM      1  CA  MET A  1       31.209 -20.490   8.402  0.00  0.00    +0.161 C 
ENDROOT
BRANCH   1   2
ATOM      2  N   MET A  1       31.931 -19.434   9.189  0.00  0.00    -0.318 NA
ATOM      3  H1  MET A  1       32.769 -19.869   9.591  0.00  0.00    +0.119 HD
ATOM      4  H2  MET A  1       32.311 -18.737   8.538  0.00  0.00    +0.119 HD
ENDBRANCH   1   2
BRANCH   1   5
ATOM      5  C   MET A  1       31.328 -21.824   9.173  0.00  0.00    +0.322 C 
ATOM      6  O   MET A  1       30.724 -22.107  10.188  0.00  0.00    -0.249 OA
BRANCH   5   7
ATOM      7  OXT MET A  1       32.181 -22.682   8.554  0.00  0.00    -0.479 OA
ATOM      8  HXT MET A  1       32.642 -22.150   7.861  0.00  0.00    +0.295 HD
ENDBRANCH   5   7
ENDBRANCH   1   5
BRANCH   1   9
ATOM      9  CB  MET A  1       29.754 -20.060   8.153  0.00  0.00    +0.040 C 
BRANCH   9  10
ATOM     10  CG  MET A  1       29.029 -20.917   7.106  0.00  0.00    +0.071 C 
BRANCH  10  12
ATOM     11  CE  MET A  1       29.443 -18.533   5.768  0.00  0.00    +0.084 C 
ATOM     12  SD  MET A  1       28.207 -19.859   5.866  0.00  0.00    -0.164 S 
ENDBRANCH  10  12
ENDBRANCH   9  10
ENDBRANCH   1   9
TORSDOF 6
ENDMDL
MODEL 2
REMARK VINA RESULT:      -4.8      2.817      3.143
REMARK  Name = *****
REMARK                            x       y       z     vdW  Elec       q    Type
REMARK                         _______ _______ _______ _____ _____    ______ ____
ROOT
ATOM      1  CA  MET A  1       31.263 -19.345   8.761  0.00  0.00    +0.161 C 
ENDROOT
BRANCH   1   2
ATOM      2  N   MET A  1       32.054 -20.531   9.232  0.00  0.00    -0.318 NA
ATOM      3  H1  MET A  1       32.727 -20.195   9.929  0.00  0.00    +0.119 HD
ATOM      4  H2  MET A  1       31.437 -21.149   9.772  0.00  0.00    +0.119 HD
ENDBRANCH   1   2
BRANCH   1   5
ATOM      5  C   MET A  1       31.944 -18.070   9.306  0.00  0.00    +0.322 C 
ATOM      6  O   MET A  1       32.219 -17.862  10.470  0.00  0.00    -0.249 OA
BRANCH   5   7
ATOM      7  OXT MET A  1       32.240 -17.198   8.307  0.00  0.00    -0.479 OA
ATOM      8  HXT MET A  1       32.436 -16.337   8.750  0.00  0.00    +0.295 HD
ENDBRANCH   5   7
ENDBRANCH   1   5
BRANCH   1   9
ATOM      9  CB  MET A  1       31.148 -19.364   7.227  0.00  0.00    +0.040 C 
BRANCH   9  10
ATOM     10  CG  MET A  1       29.700 -19.373   6.719  0.00  0.00    +0.071 C 
BRANCH  10  12
ATOM     11  CE  MET A  1       27.337 -20.325   7.794  0.00  0.00    +0.084 C 
ATOM     12  SD  MET A  1       28.891 -20.964   7.108  0.00  0.00    -0.164 S 
ENDBRANCH  10  12
ENDBRANCH   9  10
ENDBRANCH   1   9
TORSDOF 6
ENDMDL
MODEL 3
REMARK VINA RESULT:      -4.8      2.526      3.082
REMARK  Name = *****
REMARK                            x       y       z     vdW  Elec       q    Type
REMARK                         _______ _______ _______ _____ _____    ______ ____
ROOT
ATOM      1  CA  MET A  1       30.303 -20.627   8.298  0.00  0.00    +0.161 C 
ENDROOT
BRANCH   1   2
ATOM      2  N   MET A  1       29.534 -21.338   7.222  0.00  0.00    -0.318 NA
ATOM      3  H1  MET A  1       29.375 -22.300   7.542  0.00  0.00    +0.119 HD
ATOM      4  H2  MET A  1       28.589 -20.942   7.172  0.00  0.00    +0.119 HD
ENDBRANCH   1   2
BRANCH   1   5
ATOM      5  C   MET A  1       31.082 -21.687   9.108  0.00  0.00    +0.322 C 
ATOM      6  O   MET A  1       30.766 -22.108  10.203  0.00  0.00    -0.249 OA
BRANCH   5   7
ATOM      7  OXT MET A  1       32.170 -22.133   8.428  0.00  0.00    -0.479 OA
ATOM      8  HXT MET A  1       32.447 -22.967   8.879  0.00  0.00    +0.295 HD
ENDBRANCH   5   7
ENDBRANCH   1   5
BRANCH   1   9
ATOM      9  CB  MET A  1       31.209 -19.551   7.676  0.00  0.00    +0.040 C 
BRANCH   9  10
ATOM     10  CG  MET A  1       31.720 -18.516   8.687  0.00  0.00    +0.071 C 
BRANCH  10  12
ATOM     11  CE  MET A  1       30.696 -17.650  11.105  0.00  0.00    +0.084 C 
ATOM     12  SD  MET A  1       30.339 -17.510   9.331  0.00  0.00    -0.164 S 
ENDBRANCH  10  12
ENDBRANCH   9  10
ENDBRANCH   1   9
TORSDOF 6
ENDMDL
MODEL 4
REMARK VINA RESULT:      -4.6      3.313      3.765
REMARK  Name = *****
REMARK                            x       y       z     vdW  Elec       q    Type
REMARK                         _______ _______ _______ _____ _____    ______ ____
ROOT
ATOM      1  CA  MET A  1       30.987 -19.661   8.352  0.00  0.00    +0.161 C 
ENDROOT
BRANCH   1   2
ATOM      2  N   MET A  1       31.613 -19.689   6.988  0.00  0.00    -0.318 NA
ATOM      3  H1  MET A  1       32.184 -18.842   6.894  0.00  0.00    +0.119 HD
ATOM      4  H2  MET A  1       32.301 -20.449   6.954  0.00  0.00    +0.119 HD
ENDBRANCH   1   2
BRANCH   1   5
ATOM      5  C   MET A  1       31.190 -21.049   8.999  0.00  0.00    +0.322 C 
ATOM      6  O   MET A  1       32.239 -21.473   9.440  0.00  0.00    -0.249 OA
BRANCH   5   7
ATOM      7  OXT MET A  1       30.026 -21.748   9.053  0.00  0.00    -0.479 OA
ATOM      8  HXT MET A  1       29.457 -21.274   9.708  0.00  0.00    +0.295 HD
ENDBRANCH   5   7
ENDBRANCH   1   5
BRANCH   1   9
ATOM      9  CB  MET A  1       31.582 -18.510   9.181  0.00  0.00    +0.040 C 
BRANCH   9  10
ATOM     10  CG  MET A  1       30.528 -17.671   9.916  0.00  0.00    +0.071 C 
BRANCH  10  12
ATOM     11  CE  MET A  1       32.686 -15.958  10.149  0.00  0.00    +0.084 C 
ATOM     12  SD  MET A  1       31.317 -16.591  11.159  0.00  0.00    -0.164 S 
ENDBRANCH  10  12
ENDBRANCH   9  10
ENDBRANCH   1   9
TORSDOF 6
ENDMDL
MODEL 5
REMARK VINA RESULT:      -4.6      3.223      3.978
REMARK  Name = *****
REMARK                            x       y       z     vdW  Elec       q    Type
REMARK                         _______ _______ _______ _____ _____    ______ ____
ROOT
ATOM      1  CA  MET A  1       31.594 -17.736   9.221  0.00  0.00    +0.161 C 
ENDROOT
BRANCH   1   2
ATOM      2  N   MET A  1       32.346 -16.495   8.836  0.00  0.00    -0.318 NA
ATOM      3  H1  MET A  1       31.661 -15.739   8.733  0.00  0.00    +0.119 HD
ATOM      4  H2  MET A  1       32.919 -16.193   9.633  0.00  0.00    +0.119 HD
ENDBRANCH   1   2
BRANCH   1   5
ATOM      5  C   MET A  1       30.834 -17.446  10.535  0.00  0.00    +0.322 C 
ATOM      6  O   MET A  1       30.347 -16.378  10.845  0.00  0.00    -0.249 OA
BRANCH   5   7
ATOM      7  OXT MET A  1       30.739 -18.558  11.310  0.00  0.00    -0.479 OA
ATOM      8  HXT MET A  1       30.727 -19.322  10.684  0.00  0.00    +0.295 HD
ENDBRANCH   5   7
ENDBRANCH   1   5
BRANCH   1   9
ATOM      9  CB  MET A  1       30.672 -18.171   8.070  0.00  0.00    +0.040 C 
BRANCH   9  10
ATOM     10  CG  MET A  1       31.073 -19.508   7.432  0.00  0.00    +0.071 C 
BRANCH  10  12
ATOM     11  CE  MET A  1       31.175 -21.717   9.093  0.00  0.00    +0.084 C 
ATOM     12  SD  MET A  1       29.989 -20.854   8.022  0.00  0.00    -0.164 S 
ENDBRANCH  10  12
ENDBRANCH   9  10
ENDBRANCH   1   9
TORSDOF 6
ENDMDL
MODEL 6
REMARK VINA RESULT:      -4.6      4.300      4.860
REMARK  Name = *****
REMARK                            x       y       z     vdW  Elec       q    Type
REMARK                         _______ _______ _______ _____ _____    ______ ____
ROOT
ATOM      1  CA  MET A  1       31.402 -18.417   8.763  0.00  0.00    +0.161 C 
ENDROOT
BRANCH   1   2
ATOM      2  N   MET A  1       31.969 -19.640   9.424  0.00  0.00    -0.318 NA
ATOM      3  H1  MET A  1       32.234 -19.378  10.380  0.00  0.00    +0.119 HD
ATOM      4  H2  MET A  1       31.216 -20.323   9.561  0.00  0.00    +0.119 HD
ENDBRANCH   1   2
BRANCH   1   5
ATOM      5  C   MET A  1       30.929 -18.815   7.348  0.00  0.00    +0.322 C 
ATOM      6  O   MET A  1       30.073 -18.242   6.704  0.00  0.00    -0.249 OA
BRANCH   5   7
ATOM      7  OXT MET A  1       31.619 -19.886   6.875  0.00  0.00    -0.479 OA
ATOM      8  HXT MET A  1       31.850 -20.429   7.668  0.00  0.00    +0.295 HD
ENDBRANCH   5   7
ENDBRANCH   1   5
BRANCH   1   9
ATOM      9  CB  MET A  1       30.283 -17.819   9.632  0.00  0.00    +0.040 C 
BRANCH   9  10
ATOM     10  CG  MET A  1       30.701 -17.569  11.088  0.00  0.00    +0.071 C 
BRANCH  10  12
ATOM     11  CE  MET A  1       32.024 -15.994  12.935  0.00  0.00    +0.084 C 
ATOM     12  SD  MET A  1       32.092 -16.389  11.165  0.00  0.00    -0.164 S 
ENDBRANCH  10  12
ENDBRANCH   9  10
ENDBRANCH   1   9
TORSDOF 6
ENDMDL
MODEL 7
REMARK VINA RESULT:      -4.5      2.742      3.218
REMARK  Name = *****
REMARK                            x       y       z     vdW  Elec       q    Type
REMARK                         _______ _______ _______ _____ _____    ______ ____
ROOT
ATOM      1  CA  MET A  1       30.877 -19.441   7.095  0.00  0.00    +0.161 C 
ENDROOT
BRANCH   1   2
ATOM      2  N   MET A  1       30.216 -18.386   6.255  0.00  0.00    -0.318 NA
ATOM      3  H1  MET A  1       29.244 -18.678   6.103  0.00  0.00    +0.119 HD
ATOM      4  H2  MET A  1       30.126 -17.527   6.810  0.00  0.00    +0.119 HD
ENDBRANCH   1   2
BRANCH   1   5
ATOM      5  C   MET A  1       31.686 -18.731   8.203  0.00  0.00    +0.322 C 
ATOM      6  O   MET A  1       31.952 -17.546   8.231  0.00  0.00    -0.249 OA
BRANCH   5   7
ATOM      7  OXT MET A  1       32.049 -19.596   9.186  0.00  0.00    -0.479 OA
ATOM      8  HXT MET A  1       32.121 -20.481   8.752  0.00  0.00    +0.295 HD
ENDBRANCH   5   7
ENDBRANCH   1   5
BRANCH   1   9
ATOM      9  CB  MET A  1       29.821 -20.415   7.644  0.00  0.00    +0.040 C 
BRANCH   9  10
ATOM     10  CG  MET A  1       28.651 -20.660   6.682  0.00  0.00    +0.071 C 
BRANCH  10  12
ATOM     11  CE  MET A  1       26.571 -22.338   7.394  0.00  0.00    +0.084 C 
ATOM     12  SD  MET A  1       27.059 -20.599   7.575  0.00  0.00    -0.164 S 
ENDBRANCH  10  12
ENDBRANCH   9  10
ENDBRANCH   1   9
TORSDOF 6
ENDMDL
MODEL 8
REMARK VINA RESULT:      -4.5      3.705      4.340
REMARK  Name = *****
REMARK                            x       y       z     vdW  Elec       q    Type
REMARK                         _______ _______ _______ _____ _____    ______ ____
ROOT
ATOM      1  CA  MET A  1       30.680 -17.154   9.716  0.00  0.00    +0.161 C 
ENDROOT
BRANCH   1   2
ATOM      2  N   MET A  1       30.270 -17.882  10.963  0.00  0.00    -0.318 NA
ATOM      3  H1  MET A  1       30.766 -17.448  11.749  0.00  0.00    +0.119 HD
ATOM      4  H2  MET A  1       29.283 -17.677  11.158  0.00  0.00    +0.119 HD
ENDBRANCH   1   2
BRANCH   1   5
ATOM      5  C   MET A  1       32.186 -16.826   9.828  0.00  0.00    +0.322 C 
ATOM      6  O   MET A  1       32.932 -17.233  10.694  0.00  0.00    -0.249 OA
BRANCH   5   7
ATOM      7  OXT MET A  1       32.600 -16.036   8.802  0.00  0.00    -0.479 OA
ATOM      8  HXT MET A  1       32.474 -16.573   7.981  0.00  0.00    +0.295 HD
ENDBRANCH   5   7
ENDBRANCH   1   5
BRANCH   1   9
ATOM      9  CB  MET A  1       30.332 -17.995   8.476  0.00  0.00    +0.040 C 
BRANCH   9  10
ATOM     10  CG  MET A  1       31.220 -19.236   8.305  0.00  0.00    +0.071 C 
BRANCH  10  12
ATOM     11  CE  MET A  1       31.109 -21.867   9.147  0.00  0.00    +0.084 C 
ATOM     12  SD  MET A  1       30.199 -20.730   8.063  0.00  0.00    -0.164 S 
ENDBRANCH  10  12
ENDBRANCH   9  10
ENDBRANCH   1   9
TORSDOF 6
ENDMDL
MODEL 9
REMARK VINA RESULT:      -4.5      2.338      2.709
REMARK  Name = *****
REMARK                            x       y       z     vdW  Elec       q    Type
REMARK                         _______ _______ _______ _____ _____    ______ ____
ROOT
ATOM      1  CA  MET A  1       30.843 -20.992   8.875  0.00  0.00    +0.161 C 
ENDROOT
BRANCH   1   2
ATOM      2  N   MET A  1       31.818 -22.132   8.803  0.00  0.00    -0.318 NA
ATOM      3  H1  MET A  1       32.732 -21.774   9.098  0.00  0.00    +0.119 HD
ATOM      4  H2  MET A  1       31.581 -22.817   9.529  0.00  0.00    +0.119 HD
ENDBRANCH   1   2
BRANCH   1   5
ATOM      5  C   MET A  1       31.621 -19.682   8.614  0.00  0.00    +0.322 C 
ATOM      6  O   MET A  1       31.978 -18.894   9.466  0.00  0.00    -0.249 OA
BRANCH   5   7
ATOM      7  OXT MET A  1       31.898 -19.523   7.293  0.00  0.00    -0.479 OA
ATOM      8  HXT MET A  1       32.254 -18.606   7.202  0.00  0.00    +0.295 HD
ENDBRANCH   5   7
ENDBRANCH   1   5
BRANCH   1   9
ATOM      9  CB  MET A  1       29.689 -21.221   7.885  0.00  0.00    +0.040 C 
BRANCH   9  10
ATOM     10  CG  MET A  1       28.684 -20.061   7.832  0.00  0.00    +0.071 C 
BRANCH  10  12
ATOM     11  CE  MET A  1       26.053 -20.615   8.476  0.00  0.00    +0.084 C 
ATOM     12  SD  MET A  1       27.136 -20.588   7.020  0.00  0.00    -0.164 S 
ENDBRANCH  10  12
ENDBRANCH   9  10
ENDBRANCH   1   9
TORSDOF 6
ENDMDL
