MODEL 1
REMARK VINA RESULT:      -7.6      0.000      0.000
REMARK  Name = *****
REMARK                            x       y       z     vdW  Elec       q    Type
REMARK                         _______ _______ _______ _____ _____    ______ ____
ROOT
ATOM      1  C   LIG    1       24.527 -24.960   6.412  0.00  0.00    -0.007 A 
ATOM      2  C   LIG    1       25.781 -24.357   6.585  0.00  0.00    +0.122 A 
ATOM      3  N   LIG    1       25.961 -23.048   6.903  0.00  0.00    -0.221 NA
ATOM      4  C   LIG    1       24.870 -22.282   7.117  0.00  0.00    +0.215 A 
ATOM      5  C   LIG    1       23.588 -22.809   7.005  0.00  0.00    +0.068 A 
ATOM      6  C   LIG    1       23.427 -24.137   6.646  0.00  0.00    +0.015 A 
ENDROOT
BRANCH   1   8
ATOM      7  C   LIG    1       24.796 -27.370   6.938  0.00  0.00    +0.008 C 
ATOM      8  C   LIG    1       24.373 -26.387   6.117  0.00  0.00    +0.010 C 
BRANCH   7  12
ATOM      9  C   LIG    1       24.996 -31.569   6.162  0.00  0.00    +0.027 A 
ATOM     10  C   LIG    1       24.420 -31.067   7.334  0.00  0.00    +0.023 A 
ATOM     11  C   LIG    1       24.341 -29.695   7.573  0.00  0.00    +0.009 A 
ATOM     12  C   LIG    1       24.782 -28.786   6.602  0.00  0.00    -0.025 A 
ATOM     13  C   LIG    1       25.300 -29.274   5.401  0.00  0.00    +0.009 A 
ATOM     14  C   LIG    1       25.386 -30.648   5.179  0.00  0.00    +0.023 A 
BRANCH   9  16
ATOM     15  C   LIG    1       25.260 -33.415   4.612  0.00  0.00    +0.125 C 
ATOM     16  N   LIG    1       25.060 -32.956   5.978  0.00  0.00    -0.347 N 
ATOM     17  H   LIG    1       25.736 -33.372   6.614  0.00  0.00    +0.146 HD
ENDBRANCH   9  16
ENDBRANCH   7  12
ENDBRANCH   1   8
BRANCH   4  18
ATOM     18  O   LIG    1       25.159 -20.988   7.441  0.00  0.00    -0.474 OA
BRANCH  18  19
ATOM     19  C   LIG    1       26.195 -20.730   8.392  0.00  0.00    +0.259 C 
BRANCH  19  20
ATOM     20  C   LIG    1       27.503 -20.354   7.687  0.00  0.00    +0.201 C 
BRANCH  20  21
ATOM     21  O   LIG    1       28.670 -20.689   8.437  0.00  0.00    -0.374 OA
BRANCH  21  22
ATOM     22  C   LIG    1       29.865 -20.062   7.971  0.00  0.00    +0.188 C 
BRANCH  22  23
ATOM     23  C   LIG    1       31.055 -20.730   8.642  0.00  0.00    +0.188 C 
BRANCH  23  24
ATOM     24  O   LIG    1       31.956 -19.738   9.147  0.00  0.00    -0.375 OA
BRANCH  24  25
ATOM     25  C   LIG    1       31.336 -18.455   9.113  0.00  0.00    +0.193 C 
BRANCH  25  26
ATOM     26  C   LIG    1       31.619 -17.693  10.391  0.00  0.00    +0.241 C 
ATOM     27  F   LIG    1       30.551 -17.819  11.223  0.00  0.00    -0.247 F 
ENDBRANCH  25  26
ENDBRANCH  24  25
ENDBRANCH  23  24
ENDBRANCH  22  23
ENDBRANCH  21  22
ENDBRANCH  20  21
ENDBRANCH  19  20
ENDBRANCH  18  19
ENDBRANCH   4  18
TORSDOF 12
ENDMDL
MODEL 2
REMARK VINA RESULT:      -7.6      4.402     10.822
REMARK  Name = *****
REMARK                            x       y       z     vdW  Elec       q    Type
REMARK                         _______ _______ _______ _____ _____    ______ ____
ROOT
ATOM      1  C   LIG    1       26.308 -21.230   7.810  0.00  0.00    -0.007 A 
ATOM      2  C   LIG    1       26.541 -22.609   7.699  0.00  0.00    +0.122 A 
ATOM      3  N   LIG    1       25.602 -23.511   7.308  0.00  0.00    -0.221 NA
ATOM      4  C   LIG    1       24.380 -23.058   6.956  0.00  0.00    +0.215 A 
ATOM      5  C   LIG    1       24.076 -21.702   7.000  0.00  0.00    +0.068 A 
ATOM      6  C   LIG    1       25.036 -20.803   7.433  0.00  0.00    +0.015 A 
ENDROOT
BRANCH   1   8
ATOM      7  C   LIG    1       28.569 -20.231   7.593  0.00  0.00    +0.008 C 
ATOM      8  C   LIG    1       27.359 -20.282   8.188  0.00  0.00    +0.010 C 
BRANCH   7  12
ATOM      9  C   LIG    1       31.665 -17.531   8.775  0.00  0.00    +0.027 A 
ATOM     10  C   LIG    1       30.419 -17.540   9.411  0.00  0.00    +0.023 A 
ATOM     11  C   LIG    1       29.419 -18.437   9.033  0.00  0.00    +0.009 A 
ATOM     12  C   LIG    1       29.672 -19.397   8.044  0.00  0.00    -0.025 A 
ATOM     13  C   LIG    1       30.934 -19.440   7.447  0.00  0.00    +0.009 A 
ATOM     14  C   LIG    1       31.922 -18.530   7.824  0.00  0.00    +0.023 A 
BRANCH   9  16
ATOM     15  C   LIG    1       32.446 -16.025  10.508  0.00  0.00    +0.125 C 
ATOM     16  N   LIG    1       32.630 -16.603   9.186  0.00  0.00    -0.347 N 
ATOM     17  H   LIG    1       33.567 -16.984   9.072  0.00  0.00    +0.146 HD
ENDBRANCH   9  16
ENDBRANCH   7  12
ENDBRANCH   1   8
BRANCH   4  18
ATOM     18  O   LIG    1       23.517 -24.043   6.569  0.00  0.00    -0.474 OA
BRANCH  18  19
ATOM     19  C   LIG    1       24.039 -25.340   6.270  0.00  0.00    +0.259 C 
BRANCH  19  20
ATOM     20  C   LIG    1       24.787 -25.334   4.934  0.00  0.00    +0.201 C 
BRANCH  20  21
ATOM     21  O   LIG    1       25.507 -26.539   4.680  0.00  0.00    -0.374 OA
BRANCH  21  22
ATOM     22  C   LIG    1       25.391 -27.520   5.711  0.00  0.00    +0.188 C 
BRANCH  22  23
ATOM     23  C   LIG    1       24.624 -28.712   5.162  0.00  0.00    +0.188 C 
BRANCH  23  24
ATOM     24  O   LIG    1       23.847 -29.319   6.200  0.00  0.00    -0.375 OA
BRANCH  24  25
ATOM     25  C   LIG    1       24.517 -29.184   7.451  0.00  0.00    +0.193 C 
BRANCH  25  26
ATOM     26  C   LIG    1       24.166 -30.337   8.369  0.00  0.00    +0.241 C 
ATOM     27  F   LIG    1       23.194 -29.931   9.229  0.00  0.00    -0.247 F 
ENDBRANCH  25  26
ENDBRANCH  24  25
ENDBRANCH  23  24
ENDBRANCH  22  23
ENDBRANCH  21  22
ENDBRANCH  20  21
ENDBRANCH  19  20
ENDBRANCH  18  19
ENDBRANCH   4  18
TORSDOF 12
ENDMDL
MODEL 3
REMARK VINA RESULT:      -7.3      4.746     11.345
REMARK  Name = *****
REMARK                            x       y       z     vdW  Elec       q    Type
REMARK                         _______ _______ _______ _____ _____    ______ ____
ROOT
ATOM      1  C   LIG    1       26.996 -20.907   6.854  0.00  0.00    -0.007 A 
ATOM      2  C   LIG    1       25.978 -20.657   5.923  0.00  0.00    +0.122 A 
ATOM      3  N   LIG    1       25.010 -21.552   5.592  0.00  0.00    -0.221 NA
ATOM      4  C   LIG    1       24.989 -22.742   6.229  0.00  0.00    +0.215 A 
ATOM      5  C   LIG    1       25.938 -23.058   7.194  0.00  0.00    +0.068 A 
ATOM      6  C   LIG    1       26.935 -22.145   7.492  0.00  0.00    +0.015 A 
ENDROOT
BRANCH   1   8
ATOM      7  C   LIG    1       29.189 -20.195   7.772  0.00  0.00    +0.008 C 
ATOM      8  C   LIG    1       27.994 -19.899   7.222  0.00  0.00    +0.010 C 
BRANCH   7  12
ATOM      9  C   LIG    1       31.802 -17.069   9.067  0.00  0.00    +0.027 A 
ATOM     10  C   LIG    1       30.497 -17.185   9.559  0.00  0.00    +0.023 A 
ATOM     11  C   LIG    1       29.656 -18.219   9.147  0.00  0.00    +0.009 A 
ATOM     12  C   LIG    1       30.131 -19.206   8.274  0.00  0.00    -0.025 A 
ATOM     13  C   LIG    1       31.451 -19.137   7.826  0.00  0.00    +0.009 A 
ATOM     14  C   LIG    1       32.280 -18.092   8.234  0.00  0.00    +0.023 A 
BRANCH   9  16
ATOM     15  C   LIG    1       32.856 -15.940  10.936  0.00  0.00    +0.125 C 
ATOM     16  N   LIG    1       32.601 -16.006   9.505  0.00  0.00    -0.347 N 
ATOM     17  H   LIG    1       33.465 -15.961   8.969  0.00  0.00    +0.146 HD
ENDBRANCH   9  16
ENDBRANCH   7  12
ENDBRANCH   1   8
BRANCH   4  18
ATOM     18  O   LIG    1       23.972 -23.562   5.832  0.00  0.00    -0.474 OA
BRANCH  18  19
ATOM     19  C   LIG    1       23.801 -24.820   6.490  0.00  0.00    +0.259 C 
BRANCH  19  20
ATOM     20  C   LIG    1       24.317 -25.968   5.617  0.00  0.00    +0.201 C 
BRANCH  20  21
ATOM     21  O   LIG    1       25.402 -26.685   6.203  0.00  0.00    -0.374 OA
BRANCH  21  22
ATOM     22  C   LIG    1       25.059 -27.992   6.665  0.00  0.00    +0.188 C 
BRANCH  22  23
ATOM     23  C   LIG    1       24.110 -28.627   5.661  0.00  0.00    +0.188 C 
BRANCH  23  24
ATOM     24  O   LIG    1       23.777 -29.958   6.071  0.00  0.00    -0.375 OA
BRANCH  24  25
ATOM     25  C   LIG    1       24.930 -30.606   6.601  0.00  0.00    +0.193 C 
BRANCH  25  26
ATOM     26  C   LIG    1       25.617 -31.428   5.530  0.00  0.00    +0.241 C 
ATOM     27  F   LIG    1       24.706 -32.267   4.968  0.00  0.00    -0.247 F 
ENDBRANCH  25  26
ENDBRANCH  24  25
ENDBRANCH  23  24
ENDBRANCH  22  23
ENDBRANCH  21  22
ENDBRANCH  20  21
ENDBRANCH  19  20
ENDBRANCH  18  19
ENDBRANCH   4  18
TORSDOF 12
ENDMDL
MODEL 4
REMARK VINA RESULT:      -7.2      1.556      1.773
REMARK  Name = *****
REMARK                            x       y       z     vdW  Elec       q    Type
REMARK                         _______ _______ _______ _____ _____    ______ ____
ROOT
ATOM      1  C   LIG    1       24.544 -25.187   6.412  0.00  0.00    -0.007 A 
ATOM      2  C   LIG    1       25.773 -24.600   6.744  0.00  0.00    +0.122 A 
ATOM      3  N   LIG    1       25.926 -23.293   7.089  0.00  0.00    -0.221 NA
ATOM      4  C   LIG    1       24.825 -22.516   7.169  0.00  0.00    +0.215 A 
ATOM      5  C   LIG    1       23.562 -23.026   6.894  0.00  0.00    +0.068 A 
ATOM      6  C   LIG    1       23.433 -24.351   6.510  0.00  0.00    +0.015 A 
ENDROOT
BRANCH   1   8
ATOM      7  C   LIG    1       24.736 -27.602   6.946  0.00  0.00    +0.008 C 
ATOM      8  C   LIG    1       24.412 -26.610   6.092  0.00  0.00    +0.010 C 
BRANCH   7  12
ATOM      9  C   LIG    1       25.002 -31.794   6.153  0.00  0.00    +0.027 A 
ATOM     10  C   LIG    1       24.370 -31.304   7.301  0.00  0.00    +0.023 A 
ATOM     11  C   LIG    1       24.270 -29.934   7.544  0.00  0.00    +0.009 A 
ATOM     12  C   LIG    1       24.748 -29.015   6.600  0.00  0.00    -0.025 A 
ATOM     13  C   LIG    1       25.324 -29.492   5.421  0.00  0.00    +0.009 A 
ATOM     14  C   LIG    1       25.430 -30.863   5.194  0.00  0.00    +0.023 A 
BRANCH   9  16
ATOM     15  C   LIG    1       25.054 -33.642   4.584  0.00  0.00    +0.125 C 
ATOM     16  N   LIG    1       25.085 -33.179   5.962  0.00  0.00    -0.347 N 
ATOM     17  H   LIG    1       25.880 -33.564   6.468  0.00  0.00    +0.146 HD
ENDBRANCH   9  16
ENDBRANCH   7  12
ENDBRANCH   1   8
BRANCH   4  18
ATOM     18  O   LIG    1       25.087 -21.226   7.535  0.00  0.00    -0.474 OA
BRANCH  18  19
ATOM     19  C   LIG    1       26.394 -20.695   7.305  0.00  0.00    +0.259 C 
BRANCH  19  20
ATOM     20  C   LIG    1       26.559 -20.262   5.846  0.00  0.00    +0.201 C 
BRANCH  20  21
ATOM     21  O   LIG    1       27.862 -19.766   5.543  0.00  0.00    -0.374 OA
BRANCH  21  22
ATOM     22  C   LIG    1       28.918 -20.431   6.238  0.00  0.00    +0.188 C 
BRANCH  22  23
ATOM     23  C   LIG    1       29.868 -19.381   6.795  0.00  0.00    +0.188 C 
BRANCH  23  24
ATOM     24  O   LIG    1       30.358 -19.791   8.076  0.00  0.00    -0.375 OA
BRANCH  24  25
ATOM     25  C   LIG    1       30.021 -21.155   8.313  0.00  0.00    +0.193 C 
BRANCH  25  26
ATOM     26  C   LIG    1       31.152 -21.865   9.028  0.00  0.00    +0.241 C 
ATOM     27  F   LIG    1       30.681 -22.371  10.199  0.00  0.00    -0.247 F 
ENDBRANCH  25  26
ENDBRANCH  24  25
ENDBRANCH  23  24
ENDBRANCH  22  23
ENDBRANCH  21  22
ENDBRANCH  20  21
ENDBRANCH  19  20
ENDBRANCH  18  19
ENDBRANCH   4  18
TORSDOF 12
ENDMDL
MODEL 5
REMARK VINA RESULT:      -7.0      4.843      9.696
REMARK  Name = *****
REMARK                            x       y       z     vdW  Elec       q    Type
REMARK                         _______ _______ _______ _____ _____    ______ ____
ROOT
ATOM      1  C   LIG    1       24.752 -28.664   6.472  0.00  0.00    -0.007 A 
ATOM      2  C   LIG    1       24.084 -29.656   7.203  0.00  0.00    +0.122 A 
ATOM      3  N   LIG    1       24.081 -30.975   6.872  0.00  0.00    -0.221 NA
ATOM      4  C   LIG    1       24.804 -31.372   5.804  0.00  0.00    +0.215 A 
ATOM      5  C   LIG    1       25.528 -30.460   5.046  0.00  0.00    +0.068 A 
ATOM      6  C   LIG    1       25.490 -29.116   5.379  0.00  0.00    +0.015 A 
ENDROOT
BRANCH   1   8
ATOM      7  C   LIG    1       24.220 -26.259   6.170  0.00  0.00    +0.008 C 
ATOM      8  C   LIG    1       24.772 -27.258   6.887  0.00  0.00    +0.010 C 
BRANCH   7  12
ATOM      9  C   LIG    1       24.667 -22.195   7.420  0.00  0.00    +0.027 A 
ATOM     10  C   LIG    1       25.772 -23.038   7.255  0.00  0.00    +0.023 A 
ATOM     11  C   LIG    1       25.621 -24.357   6.829  0.00  0.00    +0.009 A 
ATOM     12  C   LIG    1       24.352 -24.846   6.491  0.00  0.00    -0.025 A 
ATOM     13  C   LIG    1       23.249 -23.996   6.590  0.00  0.00    +0.009 A 
ATOM     14  C   LIG    1       23.410 -22.682   7.029  0.00  0.00    +0.023 A 
BRANCH   9  16
ATOM     15  C   LIG    1       26.245 -20.399   7.827  0.00  0.00    +0.125 C 
ATOM     16  N   LIG    1       24.873 -20.882   7.861  0.00  0.00    -0.347 N 
ATOM     17  H   LIG    1       24.240 -20.241   7.389  0.00  0.00    +0.146 HD
ENDBRANCH   9  16
ENDBRANCH   7  12
ENDBRANCH   1   8
BRANCH   4  18
ATOM     18  O   LIG    1       24.744 -32.716   5.566  0.00  0.00    -0.474 OA
BRANCH  18  19
ATOM     19  C   LIG    1       25.197 -33.617   6.578  0.00  0.00    +0.259 C 
BRANCH  19  20
ATOM     20  C   LIG    1       26.717 -33.532   6.745  0.00  0.00    +0.201 C 
BRANCH  20  21
ATOM     21  O   LIG    1       27.125 -32.676   7.812  0.00  0.00    -0.374 OA
BRANCH  21  22
ATOM     22  C   LIG    1       26.436 -32.904   9.042  0.00  0.00    +0.188 C 
BRANCH  22  23
ATOM     23  C   LIG    1       26.175 -31.562   9.707  0.00  0.00    +0.188 C 
BRANCH  23  24
ATOM     24  O   LIG    1       27.337 -30.731   9.612  0.00  0.00    -0.375 OA
BRANCH  24  25
ATOM     25  C   LIG    1       27.368 -29.811  10.700  0.00  0.00    +0.193 C 
BRANCH  25  26
ATOM     26  C   LIG    1       26.640 -28.533  10.337  0.00  0.00    +0.241 C 
ATOM     27  F   LIG    1       26.916 -28.224   9.041  0.00  0.00    -0.247 F 
ENDBRANCH  25  26
ENDBRANCH  24  25
ENDBRANCH  23  24
ENDBRANCH  22  23
ENDBRANCH  21  22
ENDBRANCH  20  21
ENDBRANCH  19  20
ENDBRANCH  18  19
ENDBRANCH   4  18
TORSDOF 12
ENDMDL
MODEL 6
REMARK VINA RESULT:      -6.9      5.328      9.629
REMARK  Name = *****
REMARK                            x       y       z     vdW  Elec       q    Type
REMARK                         _______ _______ _______ _____ _____    ______ ____
ROOT
ATOM      1  C   LIG    1       24.762 -28.203   6.215  0.00  0.00    -0.007 A 
ATOM      2  C   LIG    1       25.189 -28.937   5.099  0.00  0.00    +0.122 A 
ATOM      3  N   LIG    1       25.479 -30.265   5.125  0.00  0.00    -0.221 NA
ATOM      4  C   LIG    1       25.301 -30.940   6.281  0.00  0.00    +0.215 A 
ATOM      5  C   LIG    1       24.844 -30.298   7.426  0.00  0.00    +0.068 A 
ATOM      6  C   LIG    1       24.587 -28.938   7.387  0.00  0.00    +0.015 A 
ENDROOT
BRANCH   1   8
ATOM      7  C   LIG    1       25.172 -25.795   6.652  0.00  0.00    +0.008 C 
ATOM      8  C   LIG    1       24.411 -26.782   6.137  0.00  0.00    +0.010 C 
BRANCH   7  12
ATOM      9  C   LIG    1       23.906 -21.715   6.517  0.00  0.00    +0.027 A 
ATOM     10  C   LIG    1       22.987 -22.764   6.628  0.00  0.00    +0.023 A 
ATOM     11  C   LIG    1       23.408 -24.092   6.691  0.00  0.00    +0.009 A 
ATOM     12  C   LIG    1       24.776 -24.396   6.710  0.00  0.00    -0.025 A 
ATOM     13  C   LIG    1       25.703 -23.354   6.665  0.00  0.00    +0.009 A 
ATOM     14  C   LIG    1       25.271 -22.030   6.590  0.00  0.00    +0.023 A 
BRANCH   9  16
ATOM     15  C   LIG    1       22.580 -20.082   5.309  0.00  0.00    +0.125 C 
ATOM     16  N   LIG    1       23.429 -20.400   6.447  0.00  0.00    -0.347 N 
ATOM     17  H   LIG    1       22.993 -20.128   7.326  0.00  0.00    +0.146 HD
ENDBRANCH   9  16
ENDBRANCH   7  12
ENDBRANCH   1   8
BRANCH   4  18
ATOM     18  O   LIG    1       25.609 -32.268   6.197  0.00  0.00    -0.474 OA
BRANCH  18  19
ATOM     19  C   LIG    1       25.691 -33.035   7.400  0.00  0.00    +0.259 C 
BRANCH  19  20
ATOM     20  C   LIG    1       27.122 -33.043   7.947  0.00  0.00    +0.201 C 
BRANCH  20  21
ATOM     21  O   LIG    1       27.201 -32.736   9.338  0.00  0.00    -0.374 OA
BRANCH  21  22
ATOM     22  C   LIG    1       25.944 -32.760  10.016  0.00  0.00    +0.188 C 
BRANCH  22  23
ATOM     23  C   LIG    1       25.729 -31.411  10.686  0.00  0.00    +0.188 C 
BRANCH  23  24
ATOM     24  O   LIG    1       26.954 -30.670  10.705  0.00  0.00    -0.375 OA
BRANCH  24  25
ATOM     25  C   LIG    1       26.886 -29.643  11.690  0.00  0.00    +0.193 C 
BRANCH  25  26
ATOM     26  C   LIG    1       27.056 -28.280  11.050  0.00  0.00    +0.241 C 
ATOM     27  F   LIG    1       26.901 -28.406   9.704  0.00  0.00    -0.247 F 
ENDBRANCH  25  26
ENDBRANCH  24  25
ENDBRANCH  23  24
ENDBRANCH  22  23
ENDBRANCH  21  22
ENDBRANCH  20  21
ENDBRANCH  19  20
ENDBRANCH  18  19
ENDBRANCH   4  18
TORSDOF 12
ENDMDL
MODEL 7
REMARK VINA RESULT:      -6.8      5.531     10.044
REMARK  Name = *****
REMARK                            x       y       z     vdW  Elec       q    Type
REMARK                         _______ _______ _______ _____ _____    ______ ____
ROOT
ATOM      1  C   LIG    1       25.005 -25.875   6.232  0.00  0.00    -0.007 A 
ATOM      2  C   LIG    1       25.964 -26.283   7.170  0.00  0.00    +0.122 A 
ATOM      3  N   LIG    1       26.086 -27.556   7.632  0.00  0.00    -0.221 NA
ATOM      4  C   LIG    1       25.270 -28.505   7.126  0.00  0.00    +0.215 A 
ATOM      5  C   LIG    1       24.316 -28.196   6.164  0.00  0.00    +0.068 A 
ATOM      6  C   LIG    1       24.185 -26.886   5.732  0.00  0.00    +0.015 A 
ENDROOT
BRANCH   1   8
ATOM      7  C   LIG    1       24.321 -23.494   6.371  0.00  0.00    +0.008 C 
ATOM      8  C   LIG    1       24.936 -24.504   5.721  0.00  0.00    +0.010 C 
BRANCH   7  12
ATOM      9  C   LIG    1       23.540 -19.722   4.519  0.00  0.00    +0.027 A 
ATOM     10  C   LIG    1       22.574 -20.371   5.296  0.00  0.00    +0.023 A 
ATOM     11  C   LIG    1       22.842 -21.592   5.913  0.00  0.00    +0.009 A 
ATOM     12  C   LIG    1       24.118 -22.164   5.818  0.00  0.00    -0.025 A 
ATOM     13  C   LIG    1       25.109 -21.494   5.098  0.00  0.00    +0.009 A 
ATOM     14  C   LIG    1       24.826 -20.279   4.475  0.00  0.00    +0.023 A 
BRANCH   9  16
ATOM     15  C   LIG    1       22.166 -17.723   4.552  0.00  0.00    +0.125 C 
ATOM     16  N   LIG    1       23.215 -18.502   3.912  0.00  0.00    -0.347 N 
ATOM     17  H   LIG    1       24.052 -17.944   3.755  0.00  0.00    +0.146 HD
ENDBRANCH   9  16
ENDBRANCH   7  12
ENDBRANCH   1   8
BRANCH   4  18
ATOM     18  O   LIG    1       25.482 -29.750   7.647  0.00  0.00    -0.474 OA
BRANCH  18  19
ATOM     19  C   LIG    1       24.363 -30.618   7.839  0.00  0.00    +0.259 C 
BRANCH  19  20
ATOM     20  C   LIG    1       23.776 -30.452   9.244  0.00  0.00    +0.201 C 
BRANCH  20  21
ATOM     21  O   LIG    1       22.390 -30.781   9.325  0.00  0.00    -0.374 OA
BRANCH  21  22
ATOM     22  C   LIG    1       21.890 -30.889  10.658  0.00  0.00    +0.188 C 
BRANCH  22  23
ATOM     23  C   LIG    1       22.733 -30.005  11.564  0.00  0.00    +0.188 C 
BRANCH  23  24
ATOM     24  O   LIG    1       21.936 -28.937  12.089  0.00  0.00    -0.375 OA
BRANCH  24  25
ATOM     25  C   LIG    1       22.724 -28.119  12.950  0.00  0.00    +0.193 C 
BRANCH  25  26
ATOM     26  C   LIG    1       22.024 -26.803  13.220  0.00  0.00    +0.241 C 
ATOM     27  F   LIG    1       22.949 -25.806  13.221  0.00  0.00    -0.247 F 
ENDBRANCH  25  26
ENDBRANCH  24  25
ENDBRANCH  23  24
ENDBRANCH  22  23
ENDBRANCH  21  22
ENDBRANCH  20  21
ENDBRANCH  19  20
ENDBRANCH  18  19
ENDBRANCH   4  18
TORSDOF 12
ENDMDL
MODEL 8
REMARK VINA RESULT:      -6.7      5.893     10.676
REMARK  Name = *****
REMARK                            x       y       z     vdW  Elec       q    Type
REMARK                         _______ _______ _______ _____ _____    ______ ____
ROOT
ATOM      1  C   LIG    1       24.819 -28.099   6.293  0.00  0.00    -0.007 A 
ATOM      2  C   LIG    1       24.926 -28.948   5.182  0.00  0.00    +0.122 A 
ATOM      3  N   LIG    1       25.239 -30.269   5.260  0.00  0.00    -0.221 NA
ATOM      4  C   LIG    1       25.412 -30.819   6.481  0.00  0.00    +0.215 A 
ATOM      5  C   LIG    1       25.287 -30.058   7.637  0.00  0.00    +0.068 A 
ATOM      6  C   LIG    1       25.000 -28.707   7.534  0.00  0.00    +0.015 A 
ENDROOT
BRANCH   1   8
ATOM      7  C   LIG    1       25.163 -25.670   6.661  0.00  0.00    +0.008 C 
ATOM      8  C   LIG    1       24.430 -26.691   6.173  0.00  0.00    +0.010 C 
BRANCH   7  12
ATOM      9  C   LIG    1       23.771 -21.635   6.415  0.00  0.00    +0.027 A 
ATOM     10  C   LIG    1       22.891 -22.703   6.622  0.00  0.00    +0.023 A 
ATOM     11  C   LIG    1       23.354 -24.015   6.721  0.00  0.00    +0.009 A 
ATOM     12  C   LIG    1       24.729 -24.281   6.679  0.00  0.00    -0.025 A 
ATOM     13  C   LIG    1       25.621 -23.217   6.537  0.00  0.00    +0.009 A 
ATOM     14  C   LIG    1       25.147 -21.910   6.427  0.00  0.00    +0.023 A 
BRANCH   9  16
ATOM     15  C   LIG    1       22.523 -20.031   5.092  0.00  0.00    +0.125 C 
ATOM     16  N   LIG    1       23.253 -20.338   6.312  0.00  0.00    -0.347 N 
ATOM     17  H   LIG    1       22.712 -20.101   7.141  0.00  0.00    +0.146 HD
ENDBRANCH   9  16
ENDBRANCH   7  12
ENDBRANCH   1   8
BRANCH   4  18
ATOM     18  O   LIG    1       25.711 -32.151   6.448  0.00  0.00    -0.474 OA
BRANCH  18  19
ATOM     19  C   LIG    1       24.648 -33.094   6.297  0.00  0.00    +0.259 C 
BRANCH  19  20
ATOM     20  C   LIG    1       24.083 -33.503   7.661  0.00  0.00    +0.201 C 
BRANCH  20  21
ATOM     21  O   LIG    1       22.662 -33.403   7.742  0.00  0.00    -0.374 OA
BRANCH  21  22
ATOM     22  C   LIG    1       22.167 -33.132   9.054  0.00  0.00    +0.188 C 
BRANCH  22  23
ATOM     23  C   LIG    1       22.987 -32.001   9.656  0.00  0.00    +0.188 C 
BRANCH  23  24
ATOM     24  O   LIG    1       22.231 -30.785   9.646  0.00  0.00    -0.375 OA
BRANCH  24  25
ATOM     25  C   LIG    1       21.135 -30.886  10.551  0.00  0.00    +0.193 C 
BRANCH  25  26
ATOM     26  C   LIG    1       21.361 -30.002  11.760  0.00  0.00    +0.241 C 
ATOM     27  F   LIG    1       22.445 -29.213  11.530  0.00  0.00    -0.247 F 
ENDBRANCH  25  26
ENDBRANCH  24  25
ENDBRANCH  23  24
ENDBRANCH  22  23
ENDBRANCH  21  22
ENDBRANCH  20  21
ENDBRANCH  19  20
ENDBRANCH  18  19
ENDBRANCH   4  18
TORSDOF 12
ENDMDL
MODEL 9
REMARK VINA RESULT:      -6.5      5.825      9.852
REMARK  Name = *****
REMARK                            x       y       z     vdW  Elec       q    Type
REMARK                         _______ _______ _______ _____ _____    ______ ____
ROOT
ATOM      1  C   LIG    1       25.004 -26.454   6.280  0.00  0.00    -0.007 A 
ATOM      2  C   LIG    1       24.240 -27.567   5.902  0.00  0.00    +0.122 A 
ATOM      3  N   LIG    1       24.399 -28.813   6.422  0.00  0.00    -0.221 NA
ATOM      4  C   LIG    1       25.314 -28.991   7.399  0.00  0.00    +0.215 A 
ATOM      5  C   LIG    1       26.088 -27.933   7.861  0.00  0.00    +0.068 A 
ATOM      6  C   LIG    1       25.934 -26.679   7.294  0.00  0.00    +0.015 A 
ENDROOT
BRANCH   1   8
ATOM      7  C   LIG    1       24.422 -24.050   6.482  0.00  0.00    +0.008 C 
ATOM      8  C   LIG    1       24.770 -25.115   5.732  0.00  0.00    +0.010 C 
BRANCH   7  12
ATOM      9  C   LIG    1       23.624 -20.135   4.963  0.00  0.00    +0.027 A 
ATOM     10  C   LIG    1       24.375 -21.065   4.235  0.00  0.00    +0.023 A 
ATOM     11  C   LIG    1       24.616 -22.347   4.729  0.00  0.00    +0.009 A 
ATOM     12  C   LIG    1       24.048 -22.751   5.944  0.00  0.00    -0.025 A 
ATOM     13  C   LIG    1       23.243 -21.854   6.648  0.00  0.00    +0.009 A 
ATOM     14  C   LIG    1       23.020 -20.570   6.152  0.00  0.00    +0.023 A 
BRANCH   9  16
ATOM     15  C   LIG    1       22.063 -18.341   4.489  0.00  0.00    +0.125 C 
ATOM     16  N   LIG    1       23.422 -18.857   4.427  0.00  0.00    -0.347 N 
ATOM     17  H   LIG    1       24.091 -18.195   4.814  0.00  0.00    +0.146 HD
ENDBRANCH   9  16
ENDBRANCH   7  12
ENDBRANCH   1   8
BRANCH   4  18
ATOM     18  O   LIG    1       25.386 -30.274   7.861  0.00  0.00    -0.474 OA
BRANCH  18  19
ATOM     19  C   LIG    1       24.282 -31.154   7.630  0.00  0.00    +0.259 C 
BRANCH  19  20
ATOM     20  C   LIG    1       23.550 -31.466   8.939  0.00  0.00    +0.201 C 
BRANCH  20  21
ATOM     21  O   LIG    1       22.778 -30.373   9.434  0.00  0.00    -0.374 OA
BRANCH  21  22
ATOM     22  C   LIG    1       22.708 -30.303  10.859  0.00  0.00    +0.188 C 
BRANCH  22  23
ATOM     23  C   LIG    1       24.123 -30.296  11.414  0.00  0.00    +0.188 C 
BRANCH  23  24
ATOM     24  O   LIG    1       24.610 -28.953  11.505  0.00  0.00    -0.375 OA
BRANCH  24  25
ATOM     25  C   LIG    1       26.035 -28.950  11.489  0.00  0.00    +0.193 C 
BRANCH  25  26
ATOM     26  C   LIG    1       26.565 -30.279  10.993  0.00  0.00    +0.241 C 
ATOM     27  F   LIG    1       27.568 -30.048  10.104  0.00  0.00    -0.247 F 
ENDBRANCH  25  26
ENDBRANCH  24  25
ENDBRANCH  23  24
ENDBRANCH  22  23
ENDBRANCH  21  22
ENDBRANCH  20  21
ENDBRANCH  19  20
ENDBRANCH  18  19
ENDBRANCH   4  18
TORSDOF 12
ENDMDL
