MODEL 1
REMARK VINA RESULT:      -4.3      0.000      0.000
REMARK  Name = *****
REMARK                            x       y       z     vdW  Elec       q    Type
REMARK                         _______ _______ _______ _____ _____    ______ ____
ROOT
ATOM      1  C   LIG    1       24.848 -14.845   3.884  0.00  0.00    +0.065 C 
ENDROOT
BRANCH   1   5
ATOM      2  C   LIG    1       22.589 -18.532   4.433  0.00  0.00    +0.120 A 
ATOM      3  C   LIG    1       22.030 -17.309   4.763  0.00  0.00    +0.046 A 
ATOM      4  C   LIG    1       22.736 -16.123   4.576  0.00  0.00    +0.007 A 
ATOM      5  C   LIG    1       24.035 -16.140   4.039  0.00  0.00    -0.040 A 
ATOM      6  C   LIG    1       24.576 -17.376   3.667  0.00  0.00    +0.007 A 
ATOM      7  C   LIG    1       23.858 -18.567   3.844  0.00  0.00    +0.046 A 
BRANCH   2   9
ATOM      8  C   LIG    1       22.719 -20.656   5.422  0.00  0.00    +0.277 C 
ATOM      9  O   LIG    1       21.965 -19.737   4.627  0.00  0.00    -0.495 OA
ENDBRANCH   2   9
ENDBRANCH   1   5
BRANCH   1  10
ATOM     10  C   LIG    1       26.355 -15.126   3.477  0.00  0.00    +0.074 C 
ATOM     11  C   LIG    1       26.866 -14.189   2.354  0.00  0.00    +0.035 C 
ATOM     12  C   LIG    1       27.200 -12.774   2.819  0.00  0.00    +0.003 C 
ATOM     13  C   LIG    1       28.232 -12.794   3.938  0.00  0.00    +0.000 C 
ATOM     14  C   LIG    1       27.774 -13.664   5.101  0.00  0.00    +0.003 C 
ATOM     15  C   LIG    1       27.376 -15.069   4.649  0.00  0.00    +0.035 C 
BRANCH  10  16
ATOM     16  O   LIG    1       26.431 -16.455   2.924  0.00  0.00    -0.388 OA
ATOM     17  H   LIG    1       26.543 -17.072   3.671  0.00  0.00    +0.210 HD
ENDBRANCH  10  16
ENDBRANCH   1  10
BRANCH   1  18
ATOM     18  C   LIG    1       24.135 -13.842   2.893  0.00  0.00    +0.094 C 
BRANCH  18  19
ATOM     19  N   LIG    1       23.654 -12.560   3.472  0.00  0.00    -0.308 NA
ATOM     20  C   LIG    1       23.918 -11.450   2.550  0.00  0.00    +0.104 C 
ATOM     21  C   LIG    1       24.258 -12.277   4.771  0.00  0.00    +0.104 C 
ENDBRANCH  18  19
ENDBRANCH   1  18
TORSDOF 6
ENDMDL
MODEL 2
REMARK VINA RESULT:      -4.1      3.214      7.191
REMARK  Name = *****
REMARK                            x       y       z     vdW  Elec       q    Type
REMARK                         _______ _______ _______ _____ _____    ______ ____
ROOT
ATOM      1  C   LIG    1       25.936 -19.219   4.799  0.00  0.00    +0.065 C 
ENDROOT
BRANCH   1   5
ATOM      2  C   LIG    1       26.992 -15.237   3.376  0.00  0.00    +0.120 A 
ATOM      3  C   LIG    1       27.950 -16.054   3.952  0.00  0.00    +0.046 A 
ATOM      4  C   LIG    1       27.627 -17.335   4.395  0.00  0.00    +0.007 A 
ATOM      5  C   LIG    1       26.319 -17.832   4.260  0.00  0.00    -0.040 A 
ATOM      6  C   LIG    1       25.368 -17.016   3.636  0.00  0.00    +0.007 A 
ATOM      7  C   LIG    1       25.698 -15.732   3.180  0.00  0.00    +0.046 A 
BRANCH   2   9
ATOM      8  C   LIG    1       28.368 -13.347   3.575  0.00  0.00    +0.277 C 
ATOM      9  O   LIG    1       27.232 -13.955   2.956  0.00  0.00    -0.495 OA
ENDBRANCH   2   9
ENDBRANCH   1   5
BRANCH   1  10
ATOM     10  C   LIG    1       24.897 -19.964   3.860  0.00  0.00    +0.074 C 
ATOM     11  C   LIG    1       24.590 -21.410   4.321  0.00  0.00    +0.035 C 
ATOM     12  C   LIG    1       23.651 -21.501   5.521  0.00  0.00    +0.003 C 
ATOM     13  C   LIG    1       22.333 -20.793   5.241  0.00  0.00    +0.000 C 
ATOM     14  C   LIG    1       22.557 -19.346   4.825  0.00  0.00    +0.003 C 
ATOM     15  C   LIG    1       23.542 -19.227   3.661  0.00  0.00    +0.035 C 
BRANCH  10  16
ATOM     16  O   LIG    1       25.491 -20.102   2.553  0.00  0.00    -0.388 OA
ATOM     17  H   LIG    1       26.307 -20.623   2.662  0.00  0.00    +0.210 HD
ENDBRANCH  10  16
ENDBRANCH   1  10
BRANCH   1  18
ATOM     18  C   LIG    1       27.223 -20.093   5.083  0.00  0.00    +0.094 C 
BRANCH  18  19
ATOM     19  N   LIG    1       27.622 -20.251   6.506  0.00  0.00    -0.308 NA
ATOM     20  C   LIG    1       29.074 -20.106   6.651  0.00  0.00    +0.104 C 
ATOM     21  C   LIG    1       27.196 -21.533   7.062  0.00  0.00    +0.104 C 
ENDBRANCH  18  19
ENDBRANCH   1  18
TORSDOF 6
ENDMDL
MODEL 3
REMARK VINA RESULT:      -2.7      1.774      3.427
REMARK  Name = *****
REMARK                            x       y       z     vdW  Elec       q    Type
REMARK                         _______ _______ _______ _____ _____    ______ ____
ROOT
ATOM      1  C   LIG    1       25.194 -15.308   3.575  0.00  0.00    +0.065 C 
ENDROOT
BRANCH   1   5
ATOM      2  C   LIG    1       24.437 -19.600   3.619  0.00  0.00    +0.120 A 
ATOM      3  C   LIG    1       25.704 -19.112   3.342  0.00  0.00    +0.046 A 
ATOM      4  C   LIG    1       25.961 -17.743   3.343  0.00  0.00    +0.007 A 
ATOM      5  C   LIG    1       24.939 -16.821   3.631  0.00  0.00    -0.040 A 
ATOM      6  C   LIG    1       23.673 -17.326   3.953  0.00  0.00    +0.007 A 
ATOM      7  C   LIG    1       23.420 -18.704   3.964  0.00  0.00    +0.046 A 
BRANCH   2   9
ATOM      8  C   LIG    1       24.207 -21.571   4.870  0.00  0.00    +0.277 C 
ATOM      9  O   LIG    1       24.108 -20.930   3.596  0.00  0.00    -0.495 OA
ENDBRANCH   2   9
ENDBRANCH   1   5
BRANCH   1  10
ATOM     10  C   LIG    1       23.921 -14.466   4.010  0.00  0.00    +0.074 C 
ATOM     11  C   LIG    1       24.212 -13.477   5.166  0.00  0.00    +0.035 C 
ATOM     12  C   LIG    1       24.965 -12.219   4.742  0.00  0.00    +0.003 C 
ATOM     13  C   LIG    1       24.215 -11.474   3.646  0.00  0.00    +0.000 C 
ATOM     14  C   LIG    1       23.934 -12.377   2.453  0.00  0.00    +0.003 C 
ATOM     15  C   LIG    1       23.233 -13.673   2.863  0.00  0.00    +0.035 C 
BRANCH  10  16
ATOM     16  O   LIG    1       22.936 -15.380   4.533  0.00  0.00    -0.388 OA
ATOM     17  H   LIG    1       22.433 -14.900   5.216  0.00  0.00    +0.210 HD
ENDBRANCH  10  16
ENDBRANCH   1  10
BRANCH   1  18
ATOM     18  C   LIG    1       26.483 -14.918   4.404  0.00  0.00    +0.094 C 
BRANCH  18  19
ATOM     19  N   LIG    1       27.644 -14.405   3.630  0.00  0.00    -0.308 NA
ATOM     20  C   LIG    1       28.285 -13.295   4.343  0.00  0.00    +0.104 C 
ATOM     21  C   LIG    1       27.268 -13.977   2.285  0.00  0.00    +0.104 C 
ENDBRANCH  18  19
ENDBRANCH   1  18
TORSDOF 6
ENDMDL
MODEL 4
REMARK VINA RESULT:      -2.6      2.517      6.238
REMARK  Name = *****
REMARK                            x       y       z     vdW  Elec       q    Type
REMARK                         _______ _______ _______ _____ _____    ______ ____
ROOT
ATOM      1  C   LIG    1       23.911 -18.828   3.699  0.00  0.00    +0.065 C 
ENDROOT
BRANCH   1   5
ATOM      2  C   LIG    1       25.743 -14.874   3.632  0.00  0.00    +0.120 A 
ATOM      3  C   LIG    1       24.437 -15.036   4.063  0.00  0.00    +0.046 A 
ATOM      4  C   LIG    1       23.847 -16.297   4.105  0.00  0.00    +0.007 A 
ATOM      5  C   LIG    1       24.569 -17.440   3.716  0.00  0.00    -0.040 A 
ATOM      6  C   LIG    1       25.902 -17.271   3.324  0.00  0.00    +0.007 A 
ATOM      7  C   LIG    1       26.497 -16.003   3.294  0.00  0.00    +0.046 A 
BRANCH   2   9
ATOM      8  C   LIG    1       27.792 -13.731   3.655  0.00  0.00    +0.277 C 
ATOM      9  O   LIG    1       26.370 -13.659   3.529  0.00  0.00    -0.495 OA
ENDBRANCH   2   9
ENDBRANCH   1   5
BRANCH   1  10
ATOM     10  C   LIG    1       24.978 -19.999   3.631  0.00  0.00    +0.074 C 
ATOM     11  C   LIG    1       26.279 -19.682   4.409  0.00  0.00    +0.035 C 
ATOM     12  C   LIG    1       26.153 -19.815   5.925  0.00  0.00    +0.003 C 
ATOM     13  C   LIG    1       25.684 -21.210   6.316  0.00  0.00    +0.000 C 
ATOM     14  C   LIG    1       24.379 -21.572   5.619  0.00  0.00    +0.003 C 
ATOM     15  C   LIG    1       24.464 -21.388   4.103  0.00  0.00    +0.035 C 
BRANCH  10  16
ATOM     16  O   LIG    1       25.388 -20.153   2.257  0.00  0.00    -0.388 OA
ATOM     17  H   LIG    1       26.049 -20.869   2.232  0.00  0.00    +0.210 HD
ENDBRANCH  10  16
ENDBRANCH   1  10
BRANCH   1  18
ATOM     18  C   LIG    1       22.911 -18.997   4.912  0.00  0.00    +0.094 C 
BRANCH  18  19
ATOM     19  N   LIG    1       21.485 -19.245   4.572  0.00  0.00    -0.308 NA
ATOM     20  C   LIG    1       21.231 -20.684   4.445  0.00  0.00    +0.104 C 
ATOM     21  C   LIG    1       21.080 -18.562   3.346  0.00  0.00    +0.104 C 
ENDBRANCH  18  19
ENDBRANCH   1  18
TORSDOF 6
ENDMDL
MODEL 5
REMARK VINA RESULT:      -2.6      2.572      6.344
REMARK  Name = *****
REMARK                            x       y       z     vdW  Elec       q    Type
REMARK                         _______ _______ _______ _____ _____    ______ ____
ROOT
ATOM      1  C   LIG    1       23.978 -18.947   3.779  0.00  0.00    +0.065 C 
ENDROOT
BRANCH   1   5
ATOM      2  C   LIG    1       25.838 -15.009   3.630  0.00  0.00    +0.120 A 
ATOM      3  C   LIG    1       26.548 -16.137   3.253  0.00  0.00    +0.046 A 
ATOM      4  C   LIG    1       25.958 -17.398   3.281  0.00  0.00    +0.007 A 
ATOM      5  C   LIG    1       24.622 -17.556   3.686  0.00  0.00    -0.040 A 
ATOM      6  C   LIG    1       23.898 -16.405   4.023  0.00  0.00    +0.007 A 
ATOM      7  C   LIG    1       24.490 -15.136   3.983  0.00  0.00    +0.046 A 
BRANCH   2   9
ATOM      8  C   LIG    1       27.797 -13.720   3.718  0.00  0.00    +0.277 C 
ATOM      9  O   LIG    1       26.369 -13.746   3.664  0.00  0.00    -0.495 OA
ENDBRANCH   2   9
ENDBRANCH   1   5
BRANCH   1  10
ATOM     10  C   LIG    1       25.055 -20.112   3.756  0.00  0.00    +0.074 C 
ATOM     11  C   LIG    1       26.369 -19.739   4.486  0.00  0.00    +0.035 C 
ATOM     12  C   LIG    1       26.277 -19.785   6.009  0.00  0.00    +0.003 C 
ATOM     13  C   LIG    1       25.829 -21.158   6.490  0.00  0.00    +0.000 C 
ATOM     14  C   LIG    1       24.514 -21.571   5.845  0.00  0.00    +0.003 C 
ATOM     15  C   LIG    1       24.565 -21.475   4.319  0.00  0.00    +0.035 C 
BRANCH  10  16
ATOM     16  O   LIG    1       25.437 -20.342   2.385  0.00  0.00    -0.388 OA
ATOM     17  H   LIG    1       26.111 -21.047   2.388  0.00  0.00    +0.210 HD
ENDBRANCH  10  16
ENDBRANCH   1  10
BRANCH   1  18
ATOM     18  C   LIG    1       23.015 -19.045   5.029  0.00  0.00    +0.094 C 
BRANCH  18  19
ATOM     19  N   LIG    1       21.587 -19.349   4.750  0.00  0.00    -0.308 NA
ATOM     20  C   LIG    1       21.412 -20.779   4.474  0.00  0.00    +0.104 C 
ATOM     21  C   LIG    1       21.060 -18.563   3.637  0.00  0.00    +0.104 C 
ENDBRANCH  18  19
ENDBRANCH   1  18
TORSDOF 6
ENDMDL
MODEL 6
REMARK VINA RESULT:      -2.4      2.668      6.572
REMARK  Name = *****
REMARK                            x       y       z     vdW  Elec       q    Type
REMARK                         _______ _______ _______ _____ _____    ______ ____
ROOT
ATOM      1  C   LIG    1       25.240 -18.498   4.353  0.00  0.00    +0.065 C 
ENDROOT
BRANCH   1   5
ATOM      2  C   LIG    1       25.318 -14.309   3.153  0.00  0.00    +0.120 A 
ATOM      3  C   LIG    1       24.204 -14.839   3.784  0.00  0.00    +0.046 A 
ATOM      4  C   LIG    1       24.176 -16.172   4.187  0.00  0.00    +0.007 A 
ATOM      5  C   LIG    1       25.282 -17.012   3.968  0.00  0.00    -0.040 A 
ATOM      6  C   LIG    1       26.419 -16.456   3.370  0.00  0.00    +0.007 A 
ATOM      7  C   LIG    1       26.451 -15.111   2.976  0.00  0.00    +0.046 A 
BRANCH   2   9
ATOM      8  C   LIG    1       24.149 -12.323   2.711  0.00  0.00    +0.277 C 
ATOM      9  O   LIG    1       25.397 -13.019   2.696  0.00  0.00    -0.495 OA
ENDBRANCH   2   9
ENDBRANCH   1   5
BRANCH   1  10
ATOM     10  C   LIG    1       23.905 -19.207   3.873  0.00  0.00    +0.074 C 
ATOM     11  C   LIG    1       24.079 -20.725   3.620  0.00  0.00    +0.035 C 
ATOM     12  C   LIG    1       24.134 -21.571   4.889  0.00  0.00    +0.003 C 
ATOM     13  C   LIG    1       22.890 -21.363   5.742  0.00  0.00    +0.000 C 
ATOM     14  C   LIG    1       22.681 -19.891   6.069  0.00  0.00    +0.003 C 
ATOM     15  C   LIG    1       22.682 -19.016   4.815  0.00  0.00    +0.035 C 
BRANCH  10  16
ATOM     16  O   LIG    1       23.535 -18.651   2.595  0.00  0.00    -0.388 OA
ATOM     17  H   LIG    1       24.179 -17.948   2.390  0.00  0.00    +0.210 HD
ENDBRANCH  10  16
ENDBRANCH   1  10
BRANCH   1  18
ATOM     18  C   LIG    1       26.535 -19.252   3.848  0.00  0.00    +0.094 C 
BRANCH  18  19
ATOM     19  N   LIG    1       27.538 -19.621   4.880  0.00  0.00    -0.308 NA
ATOM     20  C   LIG    1       26.874 -20.163   6.071  0.00  0.00    +0.104 C 
ATOM     21  C   LIG    1       28.386 -18.493   5.259  0.00  0.00    +0.104 C 
ENDBRANCH  18  19
ENDBRANCH   1  18
TORSDOF 6
ENDMDL
MODEL 7
REMARK VINA RESULT:      -1.5      1.682      3.294
REMARK  Name = *****
REMARK                            x       y       z     vdW  Elec       q    Type
REMARK                         _______ _______ _______ _____ _____    ______ ____
ROOT
ATOM      1  C   LIG    1       25.865 -15.021   3.298  0.00  0.00    +0.065 C 
ENDROOT
BRANCH   1   5
ATOM      2  C   LIG    1       24.169 -18.995   3.872  0.00  0.00    +0.120 A 
ATOM      3  C   LIG    1       25.505 -18.842   3.538  0.00  0.00    +0.046 A 
ATOM      4  C   LIG    1       26.061 -17.576   3.369  0.00  0.00    +0.007 A 
ATOM      5  C   LIG    1       25.279 -16.420   3.541  0.00  0.00    -0.040 A 
ATOM      6  C   LIG    1       23.942 -16.584   3.921  0.00  0.00    +0.007 A 
ATOM      7  C   LIG    1       23.387 -17.857   4.103  0.00  0.00    +0.046 A 
BRANCH   2   9
ATOM      8  C   LIG    1       23.172 -20.511   5.359  0.00  0.00    +0.277 C 
ATOM      9  O   LIG    1       23.550 -20.209   4.014  0.00  0.00    -0.495 OA
ENDBRANCH   2   9
ENDBRANCH   1   5
BRANCH   1  10
ATOM     10  C   LIG    1       24.931 -13.871   3.865  0.00  0.00    +0.074 C 
ATOM     11  C   LIG    1       25.600 -12.474   3.833  0.00  0.00    +0.035 C 
ATOM     12  C   LIG    1       25.644 -11.829   2.450  0.00  0.00    +0.003 C 
ATOM     13  C   LIG    1       24.247 -11.710   1.856  0.00  0.00    +0.000 C 
ATOM     14  C   LIG    1       23.544 -13.059   1.814  0.00  0.00    +0.003 C 
ATOM     15  C   LIG    1       23.541 -13.751   3.178  0.00  0.00    +0.035 C 
BRANCH  10  16
ATOM     16  O   LIG    1       24.684 -14.140   5.259  0.00  0.00    -0.388 OA
ATOM     17  H   LIG    1       23.873 -14.678   5.309  0.00  0.00    +0.210 HD
ENDBRANCH  10  16
ENDBRANCH   1  10
BRANCH   1  18
ATOM     18  C   LIG    1       27.343 -14.921   3.849  0.00  0.00    +0.094 C 
BRANCH  18  19
ATOM     19  N   LIG    1       27.749 -13.619   4.439  0.00  0.00    -0.308 NA
ATOM     20  C   LIG    1       28.972 -13.124   3.798  0.00  0.00    +0.104 C 
ATOM     21  C   LIG    1       27.949 -13.703   5.884  0.00  0.00    +0.104 C 
ENDBRANCH  18  19
ENDBRANCH   1  18
TORSDOF 6
ENDMDL
