MODEL 1
REMARK VINA RESULT:      -5.9      0.000      0.000
REMARK  Name = *****
REMARK                            x       y       z     vdW  Elec       q    Type
REMARK                         _______ _______ _______ _____ _____    ______ ____
ROOT
ATOM      1  C   LIG    1       25.812 -20.497   6.733  0.00  0.00    +0.122 C 
ATOM      2  C   LIG    1       25.763 -21.714   7.703  0.00  0.00    +0.036 C 
ATOM      3  C   LIG    1       26.994 -21.764   8.643  0.00  0.00    +0.028 C 
ATOM      4  C   LIG    1       28.256 -21.044   8.135  0.00  0.00    +0.058 C 
ATOM      5  N   LIG    1       27.862 -19.681   7.722  0.00  0.00    -0.296 NA
ATOM      6  C   LIG    1       28.846 -21.677   6.878  0.00  0.00    +0.020 C 
ATOM      7  C   LIG    1       28.215 -20.895   5.730  0.00  0.00    +0.021 C 
ATOM      8  C   LIG    1       27.222 -19.943   6.402  0.00  0.00    +0.071 C 
ENDROOT
BRANCH   2   9
ATOM      9  C   LIG    1       25.434 -23.102   7.151  0.00  0.00    -0.043 A 
ATOM     10  C   LIG    1       24.090 -23.492   6.988  0.00  0.00    +0.005 A 
ATOM     11  C   LIG    1       23.758 -24.767   6.507  0.00  0.00    +0.014 A 
ATOM     12  C   LIG    1       24.765 -25.672   6.187  0.00  0.00    +0.013 A 
ATOM     13  I   LIG    1       24.299 -27.569   5.487  0.00  0.00    -0.044 I 
ATOM     14  C   LIG    1       26.095 -25.308   6.337  0.00  0.00    +0.014 A 
ATOM     15  C   LIG    1       26.415 -24.036   6.816  0.00  0.00    +0.005 A 
ENDBRANCH   2   9
BRANCH   1  16
ATOM     16  C   LIG    1       24.922 -20.632   5.509  0.00  0.00    +0.312 C 
ATOM     17  O   LIG    1       25.301 -20.978   4.405  0.00  0.00    -0.251 OA
BRANCH  16  19
ATOM     18  C   LIG    1       22.609 -20.674   4.933  0.00  0.00    +0.280 C 
ATOM     19  O   LIG    1       23.644 -20.269   5.834  0.00  0.00    -0.468 OA
ENDBRANCH  16  19
ENDBRANCH   1  16
BRANCH   5  20
ATOM     20  C   LIG    1       28.985 -18.728   7.627  0.00  0.00    +0.087 C 
BRANCH  20  21
ATOM     21  C   LIG    1       30.017 -18.921   8.741  0.00  0.00    +0.049 C 
BRANCH  21  22
ATOM     22  C   LIG    1       31.429 -18.954   8.192  0.00  0.00    +0.214 C 
ATOM     23  F   LIG    1       31.391 -19.480   6.939  0.00  0.00    -0.249 F 
ENDBRANCH  21  22
ENDBRANCH  20  21
ENDBRANCH   5  20
TORSDOF 6
ENDMDL
MODEL 2
REMARK VINA RESULT:      -5.8      4.271      6.651
REMARK  Name = *****
REMARK                            x       y       z     vdW  Elec       q    Type
REMARK                         _______ _______ _______ _____ _____    ______ ____
ROOT
ATOM      1  C   LIG    1       25.419 -23.863   7.584  0.00  0.00    +0.122 C 
ATOM      2  C   LIG    1       23.976 -23.462   7.161  0.00  0.00    +0.036 C 
ATOM      3  C   LIG    1       23.185 -24.657   6.569  0.00  0.00    +0.028 C 
ATOM      4  C   LIG    1       24.035 -25.796   5.976  0.00  0.00    +0.058 C 
ATOM      5  N   LIG    1       25.047 -26.175   6.984  0.00  0.00    -0.296 NA
ATOM      6  C   LIG    1       24.843 -25.370   4.753  0.00  0.00    +0.020 C 
ATOM      7  C   LIG    1       26.200 -24.961   5.320  0.00  0.00    +0.021 C 
ATOM      8  C   LIG    1       26.040 -25.073   6.839  0.00  0.00    +0.071 C 
ENDROOT
BRANCH   2   9
ATOM      9  C   LIG    1       23.760 -22.195   6.332  0.00  0.00    -0.043 A 
ATOM     10  C   LIG    1       23.055 -21.107   6.883  0.00  0.00    +0.005 A 
ATOM     11  C   LIG    1       22.821 -19.942   6.139  0.00  0.00    +0.014 A 
ATOM     12  C   LIG    1       23.285 -19.849   4.830  0.00  0.00    +0.013 A 
ATOM     13  I   LIG    1       22.940 -18.142   3.704  0.00  0.00    -0.044 I 
ATOM     14  C   LIG    1       23.984 -20.908   4.268  0.00  0.00    +0.014 A 
ATOM     15  C   LIG    1       24.213 -22.063   5.018  0.00  0.00    +0.005 A 
ENDBRANCH   2   9
BRANCH   1  16
ATOM     16  C   LIG    1       26.379 -22.694   7.727  0.00  0.00    +0.312 C 
ATOM     17  O   LIG    1       27.292 -22.443   6.961  0.00  0.00    -0.251 OA
BRANCH  16  19
ATOM     18  C   LIG    1       26.096 -20.570   8.772  0.00  0.00    +0.280 C 
ATOM     19  O   LIG    1       26.082 -21.997   8.866  0.00  0.00    -0.468 OA
ENDBRANCH  16  19
ENDBRANCH   1  16
BRANCH   5  20
ATOM     20  C   LIG    1       25.645 -27.507   6.770  0.00  0.00    +0.087 C 
BRANCH  20  21
ATOM     21  C   LIG    1       24.632 -28.642   6.936  0.00  0.00    +0.049 C 
BRANCH  21  22
ATOM     22  C   LIG    1       24.579 -29.526   5.707  0.00  0.00    +0.214 C 
ATOM     23  F   LIG    1       24.678 -28.736   4.604  0.00  0.00    -0.249 F 
ENDBRANCH  21  22
ENDBRANCH  20  21
ENDBRANCH   5  20
TORSDOF 6
ENDMDL
MODEL 3
REMARK VINA RESULT:      -5.7      2.802      4.882
REMARK  Name = *****
REMARK                            x       y       z     vdW  Elec       q    Type
REMARK                         _______ _______ _______ _____ _____    ______ ____
ROOT
ATOM      1  C   LIG    1       25.463 -21.835   6.543  0.00  0.00    +0.122 C 
ATOM      2  C   LIG    1       25.284 -22.939   5.460  0.00  0.00    +0.036 C 
ATOM      3  C   LIG    1       24.112 -22.629   4.495  0.00  0.00    +0.028 C 
ATOM      4  C   LIG    1       23.019 -21.695   5.045  0.00  0.00    +0.058 C 
ATOM      5  N   LIG    1       23.685 -20.497   5.597  0.00  0.00    -0.296 NA
ATOM      6  C   LIG    1       22.253 -22.293   6.223  0.00  0.00    +0.020 C 
ATOM      7  C   LIG    1       22.992 -21.778   7.454  0.00  0.00    +0.021 C 
ATOM      8  C   LIG    1       24.196 -21.014   6.898  0.00  0.00    +0.071 C 
ENDROOT
BRANCH   2   9
ATOM      9  C   LIG    1       25.278 -24.410   5.881  0.00  0.00    -0.043 A 
ATOM     10  C   LIG    1       24.089 -25.159   5.793  0.00  0.00    +0.005 A 
ATOM     11  C   LIG    1       24.047 -26.502   6.195  0.00  0.00    +0.014 A 
ATOM     12  C   LIG    1       25.192 -27.114   6.695  0.00  0.00    +0.013 A 
ATOM     13  I   LIG    1       25.152 -29.096   7.307  0.00  0.00    -0.044 I 
ATOM     14  C   LIG    1       26.375 -26.395   6.787  0.00  0.00    +0.014 A 
ATOM     15  C   LIG    1       26.407 -25.059   6.384  0.00  0.00    +0.005 A 
ENDBRANCH   2   9
BRANCH   1  16
ATOM     16  C   LIG    1       26.250 -22.275   7.766  0.00  0.00    +0.312 C 
ATOM     17  O   LIG    1       25.760 -22.623   8.824  0.00  0.00    -0.251 OA
BRANCH  16  19
ATOM     18  C   LIG    1       28.064 -20.926   7.007  0.00  0.00    +0.280 C 
ATOM     19  O   LIG    1       27.590 -22.181   7.503  0.00  0.00    -0.468 OA
ENDBRANCH  16  19
ENDBRANCH   1  16
BRANCH   5  20
ATOM     20  C   LIG    1       22.795 -19.331   5.762  0.00  0.00    +0.087 C 
BRANCH  20  21
ATOM     21  C   LIG    1       22.628 -18.531   4.468  0.00  0.00    +0.049 C 
BRANCH  21  22
ATOM     22  C   LIG    1       23.740 -18.825   3.483  0.00  0.00    +0.214 C 
ATOM     23  F   LIG    1       24.623 -17.791   3.508  0.00  0.00    -0.249 F 
ENDBRANCH  21  22
ENDBRANCH  20  21
ENDBRANCH   5  20
TORSDOF 6
ENDMDL
MODEL 4
REMARK VINA RESULT:      -5.5      4.059      6.779
REMARK  Name = *****
REMARK                            x       y       z     vdW  Elec       q    Type
REMARK                         _______ _______ _______ _____ _____    ______ ____
ROOT
ATOM      1  C   LIG    1       27.959 -20.330   5.693  0.00  0.00    +0.122 C 
ATOM      2  C   LIG    1       29.098 -20.755   6.665  0.00  0.00    +0.036 C 
ATOM      3  C   LIG    1       28.685 -21.945   7.568  0.00  0.00    +0.028 C 
ATOM      4  C   LIG    1       27.172 -22.126   7.788  0.00  0.00    +0.058 C 
ATOM      5  N   LIG    1       26.518 -22.113   6.464  0.00  0.00    -0.296 NA
ATOM      6  C   LIG    1       26.532 -20.969   8.552  0.00  0.00    +0.020 C 
ATOM      7  C   LIG    1       26.028 -20.030   7.460  0.00  0.00    +0.021 C 
ATOM      8  C   LIG    1       26.513 -20.656   6.149  0.00  0.00    +0.071 C 
ENDROOT
BRANCH   2   9
ATOM      9  C   LIG    1       29.837 -19.684   7.470  0.00  0.00    -0.043 A 
ATOM     10  C   LIG    1       31.199 -19.430   7.215  0.00  0.00    +0.005 A 
ATOM     11  C   LIG    1       31.908 -18.472   7.953  0.00  0.00    +0.014 A 
ATOM     12  C   LIG    1       31.268 -17.756   8.960  0.00  0.00    +0.013 A 
ATOM     13  I   LIG    1       32.299 -16.343  10.074  0.00  0.00    -0.044 I 
ATOM     14  C   LIG    1       29.926 -17.988   9.225  0.00  0.00    +0.014 A 
ATOM     15  C   LIG    1       29.228 -18.943   8.484  0.00  0.00    +0.005 A 
ENDBRANCH   2   9
BRANCH   1  16
ATOM     16  C   LIG    1       28.104 -18.927   5.128  0.00  0.00    +0.312 C 
ATOM     17  O   LIG    1       29.068 -18.203   5.297  0.00  0.00    -0.251 OA
BRANCH  16  19
ATOM     18  C   LIG    1       26.986 -17.349   3.734  0.00  0.00    +0.280 C 
ATOM     19  O   LIG    1       26.971 -18.594   4.438  0.00  0.00    -0.468 OA
ENDBRANCH  16  19
ENDBRANCH   1  16
BRANCH   5  20
ATOM     20  C   LIG    1       25.164 -22.699   6.450  0.00  0.00    +0.087 C 
BRANCH  20  21
ATOM     21  C   LIG    1       25.163 -24.188   6.806  0.00  0.00    +0.049 C 
BRANCH  21  22
ATOM     22  C   LIG    1       23.872 -24.860   6.386  0.00  0.00    +0.214 C 
ATOM     23  F   LIG    1       22.832 -24.175   6.933  0.00  0.00    -0.249 F 
ENDBRANCH  21  22
ENDBRANCH  20  21
ENDBRANCH   5  20
TORSDOF 6
ENDMDL
MODEL 5
REMARK VINA RESULT:      -5.2      3.362      5.118
REMARK  Name = *****
REMARK                            x       y       z     vdW  Elec       q    Type
REMARK                         _______ _______ _______ _____ _____    ______ ____
ROOT
ATOM      1  C   LIG    1       24.404 -20.628   6.407  0.00  0.00    +0.122 C 
ATOM      2  C   LIG    1       25.352 -21.544   5.580  0.00  0.00    +0.036 C 
ATOM      3  C   LIG    1       25.328 -21.201   4.068  0.00  0.00    +0.028 C 
ATOM      4  C   LIG    1       24.057 -20.496   3.561  0.00  0.00    +0.058 C 
ATOM      5  N   LIG    1       23.794 -19.345   4.450  0.00  0.00    -0.296 NA
ATOM      6  C   LIG    1       22.804 -21.363   3.665  0.00  0.00    +0.020 C 
ATOM      7  C   LIG    1       22.198 -20.989   5.014  0.00  0.00    +0.021 C 
ATOM      8  C   LIG    1       23.202 -20.018   5.641  0.00  0.00    +0.071 C 
ENDROOT
BRANCH   2   9
ATOM      9  C   LIG    1       25.316 -23.057   5.803  0.00  0.00    -0.043 A 
ATOM     10  C   LIG    1       24.656 -23.888   4.876  0.00  0.00    +0.005 A 
ATOM     11  C   LIG    1       24.586 -25.275   5.066  0.00  0.00    +0.014 A 
ATOM     12  C   LIG    1       25.170 -25.852   6.189  0.00  0.00    +0.013 A 
ATOM     13  I   LIG    1       25.069 -27.901   6.501  0.00  0.00    -0.044 I 
ATOM     14  C   LIG    1       25.829 -25.053   7.113  0.00  0.00    +0.014 A 
ATOM     15  C   LIG    1       25.894 -23.674   6.914  0.00  0.00    +0.005 A 
ENDBRANCH   2   9
BRANCH   1  16
ATOM     16  C   LIG    1       24.024 -21.182   7.769  0.00  0.00    +0.312 C 
ATOM     17  O   LIG    1       23.007 -21.807   8.010  0.00  0.00    -0.251 OA
BRANCH  16  19
ATOM     18  C   LIG    1       26.226 -20.362   8.170  0.00  0.00    +0.280 C 
ATOM     19  O   LIG    1       24.980 -20.836   8.685  0.00  0.00    -0.468 OA
ENDBRANCH  16  19
ENDBRANCH   1  16
BRANCH   5  20
ATOM     20  C   LIG    1       22.898 -18.325   3.872  0.00  0.00    +0.087 C 
BRANCH  20  21
ATOM     21  C   LIG    1       22.179 -17.499   4.942  0.00  0.00    +0.049 C 
BRANCH  21  22
ATOM     22  C   LIG    1       22.503 -16.025   4.819  0.00  0.00    +0.214 C 
ATOM     23  F   LIG    1       22.086 -15.396   5.951  0.00  0.00    -0.249 F 
ENDBRANCH  21  22
ENDBRANCH  20  21
ENDBRANCH   5  20
TORSDOF 6
ENDMDL
MODEL 6
REMARK VINA RESULT:      -5.1      7.801     10.911
REMARK  Name = *****
REMARK                            x       y       z     vdW  Elec       q    Type
REMARK                         _______ _______ _______ _____ _____    ______ ____
ROOT
ATOM      1  C   LIG    1       25.391 -30.649   6.404  0.00  0.00    +0.122 C 
ATOM      2  C   LIG    1       25.830 -30.916   7.873  0.00  0.00    +0.036 C 
ATOM      3  C   LIG    1       26.413 -32.340   8.061  0.00  0.00    +0.028 C 
ATOM      4  C   LIG    1       25.963 -33.391   7.029  0.00  0.00    +0.058 C 
ATOM      5  N   LIG    1       26.174 -32.820   5.683  0.00  0.00    -0.296 NA
ATOM      6  C   LIG    1       24.469 -33.696   7.095  0.00  0.00    +0.020 C 
ATOM      7  C   LIG    1       23.846 -32.756   6.068  0.00  0.00    +0.021 C 
ATOM      8  C   LIG    1       25.010 -31.897   5.566  0.00  0.00    +0.071 C 
ENDROOT
BRANCH   2   9
ATOM      9  C   LIG    1       24.882 -30.553   9.018  0.00  0.00    -0.043 A 
ATOM     10  C   LIG    1       25.366 -29.832  10.127  0.00  0.00    +0.005 A 
ATOM     11  C   LIG    1       24.526 -29.506  11.202  0.00  0.00    +0.014 A 
ATOM     12  C   LIG    1       23.193 -29.902  11.186  0.00  0.00    +0.013 A 
ATOM     13  I   LIG    1       21.934 -29.445  12.771  0.00  0.00    -0.044 I 
ATOM     14  C   LIG    1       22.695 -30.611  10.102  0.00  0.00    +0.014 A 
ATOM     15  C   LIG    1       23.538 -30.929   9.037  0.00  0.00    +0.005 A 
ENDBRANCH   2   9
BRANCH   1  16
ATOM     16  C   LIG    1       24.413 -29.498   6.239  0.00  0.00    +0.312 C 
ATOM     17  O   LIG    1       23.280 -29.601   5.807  0.00  0.00    -0.251 OA
BRANCH  16  19
ATOM     18  C   LIG    1       24.487 -27.122   6.062  0.00  0.00    +0.280 C 
ATOM     19  O   LIG    1       25.018 -28.329   6.614  0.00  0.00    -0.468 OA
ENDBRANCH  16  19
ENDBRANCH   1  16
BRANCH   5  20
ATOM     20  C   LIG    1       26.212 -33.822   4.600  0.00  0.00    +0.087 C 
BRANCH  20  21
ATOM     21  C   LIG    1       27.346 -33.568   3.604  0.00  0.00    +0.049 C 
BRANCH  21  22
ATOM     22  C   LIG    1       26.814 -33.210   2.232  0.00  0.00    +0.214 C 
ATOM     23  F   LIG    1       25.681 -32.473   2.388  0.00  0.00    -0.249 F 
ENDBRANCH  21  22
ENDBRANCH  20  21
ENDBRANCH   5  20
TORSDOF 6
ENDMDL
MODEL 7
REMARK VINA RESULT:      -5.0      4.186      6.803
REMARK  Name = *****
REMARK                            x       y       z     vdW  Elec       q    Type
REMARK                         _______ _______ _______ _____ _____    ______ ____
ROOT
ATOM      1  C   LIG    1       23.539 -22.050   5.940  0.00  0.00    +0.122 C 
ATOM      2  C   LIG    1       24.026 -20.922   6.897  0.00  0.00    +0.036 C 
ATOM      3  C   LIG    1       23.269 -19.590   6.666  0.00  0.00    +0.028 C 
ATOM      4  C   LIG    1       22.644 -19.406   5.271  0.00  0.00    +0.058 C 
ATOM      5  N   LIG    1       21.852 -20.615   4.969  0.00  0.00    -0.296 NA
ATOM      6  C   LIG    1       23.680 -19.329   4.153  0.00  0.00    +0.020 C 
ATOM      7  C   LIG    1       23.806 -20.766   3.656  0.00  0.00    +0.021 C 
ATOM      8  C   LIG    1       22.919 -21.586   4.596  0.00  0.00    +0.071 C 
ENDROOT
BRANCH   2   9
ATOM      9  C   LIG    1       25.527 -20.681   7.070  0.00  0.00    -0.043 A 
ATOM     10  C   LIG    1       26.090 -20.658   8.361  0.00  0.00    +0.005 A 
ATOM     11  C   LIG    1       27.457 -20.415   8.552  0.00  0.00    +0.014 A 
ATOM     12  C   LIG    1       28.282 -20.185   7.455  0.00  0.00    +0.013 A 
ATOM     13  I   LIG    1       30.306 -19.810   7.712  0.00  0.00    -0.044 I 
ATOM     14  C   LIG    1       27.749 -20.206   6.174  0.00  0.00    +0.014 A 
ATOM     15  C   LIG    1       26.386 -20.450   5.995  0.00  0.00    +0.005 A 
ENDBRANCH   2   9
BRANCH   1  16
ATOM     16  C   LIG    1       24.514 -23.204   5.781  0.00  0.00    +0.312 C 
ATOM     17  O   LIG    1       24.998 -23.569   4.725  0.00  0.00    -0.251 OA
BRANCH  16  19
ATOM     18  C   LIG    1       25.817 -24.713   7.088  0.00  0.00    +0.280 C 
ATOM     19  O   LIG    1       24.729 -23.790   6.999  0.00  0.00    -0.468 OA
ENDBRANCH  16  19
ENDBRANCH   1  16
BRANCH   5  20
ATOM     20  C   LIG    1       20.853 -20.434   3.898  0.00  0.00    +0.087 C 
BRANCH  20  21
ATOM     21  C   LIG    1       20.547 -18.960   3.621  0.00  0.00    +0.049 C 
BRANCH  21  22
ATOM     22  C   LIG    1       19.158 -18.778   3.045  0.00  0.00    +0.214 C 
ATOM     23  F   LIG    1       19.238 -17.926   1.988  0.00  0.00    -0.249 F 
ENDBRANCH  21  22
ENDBRANCH  20  21
ENDBRANCH   5  20
TORSDOF 6
ENDMDL
MODEL 8
REMARK VINA RESULT:      -4.6      7.209      9.792
REMARK  Name = *****
REMARK                            x       y       z     vdW  Elec       q    Type
REMARK                         _______ _______ _______ _____ _____    ______ ____
ROOT
ATOM      1  C   LIG    1       24.256 -30.154   8.323  0.00  0.00    +0.122 C 
ATOM      2  C   LIG    1       24.184 -31.667   7.963  0.00  0.00    +0.036 C 
ATOM      3  C   LIG    1       24.567 -32.574   9.160  0.00  0.00    +0.028 C 
ATOM      4  C   LIG    1       25.459 -31.925  10.234  0.00  0.00    +0.058 C 
ATOM      5  N   LIG    1       24.841 -30.640  10.618  0.00  0.00    -0.296 NA
ATOM      6  C   LIG    1       26.847 -31.553   9.719  0.00  0.00    +0.020 C 
ATOM      7  C   LIG    1       26.709 -30.098   9.282  0.00  0.00    +0.021 C 
ATOM      8  C   LIG    1       25.225 -29.770   9.471  0.00  0.00    +0.071 C 
ENDROOT
BRANCH   2   9
ATOM      9  C   LIG    1       24.830 -32.162   6.668  0.00  0.00    -0.043 A 
ATOM     10  C   LIG    1       26.226 -32.067   6.499  0.00  0.00    +0.005 A 
ATOM     11  C   LIG    1       26.843 -32.491   5.313  0.00  0.00    +0.014 A 
ATOM     12  C   LIG    1       26.074 -33.010   4.277  0.00  0.00    +0.013 A 
ATOM     13  I   LIG    1       26.962 -33.631   2.508  0.00  0.00    -0.044 I 
ATOM     14  C   LIG    1       24.698 -33.116   4.423  0.00  0.00    +0.014 A 
ATOM     15  C   LIG    1       24.093 -32.693   5.607  0.00  0.00    +0.005 A 
ENDBRANCH   2   9
BRANCH   1  16
ATOM     16  C   LIG    1       24.354 -29.227   7.124  0.00  0.00    +0.312 C 
ATOM     17  O   LIG    1       23.664 -29.304   6.123  0.00  0.00    -0.251 OA
BRANCH  16  19
ATOM     18  C   LIG    1       25.490 -27.273   6.365  0.00  0.00    +0.280 C 
ATOM     19  O   LIG    1       25.359 -28.321   7.329  0.00  0.00    -0.468 OA
ENDBRANCH  16  19
ENDBRANCH   1  16
BRANCH   5  20
ATOM     20  C   LIG    1       25.307 -30.106  11.913  0.00  0.00    +0.087 C 
BRANCH  20  21
ATOM     21  C   LIG    1       24.823 -28.677  12.169  0.00  0.00    +0.049 C 
BRANCH  21  22
ATOM     22  C   LIG    1       25.966 -27.764  12.565  0.00  0.00    +0.214 C 
ATOM     23  F   LIG    1       26.650 -27.418  11.442  0.00  0.00    -0.249 F 
ENDBRANCH  21  22
ENDBRANCH  20  21
ENDBRANCH   5  20
TORSDOF 6
ENDMDL
MODEL 9
REMARK VINA RESULT:      -4.5      2.671      4.322
REMARK  Name = *****
REMARK                            x       y       z     vdW  Elec       q    Type
REMARK                         _______ _______ _______ _____ _____    ______ ____
ROOT
ATOM      1  C   LIG    1       26.362 -22.469   6.368  0.00  0.00    +0.122 C 
ATOM      2  C   LIG    1       26.381 -21.224   5.435  0.00  0.00    +0.036 C 
ATOM      3  C   LIG    1       27.441 -20.180   5.871  0.00  0.00    +0.028 C 
ATOM      4  C   LIG    1       27.858 -20.227   7.352  0.00  0.00    +0.058 C 
ATOM      5  N   LIG    1       28.210 -21.624   7.678  0.00  0.00    -0.296 NA
ATOM      6  C   LIG    1       26.721 -19.877   8.309  0.00  0.00    +0.020 C 
ATOM      7  C   LIG    1       26.109 -21.225   8.676  0.00  0.00    +0.021 C 
ATOM      8  C   LIG    1       26.863 -22.245   7.819  0.00  0.00    +0.071 C 
ENDROOT
BRANCH   2   9
ATOM      9  C   LIG    1       25.062 -20.545   5.061  0.00  0.00    -0.043 A 
ATOM     10  C   LIG    1       24.935 -19.894   3.818  0.00  0.00    +0.005 A 
ATOM     11  C   LIG    1       23.746 -19.243   3.459  0.00  0.00    +0.014 A 
ATOM     12  C   LIG    1       22.669 -19.228   4.339  0.00  0.00    +0.013 A 
ATOM     13  I   LIG    1       20.904 -18.261   3.836  0.00  0.00    -0.044 I 
ATOM     14  C   LIG    1       22.771 -19.866   5.567  0.00  0.00    +0.014 A 
ATOM     15  C   LIG    1       23.958 -20.513   5.915  0.00  0.00    +0.005 A 
ENDBRANCH   2   9
BRANCH   1  16
ATOM     16  C   LIG    1       25.085 -23.288   6.298  0.00  0.00    +0.312 C 
ATOM     17  O   LIG    1       24.274 -23.396   7.199  0.00  0.00    -0.251 OA
BRANCH  16  19
ATOM     18  C   LIG    1       25.292 -25.315   5.059  0.00  0.00    +0.280 C 
ATOM     19  O   LIG    1       25.010 -23.913   5.083  0.00  0.00    -0.468 OA
ENDBRANCH  16  19
ENDBRANCH   1  16
BRANCH   5  20
ATOM     20  C   LIG    1       29.031 -21.774   8.895  0.00  0.00    +0.087 C 
BRANCH  20  21
ATOM     21  C   LIG    1       30.531 -21.665   8.611  0.00  0.00    +0.049 C 
BRANCH  21  22
ATOM     22  C   LIG    1       31.008 -20.228   8.675  0.00  0.00    +0.214 C 
ATOM     23  F   LIG    1       31.383 -19.843   7.426  0.00  0.00    -0.249 F 
ENDBRANCH  21  22
ENDBRANCH  20  21
ENDBRANCH   5  20
TORSDOF 6
ENDMDL
