MODEL 1
REMARK VINA RESULT:      -2.8      0.000      0.000
REMARK  Name = *****
REMARK                            x       y       z     vdW  Elec       q    Type
REMARK                         _______ _______ _______ _____ _____    ______ ____
ROOT
ATOM      1  CA  LIG    1       25.319 -14.189   4.451  0.00  0.00    +0.195 C 
ATOM      2  N   LIG    1       25.852 -15.409   3.811  0.00  0.00    -0.276 N 
ATOM      3  C   LIG    1       25.073 -16.543   3.696  0.00  0.00    +0.237 C 
ATOM      4  O   LIG    1       23.900 -16.495   4.087  0.00  0.00    -0.274 OA
ATOM      5  C   LIG    1       27.197 -15.261   3.296  0.00  0.00    +0.178 C 
ATOM      6  SG  LIG    1       27.863 -13.695   3.869  0.00  0.00    -0.139 S 
ATOM      7  CB  LIG    1       26.489 -13.378   4.997  0.00  0.00    +0.104 C 
ENDROOT
BRANCH   3   8
ATOM      8  CA  LIG    1       25.693 -17.850   3.110  0.00  0.00    +0.160 C 
ATOM      9  N   LIG    1       26.622 -18.465   4.034  0.00  0.00    -0.304 N 
ATOM     10  H   LIG    1       27.501 -18.067   4.343  0.00  0.00    +0.149 HD
ATOM     11  C   LIG    1       26.042 -19.485   4.757  0.00  0.00    +0.214 C 
ATOM     12  O   LIG    1       26.563 -20.083   5.688  0.00  0.00    -0.276 OA
ATOM     13  C   LIG    1       24.648 -19.696   4.234  0.00  0.00    +0.098 C 
ATOM     14  C   LIG    1       24.719 -18.998   2.879  0.00  0.00    +0.041 C 
ENDBRANCH   3   8
BRANCH   1  16
ATOM     15  O   LIG    1       24.330 -13.557   2.297  0.00  0.00    -0.249 OA
ATOM     16  C   LIG    1       24.438 -13.363   3.499  0.00  0.00    +0.326 C 
BRANCH  16  17
ATOM     17  OXT LIG    1       23.819 -12.323   4.111  0.00  0.00    -0.479 OA
ATOM     18  HXT LIG    1       24.031 -12.250   5.073  0.00  0.00    +0.295 HD
ENDBRANCH  16  17
ENDBRANCH   1  16
TORSDOF 3
ENDMDL
MODEL 2
REMARK VINA RESULT:      -2.2      1.593      1.739
REMARK  Name = *****
REMARK                            x       y       z     vdW  Elec       q    Type
REMARK                         _______ _______ _______ _____ _____    ______ ____
ROOT
ATOM      1  CA  LIG    1       24.776 -14.341   4.667  0.00  0.00    +0.195 C 
ATOM      2  N   LIG    1       24.574 -15.643   4.000  0.00  0.00    -0.276 N 
ATOM      3  C   LIG    1       23.407 -16.357   4.185  0.00  0.00    +0.237 C 
ATOM      4  O   LIG    1       22.511 -15.854   4.875  0.00  0.00    -0.274 OA
ATOM      5  C   LIG    1       25.665 -16.032   3.130  0.00  0.00    +0.178 C 
ATOM      6  SG  LIG    1       27.033 -14.898   3.383  0.00  0.00    -0.139 S 
ATOM      7  CB  LIG    1       26.275 -14.100   4.813  0.00  0.00    +0.104 C 
ENDROOT
BRANCH   3   8
ATOM      8  CA  LIG    1       23.261 -17.777   3.553  0.00  0.00    +0.160 C 
ATOM      9  N   LIG    1       24.349 -18.651   3.938  0.00  0.00    -0.304 N 
ATOM     10  H   LIG    1       25.323 -18.530   3.687  0.00  0.00    +0.149 HD
ATOM     11  C   LIG    1       24.011 -19.472   4.992  0.00  0.00    +0.214 C 
ATOM     12  O   LIG    1       24.779 -20.213   5.591  0.00  0.00    -0.276 OA
ATOM     13  C   LIG    1       22.555 -19.262   5.301  0.00  0.00    +0.098 C 
ATOM     14  C   LIG    1       22.062 -18.590   4.024  0.00  0.00    +0.041 C 
ENDBRANCH   3   8
BRANCH   1  16
ATOM     15  O   LIG    1       23.781 -13.189   2.744  0.00  0.00    -0.249 OA
ATOM     16  C   LIG    1       24.074 -13.188   3.930  0.00  0.00    +0.326 C 
BRANCH  16  17
ATOM     17  OXT LIG    1       23.858 -12.104   4.717  0.00  0.00    -0.479 OA
ATOM     18  HXT LIG    1       22.946 -12.068   5.095  0.00  0.00    +0.295 HD
ENDBRANCH  16  17
ENDBRANCH   1  16
TORSDOF 3
ENDMDL
MODEL 3
REMARK VINA RESULT:      -1.9      2.455      3.037
REMARK  Name = *****
REMARK                            x       y       z     vdW  Elec       q    Type
REMARK                         _______ _______ _______ _____ _____    ______ ____
ROOT
ATOM      1  CA  LIG    1       26.121 -15.131   3.050  0.00  0.00    +0.195 C 
ATOM      2  N   LIG    1       24.968 -15.945   3.487  0.00  0.00    -0.276 N 
ATOM      3  C   LIG    1       24.992 -17.322   3.375  0.00  0.00    +0.237 C 
ATOM      4  O   LIG    1       26.023 -17.860   2.954  0.00  0.00    -0.274 OA
ATOM      5  C   LIG    1       23.891 -15.172   4.071  0.00  0.00    +0.178 C 
ATOM      6  SG  LIG    1       24.226 -13.429   3.803  0.00  0.00    -0.139 S 
ATOM      7  CB  LIG    1       25.620 -13.735   2.698  0.00  0.00    +0.104 C 
ENDROOT
BRANCH   3   8
ATOM      8  CA  LIG    1       23.723 -18.150   3.747  0.00  0.00    +0.160 C 
ATOM      9  N   LIG    1       23.608 -19.347   2.943  0.00  0.00    -0.304 N 
ATOM     10  H   LIG    1       23.454 -19.376   1.941  0.00  0.00    +0.149 HD
ATOM     11  C   LIG    1       24.093 -20.462   3.592  0.00  0.00    +0.214 C 
ATOM     12  O   LIG    1       24.230 -21.572   3.095  0.00  0.00    -0.276 OA
ATOM     13  C   LIG    1       24.466 -20.063   4.992  0.00  0.00    +0.098 C 
ATOM     14  C   LIG    1       23.711 -18.746   5.149  0.00  0.00    +0.041 C 
ENDBRANCH   3   8
BRANCH   1  16
ATOM     15  O   LIG    1       27.518 -14.134   4.802  0.00  0.00    -0.249 OA
ATOM     16  C   LIG    1       27.245 -15.095   4.098  0.00  0.00    +0.326 C 
BRANCH  16  17
ATOM     17  OXT LIG    1       27.979 -16.236   4.132  0.00  0.00    -0.479 OA
ATOM     18  HXT LIG    1       28.952 -16.080   4.051  0.00  0.00    +0.295 HD
ENDBRANCH  16  17
ENDBRANCH   1  16
TORSDOF 3
ENDMDL
MODEL 4
REMARK VINA RESULT:      -1.6      4.638      5.696
REMARK  Name = *****
REMARK                            x       y       z     vdW  Elec       q    Type
REMARK                         _______ _______ _______ _____ _____    ______ ____
ROOT
ATOM      1  CA  LIG    1       23.428 -20.304   4.405  0.00  0.00    +0.195 C 
ATOM      2  N   LIG    1       24.649 -20.664   5.155  0.00  0.00    -0.276 N 
ATOM      3  C   LIG    1       25.900 -20.441   4.616  0.00  0.00    +0.237 C 
ATOM      4  O   LIG    1       25.977 -19.880   3.517  0.00  0.00    -0.274 OA
ATOM      5  C   LIG    1       24.389 -21.198   6.477  0.00  0.00    +0.178 C 
ATOM      6  SG  LIG    1       22.626 -21.495   6.639  0.00  0.00    -0.139 S 
ATOM      7  CB  LIG    1       22.282 -21.182   4.895  0.00  0.00    +0.104 C 
ENDROOT
BRANCH   3   8
ATOM      8  CA  LIG    1       27.170 -20.926   5.384  0.00  0.00    +0.160 C 
ATOM      9  N   LIG    1       28.345 -20.166   5.014  0.00  0.00    -0.304 N 
ATOM     10  H   LIG    1       28.780 -20.156   4.099  0.00  0.00    +0.149 HD
ATOM     11  C   LIG    1       28.619 -19.157   5.912  0.00  0.00    +0.214 C 
ATOM     12  O   LIG    1       29.474 -18.293   5.772  0.00  0.00    -0.276 OA
ATOM     13  C   LIG    1       27.656 -19.277   7.060  0.00  0.00    +0.098 C 
ATOM     14  C   LIG    1       27.153 -20.708   6.892  0.00  0.00    +0.041 C 
ENDBRANCH   3   8
BRANCH   1  16
ATOM     15  O   LIG    1       22.231 -18.329   5.231  0.00  0.00    -0.249 OA
ATOM     16  C   LIG    1       23.095 -18.806   4.511  0.00  0.00    +0.326 C 
BRANCH  16  17
ATOM     17  OXT LIG    1       23.820 -18.037   3.660  0.00  0.00    -0.479 OA
ATOM     18  HXT LIG    1       24.720 -18.398   3.473  0.00  0.00    +0.295 HD
ENDBRANCH  16  17
ENDBRANCH   1  16
TORSDOF 3
ENDMDL
MODEL 5
REMARK VINA RESULT:      -1.2      2.834      5.522
REMARK  Name = *****
REMARK                            x       y       z     vdW  Elec       q    Type
REMARK                         _______ _______ _______ _____ _____    ______ ____
ROOT
ATOM      1  CA  LIG    1       24.585 -19.143   4.281  0.00  0.00    +0.195 C 
ATOM      2  N   LIG    1       24.414 -17.733   3.877  0.00  0.00    -0.276 N 
ATOM      3  C   LIG    1       25.504 -16.962   3.524  0.00  0.00    +0.237 C 
ATOM      4  O   LIG    1       26.619 -17.495   3.498  0.00  0.00    -0.274 OA
ATOM      5  C   LIG    1       23.033 -17.296   3.841  0.00  0.00    +0.178 C 
ATOM      6  SG  LIG    1       22.009 -18.573   4.581  0.00  0.00    -0.139 S 
ATOM      7  CB  LIG    1       23.415 -19.536   5.175  0.00  0.00    +0.104 C 
ENDROOT
BRANCH   3   8
ATOM      8  CA  LIG    1       25.307 -15.447   3.202  0.00  0.00    +0.160 C 
ATOM      9  N   LIG    1       25.231 -14.647   4.406  0.00  0.00    -0.304 N 
ATOM     10  H   LIG    1       24.498 -14.696   5.104  0.00  0.00    +0.149 HD
ATOM     11  C   LIG    1       26.438 -14.061   4.721  0.00  0.00    +0.214 C 
ATOM     12  O   LIG    1       26.681 -13.441   5.747  0.00  0.00    -0.276 OA
ATOM     13  C   LIG    1       27.406 -14.358   3.610  0.00  0.00    +0.098 C 
ATOM     14  C   LIG    1       26.466 -14.769   2.482  0.00  0.00    +0.041 C 
ENDBRANCH   3   8
BRANCH   1  16
ATOM     15  O   LIG    1       24.123 -21.134   2.924  0.00  0.00    -0.249 OA
ATOM     16  C   LIG    1       24.733 -20.085   3.075  0.00  0.00    +0.326 C 
BRANCH  16  17
ATOM     17  OXT LIG    1       25.678 -19.677   2.191  0.00  0.00    -0.479 OA
ATOM     18  HXT LIG    1       26.553 -19.487   2.610  0.00  0.00    +0.295 HD
ENDBRANCH  16  17
ENDBRANCH   1  16
TORSDOF 3
ENDMDL
MODEL 6
REMARK VINA RESULT:      -0.9      4.087      5.024
REMARK  Name = *****
REMARK                            x       y       z     vdW  Elec       q    Type
REMARK                         _______ _______ _______ _____ _____    ______ ____
ROOT
ATOM      1  CA  LIG    1       23.030 -18.908   3.656  0.00  0.00    +0.195 C 
ATOM      2  N   LIG    1       23.971 -19.828   4.328  0.00  0.00    -0.276 N 
ATOM      3  C   LIG    1       25.335 -19.658   4.201  0.00  0.00    +0.237 C 
ATOM      4  O   LIG    1       25.751 -18.686   3.560  0.00  0.00    -0.274 OA
ATOM      5  C   LIG    1       23.324 -20.838   5.140  0.00  0.00    +0.178 C 
ATOM      6  SG  LIG    1       21.558 -20.788   4.821  0.00  0.00    -0.139 S 
ATOM      7  CB  LIG    1       21.712 -19.642   3.434  0.00  0.00    +0.104 C 
ENDROOT
BRANCH   3   8
ATOM      8  CA  LIG    1       26.306 -20.704   4.835  0.00  0.00    +0.160 C 
ATOM      9  N   LIG    1       27.666 -20.213   4.883  0.00  0.00    -0.304 N 
ATOM     10  H   LIG    1       28.251 -20.008   4.082  0.00  0.00    +0.149 HD
ATOM     11  C   LIG    1       27.990 -19.689   6.117  0.00  0.00    +0.214 C 
ATOM     12  O   LIG    1       29.026 -19.098   6.389  0.00  0.00    -0.276 OA
ATOM     13  C   LIG    1       26.833 -19.929   7.045  0.00  0.00    +0.098 C 
ATOM     14  C   LIG    1       26.065 -21.021   6.306  0.00  0.00    +0.041 C 
ENDBRANCH   3   8
BRANCH   1  16
ATOM     15  O   LIG    1       21.945 -17.382   5.240  0.00  0.00    -0.249 OA
ATOM     16  C   LIG    1       22.837 -17.595   4.432  0.00  0.00    +0.326 C 
BRANCH  16  17
ATOM     17  OXT LIG    1       23.730 -16.634   4.086  0.00  0.00    -0.479 OA
ATOM     18  HXT LIG    1       23.950 -16.017   4.825  0.00  0.00    +0.295 HD
ENDBRANCH  16  17
ENDBRANCH   1  16
TORSDOF 3
ENDMDL
MODEL 7
REMARK VINA RESULT:      -0.6      2.362      5.452
REMARK  Name = *****
REMARK                            x       y       z     vdW  Elec       q    Type
REMARK                         _______ _______ _______ _____ _____    ______ ____
ROOT
ATOM      1  CA  LIG    1       23.436 -18.391   3.574  0.00  0.00    +0.195 C 
ATOM      2  N   LIG    1       24.589 -17.476   3.687  0.00  0.00    -0.276 N 
ATOM      3  C   LIG    1       24.405 -16.107   3.707  0.00  0.00    +0.237 C 
ATOM      4  O   LIG    1       23.249 -15.668   3.687  0.00  0.00    -0.274 OA
ATOM      5  C   LIG    1       25.863 -18.151   3.826  0.00  0.00    +0.178 C 
ATOM      6  SG  LIG    1       25.618 -19.905   3.531  0.00  0.00    -0.139 S 
ATOM      7  CB  LIG    1       23.917 -19.702   2.961  0.00  0.00    +0.104 C 
ENDROOT
BRANCH   3   8
ATOM      8  CA  LIG    1       25.647 -15.161   3.723  0.00  0.00    +0.160 C 
ATOM      9  N   LIG    1       25.728 -14.361   2.519  0.00  0.00    -0.304 N 
ATOM     10  H   LIG    1       25.884 -14.714   1.582  0.00  0.00    +0.149 HD
ATOM     11  C   LIG    1       25.204 -13.098   2.695  0.00  0.00    +0.214 C 
ATOM     12  O   LIG    1       25.035 -12.269   1.812  0.00  0.00    -0.276 OA
ATOM     13  C   LIG    1       24.839 -12.941   4.145  0.00  0.00    +0.098 C 
ATOM     14  C   LIG    1       25.634 -14.072   4.788  0.00  0.00    +0.041 C 
ENDBRANCH   3   8
BRANCH   1  16
ATOM     15  O   LIG    1       22.759 -19.642   5.573  0.00  0.00    -0.249 OA
ATOM     16  C   LIG    1       22.725 -18.609   4.920  0.00  0.00    +0.326 C 
BRANCH  16  17
ATOM     17  OXT LIG    1       21.975 -17.546   5.305  0.00  0.00    -0.479 OA
ATOM     18  HXT LIG    1       22.126 -17.278   6.244  0.00  0.00    +0.295 HD
ENDBRANCH  16  17
ENDBRANCH   1  16
TORSDOF 3
ENDMDL
MODEL 8
REMARK VINA RESULT:      -0.2      2.848      3.868
REMARK  Name = *****
REMARK                            x       y       z     vdW  Elec       q    Type
REMARK                         _______ _______ _______ _____ _____    ______ ____
ROOT
ATOM      1  CA  LIG    1       25.545 -15.441   2.996  0.00  0.00    +0.195 C 
ATOM      2  N   LIG    1       24.429 -15.814   3.889  0.00  0.00    -0.276 N 
ATOM      3  C   LIG    1       24.055 -17.135   4.039  0.00  0.00    +0.237 C 
ATOM      4  O   LIG    1       24.714 -18.003   3.453  0.00  0.00    -0.274 OA
ATOM      5  C   LIG    1       23.843 -14.693   4.595  0.00  0.00    +0.178 C 
ATOM      6  SG  LIG    1       24.515 -13.173   3.916  0.00  0.00    -0.139 S 
ATOM      7  CB  LIG    1       25.340 -14.001   2.541  0.00  0.00    +0.104 C 
ENDROOT
BRANCH   3   8
ATOM      8  CA  LIG    1       22.808 -17.492   4.907  0.00  0.00    +0.160 C 
ATOM      9  N   LIG    1       21.572 -17.267   4.188  0.00  0.00    -0.304 N 
ATOM     10  H   LIG    1       21.222 -16.368   3.877  0.00  0.00    +0.149 HD
ATOM     11  C   LIG    1       21.074 -18.425   3.630  0.00  0.00    +0.214 C 
ATOM     12  O   LIG    1       20.117 -18.494   2.871  0.00  0.00    -0.276 OA
ATOM     13  C   LIG    1       21.939 -19.570   4.077  0.00  0.00    +0.098 C 
ATOM     14  C   LIG    1       22.659 -18.962   5.277  0.00  0.00    +0.041 C 
ENDBRANCH   3   8
BRANCH   1  16
ATOM     15  O   LIG    1       27.600 -14.764   4.152  0.00  0.00    -0.249 OA
ATOM     16  C   LIG    1       26.919 -15.649   3.655  0.00  0.00    +0.326 C 
BRANCH  16  17
ATOM     17  OXT LIG    1       27.359 -16.930   3.579  0.00  0.00    -0.479 OA
ATOM     18  HXT LIG    1       28.216 -17.024   3.096  0.00  0.00    +0.295 HD
ENDBRANCH  16  17
ENDBRANCH   1  16
TORSDOF 3
ENDMDL
MODEL 9
REMARK VINA RESULT:      -0.1      2.128      2.387
REMARK  Name = *****
REMARK                            x       y       z     vdW  Elec       q    Type
REMARK                         _______ _______ _______ _____ _____    ______ ____
ROOT
ATOM      1  CA  LIG    1       27.144 -14.154   3.747  0.00  0.00    +0.195 C 
ATOM      2  N   LIG    1       26.233 -15.216   3.276  0.00  0.00    -0.276 N 
ATOM      3  C   LIG    1       26.483 -16.542   3.569  0.00  0.00    +0.237 C 
ATOM      4  O   LIG    1       27.456 -16.815   4.283  0.00  0.00    -0.274 OA
ATOM      5  C   LIG    1       25.075 -14.721   2.559  0.00  0.00    +0.178 C 
ATOM      6  SG  LIG    1       25.299 -12.966   2.250  0.00  0.00    -0.139 S 
ATOM      7  CB  LIG    1       27.015 -12.956   2.812  0.00  0.00    +0.104 C 
ENDROOT
BRANCH   3   8
ATOM      8  CA  LIG    1       25.561 -17.652   2.972  0.00  0.00    +0.160 C 
ATOM      9  N   LIG    1       26.112 -18.975   3.177  0.00  0.00    -0.304 N 
ATOM     10  H   LIG    1       26.970 -19.329   2.771  0.00  0.00    +0.149 HD
ATOM     11  C   LIG    1       25.565 -19.605   4.275  0.00  0.00    +0.214 C 
ATOM     12  O   LIG    1       25.938 -20.671   4.743  0.00  0.00    -0.276 OA
ATOM     13  C   LIG    1       24.468 -18.731   4.817  0.00  0.00    +0.098 C 
ATOM     14  C   LIG    1       24.198 -17.805   3.635  0.00  0.00    +0.041 C 
ENDBRANCH   3   8
BRANCH   1  16
ATOM     15  O   LIG    1       25.817 -13.861   5.789  0.00  0.00    -0.249 OA
ATOM     16  C   LIG    1       26.893 -13.772   5.215  0.00  0.00    +0.326 C 
BRANCH  16  17
ATOM     17  OXT LIG    1       27.985 -13.246   5.825  0.00  0.00    -0.479 OA
ATOM     18  HXT LIG    1       27.771 -12.737   6.644  0.00  0.00    +0.295 HD
ENDBRANCH  16  17
ENDBRANCH   1  16
TORSDOF 3
ENDMDL
