MODEL 1
REMARK VINA RESULT:      -5.6      0.000      0.000
REMARK  Name = *****
REMARK                            x       y       z     vdW  Elec       q    Type
REMARK                         _______ _______ _______ _____ _____    ______ ____
ROOT
ATOM      1  N   LIG    1       23.714 -20.087   4.978  0.00  0.00    -0.225 N 
ATOM      2  C   LIG    1       24.926 -20.146   4.339  0.00  0.00    +0.248 C 
ATOM      3  O   LIG    1       25.178 -19.698   3.228  0.00  0.00    -0.273 OA
ATOM      4  C   LIG    1       25.912 -20.889   5.249  0.00  0.00    +0.191 C 
ATOM      5  N   LIG    1       25.067 -21.154   6.382  0.00  0.00    -0.284 N 
ATOM      6  H   LIG    1       25.356 -21.594   7.245  0.00  0.00    +0.151 HD
ATOM      7  C   LIG    1       23.798 -20.654   6.213  0.00  0.00    +0.309 C 
ATOM      8  O   LIG    1       22.926 -20.717   7.062  0.00  0.00    -0.252 OA
ENDROOT
BRANCH   4   9
ATOM      9  C   LIG    1       27.147 -20.095   5.594  0.00  0.00    -0.018 A 
ATOM     10  C   LIG    1       27.589 -19.018   4.808  0.00  0.00    +0.006 A 
ATOM     11  C   LIG    1       28.742 -18.309   5.152  0.00  0.00    +0.000 A 
ATOM     12  C   LIG    1       29.475 -18.671   6.279  0.00  0.00    +0.000 A 
ATOM     13  C   LIG    1       29.060 -19.746   7.061  0.00  0.00    +0.000 A 
ATOM     14  C   LIG    1       27.906 -20.456   6.720  0.00  0.00    +0.006 A 
ENDBRANCH   4   9
BRANCH   1  16
ATOM     15  C   LIG    1       22.673 -17.924   4.440  0.00  0.00    +0.025 C 
ATOM     16  C   LIG    1       22.532 -19.438   4.451  0.00  0.00    +0.114 C 
ENDBRANCH   1  16
TORSDOF 2
ENDMDL
MODEL 2
REMARK VINA RESULT:      -5.4      0.373      1.296
REMARK  Name = *****
REMARK                            x       y       z     vdW  Elec       q    Type
REMARK                         _______ _______ _______ _____ _____    ______ ____
ROOT
ATOM      1  N   LIG    1       23.719 -20.314   4.952  0.00  0.00    -0.225 N 
ATOM      2  C   LIG    1       24.957 -20.584   4.427  0.00  0.00    +0.248 C 
ATOM      3  O   LIG    1       25.306 -20.392   3.269  0.00  0.00    -0.273 OA
ATOM      4  C   LIG    1       25.827 -21.189   5.535  0.00  0.00    +0.191 C 
ATOM      5  N   LIG    1       24.901 -21.159   6.636  0.00  0.00    -0.284 N 
ATOM      6  H   LIG    1       25.104 -21.432   7.587  0.00  0.00    +0.151 HD
ATOM      7  C   LIG    1       23.688 -20.620   6.279  0.00  0.00    +0.309 C 
ATOM      8  O   LIG    1       22.767 -20.449   7.059  0.00  0.00    -0.252 OA
ENDROOT
BRANCH   4   9
ATOM      9  C   LIG    1       27.100 -20.427   5.802  0.00  0.00    -0.018 A 
ATOM     10  C   LIG    1       27.982 -20.781   6.836  0.00  0.00    +0.006 A 
ATOM     11  C   LIG    1       29.150 -20.050   7.062  0.00  0.00    +0.000 A 
ATOM     12  C   LIG    1       29.449 -18.948   6.265  0.00  0.00    +0.000 A 
ATOM     13  C   LIG    1       28.578 -18.572   5.245  0.00  0.00    +0.000 A 
ATOM     14  C   LIG    1       27.409 -19.304   5.017  0.00  0.00    +0.006 A 
ENDBRANCH   4   9
BRANCH   1  16
ATOM     15  C   LIG    1       22.548 -18.209   4.456  0.00  0.00    +0.025 C 
ATOM     16  C   LIG    1       22.625 -19.709   4.223  0.00  0.00    +0.114 C 
ENDBRANCH   1  16
TORSDOF 2
ENDMDL
MODEL 3
REMARK VINA RESULT:      -5.0      2.700      4.161
REMARK  Name = *****
REMARK                            x       y       z     vdW  Elec       q    Type
REMARK                         _______ _______ _______ _____ _____    ______ ____
ROOT
ATOM      1  N   LIG    1       24.348 -20.094   4.794  0.00  0.00    -0.225 N 
ATOM      2  C   LIG    1       23.910 -19.119   3.936  0.00  0.00    +0.248 C 
ATOM      3  O   LIG    1       22.741 -18.850   3.686  0.00  0.00    -0.273 OA
ATOM      4  C   LIG    1       25.136 -18.433   3.323  0.00  0.00    +0.191 C 
ATOM      5  N   LIG    1       26.191 -19.152   3.985  0.00  0.00    -0.284 N 
ATOM      6  H   LIG    1       27.181 -18.967   3.894  0.00  0.00    +0.151 HD
ATOM      7  C   LIG    1       25.708 -20.098   4.858  0.00  0.00    +0.309 C 
ATOM      8  O   LIG    1       26.417 -20.793   5.564  0.00  0.00    -0.252 OA
ENDROOT
BRANCH   4   9
ATOM      9  C   LIG    1       25.188 -16.944   3.556  0.00  0.00    -0.018 A 
ATOM     10  C   LIG    1       24.060 -16.210   3.960  0.00  0.00    +0.006 A 
ATOM     11  C   LIG    1       24.140 -14.830   4.159  0.00  0.00    +0.000 A 
ATOM     12  C   LIG    1       25.344 -14.162   3.949  0.00  0.00    +0.000 A 
ATOM     13  C   LIG    1       26.468 -14.872   3.534  0.00  0.00    +0.000 A 
ATOM     14  C   LIG    1       26.390 -16.253   3.334  0.00  0.00    +0.006 A 
ENDBRANCH   4   9
BRANCH   1  16
ATOM     15  C   LIG    1       23.386 -20.467   7.027  0.00  0.00    +0.025 C 
ATOM     16  C   LIG    1       23.487 -20.946   5.587  0.00  0.00    +0.114 C 
ENDBRANCH   1  16
TORSDOF 2
ENDMDL
MODEL 4
REMARK VINA RESULT:      -4.9      1.895      5.393
REMARK  Name = *****
REMARK                            x       y       z     vdW  Elec       q    Type
REMARK                         _______ _______ _______ _____ _____    ______ ____
ROOT
ATOM      1  N   LIG    1       27.381 -19.923   5.884  0.00  0.00    -0.225 N 
ATOM      2  C   LIG    1       26.288 -20.735   5.723  0.00  0.00    +0.248 C 
ATOM      3  O   LIG    1       25.887 -21.570   6.523  0.00  0.00    -0.273 OA
ATOM      4  C   LIG    1       25.664 -20.435   4.355  0.00  0.00    +0.191 C 
ATOM      5  N   LIG    1       26.541 -19.392   3.895  0.00  0.00    -0.284 N 
ATOM      6  H   LIG    1       26.443 -18.874   3.033  0.00  0.00    +0.151 HD
ATOM      7  C   LIG    1       27.518 -19.092   4.813  0.00  0.00    +0.309 C 
ATOM      8  O   LIG    1       28.344 -18.209   4.660  0.00  0.00    -0.252 OA
ENDROOT
BRANCH   4   9
ATOM      9  C   LIG    1       24.217 -20.016   4.419  0.00  0.00    -0.018 A 
ATOM     10  C   LIG    1       23.196 -20.903   4.798  0.00  0.00    +0.006 A 
ATOM     11  C   LIG    1       21.864 -20.486   4.839  0.00  0.00    +0.000 A 
ATOM     12  C   LIG    1       21.532 -19.178   4.493  0.00  0.00    +0.000 A 
ATOM     13  C   LIG    1       22.529 -18.289   4.100  0.00  0.00    +0.000 A 
ATOM     14  C   LIG    1       23.862 -18.705   4.059  0.00  0.00    +0.006 A 
ENDBRANCH   4   9
BRANCH   1  16
ATOM     15  C   LIG    1       29.317 -20.942   7.007  0.00  0.00    +0.025 C 
ATOM     16  C   LIG    1       28.221 -19.890   7.062  0.00  0.00    +0.114 C 
ENDBRANCH   1  16
TORSDOF 2
ENDMDL
MODEL 5
REMARK VINA RESULT:      -4.9      2.688      4.210
REMARK  Name = *****
REMARK                            x       y       z     vdW  Elec       q    Type
REMARK                         _______ _______ _______ _____ _____    ______ ____
ROOT
ATOM      1  N   LIG    1       24.377 -20.101   4.804  0.00  0.00    -0.225 N 
ATOM      2  C   LIG    1       23.895 -19.139   3.954  0.00  0.00    +0.248 C 
ATOM      3  O   LIG    1       22.715 -18.906   3.725  0.00  0.00    -0.273 OA
ATOM      4  C   LIG    1       25.089 -18.416   3.321  0.00  0.00    +0.191 C 
ATOM      5  N   LIG    1       26.177 -19.103   3.965  0.00  0.00    -0.284 N 
ATOM      6  H   LIG    1       27.159 -18.888   3.857  0.00  0.00    +0.151 HD
ATOM      7  C   LIG    1       25.738 -20.063   4.845  0.00  0.00    +0.309 C 
ATOM      8  O   LIG    1       26.479 -20.736   5.539  0.00  0.00    -0.252 OA
ENDROOT
BRANCH   4   9
ATOM      9  C   LIG    1       25.100 -16.926   3.554  0.00  0.00    -0.018 A 
ATOM     10  C   LIG    1       26.250 -16.145   3.354  0.00  0.00    +0.006 A 
ATOM     11  C   LIG    1       26.228 -14.768   3.586  0.00  0.00    +0.000 A 
ATOM     12  C   LIG    1       25.060 -14.153   4.030  0.00  0.00    +0.000 A 
ATOM     13  C   LIG    1       23.914 -14.914   4.248  0.00  0.00    +0.000 A 
ATOM     14  C   LIG    1       23.934 -16.292   4.015  0.00  0.00    +0.006 A 
ENDBRANCH   4   9
BRANCH   1  16
ATOM     15  C   LIG    1       23.410 -20.467   7.036  0.00  0.00    +0.025 C 
ATOM     16  C   LIG    1       23.556 -20.978   5.612  0.00  0.00    +0.114 C 
ENDBRANCH   1  16
TORSDOF 2
ENDMDL
MODEL 6
REMARK VINA RESULT:      -4.1      3.230      4.684
REMARK  Name = *****
REMARK                            x       y       z     vdW  Elec       q    Type
REMARK                         _______ _______ _______ _____ _____    ______ ____
ROOT
ATOM      1  N   LIG    1       25.445 -19.426   4.596  0.00  0.00    -0.225 N 
ATOM      2  C   LIG    1       24.840 -18.512   3.772  0.00  0.00    +0.248 C 
ATOM      3  O   LIG    1       23.646 -18.460   3.507  0.00  0.00    -0.273 OA
ATOM      4  C   LIG    1       25.921 -17.575   3.220  0.00  0.00    +0.191 C 
ATOM      5  N   LIG    1       27.085 -18.110   3.874  0.00  0.00    -0.284 N 
ATOM      6  H   LIG    1       28.021 -17.735   3.813  0.00  0.00    +0.151 HD
ATOM      7  C   LIG    1       26.780 -19.172   4.691  0.00  0.00    +0.309 C 
ATOM      8  O   LIG    1       27.599 -19.752   5.382  0.00  0.00    -0.252 OA
ENDROOT
BRANCH   4   9
ATOM      9  C   LIG    1       25.682 -16.116   3.520  0.00  0.00    -0.018 A 
ATOM     10  C   LIG    1       26.713 -15.164   3.472  0.00  0.00    +0.006 A 
ATOM     11  C   LIG    1       26.459 -13.822   3.763  0.00  0.00    +0.000 A 
ATOM     12  C   LIG    1       25.176 -13.414   4.116  0.00  0.00    +0.000 A 
ATOM     13  C   LIG    1       24.144 -14.348   4.184  0.00  0.00    +0.000 A 
ATOM     14  C   LIG    1       24.396 -15.691   3.892  0.00  0.00    +0.006 A 
ENDBRANCH   4   9
BRANCH   1  16
ATOM     15  C   LIG    1       24.252 -21.569   4.414  0.00  0.00    +0.025 C 
ATOM     16  C   LIG    1       24.753 -20.464   5.330  0.00  0.00    +0.114 C 
ENDBRANCH   1  16
TORSDOF 2
ENDMDL
MODEL 7
REMARK VINA RESULT:      -3.7      4.395      6.377
REMARK  Name = *****
REMARK                            x       y       z     vdW  Elec       q    Type
REMARK                         _______ _______ _______ _____ _____    ______ ____
ROOT
ATOM      1  N   LIG    1       26.263 -14.149   4.384  0.00  0.00    -0.225 N 
ATOM      2  C   LIG    1       26.266 -15.348   3.720  0.00  0.00    +0.248 C 
ATOM      3  O   LIG    1       27.235 -16.081   3.559  0.00  0.00    -0.273 OA
ATOM      4  C   LIG    1       24.851 -15.607   3.190  0.00  0.00    +0.191 C 
ATOM      5  N   LIG    1       24.173 -14.439   3.685  0.00  0.00    -0.284 N 
ATOM      6  H   LIG    1       23.186 -14.245   3.592  0.00  0.00    +0.151 HD
ATOM      7  C   LIG    1       25.010 -13.617   4.400  0.00  0.00    +0.309 C 
ATOM      8  O   LIG    1       24.644 -12.595   4.954  0.00  0.00    -0.252 OA
ENDROOT
BRANCH   4   9
ATOM      9  C   LIG    1       24.243 -16.902   3.670  0.00  0.00    -0.018 A 
ATOM     10  C   LIG    1       24.905 -18.134   3.538  0.00  0.00    +0.006 A 
ATOM     11  C   LIG    1       24.311 -19.315   3.986  0.00  0.00    +0.000 A 
ATOM     12  C   LIG    1       23.043 -19.285   4.563  0.00  0.00    +0.000 A 
ATOM     13  C   LIG    1       22.367 -18.074   4.688  0.00  0.00    +0.000 A 
ATOM     14  C   LIG    1       22.960 -16.890   4.241  0.00  0.00    +0.006 A 
ENDBRANCH   4   9
BRANCH   1  16
ATOM     15  C   LIG    1       28.391 -12.959   4.064  0.00  0.00    +0.025 C 
ATOM     16  C   LIG    1       27.410 -13.569   5.051  0.00  0.00    +0.114 C 
ENDBRANCH   1  16
TORSDOF 2
ENDMDL
MODEL 8
REMARK VINA RESULT:      -3.6      4.367      6.272
REMARK  Name = *****
REMARK                            x       y       z     vdW  Elec       q    Type
REMARK                         _______ _______ _______ _____ _____    ______ ____
ROOT
ATOM      1  N   LIG    1       26.408 -13.999   4.567  0.00  0.00    -0.225 N 
ATOM      2  C   LIG    1       26.656 -15.178   3.913  0.00  0.00    +0.248 C 
ATOM      3  O   LIG    1       27.708 -15.805   3.932  0.00  0.00    -0.273 OA
ATOM      4  C   LIG    1       25.395 -15.569   3.133  0.00  0.00    +0.191 C 
ATOM      5  N   LIG    1       24.521 -14.485   3.496  0.00  0.00    -0.284 N 
ATOM      6  H   LIG    1       23.553 -14.391   3.224  0.00  0.00    +0.151 HD
ATOM      7  C   LIG    1       25.124 -13.596   4.353  0.00  0.00    +0.309 C 
ATOM      8  O   LIG    1       24.561 -12.628   4.831  0.00  0.00    -0.252 OA
ENDROOT
BRANCH   4   9
ATOM      9  C   LIG    1       24.847 -16.927   3.493  0.00  0.00    -0.018 A 
ATOM     10  C   LIG    1       23.555 -17.098   4.017  0.00  0.00    +0.006 A 
ATOM     11  C   LIG    1       23.080 -18.369   4.347  0.00  0.00    +0.000 A 
ATOM     12  C   LIG    1       23.891 -19.486   4.168  0.00  0.00    +0.000 A 
ATOM     13  C   LIG    1       25.181 -19.334   3.664  0.00  0.00    +0.000 A 
ATOM     14  C   LIG    1       25.658 -18.063   3.333  0.00  0.00    +0.006 A 
ENDBRANCH   4   9
BRANCH   1  16
ATOM     15  C   LIG    1       28.423 -12.590   4.642  0.00  0.00    +0.025 C 
ATOM     16  C   LIG    1       27.348 -13.319   5.432  0.00  0.00    +0.114 C 
ENDBRANCH   1  16
TORSDOF 2
ENDMDL
MODEL 9
REMARK VINA RESULT:      -3.5      3.277      4.769
REMARK  Name = *****
REMARK                            x       y       z     vdW  Elec       q    Type
REMARK                         _______ _______ _______ _____ _____    ______ ____
ROOT
ATOM      1  N   LIG    1       24.912 -16.086   3.763  0.00  0.00    -0.225 N 
ATOM      2  C   LIG    1       25.130 -17.392   3.410  0.00  0.00    +0.248 C 
ATOM      3  O   LIG    1       26.180 -17.859   2.987  0.00  0.00    -0.273 OA
ATOM      4  C   LIG    1       23.825 -18.170   3.615  0.00  0.00    +0.191 C 
ATOM      5  N   LIG    1       22.978 -17.122   4.120  0.00  0.00    -0.284 N 
ATOM      6  H   LIG    1       22.024 -17.233   4.434  0.00  0.00    +0.151 HD
ATOM      7  C   LIG    1       23.640 -15.923   4.223  0.00  0.00    +0.309 C 
ATOM      8  O   LIG    1       23.138 -14.908   4.671  0.00  0.00    -0.252 OA
ENDROOT
BRANCH   4   9
ATOM      9  C   LIG    1       23.950 -19.344   4.553  0.00  0.00    -0.018 A 
ATOM     10  C   LIG    1       25.128 -20.103   4.650  0.00  0.00    +0.006 A 
ATOM     11  C   LIG    1       25.209 -21.189   5.523  0.00  0.00    +0.000 A 
ATOM     12  C   LIG    1       24.111 -21.540   6.305  0.00  0.00    +0.000 A 
ATOM     13  C   LIG    1       22.930 -20.807   6.212  0.00  0.00    +0.000 A 
ATOM     14  C   LIG    1       22.847 -19.720   5.339  0.00  0.00    +0.006 A 
ENDBRANCH   4   9
BRANCH   1  16
ATOM     15  C   LIG    1       25.753 -14.134   2.526  0.00  0.00    +0.025 C 
ATOM     16  C   LIG    1       25.914 -15.042   3.734  0.00  0.00    +0.114 C 
ENDBRANCH   1  16
TORSDOF 2
ENDMDL
