MODEL 1
REMARK VINA RESULT:      -9.6      0.000      0.000
REMARK  Name = *****
REMARK                            x       y       z     vdW  Elec       q    Type
REMARK                         _______ _______ _______ _____ _____    ______ ____
ROOT
ATOM      1  C   LIG    1       30.197 -20.882   7.978  0.00  0.00    +0.119 A 
ATOM      2  C   LIG    1       28.873 -21.346   8.016  0.00  0.00    +0.059 A 
ATOM      3  C   LIG    1       27.976 -20.824   7.074  0.00  0.00    +0.091 A 
ATOM      4  C   LIG    1       28.423 -19.883   6.157  0.00  0.00    +0.067 A 
ATOM      5  N   LIG    1       27.315 -19.596   5.405  0.00  0.00    -0.338 N 
ATOM      6  H   LIG    1       27.288 -18.941   4.641  0.00  0.00    +0.167 HD
ATOM      7  C   LIG    1       26.249 -20.335   5.869  0.00  0.00    +0.139 A 
ATOM      8  C   LIG    1       29.733 -19.404   6.106  0.00  0.00    +0.029 A 
ATOM      9  N   LIG    1       26.641 -21.092   6.882  0.00  0.00    -0.228 NA
ATOM     10  C   LIG    1       30.622 -19.924   7.048  0.00  0.00    +0.031 A 
ENDROOT
BRANCH   7  11
ATOM     11  C   LIG    1       24.894 -20.262   5.301  0.00  0.00    +0.017 A 
ATOM     12  C   LIG    1       24.619 -19.578   4.104  0.00  0.00    +0.011 A 
ATOM     13  C   LIG    1       23.320 -19.524   3.590  0.00  0.00    +0.001 A 
ATOM     14  C   LIG    1       22.276 -20.152   4.262  0.00  0.00    +0.000 A 
ATOM     15  C   LIG    1       22.530 -20.833   5.450  0.00  0.00    +0.001 A 
ATOM     16  C   LIG    1       23.829 -20.887   5.964  0.00  0.00    +0.011 A 
ENDBRANCH   7  11
BRANCH   1  18
ATOM     17  O   LIG    1       30.630 -22.133  10.234  0.00  0.00    -0.142 OA
ATOM     18  S   LIG    1       31.362 -21.499   9.157  0.00  0.00    +0.110 S 
ATOM     19  O   LIG    1       32.327 -20.456   9.415  0.00  0.00    -0.142 OA
BRANCH  18  20
ATOM     20  O   LIG    1       32.142 -22.696   8.407  0.00  0.00    -0.250 OA
ATOM     21  H   LIG    1       31.477 -23.363   8.138  0.00  0.00    +0.245 HD
ENDBRANCH  18  20
ENDBRANCH   1  18
TORSDOF 3
ENDMDL
MODEL 2
REMARK VINA RESULT:      -9.6      2.354      3.135
REMARK  Name = *****
REMARK                            x       y       z     vdW  Elec       q    Type
REMARK                         _______ _______ _______ _____ _____    ______ ____
ROOT
ATOM      1  C   LIG    1       30.121 -19.355   7.855  0.00  0.00    +0.119 A 
ATOM      2  C   LIG    1       29.323 -20.356   8.430  0.00  0.00    +0.059 A 
ATOM      3  C   LIG    1       28.242 -20.837   7.677  0.00  0.00    +0.091 A 
ATOM      4  C   LIG    1       28.006 -20.311   6.415  0.00  0.00    +0.067 A 
ATOM      5  N   LIG    1       26.903 -20.990   5.971  0.00  0.00    -0.338 N 
ATOM      6  H   LIG    1       26.457 -20.852   5.080  0.00  0.00    +0.167 HD
ATOM      7  C   LIG    1       26.496 -21.878   6.943  0.00  0.00    +0.139 A 
ATOM      8  C   LIG    1       28.783 -19.312   5.827  0.00  0.00    +0.029 A 
ATOM      9  N   LIG    1       27.309 -21.798   7.985  0.00  0.00    -0.228 NA
ATOM     10  C   LIG    1       29.856 -18.835   6.582  0.00  0.00    +0.031 A 
ENDROOT
BRANCH   7  11
ATOM     11  C   LIG    1       25.327 -22.761   6.808  0.00  0.00    +0.017 A 
ATOM     12  C   LIG    1       24.011 -22.291   6.962  0.00  0.00    +0.011 A 
ATOM     13  C   LIG    1       22.921 -23.155   6.830  0.00  0.00    +0.001 A 
ATOM     14  C   LIG    1       23.126 -24.501   6.542  0.00  0.00    +0.000 A 
ATOM     15  C   LIG    1       24.423 -24.984   6.386  0.00  0.00    +0.001 A 
ATOM     16  C   LIG    1       25.515 -24.120   6.518  0.00  0.00    +0.011 A 
ENDBRANCH   7  11
BRANCH   1  18
ATOM     17  O   LIG    1       32.104 -17.655   7.990  0.00  0.00    -0.142 OA
ATOM     18  S   LIG    1       31.486 -18.706   8.773  0.00  0.00    +0.110 S 
ATOM     19  O   LIG    1       32.255 -19.821   9.275  0.00  0.00    -0.142 OA
BRANCH  18  20
ATOM     20  O   LIG    1       30.834 -17.963  10.048  0.00  0.00    -0.250 OA
ATOM     21  H   LIG    1       30.808 -17.004   9.853  0.00  0.00    +0.245 HD
ENDBRANCH  18  20
ENDBRANCH   1  18
TORSDOF 3
ENDMDL
MODEL 3
REMARK VINA RESULT:      -9.5      2.601      3.231
REMARK  Name = *****
REMARK                            x       y       z     vdW  Elec       q    Type
REMARK                         _______ _______ _______ _____ _____    ______ ____
ROOT
ATOM      1  C   LIG    1       29.952 -18.731   8.161  0.00  0.00    +0.119 A 
ATOM      2  C   LIG    1       29.048 -19.612   8.772  0.00  0.00    +0.059 A 
ATOM      3  C   LIG    1       28.151 -20.301   7.943  0.00  0.00    +0.091 A 
ATOM      4  C   LIG    1       28.189 -20.083   6.573  0.00  0.00    +0.067 A 
ATOM      5  N   LIG    1       27.203 -20.896   6.078  0.00  0.00    -0.338 N 
ATOM      6  H   LIG    1       26.958 -20.982   5.106  0.00  0.00    +0.167 HD
ATOM      7  C   LIG    1       26.597 -21.560   7.122  0.00  0.00    +0.139 A 
ATOM      8  C   LIG    1       29.075 -19.207   5.945  0.00  0.00    +0.029 A 
ATOM      9  N   LIG    1       27.171 -21.210   8.263  0.00  0.00    -0.228 NA
ATOM     10  C   LIG    1       29.964 -18.523   6.775  0.00  0.00    +0.031 A 
ENDROOT
BRANCH   7  11
ATOM     11  C   LIG    1       25.482 -22.504   6.954  0.00  0.00    +0.017 A 
ATOM     12  C   LIG    1       25.689 -23.872   6.704  0.00  0.00    +0.011 A 
ATOM     13  C   LIG    1       24.609 -24.745   6.546  0.00  0.00    +0.001 A 
ATOM     14  C   LIG    1       23.305 -24.266   6.636  0.00  0.00    +0.000 A 
ATOM     15  C   LIG    1       23.081 -22.914   6.882  0.00  0.00    +0.001 A 
ATOM     16  C   LIG    1       24.162 -22.041   7.040  0.00  0.00    +0.011 A 
ENDBRANCH   7  11
BRANCH   1  18
ATOM     17  O   LIG    1       31.738 -18.758  10.072  0.00  0.00    -0.142 OA
ATOM     18  S   LIG    1       31.093 -17.829   9.167  0.00  0.00    +0.110 S 
ATOM     19  O   LIG    1       30.418 -16.649   9.655  0.00  0.00    -0.142 OA
BRANCH  18  20
ATOM     20  O   LIG    1       32.254 -17.333   8.163  0.00  0.00    -0.250 OA
ATOM     21  H   LIG    1       31.888 -16.605   7.620  0.00  0.00    +0.245 HD
ENDBRANCH  18  20
ENDBRANCH   1  18
TORSDOF 3
ENDMDL
MODEL 4
REMARK VINA RESULT:      -9.2      1.568      2.018
REMARK  Name = *****
REMARK                            x       y       z     vdW  Elec       q    Type
REMARK                         _______ _______ _______ _____ _____    ______ ____
ROOT
ATOM      1  C   LIG    1       30.011 -19.226   7.932  0.00  0.00    +0.119 A 
ATOM      2  C   LIG    1       28.842 -19.790   8.465  0.00  0.00    +0.059 A 
ATOM      3  C   LIG    1       27.810 -20.113   7.571  0.00  0.00    +0.091 A 
ATOM      4  C   LIG    1       27.982 -19.863   6.217  0.00  0.00    +0.067 A 
ATOM      5  N   LIG    1       26.811 -20.289   5.648  0.00  0.00    -0.338 N 
ATOM      6  H   LIG    1       26.597 -20.250   4.665  0.00  0.00    +0.167 HD
ATOM      7  C   LIG    1       25.974 -20.763   6.634  0.00  0.00    +0.139 A 
ATOM      8  C   LIG    1       29.133 -19.298   5.666  0.00  0.00    +0.029 A 
ATOM      9  N   LIG    1       26.575 -20.666   7.810  0.00  0.00    -0.228 NA
ATOM     10  C   LIG    1       30.155 -18.975   6.561  0.00  0.00    +0.031 A 
ENDROOT
BRANCH   7  11
ATOM     11  C   LIG    1       24.623 -21.285   6.379  0.00  0.00    +0.017 A 
ATOM     12  C   LIG    1       23.705 -20.616   5.551  0.00  0.00    +0.011 A 
ATOM     13  C   LIG    1       22.426 -21.136   5.330  0.00  0.00    +0.001 A 
ATOM     14  C   LIG    1       22.044 -22.331   5.932  0.00  0.00    +0.000 A 
ATOM     15  C   LIG    1       22.940 -23.007   6.757  0.00  0.00    +0.001 A 
ATOM     16  C   LIG    1       24.219 -22.487   6.978  0.00  0.00    +0.011 A 
ENDBRANCH   7  11
BRANCH   1  18
ATOM     17  O   LIG    1       30.776 -18.533  10.335  0.00  0.00    -0.142 OA
ATOM     18  S   LIG    1       31.332 -18.787   9.021  0.00  0.00    +0.110 S 
ATOM     19  O   LIG    1       32.154 -17.808   8.350  0.00  0.00    -0.142 OA
BRANCH  18  20
ATOM     20  O   LIG    1       32.220 -20.125   9.183  0.00  0.00    -0.250 OA
ATOM     21  H   LIG    1       31.935 -20.757   8.492  0.00  0.00    +0.245 HD
ENDBRANCH  18  20
ENDBRANCH   1  18
TORSDOF 3
ENDMDL
MODEL 5
REMARK VINA RESULT:      -8.1      6.701      7.618
REMARK  Name = *****
REMARK                            x       y       z     vdW  Elec       q    Type
REMARK                         _______ _______ _______ _____ _____    ______ ____
ROOT
ATOM      1  C   LIG    1       24.997 -28.662   5.911  0.00  0.00    +0.119 A 
ATOM      2  C   LIG    1       24.145 -27.686   6.450  0.00  0.00    +0.059 A 
ATOM      3  C   LIG    1       24.384 -26.349   6.098  0.00  0.00    +0.091 A 
ATOM      4  C   LIG    1       25.439 -26.049   5.248  0.00  0.00    +0.067 A 
ATOM      5  N   LIG    1       25.385 -24.686   5.118  0.00  0.00    -0.338 N 
ATOM      6  H   LIG    1       26.017 -24.132   4.564  0.00  0.00    +0.167 HD
ATOM      7  C   LIG    1       24.342 -24.200   5.874  0.00  0.00    +0.139 A 
ATOM      8  C   LIG    1       26.302 -27.002   4.706  0.00  0.00    +0.029 A 
ATOM      9  N   LIG    1       23.721 -25.205   6.471  0.00  0.00    -0.228 NA
ATOM     10  C   LIG    1       26.061 -28.331   5.062  0.00  0.00    +0.031 A 
ENDROOT
BRANCH   7  11
ATOM     11  C   LIG    1       24.004 -22.772   5.980  0.00  0.00    +0.017 A 
ATOM     12  C   LIG    1       23.534 -22.200   7.175  0.00  0.00    +0.011 A 
ATOM     13  C   LIG    1       23.219 -20.840   7.245  0.00  0.00    +0.001 A 
ATOM     14  C   LIG    1       23.368 -20.030   6.123  0.00  0.00    +0.000 A 
ATOM     15  C   LIG    1       23.831 -20.580   4.930  0.00  0.00    +0.001 A 
ATOM     16  C   LIG    1       24.147 -21.940   4.861  0.00  0.00    +0.011 A 
ENDBRANCH   7  11
BRANCH   1  18
ATOM     17  O   LIG    1       24.495 -30.439   7.763  0.00  0.00    -0.142 OA
ATOM     18  S   LIG    1       24.745 -30.359   6.338  0.00  0.00    +0.110 S 
ATOM     19  O   LIG    1       25.790 -31.134   5.712  0.00  0.00    -0.142 OA
BRANCH  18  20
ATOM     20  O   LIG    1       23.354 -30.778   5.635  0.00  0.00    -0.250 OA
ATOM     21  H   LIG    1       23.354 -30.406   4.729  0.00  0.00    +0.245 HD
ENDBRANCH  18  20
ENDBRANCH   1  18
TORSDOF 3
ENDMDL
MODEL 6
REMARK VINA RESULT:      -8.1      4.195      6.701
REMARK  Name = *****
REMARK                            x       y       z     vdW  Elec       q    Type
REMARK                         _______ _______ _______ _____ _____    ______ ____
ROOT
ATOM      1  C   LIG    1       25.332 -23.126   6.367  0.00  0.00    +0.119 A 
ATOM      2  C   LIG    1       26.456 -23.020   7.201  0.00  0.00    +0.059 A 
ATOM      3  C   LIG    1       27.144 -21.799   7.211  0.00  0.00    +0.091 A 
ATOM      4  C   LIG    1       26.697 -20.760   6.407  0.00  0.00    +0.067 A 
ATOM      5  N   LIG    1       27.577 -19.741   6.657  0.00  0.00    -0.338 N 
ATOM      6  H   LIG    1       27.544 -18.830   6.232  0.00  0.00    +0.167 HD
ATOM      7  C   LIG    1       28.517 -20.168   7.568  0.00  0.00    +0.139 A 
ATOM      8  C   LIG    1       25.586 -20.845   5.566  0.00  0.00    +0.029 A 
ATOM      9  N   LIG    1       28.260 -21.419   7.918  0.00  0.00    -0.228 NA
ATOM     10  C   LIG    1       24.906 -22.065   5.558  0.00  0.00    +0.031 A 
ENDROOT
BRANCH   7  11
ATOM     11  C   LIG    1       29.627 -19.333   8.052  0.00  0.00    +0.017 A 
ATOM     12  C   LIG    1       30.899 -19.357   7.455  0.00  0.00    +0.011 A 
ATOM     13  C   LIG    1       31.935 -18.553   7.938  0.00  0.00    +0.001 A 
ATOM     14  C   LIG    1       31.718 -17.712   9.026  0.00  0.00    +0.000 A 
ATOM     15  C   LIG    1       30.464 -17.676   9.631  0.00  0.00    +0.001 A 
ATOM     16  C   LIG    1       29.427 -18.480   9.147  0.00  0.00    +0.011 A 
ENDBRANCH   7  11
BRANCH   1  18
ATOM     17  O   LIG    1       23.082 -24.404   6.748  0.00  0.00    -0.142 OA
ATOM     18  S   LIG    1       24.440 -24.652   6.309  0.00  0.00    +0.110 S 
ATOM     19  O   LIG    1       25.258 -25.668   6.929  0.00  0.00    -0.142 OA
BRANCH  18  20
ATOM     20  O   LIG    1       24.323 -25.023   4.743  0.00  0.00    -0.250 OA
ATOM     21  H   LIG    1       23.882 -24.274   4.291  0.00  0.00    +0.245 HD
ENDBRANCH  18  20
ENDBRANCH   1  18
TORSDOF 3
ENDMDL
MODEL 7
REMARK VINA RESULT:      -7.5      6.411      7.513
REMARK  Name = *****
REMARK                            x       y       z     vdW  Elec       q    Type
REMARK                         _______ _______ _______ _____ _____    ______ ____
ROOT
ATOM      1  C   LIG    1       25.334 -22.546   7.187  0.00  0.00    +0.119 A 
ATOM      2  C   LIG    1       26.085 -23.729   7.243  0.00  0.00    +0.059 A 
ATOM      3  C   LIG    1       25.442 -24.924   6.888  0.00  0.00    +0.091 A 
ATOM      4  C   LIG    1       24.108 -24.890   6.504  0.00  0.00    +0.067 A 
ATOM      5  N   LIG    1       23.806 -26.197   6.232  0.00  0.00    -0.338 N 
ATOM      6  H   LIG    1       22.908 -26.531   5.924  0.00  0.00    +0.167 HD
ATOM      7  C   LIG    1       24.919 -26.977   6.457  0.00  0.00    +0.139 A 
ATOM      8  C   LIG    1       23.341 -23.725   6.447  0.00  0.00    +0.029 A 
ATOM      9  N   LIG    1       25.924 -26.210   6.852  0.00  0.00    -0.228 NA
ATOM     10  C   LIG    1       23.986 -22.539   6.804  0.00  0.00    +0.031 A 
ENDROOT
BRANCH   7  11
ATOM     11  C   LIG    1       24.945 -28.436   6.280  0.00  0.00    +0.017 A 
ATOM     12  C   LIG    1       25.517 -29.044   5.149  0.00  0.00    +0.011 A 
ATOM     13  C   LIG    1       25.525 -30.434   5.008  0.00  0.00    +0.001 A 
ATOM     14  C   LIG    1       24.962 -31.241   5.993  0.00  0.00    +0.000 A 
ATOM     15  C   LIG    1       24.390 -30.656   7.120  0.00  0.00    +0.001 A 
ATOM     16  C   LIG    1       24.383 -29.265   7.262  0.00  0.00    +0.011 A 
ENDBRANCH   7  11
BRANCH   1  18
ATOM     17  O   LIG    1       25.320 -20.417   8.707  0.00  0.00    -0.142 OA
ATOM     18  S   LIG    1       26.097 -21.016   7.641  0.00  0.00    +0.110 S 
ATOM     19  O   LIG    1       26.394 -20.291   6.428  0.00  0.00    -0.142 OA
BRANCH  18  20
ATOM     20  O   LIG    1       27.507 -21.421   8.313  0.00  0.00    -0.250 OA
ATOM     21  H   LIG    1       27.832 -22.227   7.862  0.00  0.00    +0.245 HD
ENDBRANCH  18  20
ENDBRANCH   1  18
TORSDOF 3
ENDMDL
MODEL 8
REMARK VINA RESULT:      -7.4      5.946      6.833
REMARK  Name = *****
REMARK                            x       y       z     vdW  Elec       q    Type
REMARK                         _______ _______ _______ _____ _____    ______ ____
ROOT
ATOM      1  C   LIG    1       24.995 -27.455   6.193  0.00  0.00    +0.119 A 
ATOM      2  C   LIG    1       24.012 -26.558   5.749  0.00  0.00    +0.059 A 
ATOM      3  C   LIG    1       24.356 -25.200   5.679  0.00  0.00    +0.091 A 
ATOM      4  C   LIG    1       25.633 -24.803   6.050  0.00  0.00    +0.067 A 
ATOM      5  N   LIG    1       25.628 -23.446   5.864  0.00  0.00    -0.338 N 
ATOM      6  H   LIG    1       26.407 -22.835   6.042  0.00  0.00    +0.167 HD
ATOM      7  C   LIG    1       24.388 -23.056   5.411  0.00  0.00    +0.139 A 
ATOM      8  C   LIG    1       26.623 -25.678   6.500  0.00  0.00    +0.029 A 
ATOM      9  N   LIG    1       23.606 -24.117   5.288  0.00  0.00    -0.228 NA
ATOM     10  C   LIG    1       26.274 -27.028   6.570  0.00  0.00    +0.031 A 
ENDROOT
BRANCH   7  11
ATOM     11  C   LIG    1       24.024 -21.660   5.121  0.00  0.00    +0.017 A 
ATOM     12  C   LIG    1       22.895 -21.046   5.691  0.00  0.00    +0.011 A 
ATOM     13  C   LIG    1       22.574 -19.718   5.395  0.00  0.00    +0.001 A 
ATOM     14  C   LIG    1       23.374 -18.982   4.526  0.00  0.00    +0.000 A 
ATOM     15  C   LIG    1       24.496 -19.575   3.952  0.00  0.00    +0.001 A 
ATOM     16  C   LIG    1       24.818 -20.903   4.248  0.00  0.00    +0.011 A 
ENDBRANCH   7  11
BRANCH   1  18
ATOM     17  O   LIG    1       24.195 -29.458   7.674  0.00  0.00    -0.142 OA
ATOM     18  S   LIG    1       24.603 -29.176   6.312  0.00  0.00    +0.110 S 
ATOM     19  O   LIG    1       25.665 -29.918   5.676  0.00  0.00    -0.142 OA
BRANCH  18  20
ATOM     20  O   LIG    1       23.276 -29.378   5.417  0.00  0.00    -0.250 OA
ATOM     21  H   LIG    1       22.604 -29.822   5.975  0.00  0.00    +0.245 HD
ENDBRANCH  18  20
ENDBRANCH   1  18
TORSDOF 3
ENDMDL
MODEL 9
REMARK VINA RESULT:      -7.4      7.194      8.223
REMARK  Name = *****
REMARK                            x       y       z     vdW  Elec       q    Type
REMARK                         _______ _______ _______ _____ _____    ______ ____
ROOT
ATOM      1  C   LIG    1       24.231 -22.627   6.469  0.00  0.00    +0.119 A 
ATOM      2  C   LIG    1       23.537 -23.823   6.228  0.00  0.00    +0.059 A 
ATOM      3  C   LIG    1       24.246 -25.025   6.371  0.00  0.00    +0.091 A 
ATOM      4  C   LIG    1       25.585 -24.984   6.736  0.00  0.00    +0.067 A 
ATOM      5  N   LIG    1       25.957 -26.301   6.784  0.00  0.00    -0.338 N 
ATOM      6  H   LIG    1       26.877 -26.635   7.019  0.00  0.00    +0.167 HD
ATOM      7  C   LIG    1       24.879 -27.090   6.448  0.00  0.00    +0.139 A 
ATOM      8  C   LIG    1       26.295 -23.807   6.974  0.00  0.00    +0.029 A 
ATOM      9  N   LIG    1       23.829 -26.323   6.200  0.00  0.00    -0.228 NA
ATOM     10  C   LIG    1       25.585 -22.614   6.827  0.00  0.00    +0.031 A 
ENDROOT
BRANCH   7  11
ATOM     11  C   LIG    1       24.928 -28.558   6.381  0.00  0.00    +0.017 A 
ATOM     12  C   LIG    1       25.451 -29.241   5.269  0.00  0.00    +0.011 A 
ATOM     13  C   LIG    1       25.482 -30.638   5.233  0.00  0.00    +0.001 A 
ATOM     14  C   LIG    1       24.992 -31.376   6.307  0.00  0.00    +0.000 A 
ATOM     15  C   LIG    1       24.469 -30.716   7.417  0.00  0.00    +0.001 A 
ATOM     16  C   LIG    1       24.438 -29.318   7.453  0.00  0.00    +0.011 A 
ENDBRANCH   7  11
BRANCH   1  18
ATOM     17  O   LIG    1       23.254 -20.477   7.594  0.00  0.00    -0.142 OA
ATOM     18  S   LIG    1       23.383 -21.086   6.285  0.00  0.00    +0.110 S 
ATOM     19  O   LIG    1       22.232 -21.310   5.443  0.00  0.00    -0.142 OA
BRANCH  18  20
ATOM     20  O   LIG    1       24.396 -20.132   5.467  0.00  0.00    -0.250 OA
ATOM     21  H   LIG    1       23.953 -19.269   5.337  0.00  0.00    +0.245 HD
ENDBRANCH  18  20
ENDBRANCH   1  18
TORSDOF 3
ENDMDL
