MODEL 1
REMARK VINA RESULT:      -8.2      0.000      0.000
REMARK  Name = *****
REMARK                            x       y       z     vdW  Elec       q    Type
REMARK                         _______ _______ _______ _____ _____    ______ ____
ROOT
ATOM      1  C   LIG    1       25.486 -27.342   6.345  0.00  0.00    +0.053 A 
ATOM      2  C   LIG    1       25.602 -28.187   7.478  0.00  0.00    +0.007 A 
ATOM      3  C   LIG    1       24.824 -29.353   7.533  0.00  0.00    -0.011 A 
ATOM      4  C   LIG    1       24.807 -30.124   8.717  0.00  0.00    +0.058 A 
ATOM      5  C   LIG    1       25.606 -29.792   9.817  0.00  0.00    +0.162 A 
ATOM      6  C   LIG    1       26.513 -28.737   9.702  0.00  0.00    +0.162 A 
ATOM      7  C   LIG    1       24.084 -29.726   6.408  0.00  0.00    +0.028 A 
ATOM      8  C   LIG    1       24.107 -28.888   5.304  0.00  0.00    +0.112 A 
ATOM      9  C   LIG    1       26.469 -27.919   8.558  0.00  0.00    +0.059 A 
ATOM     10  N   LIG    1       24.753 -27.708   5.257  0.00  0.00    -0.259 NA
ENDROOT
BRANCH   6  11
ATOM     11  O   LIG    1       27.420 -28.483  10.713  0.00  0.00    -0.491 OA
ATOM     12  C   LIG    1       26.954 -27.610  11.737  0.00  0.00    +0.277 C 
ENDBRANCH   6  11
BRANCH   5  13
ATOM     13  O   LIG    1       25.390 -30.599  10.908  0.00  0.00    -0.491 OA
ATOM     14  C   LIG    1       24.297 -30.309  11.772  0.00  0.00    +0.277 C 
ENDBRANCH   5  13
BRANCH   1  15
ATOM     15  C   LIG    1       26.161 -25.966   6.254  0.00  0.00    +0.091 C 
BRANCH  15  19
ATOM     16  C   LIG    1       23.894 -22.379   7.303  0.00  0.00    +0.162 A 
ATOM     17  C   LIG    1       25.267 -22.439   7.577  0.00  0.00    +0.162 A 
ATOM     18  C   LIG    1       25.993 -23.602   7.232  0.00  0.00    +0.053 A 
ATOM     19  C   LIG    1       25.354 -24.738   6.684  0.00  0.00    -0.038 A 
ATOM     20  C   LIG    1       23.974 -24.660   6.460  0.00  0.00    +0.008 A 
ATOM     21  C   LIG    1       23.257 -23.496   6.763  0.00  0.00    +0.050 A 
BRANCH  16  23
ATOM     22  C   LIG    1       23.087 -20.392   6.293  0.00  0.00    +0.277 C 
ATOM     23  O   LIG    1       23.237 -21.187   7.461  0.00  0.00    -0.491 OA
ENDBRANCH  16  23
BRANCH  17  24
ATOM     24  O   LIG    1       25.998 -21.426   8.163  0.00  0.00    -0.491 OA
ATOM     25  C   LIG    1       26.714 -20.591   7.244  0.00  0.00    +0.277 C 
ENDBRANCH  17  24
ENDBRANCH  15  19
ENDBRANCH   1  15
TORSDOF 6
ENDMDL
MODEL 2
REMARK VINA RESULT:      -8.1      3.571      8.003
REMARK  Name = *****
REMARK                            x       y       z     vdW  Elec       q    Type
REMARK                         _______ _______ _______ _____ _____    ______ ____
ROOT
ATOM      1  C   LIG    1       26.146 -21.387   6.688  0.00  0.00    +0.053 A 
ATOM      2  C   LIG    1       27.447 -20.856   6.886  0.00  0.00    +0.007 A 
ATOM      3  C   LIG    1       27.959 -19.953   5.942  0.00  0.00    -0.011 A 
ATOM      4  C   LIG    1       29.305 -19.536   6.036  0.00  0.00    +0.058 A 
ATOM      5  C   LIG    1       30.126 -19.946   7.094  0.00  0.00    +0.162 A 
ATOM      6  C   LIG    1       29.569 -20.699   8.129  0.00  0.00    +0.162 A 
ATOM      7  C   LIG    1       27.118 -19.486   4.929  0.00  0.00    +0.028 A 
ATOM      8  C   LIG    1       25.826 -19.985   4.868  0.00  0.00    +0.112 A 
ATOM      9  C   LIG    1       28.257 -21.185   7.993  0.00  0.00    +0.059 A 
ATOM     10  N   LIG    1       25.338 -20.933   5.690  0.00  0.00    -0.259 NA
ENDROOT
BRANCH   6  11
ATOM     11  O   LIG    1       30.312 -20.989   9.258  0.00  0.00    -0.491 OA
ATOM     12  C   LIG    1       31.158 -22.128   9.149  0.00  0.00    +0.277 C 
ENDBRANCH   6  11
BRANCH   5  13
ATOM     13  O   LIG    1       31.424 -19.517   6.971  0.00  0.00    -0.491 OA
ATOM     14  C   LIG    1       31.906 -18.519   7.864  0.00  0.00    +0.277 C 
ENDBRANCH   5  13
BRANCH   1  15
ATOM     15  C   LIG    1       25.554 -22.501   7.561  0.00  0.00    +0.091 C 
BRANCH  15  19
ATOM     16  C   LIG    1       24.599 -26.406   5.843  0.00  0.00    +0.162 A 
ATOM     17  C   LIG    1       25.939 -26.027   6.008  0.00  0.00    +0.162 A 
ATOM     18  C   LIG    1       26.238 -24.763   6.567  0.00  0.00    +0.053 A 
ATOM     19  C   LIG    1       25.220 -23.839   6.895  0.00  0.00    -0.038 A 
ATOM     20  C   LIG    1       23.894 -24.233   6.681  0.00  0.00    +0.008 A 
ATOM     21  C   LIG    1       23.590 -25.499   6.165  0.00  0.00    +0.050 A 
BRANCH  16  23
ATOM     22  C   LIG    1       24.210 -28.636   6.543  0.00  0.00    +0.277 C 
ATOM     23  O   LIG    1       24.315 -27.696   5.483  0.00  0.00    -0.491 OA
ENDBRANCH  16  23
BRANCH  17  24
ATOM     24  O   LIG    1       27.026 -26.808   5.672  0.00  0.00    -0.491 OA
ATOM     25  C   LIG    1       26.946 -27.429   4.383  0.00  0.00    +0.277 C 
ENDBRANCH  17  24
ENDBRANCH  15  19
ENDBRANCH   1  15
TORSDOF 6
ENDMDL
MODEL 3
REMARK VINA RESULT:      -7.9      6.174      9.232
REMARK  Name = *****
REMARK                            x       y       z     vdW  Elec       q    Type
REMARK                         _______ _______ _______ _____ _____    ______ ____
ROOT
ATOM      1  C   LIG    1       26.934 -21.042   6.751  0.00  0.00    +0.053 A 
ATOM      2  C   LIG    1       25.771 -20.571   6.089  0.00  0.00    +0.007 A 
ATOM      3  C   LIG    1       24.514 -20.978   6.561  0.00  0.00    -0.011 A 
ATOM      4  C   LIG    1       23.354 -20.649   5.825  0.00  0.00    +0.058 A 
ATOM      5  C   LIG    1       23.420 -19.862   4.670  0.00  0.00    +0.162 A 
ATOM      6  C   LIG    1       24.645 -19.307   4.297  0.00  0.00    +0.162 A 
ATOM      7  C   LIG    1       24.442 -21.701   7.755  0.00  0.00    +0.028 A 
ATOM      8  C   LIG    1       25.628 -22.034   8.390  0.00  0.00    +0.112 A 
ATOM      9  C   LIG    1       25.811 -19.704   4.978  0.00  0.00    +0.059 A 
ATOM     10  N   LIG    1       26.854 -21.756   7.908  0.00  0.00    -0.259 NA
ENDROOT
BRANCH   6  11
ATOM     11  O   LIG    1       24.714 -18.405   3.253  0.00  0.00    -0.491 OA
ATOM     12  C   LIG    1       25.865 -17.567   3.252  0.00  0.00    +0.277 C 
ENDBRANCH   6  11
BRANCH   5  13
ATOM     13  O   LIG    1       22.208 -19.723   4.038  0.00  0.00    -0.491 OA
ATOM     14  C   LIG    1       21.515 -18.485   4.146  0.00  0.00    +0.277 C 
ENDBRANCH   5  13
BRANCH   1  15
ATOM     15  C   LIG    1       28.355 -20.797   6.225  0.00  0.00    +0.091 C 
BRANCH  15  19
ATOM     16  C   LIG    1       31.346 -18.807   8.714  0.00  0.00    +0.162 A 
ATOM     17  C   LIG    1       31.270 -20.206   8.703  0.00  0.00    +0.162 A 
ATOM     18  C   LIG    1       30.301 -20.842   7.893  0.00  0.00    +0.053 A 
ATOM     19  C   LIG    1       29.356 -20.099   7.149  0.00  0.00    -0.038 A 
ATOM     20  C   LIG    1       29.434 -18.702   7.213  0.00  0.00    +0.008 A 
ATOM     21  C   LIG    1       30.417 -18.068   7.982  0.00  0.00    +0.050 A 
BRANCH  16  23
ATOM     22  C   LIG    1       32.314 -16.797   9.515  0.00  0.00    +0.277 C 
ATOM     23  O   LIG    1       32.403 -18.205   9.346  0.00  0.00    -0.491 OA
ENDBRANCH  16  23
BRANCH  17  24
ATOM     24  O   LIG    1       32.091 -21.046   9.428  0.00  0.00    -0.491 OA
ATOM     25  C   LIG    1       31.727 -22.431   9.384  0.00  0.00    +0.277 C 
ENDBRANCH  17  24
ENDBRANCH  15  19
ENDBRANCH   1  15
TORSDOF 6
ENDMDL
MODEL 4
REMARK VINA RESULT:      -7.8      3.134      7.966
REMARK  Name = *****
REMARK                            x       y       z     vdW  Elec       q    Type
REMARK                         _______ _______ _______ _____ _____    ______ ____
ROOT
ATOM      1  C   LIG    1       25.897 -21.737   6.499  0.00  0.00    +0.053 A 
ATOM      2  C   LIG    1       27.160 -21.135   6.739  0.00  0.00    +0.007 A 
ATOM      3  C   LIG    1       27.600 -20.122   5.875  0.00  0.00    -0.011 A 
ATOM      4  C   LIG    1       28.915 -19.621   6.002  0.00  0.00    +0.058 A 
ATOM      5  C   LIG    1       29.770 -20.061   7.020  0.00  0.00    +0.162 A 
ATOM      6  C   LIG    1       29.276 -20.936   7.988  0.00  0.00    +0.162 A 
ATOM      7  C   LIG    1       26.721 -19.629   4.907  0.00  0.00    +0.028 A 
ATOM      8  C   LIG    1       25.467 -20.211   4.806  0.00  0.00    +0.112 A 
ATOM      9  C   LIG    1       27.999 -21.499   7.813  0.00  0.00    +0.059 A 
ATOM     10  N   LIG    1       25.052 -21.257   5.545  0.00  0.00    -0.259 NA
ENDROOT
BRANCH   6  11
ATOM     11  O   LIG    1       30.045 -21.268   9.087  0.00  0.00    -0.491 OA
ATOM     12  C   LIG    1       31.093 -22.198   8.832  0.00  0.00    +0.277 C 
ENDBRANCH   6  11
BRANCH   5  13
ATOM     13  O   LIG    1       31.035 -19.533   6.932  0.00  0.00    -0.491 OA
ATOM     14  C   LIG    1       31.457 -18.593   7.913  0.00  0.00    +0.277 C 
ENDBRANCH   5  13
BRANCH   1  15
ATOM     15  C   LIG    1       25.391 -22.960   7.275  0.00  0.00    +0.091 C 
BRANCH  15  19
ATOM     16  C   LIG    1       25.563 -26.932   5.459  0.00  0.00    +0.162 A 
ATOM     17  C   LIG    1       26.042 -26.742   6.763  0.00  0.00    +0.162 A 
ATOM     18  C   LIG    1       25.979 -25.454   7.344  0.00  0.00    +0.053 A 
ATOM     19  C   LIG    1       25.515 -24.335   6.615  0.00  0.00    -0.038 A 
ATOM     20  C   LIG    1       25.083 -24.553   5.301  0.00  0.00    +0.008 A 
ATOM     21  C   LIG    1       25.104 -25.832   4.734  0.00  0.00    +0.050 A 
BRANCH  16  23
ATOM     22  C   LIG    1       24.201 -28.853   5.190  0.00  0.00    +0.277 C 
ATOM     23  O   LIG    1       25.449 -28.208   4.975  0.00  0.00    -0.491 OA
ENDBRANCH  16  23
BRANCH  17  24
ATOM     24  O   LIG    1       26.574 -27.735   7.560  0.00  0.00    -0.491 OA
ATOM     25  C   LIG    1       25.613 -28.481   8.316  0.00  0.00    +0.277 C 
ENDBRANCH  17  24
ENDBRANCH  15  19
ENDBRANCH   1  15
TORSDOF 6
ENDMDL
MODEL 5
REMARK VINA RESULT:      -7.3      4.552      9.434
REMARK  Name = *****
REMARK                            x       y       z     vdW  Elec       q    Type
REMARK                         _______ _______ _______ _____ _____    ______ ____
ROOT
ATOM      1  C   LIG    1       28.337 -19.755   7.870  0.00  0.00    +0.053 A 
ATOM      2  C   LIG    1       29.394 -18.947   8.362  0.00  0.00    +0.007 A 
ATOM      3  C   LIG    1       30.528 -18.756   7.560  0.00  0.00    -0.011 A 
ATOM      4  C   LIG    1       31.654 -18.087   8.092  0.00  0.00    +0.058 A 
ATOM      5  C   LIG    1       31.638 -17.543   9.382  0.00  0.00    +0.162 A 
ATOM      6  C   LIG    1       30.451 -17.575  10.116  0.00  0.00    +0.162 A 
ATOM      7  C   LIG    1       30.516 -19.233   6.247  0.00  0.00    +0.028 A 
ATOM      8  C   LIG    1       29.398 -19.930   5.815  0.00  0.00    +0.112 A 
ATOM      9  C   LIG    1       29.361 -18.314   9.622  0.00  0.00    +0.059 A 
ATOM     10  N   LIG    1       28.339 -20.226   6.592  0.00  0.00    -0.259 NA
ENDROOT
BRANCH   6  11
ATOM     11  O   LIG    1       30.361 -16.914  11.326  0.00  0.00    -0.491 OA
ATOM     12  C   LIG    1       31.346 -17.277  12.288  0.00  0.00    +0.277 C 
ENDBRANCH   6  11
BRANCH   5  13
ATOM     13  O   LIG    1       32.846 -17.013   9.762  0.00  0.00    -0.491 OA
ATOM     14  C   LIG    1       33.024 -15.602   9.713  0.00  0.00    +0.277 C 
ENDBRANCH   5  13
BRANCH   1  15
ATOM     15  C   LIG    1       27.128 -20.165   8.722  0.00  0.00    +0.091 C 
BRANCH  15  19
ATOM     16  C   LIG    1       24.449 -23.103   6.906  0.00  0.00    +0.162 A 
ATOM     17  C   LIG    1       24.038 -21.769   7.028  0.00  0.00    +0.162 A 
ATOM     18  C   LIG    1       24.912 -20.825   7.614  0.00  0.00    +0.053 A 
ATOM     19  C   LIG    1       26.163 -21.207   8.150  0.00  0.00    -0.038 A 
ATOM     20  C   LIG    1       26.526 -22.556   8.048  0.00  0.00    +0.008 A 
ATOM     21  C   LIG    1       25.683 -23.487   7.433  0.00  0.00    +0.050 A 
BRANCH  16  23
ATOM     22  C   LIG    1       24.147 -25.310   6.096  0.00  0.00    +0.277 C 
ATOM     23  O   LIG    1       23.683 -23.969   6.170  0.00  0.00    -0.491 OA
ENDBRANCH  16  23
BRANCH  17  24
ATOM     24  O   LIG    1       22.821 -21.278   6.603  0.00  0.00    -0.491 OA
ATOM     25  C   LIG    1       22.899 -20.276   5.580  0.00  0.00    +0.277 C 
ENDBRANCH  17  24
ENDBRANCH  15  19
ENDBRANCH   1  15
TORSDOF 6
ENDMDL
MODEL 6
REMARK VINA RESULT:      -7.3      3.554      5.549
REMARK  Name = *****
REMARK                            x       y       z     vdW  Elec       q    Type
REMARK                         _______ _______ _______ _____ _____    ______ ____
ROOT
ATOM      1  C   LIG    1       25.108 -22.660   7.738  0.00  0.00    +0.053 A 
ATOM      2  C   LIG    1       25.003 -23.888   7.035  0.00  0.00    +0.007 A 
ATOM      3  C   LIG    1       23.745 -24.288   6.560  0.00  0.00    -0.011 A 
ATOM      4  C   LIG    1       23.590 -25.575   5.998  0.00  0.00    +0.058 A 
ATOM      5  C   LIG    1       24.680 -26.439   5.836  0.00  0.00    +0.162 A 
ATOM      6  C   LIG    1       25.961 -25.976   6.143  0.00  0.00    +0.162 A 
ATOM      7  C   LIG    1       22.672 -23.397   6.653  0.00  0.00    +0.028 A 
ATOM      8  C   LIG    1       22.890 -22.175   7.268  0.00  0.00    +0.112 A 
ATOM      9  C   LIG    1       26.104 -24.731   6.781  0.00  0.00    +0.059 A 
ATOM     10  N   LIG    1       24.054 -21.803   7.833  0.00  0.00    -0.259 NA
ENDROOT
BRANCH   6  11
ATOM     11  O   LIG    1       27.069 -26.749   5.852  0.00  0.00    -0.491 OA
ATOM     12  C   LIG    1       27.114 -27.267   4.527  0.00  0.00    +0.277 C 
ENDBRANCH   6  11
BRANCH   5  13
ATOM     13  O   LIG    1       24.325 -27.677   5.360  0.00  0.00    -0.491 OA
ATOM     14  C   LIG    1       24.242 -28.767   6.271  0.00  0.00    +0.277 C 
ENDBRANCH   5  13
BRANCH   1  15
ATOM     15  C   LIG    1       26.394 -22.205   8.442  0.00  0.00    +0.091 C 
BRANCH  15  19
ATOM     16  C   LIG    1       29.001 -19.428   6.298  0.00  0.00    +0.162 A 
ATOM     17  C   LIG    1       29.460 -20.052   7.466  0.00  0.00    +0.162 A 
ATOM     18  C   LIG    1       28.611 -20.951   8.152  0.00  0.00    +0.053 A 
ATOM     19  C   LIG    1       27.281 -21.180   7.731  0.00  0.00    -0.038 A 
ATOM     20  C   LIG    1       26.841 -20.509   6.583  0.00  0.00    +0.008 A 
ATOM     21  C   LIG    1       27.690 -19.649   5.877  0.00  0.00    +0.050 A 
BRANCH  16  23
ATOM     22  C   LIG    1       29.335 -17.666   4.749  0.00  0.00    +0.277 C 
ATOM     23  O   LIG    1       29.887 -18.711   5.537  0.00  0.00    -0.491 OA
ENDBRANCH  16  23
BRANCH  17  24
ATOM     24  O   LIG    1       30.712 -19.870   8.017  0.00  0.00    -0.491 OA
ATOM     25  C   LIG    1       31.166 -20.943   8.851  0.00  0.00    +0.277 C 
ENDBRANCH  17  24
ENDBRANCH  15  19
ENDBRANCH   1  15
TORSDOF 6
ENDMDL
MODEL 7
REMARK VINA RESULT:      -7.1      3.397      5.639
REMARK  Name = *****
REMARK                            x       y       z     vdW  Elec       q    Type
REMARK                         _______ _______ _______ _____ _____    ______ ____
ROOT
ATOM      1  C   LIG    1       24.918 -22.527   7.790  0.00  0.00    +0.053 A 
ATOM      2  C   LIG    1       24.861 -23.767   7.103  0.00  0.00    +0.007 A 
ATOM      3  C   LIG    1       23.653 -24.152   6.503  0.00  0.00    -0.011 A 
ATOM      4  C   LIG    1       23.530 -25.447   5.952  0.00  0.00    +0.058 A 
ATOM      5  C   LIG    1       24.611 -26.336   5.925  0.00  0.00    +0.162 A 
ATOM      6  C   LIG    1       25.862 -25.893   6.359  0.00  0.00    +0.162 A 
ATOM      7  C   LIG    1       22.596 -23.238   6.463  0.00  0.00    +0.028 A 
ATOM      8  C   LIG    1       22.774 -22.007   7.075  0.00  0.00    +0.112 A 
ATOM      9  C   LIG    1       25.964 -24.638   6.985  0.00  0.00    +0.059 A 
ATOM     10  N   LIG    1       23.879 -21.647   7.755  0.00  0.00    -0.259 NA
ENDROOT
BRANCH   6  11
ATOM     11  O   LIG    1       26.978 -26.694   6.204  0.00  0.00    -0.491 OA
ATOM     12  C   LIG    1       27.221 -27.140   4.874  0.00  0.00    +0.277 C 
ENDBRANCH   6  11
BRANCH   5  13
ATOM     13  O   LIG    1       24.282 -27.576   5.436  0.00  0.00    -0.491 OA
ATOM     14  C   LIG    1       24.169 -28.665   6.345  0.00  0.00    +0.277 C 
ENDBRANCH   5  13
BRANCH   1  15
ATOM     15  C   LIG    1       26.130 -22.083   8.620  0.00  0.00    +0.091 C 
BRANCH  15  19
ATOM     16  C   LIG    1       29.410 -19.970   6.649  0.00  0.00    +0.162 A 
ATOM     17  C   LIG    1       28.120 -19.919   6.101  0.00  0.00    +0.162 A 
ATOM     18  C   LIG    1       27.065 -20.603   6.747  0.00  0.00    +0.053 A 
ATOM     19  C   LIG    1       27.291 -21.401   7.891  0.00  0.00    -0.038 A 
ATOM     20  C   LIG    1       28.599 -21.464   8.389  0.00  0.00    +0.008 A 
ATOM     21  C   LIG    1       29.640 -20.756   7.778  0.00  0.00    +0.050 A 
BRANCH  16  23
ATOM     22  C   LIG    1       31.541 -18.974   6.935  0.00  0.00    +0.277 C 
ATOM     23  O   LIG    1       30.383 -19.155   6.132  0.00  0.00    -0.491 OA
ENDBRANCH  16  23
BRANCH  17  24
ATOM     24  O   LIG    1       27.777 -19.227   4.957  0.00  0.00    -0.491 OA
ATOM     25  C   LIG    1       26.455 -19.488   4.469  0.00  0.00    +0.277 C 
ENDBRANCH  17  24
ENDBRANCH  15  19
ENDBRANCH   1  15
TORSDOF 6
ENDMDL
MODEL 8
REMARK VINA RESULT:      -7.0      6.568      8.844
REMARK  Name = *****
REMARK                            x       y       z     vdW  Elec       q    Type
REMARK                         _______ _______ _______ _____ _____    ______ ____
ROOT
ATOM      1  C   LIG    1       26.453 -21.752   7.419  0.00  0.00    +0.053 A 
ATOM      2  C   LIG    1       25.571 -21.055   6.553  0.00  0.00    +0.007 A 
ATOM      3  C   LIG    1       24.248 -20.840   6.969  0.00  0.00    -0.011 A 
ATOM      4  C   LIG    1       23.314 -20.291   6.062  0.00  0.00    +0.058 A 
ATOM      5  C   LIG    1       23.693 -19.886   4.777  0.00  0.00    +0.162 A 
ATOM      6  C   LIG    1       25.043 -19.933   4.423  0.00  0.00    +0.162 A 
ATOM      7  C   LIG    1       23.887 -21.175   8.276  0.00  0.00    +0.028 A 
ATOM      8  C   LIG    1       24.844 -21.763   9.088  0.00  0.00    +0.112 A 
ATOM      9  C   LIG    1       25.956 -20.558   5.291  0.00  0.00    +0.059 A 
ATOM     10  N   LIG    1       26.089 -22.084   8.688  0.00  0.00    -0.259 NA
ENDROOT
BRANCH   6  11
ATOM     11  O   LIG    1       25.468 -19.400   3.221  0.00  0.00    -0.491 OA
ATOM     12  C   LIG    1       25.692 -17.994   3.229  0.00  0.00    +0.277 C 
ENDBRANCH   6  11
BRANCH   5  13
ATOM     13  O   LIG    1       22.638 -19.462   4.008  0.00  0.00    -0.491 OA
ATOM     14  C   LIG    1       21.963 -18.262   4.367  0.00  0.00    +0.277 C 
ENDBRANCH   5  13
BRANCH   1  15
ATOM     15  C   LIG    1       27.866 -22.186   7.003  0.00  0.00    +0.091 C 
BRANCH  15  19
ATOM     16  C   LIG    1       31.016 -19.227   7.654  0.00  0.00    +0.162 A 
ATOM     17  C   LIG    1       30.113 -19.060   6.594  0.00  0.00    +0.162 A 
ATOM     18  C   LIG    1       29.096 -20.021   6.393  0.00  0.00    +0.053 A 
ATOM     19  C   LIG    1       29.011 -21.187   7.188  0.00  0.00    -0.038 A 
ATOM     20  C   LIG    1       29.953 -21.343   8.212  0.00  0.00    +0.008 A 
ATOM     21  C   LIG    1       30.938 -20.375   8.442  0.00  0.00    +0.050 A 
BRANCH  16  23
ATOM     22  C   LIG    1       31.594 -17.486   9.154  0.00  0.00    +0.277 C 
ATOM     23  O   LIG    1       31.874 -18.204   7.961  0.00  0.00    -0.491 OA
ENDBRANCH  16  23
BRANCH  17  24
ATOM     24  O   LIG    1       30.123 -18.001   5.710  0.00  0.00    -0.491 OA
ATOM     25  C   LIG    1       28.916 -17.835   4.955  0.00  0.00    +0.277 C 
ENDBRANCH  17  24
ENDBRANCH  15  19
ENDBRANCH   1  15
TORSDOF 6
ENDMDL
MODEL 9
REMARK VINA RESULT:      -7.0      3.471      8.915
REMARK  Name = *****
REMARK                            x       y       z     vdW  Elec       q    Type
REMARK                         _______ _______ _______ _____ _____    ______ ____
ROOT
ATOM      1  C   LIG    1       26.766 -21.381   7.226  0.00  0.00    +0.053 A 
ATOM      2  C   LIG    1       26.572 -20.560   6.085  0.00  0.00    +0.007 A 
ATOM      3  C   LIG    1       27.614 -19.716   5.675  0.00  0.00    -0.011 A 
ATOM      4  C   LIG    1       27.387 -18.780   4.641  0.00  0.00    +0.058 A 
ATOM      5  C   LIG    1       26.164 -18.722   3.963  0.00  0.00    +0.162 A 
ATOM      6  C   LIG    1       25.187 -19.678   4.246  0.00  0.00    +0.162 A 
ATOM      7  C   LIG    1       28.858 -19.825   6.302  0.00  0.00    +0.028 A 
ATOM      8  C   LIG    1       28.987 -20.727   7.346  0.00  0.00    +0.112 A 
ATOM      9  C   LIG    1       25.380 -20.552   5.331  0.00  0.00    +0.059 A 
ATOM     10  N   LIG    1       27.979 -21.471   7.837  0.00  0.00    -0.259 NA
ENDROOT
BRANCH   6  11
ATOM     11  O   LIG    1       24.033 -19.741   3.489  0.00  0.00    -0.491 OA
ATOM     12  C   LIG    1       22.927 -19.011   4.010  0.00  0.00    +0.277 C 
ENDBRANCH   6  11
BRANCH   5  13
ATOM     13  O   LIG    1       26.095 -17.694   3.055  0.00  0.00    -0.491 OA
ATOM     14  C   LIG    1       26.527 -16.397   3.451  0.00  0.00    +0.277 C 
ENDBRANCH   5  13
BRANCH   1  15
ATOM     15  C   LIG    1       25.644 -22.215   7.859  0.00  0.00    +0.091 C 
BRANCH  15  19
ATOM     16  C   LIG    1       24.450 -26.016   6.062  0.00  0.00    +0.162 A 
ATOM     17  C   LIG    1       25.802 -25.773   6.342  0.00  0.00    +0.162 A 
ATOM     18  C   LIG    1       26.179 -24.542   6.926  0.00  0.00    +0.053 A 
ATOM     19  C   LIG    1       25.235 -23.517   7.166  0.00  0.00    -0.038 A 
ATOM     20  C   LIG    1       23.899 -23.777   6.837  0.00  0.00    +0.008 A 
ATOM     21  C   LIG    1       23.514 -25.009   6.296  0.00  0.00    +0.050 A 
BRANCH  16  23
ATOM     22  C   LIG    1       24.164 -28.290   6.667  0.00  0.00    +0.277 C 
ATOM     23  O   LIG    1       24.068 -27.275   5.677  0.00  0.00    -0.491 OA
ENDBRANCH  16  23
BRANCH  17  24
ATOM     24  O   LIG    1       26.829 -26.663   6.101  0.00  0.00    -0.491 OA
ATOM     25  C   LIG    1       26.908 -27.140   4.752  0.00  0.00    +0.277 C 
ENDBRANCH  17  24
ENDBRANCH  15  19
ENDBRANCH   1  15
TORSDOF 6
ENDMDL
