MODEL 1
REMARK VINA RESULT:      -8.6      0.000      0.000
REMARK  Name = *****
REMARK                            x       y       z     vdW  Elec       q    Type
REMARK                         _______ _______ _______ _____ _____    ______ ____
ROOT
ATOM      1  C   LIG    1       26.176 -21.761   6.757  0.00  0.00    +0.165 C 
ENDROOT
BRANCH   1   4
ATOM      2  C   LIG    1       23.553 -19.451   5.062  0.00  0.00    +0.162 C 
ATOM      3  N   LIG    1       24.622 -20.444   5.268  0.00  0.00    -0.288 N 
ATOM      4  C   LIG    1       24.820 -21.048   6.496  0.00  0.00    +0.237 C 
ATOM      5  O   LIG    1       23.976 -20.963   7.396  0.00  0.00    -0.274 OA
ATOM      6  C   LIG    1       25.569 -20.416   4.163  0.00  0.00    +0.109 C 
ATOM      7  C   LIG    1       24.843 -19.668   3.058  0.00  0.00    +0.021 C 
ATOM      8  C   LIG    1       24.043 -18.642   3.851  0.00  0.00    +0.033 C 
BRANCH   2  12
ATOM      9  N   LIG    1       21.893 -21.300   5.030  0.00  0.00    -0.328 N 
ATOM     10  H   LIG    1       22.508 -21.813   5.659  0.00  0.00    +0.145 HD
ATOM     11  H   LIG    1       20.927 -21.593   4.975  0.00  0.00    +0.145 HD
ATOM     12  C   LIG    1       22.133 -19.982   4.780  0.00  0.00    +0.231 C 
ATOM     13  O   LIG    1       21.252 -19.275   4.294  0.00  0.00    -0.274 OA
ENDBRANCH   2  12
ENDBRANCH   1   4
BRANCH   1  14
ATOM     14  N   LIG    1       27.019 -20.826   7.539  0.00  0.00    -0.302 N 
ATOM     15  H   LIG    1       26.519 -20.150   8.113  0.00  0.00    +0.149 HD
ATOM     16  C   LIG    1       28.353 -20.625   7.244  0.00  0.00    +0.234 C 
ATOM     17  O   LIG    1       28.976 -21.366   6.491  0.00  0.00    -0.274 OA
BRANCH  16  18
ATOM     18  C   LIG    1       29.023 -19.455   8.013  0.00  0.00    +0.159 C 
ATOM     19  N   LIG    1       29.913 -19.948   9.017  0.00  0.00    -0.304 N 
ATOM     20  H   LIG    1       29.674 -20.424   9.870  0.00  0.00    +0.149 HD
ATOM     21  C   LIG    1       31.232 -19.968   8.593  0.00  0.00    +0.214 C 
ATOM     22  O   LIG    1       32.176 -20.466   9.227  0.00  0.00    -0.276 OA
ATOM     23  C   LIG    1       31.313 -19.278   7.239  0.00  0.00    +0.098 C 
ATOM     24  C   LIG    1       29.940 -18.622   7.112  0.00  0.00    +0.041 C 
ENDBRANCH  16  18
ENDBRANCH   1  14
BRANCH   1  25
ATOM     25  C   LIG    1       25.986 -23.066   7.534  0.00  0.00    +0.088 C 
BRANCH  25  26
ATOM     26  C   LIG    1       25.384 -24.161   6.724  0.00  0.00    +0.061 A 
ATOM     27  N   LIG    1       26.180 -25.024   6.006  0.00  0.00    -0.241 NA
ATOM     28  C   LIG    1       25.353 -25.830   5.381  0.00  0.00    +0.196 A 
ATOM     29  N   LIG    1       24.052 -25.535   5.672  0.00  0.00    -0.351 N 
ATOM     30  H   LIG    1       23.240 -26.013   5.305  0.00  0.00    +0.166 HD
ATOM     31  C   LIG    1       24.055 -24.471   6.531  0.00  0.00    +0.107 A 
ENDBRANCH  25  26
ENDBRANCH   1  25
TORSDOF 6
ENDMDL
MODEL 2
REMARK VINA RESULT:      -8.4      2.164      6.709
REMARK  Name = *****
REMARK                            x       y       z     vdW  Elec       q    Type
REMARK                         _______ _______ _______ _____ _____    ______ ____
ROOT
ATOM      1  C   LIG    1       26.507 -21.740   6.933  0.00  0.00    +0.165 C 
ENDROOT
BRANCH   1   4
ATOM      2  C   LIG    1       29.966 -20.061   7.487  0.00  0.00    +0.162 C 
ATOM      3  N   LIG    1       28.569 -20.292   7.082  0.00  0.00    -0.288 N 
ATOM      4  C   LIG    1       27.804 -21.288   7.661  0.00  0.00    +0.237 C 
ATOM      5  O   LIG    1       28.173 -21.862   8.692  0.00  0.00    -0.274 OA
ATOM      6  C   LIG    1       28.273 -19.598   5.838  0.00  0.00    +0.109 C 
ATOM      7  C   LIG    1       29.399 -18.590   5.687  0.00  0.00    +0.021 C 
ATOM      8  C   LIG    1       30.582 -19.356   6.269  0.00  0.00    +0.033 C 
BRANCH   2  12
ATOM      9  N   LIG    1       31.434 -19.294   9.340  0.00  0.00    -0.328 N 
ATOM     10  H   LIG    1       32.228 -19.643   8.806  0.00  0.00    +0.145 HD
ATOM     11  H   LIG    1       31.620 -18.625  10.074  0.00  0.00    +0.145 HD
ATOM     12  C   LIG    1       30.210 -19.207   8.747  0.00  0.00    +0.231 C 
ATOM     13  O   LIG    1       29.329 -18.509   9.249  0.00  0.00    -0.274 OA
ENDBRANCH   2  12
ENDBRANCH   1   4
BRANCH   1  14
ATOM     14  N   LIG    1       26.259 -23.150   7.318  0.00  0.00    -0.302 N 
ATOM     15  H   LIG    1       26.745 -23.477   8.151  0.00  0.00    +0.149 HD
ATOM     16  C   LIG    1       25.718 -24.064   6.435  0.00  0.00    +0.234 C 
ATOM     17  O   LIG    1       25.195 -23.723   5.379  0.00  0.00    -0.274 OA
BRANCH  16  18
ATOM     18  C   LIG    1       25.733 -25.536   6.927  0.00  0.00    +0.159 C 
ATOM     19  N   LIG    1       24.552 -26.225   6.511  0.00  0.00    -0.304 N 
ATOM     20  H   LIG    1       23.611 -26.084   6.837  0.00  0.00    +0.149 HD
ATOM     21  C   LIG    1       24.750 -26.970   5.360  0.00  0.00    +0.214 C 
ATOM     22  O   LIG    1       23.857 -27.556   4.729  0.00  0.00    -0.276 OA
ATOM     23  C   LIG    1       26.234 -26.947   5.021  0.00  0.00    +0.098 C 
ATOM     24  C   LIG    1       26.858 -26.349   6.280  0.00  0.00    +0.041 C 
ENDBRANCH  16  18
ENDBRANCH   1  14
BRANCH   1  25
ATOM     25  C   LIG    1       25.309 -20.874   7.324  0.00  0.00    +0.088 C 
BRANCH  25  26
ATOM     26  C   LIG    1       24.374 -20.603   6.197  0.00  0.00    +0.061 A 
ATOM     27  N   LIG    1       24.853 -20.307   4.941  0.00  0.00    -0.241 NA
ATOM     28  C   LIG    1       23.791 -20.084   4.201  0.00  0.00    +0.196 A 
ATOM     29  N   LIG    1       22.641 -20.232   4.921  0.00  0.00    -0.351 N 
ATOM     30  H   LIG    1       21.702 -20.106   4.570  0.00  0.00    +0.166 HD
ATOM     31  C   LIG    1       22.996 -20.566   6.199  0.00  0.00    +0.107 A 
ENDBRANCH  25  26
ENDBRANCH   1  25
TORSDOF 6
ENDMDL
MODEL 3
REMARK VINA RESULT:      -7.6      2.677      6.094
REMARK  Name = *****
REMARK                            x       y       z     vdW  Elec       q    Type
REMARK                         _______ _______ _______ _____ _____    ______ ____
ROOT
ATOM      1  C   LIG    1       24.821 -23.178   7.232  0.00  0.00    +0.165 C 
ENDROOT
BRANCH   1   4
ATOM      2  C   LIG    1       23.833 -20.674   4.430  0.00  0.00    +0.162 C 
ATOM      3  N   LIG    1       24.108 -21.260   5.754  0.00  0.00    -0.288 N 
ATOM      4  C   LIG    1       24.895 -22.388   5.896  0.00  0.00    +0.237 C 
ATOM      5  O   LIG    1       25.588 -22.808   4.961  0.00  0.00    -0.274 OA
ATOM      6  C   LIG    1       23.203 -20.716   6.755  0.00  0.00    +0.109 C 
ATOM      7  C   LIG    1       22.625 -19.469   6.108  0.00  0.00    +0.021 C 
ATOM      8  C   LIG    1       22.528 -19.893   4.647  0.00  0.00    +0.033 C 
BRANCH   2  12
ATOM      9  N   LIG    1       26.207 -20.043   4.055  0.00  0.00    -0.328 N 
ATOM     10  H   LIG    1       26.462 -20.995   4.311  0.00  0.00    +0.145 HD
ATOM     11  H   LIG    1       26.885 -19.497   3.541  0.00  0.00    +0.145 HD
ATOM     12  C   LIG    1       24.899 -19.732   3.835  0.00  0.00    +0.231 C 
ATOM     13  O   LIG    1       24.602 -18.704   3.229  0.00  0.00    -0.274 OA
ENDBRANCH   2  12
ENDBRANCH   1   4
BRANCH   1  14
ATOM     14  N   LIG    1       25.497 -24.478   7.010  0.00  0.00    -0.302 N 
ATOM     15  H   LIG    1       26.514 -24.463   7.045  0.00  0.00    +0.149 HD
ATOM     16  C   LIG    1       24.845 -25.551   6.436  0.00  0.00    +0.234 C 
ATOM     17  O   LIG    1       23.627 -25.579   6.298  0.00  0.00    -0.274 OA
BRANCH  16  18
ATOM     18  C   LIG    1       25.757 -26.754   6.076  0.00  0.00    +0.159 C 
ATOM     19  N   LIG    1       26.066 -27.527   7.238  0.00  0.00    -0.304 N 
ATOM     20  H   LIG    1       26.652 -27.265   8.012  0.00  0.00    +0.149 HD
ATOM     21  C   LIG    1       25.245 -28.634   7.372  0.00  0.00    +0.214 C 
ATOM     22  O   LIG    1       25.226 -29.392   8.355  0.00  0.00    -0.276 OA
ATOM     23  C   LIG    1       24.392 -28.756   6.117  0.00  0.00    +0.098 C 
ATOM     24  C   LIG    1       25.051 -27.762   5.164  0.00  0.00    +0.041 C 
ENDBRANCH  16  18
ENDBRANCH   1  14
BRANCH   1  25
ATOM     25  C   LIG    1       25.505 -22.422   8.373  0.00  0.00    +0.088 C 
BRANCH  25  26
ATOM     26  C   LIG    1       26.674 -21.610   7.935  0.00  0.00    +0.061 A 
ATOM     27  N   LIG    1       27.799 -22.216   7.422  0.00  0.00    -0.241 NA
ATOM     28  C   LIG    1       28.644 -21.241   7.178  0.00  0.00    +0.196 A 
ATOM     29  N   LIG    1       28.112 -20.026   7.500  0.00  0.00    -0.351 N 
ATOM     30  H   LIG    1       28.576 -19.132   7.407  0.00  0.00    +0.166 HD
ATOM     31  C   LIG    1       26.852 -20.244   7.985  0.00  0.00    +0.107 A 
ENDBRANCH  25  26
ENDBRANCH   1  25
TORSDOF 6
ENDMDL
MODEL 4
REMARK VINA RESULT:      -7.6      2.122      5.417
REMARK  Name = *****
REMARK                            x       y       z     vdW  Elec       q    Type
REMARK                         _______ _______ _______ _____ _____    ______ ____
ROOT
ATOM      1  C   LIG    1       26.106 -21.389   7.193  0.00  0.00    +0.165 C 
ENDROOT
BRANCH   1   4
ATOM      2  C   LIG    1       23.150 -19.837   5.208  0.00  0.00    +0.162 C 
ATOM      3  N   LIG    1       24.393 -20.554   5.538  0.00  0.00    -0.288 N 
ATOM      4  C   LIG    1       24.646 -21.011   6.819  0.00  0.00    +0.237 C 
ATOM      5  O   LIG    1       23.754 -21.048   7.674  0.00  0.00    -0.274 OA
ATOM      6  C   LIG    1       25.374 -20.399   4.474  0.00  0.00    +0.109 C 
ATOM      7  C   LIG    1       24.569 -19.909   3.283  0.00  0.00    +0.021 C 
ATOM      8  C   LIG    1       23.522 -19.029   3.956  0.00  0.00    +0.033 C 
BRANCH   2  12
ATOM      9  N   LIG    1       21.866 -21.955   5.405  0.00  0.00    -0.328 N 
ATOM     10  H   LIG    1       22.477 -22.211   6.179  0.00  0.00    +0.145 HD
ATOM     11  H   LIG    1       20.984 -22.442   5.324  0.00  0.00    +0.145 HD
ATOM     12  C   LIG    1       21.896 -20.685   4.913  0.00  0.00    +0.231 C 
ATOM     13  O   LIG    1       20.972 -20.271   4.216  0.00  0.00    -0.274 OA
ENDBRANCH   2  12
ENDBRANCH   1   4
BRANCH   1  14
ATOM     14  N   LIG    1       26.439 -22.632   6.456  0.00  0.00    -0.302 N 
ATOM     15  H   LIG    1       26.778 -22.508   5.504  0.00  0.00    +0.149 HD
ATOM     16  C   LIG    1       25.985 -23.868   6.869  0.00  0.00    +0.234 C 
ATOM     17  O   LIG    1       25.492 -24.049   7.977  0.00  0.00    -0.274 OA
BRANCH  16  18
ATOM     18  C   LIG    1       26.237 -25.026   5.866  0.00  0.00    +0.159 C 
ATOM     19  N   LIG    1       26.271 -26.286   6.539  0.00  0.00    -0.304 N 
ATOM     20  H   LIG    1       26.976 -26.627   7.170  0.00  0.00    +0.149 HD
ATOM     21  C   LIG    1       25.060 -26.956   6.473  0.00  0.00    +0.214 C 
ATOM     22  O   LIG    1       24.792 -28.005   7.080  0.00  0.00    -0.276 OA
ATOM     23  C   LIG    1       24.136 -26.190   5.536  0.00  0.00    +0.098 C 
ATOM     24  C   LIG    1       25.082 -25.191   4.873  0.00  0.00    +0.041 C 
ENDBRANCH  16  18
ENDBRANCH   1  14
BRANCH   1  25
ATOM     25  C   LIG    1       27.091 -20.280   6.816  0.00  0.00    +0.088 C 
BRANCH  25  26
ATOM     26  C   LIG    1       28.487 -20.545   7.258  0.00  0.00    +0.061 A 
ATOM     27  N   LIG    1       28.744 -21.401   8.306  0.00  0.00    -0.241 NA
ATOM     28  C   LIG    1       30.047 -21.382   8.466  0.00  0.00    +0.196 A 
ATOM     29  N   LIG    1       30.650 -20.558   7.560  0.00  0.00    -0.351 N 
ATOM     30  H   LIG    1       31.643 -20.377   7.492  0.00  0.00    +0.166 HD
ATOM     31  C   LIG    1       29.667 -20.016   6.779  0.00  0.00    +0.107 A 
ENDBRANCH  25  26
ENDBRANCH   1  25
TORSDOF 6
ENDMDL
MODEL 5
REMARK VINA RESULT:      -7.5      6.245     10.050
REMARK  Name = *****
REMARK                            x       y       z     vdW  Elec       q    Type
REMARK                         _______ _______ _______ _____ _____    ______ ____
ROOT
ATOM      1  C   LIG    1       25.534 -30.020   8.307  0.00  0.00    +0.165 C 
ENDROOT
BRANCH   1   4
ATOM      2  C   LIG    1       25.969 -28.553  11.878  0.00  0.00    +0.162 C 
ATOM      3  N   LIG    1       25.539 -29.404  10.755  0.00  0.00    -0.288 N 
ATOM      4  C   LIG    1       26.239 -29.434   9.562  0.00  0.00    +0.237 C 
ATOM      5  O   LIG    1       27.370 -28.942   9.470  0.00  0.00    -0.274 OA
ATOM      6  C   LIG    1       24.182 -29.885  10.964  0.00  0.00    +0.109 C 
ATOM      7  C   LIG    1       23.919 -29.651  12.442  0.00  0.00    +0.021 C 
ATOM      8  C   LIG    1       24.681 -28.355  12.692  0.00  0.00    +0.033 C 
BRANCH   2  12
ATOM      9  N   LIG    1       27.820 -28.192  13.495  0.00  0.00    -0.328 N 
ATOM     10  H   LIG    1       27.457 -27.252  13.644  0.00  0.00    +0.145 HD
ATOM     11  H   LIG    1       28.440 -28.573  14.197  0.00  0.00    +0.145 HD
ATOM     12  C   LIG    1       27.077 -29.099  12.800  0.00  0.00    +0.231 C 
ATOM     13  O   LIG    1       27.335 -30.299  12.878  0.00  0.00    -0.274 OA
ENDBRANCH   2  12
ENDBRANCH   1   4
BRANCH   1  14
ATOM     14  N   LIG    1       25.726 -29.048   7.204  0.00  0.00    -0.302 N 
ATOM     15  H   LIG    1       26.588 -28.507   7.232  0.00  0.00    +0.149 HD
ATOM     16  C   LIG    1       24.677 -28.630   6.409  0.00  0.00    +0.234 C 
ATOM     17  O   LIG    1       23.592 -29.200   6.403  0.00  0.00    -0.274 OA
BRANCH  16  18
ATOM     18  C   LIG    1       25.010 -27.451   5.455  0.00  0.00    +0.159 C 
ATOM     19  N   LIG    1       23.938 -26.506   5.419  0.00  0.00    -0.304 N 
ATOM     20  H   LIG    1       23.025 -26.627   5.014  0.00  0.00    +0.149 HD
ATOM     21  C   LIG    1       24.151 -25.429   6.263  0.00  0.00    +0.214 C 
ATOM     22  O   LIG    1       23.320 -24.541   6.507  0.00  0.00    -0.276 OA
ATOM     23  C   LIG    1       25.564 -25.528   6.822  0.00  0.00    +0.098 C 
ATOM     24  C   LIG    1       26.193 -26.618   5.958  0.00  0.00    +0.041 C 
ENDBRANCH  16  18
ENDBRANCH   1  14
BRANCH   1  25
ATOM     25  C   LIG    1       26.119 -31.378   7.913  0.00  0.00    +0.088 C 
BRANCH  25  26
ATOM     26  C   LIG    1       25.614 -31.890   6.610  0.00  0.00    +0.061 A 
ATOM     27  N   LIG    1       26.334 -31.699   5.452  0.00  0.00    -0.241 NA
ATOM     28  C   LIG    1       25.607 -32.224   4.493  0.00  0.00    +0.196 A 
ATOM     29  N   LIG    1       24.449 -32.760   4.980  0.00  0.00    -0.351 N 
ATOM     30  H   LIG    1       23.730 -33.212   4.432  0.00  0.00    +0.166 HD
ATOM     31  C   LIG    1       24.439 -32.556   6.332  0.00  0.00    +0.107 A 
ENDBRANCH  25  26
ENDBRANCH   1  25
TORSDOF 6
ENDMDL
MODEL 6
REMARK VINA RESULT:      -7.2      1.771      6.391
REMARK  Name = *****
REMARK                            x       y       z     vdW  Elec       q    Type
REMARK                         _______ _______ _______ _____ _____    ______ ____
ROOT
ATOM      1  C   LIG    1       26.766 -20.295   7.807  0.00  0.00    +0.165 C 
ENDROOT
BRANCH   1   4
ATOM      2  C   LIG    1       30.649 -20.305   7.686  0.00  0.00    +0.162 C 
ATOM      3  N   LIG    1       29.260 -20.007   8.073  0.00  0.00    -0.288 N 
ATOM      4  C   LIG    1       28.217 -20.847   7.728  0.00  0.00    +0.237 C 
ATOM      5  O   LIG    1       28.428 -21.986   7.295  0.00  0.00    -0.274 OA
ATOM      6  C   LIG    1       29.136 -18.629   8.525  0.00  0.00    +0.109 C 
ATOM      7  C   LIG    1       30.563 -18.189   8.801  0.00  0.00    +0.021 C 
ATOM      8  C   LIG    1       31.333 -18.929   7.713  0.00  0.00    +0.033 C 
BRANCH   2  12
ATOM      9  N   LIG    1       31.125 -22.608   8.488  0.00  0.00    -0.328 N 
ATOM     10  H   LIG    1       30.634 -22.956   7.667  0.00  0.00    +0.145 HD
ATOM     11  H   LIG    1       31.746 -23.244   8.968  0.00  0.00    +0.145 HD
ATOM     12  C   LIG    1       31.441 -21.285   8.574  0.00  0.00    +0.231 C 
ATOM     13  O   LIG    1       32.290 -20.904   9.379  0.00  0.00    -0.274 OA
ENDBRANCH   2  12
ENDBRANCH   1   4
BRANCH   1  14
ATOM     14  N   LIG    1       26.220 -20.303   6.429  0.00  0.00    -0.302 N 
ATOM     15  H   LIG    1       25.471 -20.969   6.250  0.00  0.00    +0.149 HD
ATOM     16  C   LIG    1       26.901 -19.733   5.371  0.00  0.00    +0.234 C 
ATOM     17  O   LIG    1       27.862 -18.989   5.535  0.00  0.00    -0.274 OA
BRANCH  16  18
ATOM     18  C   LIG    1       26.296 -20.024   3.971  0.00  0.00    +0.159 C 
ATOM     19  N   LIG    1       25.248 -20.991   4.060  0.00  0.00    -0.304 N 
ATOM     20  H   LIG    1       25.331 -21.971   4.271  0.00  0.00    +0.149 HD
ATOM     21  C   LIG    1       23.991 -20.409   4.100  0.00  0.00    +0.214 C 
ATOM     22  O   LIG    1       22.929 -21.019   4.301  0.00  0.00    -0.276 OA
ATOM     23  C   LIG    1       24.144 -18.915   3.850  0.00  0.00    +0.098 C 
ATOM     24  C   LIG    1       25.592 -18.799   3.380  0.00  0.00    +0.041 C 
ENDBRANCH  16  18
ENDBRANCH   1  14
BRANCH   1  25
ATOM     25  C   LIG    1       25.887 -21.150   8.721  0.00  0.00    +0.088 C 
BRANCH  25  26
ATOM     26  C   LIG    1       24.869 -21.955   7.990  0.00  0.00    +0.061 A 
ATOM     27  N   LIG    1       25.208 -23.155   7.406  0.00  0.00    -0.241 NA
ATOM     28  C   LIG    1       24.115 -23.582   6.817  0.00  0.00    +0.196 A 
ATOM     29  N   LIG    1       23.076 -22.716   7.003  0.00  0.00    -0.351 N 
ATOM     30  H   LIG    1       22.139 -22.828   6.640  0.00  0.00    +0.166 HD
ATOM     31  C   LIG    1       23.541 -21.671   7.752  0.00  0.00    +0.107 A 
ENDBRANCH  25  26
ENDBRANCH   1  25
TORSDOF 6
ENDMDL
MODEL 7
REMARK VINA RESULT:      -7.2      6.441     10.171
REMARK  Name = *****
REMARK                            x       y       z     vdW  Elec       q    Type
REMARK                         _______ _______ _______ _____ _____    ______ ____
ROOT
ATOM      1  C   LIG    1       25.437 -29.813   8.401  0.00  0.00    +0.165 C 
ENDROOT
BRANCH   1   4
ATOM      2  C   LIG    1       26.066 -28.437  11.979  0.00  0.00    +0.162 C 
ATOM      3  N   LIG    1       25.559 -29.246  10.858  0.00  0.00    -0.288 N 
ATOM      4  C   LIG    1       26.213 -29.283   9.639  0.00  0.00    +0.237 C 
ATOM      5  O   LIG    1       27.360 -28.838   9.514  0.00  0.00    -0.274 OA
ATOM      6  C   LIG    1       24.190 -29.673  11.109  0.00  0.00    +0.109 C 
ATOM      7  C   LIG    1       23.992 -29.457  12.599  0.00  0.00    +0.021 C 
ATOM      8  C   LIG    1       24.819 -28.200  12.844  0.00  0.00    +0.033 C 
BRANCH   2  12
ATOM      9  N   LIG    1       27.978 -28.189  13.546  0.00  0.00    -0.328 N 
ATOM     10  H   LIG    1       27.655 -27.242  13.733  0.00  0.00    +0.145 HD
ATOM     11  H   LIG    1       28.607 -28.611  14.216  0.00  0.00    +0.145 HD
ATOM     12  C   LIG    1       27.182 -29.048  12.850  0.00  0.00    +0.231 C 
ATOM     13  O   LIG    1       27.399 -30.258  12.885  0.00  0.00    -0.274 OA
ENDBRANCH   2  12
ENDBRANCH   1   4
BRANCH   1  14
ATOM     14  N   LIG    1       25.650 -28.840   7.303  0.00  0.00    -0.302 N 
ATOM     15  H   LIG    1       26.407 -28.172   7.440  0.00  0.00    +0.149 HD
ATOM     16  C   LIG    1       24.687 -28.601   6.343  0.00  0.00    +0.234 C 
ATOM     17  O   LIG    1       23.714 -29.332   6.195  0.00  0.00    -0.274 OA
BRANCH  16  18
ATOM     18  C   LIG    1       24.984 -27.400   5.405  0.00  0.00    +0.159 C 
ATOM     19  N   LIG    1       23.902 -26.466   5.415  0.00  0.00    -0.304 N 
ATOM     20  H   LIG    1       22.980 -26.588   5.031  0.00  0.00    +0.149 HD
ATOM     21  C   LIG    1       24.126 -25.404   6.275  0.00  0.00    +0.214 C 
ATOM     22  O   LIG    1       23.292 -24.529   6.558  0.00  0.00    -0.276 OA
ATOM     23  C   LIG    1       25.553 -25.498   6.796  0.00  0.00    +0.098 C 
ATOM     24  C   LIG    1       26.170 -26.564   5.894  0.00  0.00    +0.041 C 
ENDBRANCH  16  18
ENDBRANCH   1  14
BRANCH   1  25
ATOM     25  C   LIG    1       25.932 -31.197   7.975  0.00  0.00    +0.088 C 
BRANCH  25  26
ATOM     26  C   LIG    1       24.836 -32.175   7.735  0.00  0.00    +0.061 A 
ATOM     27  N   LIG    1       23.687 -32.146   8.493  0.00  0.00    -0.241 NA
ATOM     28  C   LIG    1       22.955 -33.147   8.064  0.00  0.00    +0.196 A 
ATOM     29  N   LIG    1       23.574 -33.821   7.050  0.00  0.00    -0.351 N 
ATOM     30  H   LIG    1       23.209 -34.630   6.566  0.00  0.00    +0.166 HD
ATOM     31  C   LIG    1       24.778 -33.211   6.827  0.00  0.00    +0.107 A 
ENDBRANCH  25  26
ENDBRANCH   1  25
TORSDOF 6
ENDMDL
MODEL 8
REMARK VINA RESULT:      -7.1      1.661      6.217
REMARK  Name = *****
REMARK                            x       y       z     vdW  Elec       q    Type
REMARK                         _______ _______ _______ _____ _____    ______ ____
ROOT
ATOM      1  C   LIG    1       26.068 -21.653   6.975  0.00  0.00    +0.165 C 
ENDROOT
BRANCH   1   4
ATOM      2  C   LIG    1       29.132 -19.296   7.356  0.00  0.00    +0.162 C 
ATOM      3  N   LIG    1       28.292 -20.505   7.299  0.00  0.00    -0.288 N 
ATOM      4  C   LIG    1       27.064 -20.502   6.663  0.00  0.00    +0.237 C 
ATOM      5  O   LIG    1       26.728 -19.570   5.921  0.00  0.00    -0.274 OA
ATOM      6  C   LIG    1       28.765 -21.505   8.244  0.00  0.00    +0.109 C 
ATOM      7  C   LIG    1       30.171 -21.055   8.603  0.00  0.00    +0.021 C 
ATOM      8  C   LIG    1       30.027 -19.538   8.582  0.00  0.00    +0.033 C 
BRANCH   2  12
ATOM      9  N   LIG    1       29.413 -18.439   5.041  0.00  0.00    -0.328 N 
ATOM     10  H   LIG    1       28.515 -17.970   5.145  0.00  0.00    +0.145 HD
ATOM     11  H   LIG    1       30.030 -18.114   4.309  0.00  0.00    +0.145 HD
ATOM     12  C   LIG    1       30.018 -18.987   6.132  0.00  0.00    +0.231 C 
ATOM     13  O   LIG    1       31.215 -19.267   6.099  0.00  0.00    -0.274 OA
ENDBRANCH   2  12
ENDBRANCH   1   4
BRANCH   1  14
ATOM     14  N   LIG    1       24.985 -21.580   5.965  0.00  0.00    -0.302 N 
ATOM     15  H   LIG    1       25.265 -21.736   4.999  0.00  0.00    +0.149 HD
ATOM     16  C   LIG    1       23.769 -20.986   6.241  0.00  0.00    +0.234 C 
ATOM     17  O   LIG    1       23.423 -20.704   7.383  0.00  0.00    -0.274 OA
BRANCH  16  18
ATOM     18  C   LIG    1       22.839 -20.799   5.013  0.00  0.00    +0.159 C 
ATOM     19  N   LIG    1       22.051 -19.614   5.146  0.00  0.00    -0.304 N 
ATOM     20  H   LIG    1       21.297 -19.446   5.790  0.00  0.00    +0.149 HD
ATOM     21  C   LIG    1       22.593 -18.537   4.464  0.00  0.00    +0.214 C 
ATOM     22  O   LIG    1       22.171 -17.372   4.523  0.00  0.00    -0.276 OA
ATOM     23  C   LIG    1       23.774 -19.033   3.641  0.00  0.00    +0.098 C 
ATOM     24  C   LIG    1       23.629 -20.550   3.724  0.00  0.00    +0.041 C 
ENDBRANCH  16  18
ENDBRANCH   1  14
BRANCH   1  25
ATOM     25  C   LIG    1       26.750 -23.021   6.910  0.00  0.00    +0.088 C 
BRANCH  25  26
ATOM     26  C   LIG    1       25.823 -24.135   6.568  0.00  0.00    +0.061 A 
ATOM     27  N   LIG    1       24.481 -24.052   6.869  0.00  0.00    -0.241 NA
ATOM     28  C   LIG    1       23.962 -25.194   6.482  0.00  0.00    +0.196 A 
ATOM     29  N   LIG    1       24.906 -26.013   5.932  0.00  0.00    -0.351 N 
ATOM     30  H   LIG    1       24.746 -26.943   5.570  0.00  0.00    +0.166 HD
ATOM     31  C   LIG    1       26.102 -25.350   5.978  0.00  0.00    +0.107 A 
ENDBRANCH  25  26
ENDBRANCH   1  25
TORSDOF 6
ENDMDL
MODEL 9
REMARK VINA RESULT:      -6.6      2.418      5.741
REMARK  Name = *****
REMARK                            x       y       z     vdW  Elec       q    Type
REMARK                         _______ _______ _______ _____ _____    ______ ____
ROOT
ATOM      1  C   LIG    1       24.567 -22.302   7.452  0.00  0.00    +0.165 C 
ENDROOT
BRANCH   1   4
ATOM      2  C   LIG    1       24.272 -20.235   4.176  0.00  0.00    +0.162 C 
ATOM      3  N   LIG    1       24.177 -20.647   5.587  0.00  0.00    -0.288 N 
ATOM      4  C   LIG    1       24.980 -21.647   6.104  0.00  0.00    +0.237 C 
ATOM      5  O   LIG    1       25.961 -22.068   5.480  0.00  0.00    -0.274 OA
ATOM      6  C   LIG    1       22.963 -20.123   6.194  0.00  0.00    +0.109 C 
ATOM      7  C   LIG    1       22.504 -19.029   5.245  0.00  0.00    +0.021 C 
ATOM      8  C   LIG    1       22.900 -19.606   3.891  0.00  0.00    +0.033 C 
BRANCH   2  12
ATOM      9  N   LIG    1       26.643 -19.493   4.245  0.00  0.00    -0.328 N 
ATOM     10  H   LIG    1       26.893 -20.441   4.521  0.00  0.00    +0.145 HD
ATOM     11  H   LIG    1       27.375 -18.904   3.871  0.00  0.00    +0.145 HD
ATOM     12  C   LIG    1       25.381 -19.232   3.801  0.00  0.00    +0.231 C 
ATOM     13  O   LIG    1       25.148 -18.199   3.175  0.00  0.00    -0.274 OA
ENDBRANCH   2  12
ENDBRANCH   1   4
BRANCH   1  14
ATOM     14  N   LIG    1       24.698 -23.769   7.283  0.00  0.00    -0.302 N 
ATOM     15  H   LIG    1       25.646 -24.139   7.321  0.00  0.00    +0.149 HD
ATOM     16  C   LIG    1       23.681 -24.536   6.751  0.00  0.00    +0.234 C 
ATOM     17  O   LIG    1       22.542 -24.106   6.609  0.00  0.00    -0.274 OA
BRANCH  16  18
ATOM     18  C   LIG    1       24.066 -26.008   6.440  0.00  0.00    +0.159 C 
ATOM     19  N   LIG    1       24.203 -26.213   5.033  0.00  0.00    -0.304 N 
ATOM     20  H   LIG    1       23.475 -26.216   4.338  0.00  0.00    +0.149 HD
ATOM     21  C   LIG    1       25.520 -26.143   4.612  0.00  0.00    +0.214 C 
ATOM     22  O   LIG    1       25.892 -26.162   3.428  0.00  0.00    -0.276 OA
ATOM     23  C   LIG    1       26.414 -26.046   5.840  0.00  0.00    +0.098 C 
ATOM     24  C   LIG    1       25.453 -26.368   6.982  0.00  0.00    +0.041 C 
ENDBRANCH  16  18
ENDBRANCH   1  14
BRANCH   1  25
ATOM     25  C   LIG    1       25.455 -21.828   8.604  0.00  0.00    +0.088 C 
BRANCH  25  26
ATOM     26  C   LIG    1       26.809 -21.383   8.172  0.00  0.00    +0.061 A 
ATOM     27  N   LIG    1       27.138 -20.046   8.154  0.00  0.00    -0.241 NA
ATOM     28  C   LIG    1       28.366 -19.991   7.692  0.00  0.00    +0.196 A 
ATOM     29  N   LIG    1       28.854 -21.237   7.419  0.00  0.00    -0.351 N 
ATOM     30  H   LIG    1       29.771 -21.446   7.050  0.00  0.00    +0.166 HD
ATOM     31  C   LIG    1       27.871 -22.139   7.722  0.00  0.00    +0.107 A 
ENDBRANCH  25  26
ENDBRANCH   1  25
TORSDOF 6
ENDMDL
