MODEL 1
REMARK VINA RESULT:      -5.7      0.000      0.000
REMARK  Name = *****
REMARK                            x       y       z     vdW  Elec       q    Type
REMARK                         _______ _______ _______ _____ _____    ______ ____
ROOT
ATOM      1  C   LIG    1       30.338 -18.430   8.382  0.00  0.00    +0.177 C 
ENDROOT
BRANCH   1   2
ATOM      2  O   LIG    1       29.499 -18.659   9.525  0.00  0.00    -0.387 OA
ATOM      3  H   LIG    1       28.731 -19.168   9.195  0.00  0.00    +0.210 HD
ENDBRANCH   1   2
BRANCH   1   4
ATOM      4  C   LIG    1       30.482 -19.748   7.576  0.00  0.00    +0.186 C 
BRANCH   4   5
ATOM      5  C   LIG    1       30.035 -20.952   8.402  0.00  0.00    +0.259 C 
ATOM      6  F   LIG    1       29.113 -21.670   7.694  0.00  0.00    -0.235 F 
BRANCH   5   8
ATOM      7  O   LIG    1       32.114 -21.478   9.545  0.00  0.00    -0.298 OA
ATOM      8  C   LIG    1       31.241 -21.802   8.754  0.00  0.00    +0.262 C 
ENDBRANCH   5   8
ENDBRANCH   4   5
BRANCH   4   9
ATOM      9  O   LIG    1       31.846 -19.946   7.166  0.00  0.00    -0.386 OA
ATOM     10  H   LIG    1       32.388 -19.288   7.655  0.00  0.00    +0.210 HD
ENDBRANCH   4   9
ENDBRANCH   1   4
BRANCH   1  11
ATOM     11  C   LIG    1       31.695 -17.862   8.850  0.00  0.00    +0.171 C 
BRANCH  11  12
ATOM     12  O   LIG    1       32.173 -18.609   9.985  0.00  0.00    -0.387 OA
ATOM     13  H   LIG    1       32.652 -19.374   9.598  0.00  0.00    +0.210 HD
ENDBRANCH  11  12
BRANCH  11  14
ATOM     14  C   LIG    1       31.598 -16.372   9.220  0.00  0.00    +0.190 C 
BRANCH  14  15
ATOM     15  O   LIG    1       32.834 -15.730   8.890  0.00  0.00    -0.392 OA
ATOM     16  H   LIG    1       33.020 -15.950   7.958  0.00  0.00    +0.209 HD
ENDBRANCH  14  15
ENDBRANCH  11  14
ENDBRANCH   1  11
TORSDOF 9
ENDMDL
MODEL 2
REMARK VINA RESULT:      -5.7      1.299      1.622
REMARK  Name = *****
REMARK                            x       y       z     vdW  Elec       q    Type
REMARK                         _______ _______ _______ _____ _____    ______ ____
ROOT
ATOM      1  C   LIG    1       30.507 -18.161   9.446  0.00  0.00    +0.177 C 
ENDROOT
BRANCH   1   2
ATOM      2  O   LIG    1       30.412 -18.596  10.812  0.00  0.00    -0.387 OA
ATOM      3  H   LIG    1       30.219 -17.791  11.335  0.00  0.00    +0.210 HD
ENDBRANCH   1   2
BRANCH   1   4
ATOM      4  C   LIG    1       31.145 -19.287   8.590  0.00  0.00    +0.186 C 
BRANCH   4   5
ATOM      5  C   LIG    1       30.168 -20.441   8.378  0.00  0.00    +0.259 C 
ATOM      6  F   LIG    1       29.867 -20.542   7.049  0.00  0.00    -0.235 F 
BRANCH   5   8
ATOM      7  O   LIG    1       30.829 -22.045  10.080  0.00  0.00    -0.298 OA
ATOM      8  C   LIG    1       30.780 -21.726   8.901  0.00  0.00    +0.262 C 
ENDBRANCH   5   8
ENDBRANCH   4   5
BRANCH   4   9
ATOM      9  O   LIG    1       32.334 -19.794   9.221  0.00  0.00    -0.386 OA
ATOM     10  H   LIG    1       32.112 -20.685   9.571  0.00  0.00    +0.210 HD
ENDBRANCH   4   9
ENDBRANCH   1   4
BRANCH   1  11
ATOM     11  C   LIG    1       31.301 -16.838   9.385  0.00  0.00    +0.171 C 
BRANCH  11  12
ATOM     12  O   LIG    1       32.355 -16.944   8.408  0.00  0.00    -0.387 OA
ATOM     13  H   LIG    1       32.099 -17.705   7.844  0.00  0.00    +0.210 HD
ENDBRANCH  11  12
BRANCH  11  14
ATOM     14  C   LIG    1       31.903 -16.465  10.751  0.00  0.00    +0.190 C 
BRANCH  14  15
ATOM     15  O   LIG    1       32.963 -17.377  11.056  0.00  0.00    -0.392 OA
ATOM     16  H   LIG    1       32.687 -18.248  10.713  0.00  0.00    +0.209 HD
ENDBRANCH  14  15
ENDBRANCH  11  14
ENDBRANCH   1  11
TORSDOF 9
ENDMDL
MODEL 3
REMARK VINA RESULT:      -5.6      1.312      1.428
REMARK  Name = *****
REMARK                            x       y       z     vdW  Elec       q    Type
REMARK                         _______ _______ _______ _____ _____    ______ ____
ROOT
ATOM      1  C   LIG    1       30.476 -18.082   8.257  0.00  0.00    +0.177 C 
ENDROOT
BRANCH   1   2
ATOM      2  O   LIG    1       29.597 -18.431   9.339  0.00  0.00    -0.387 OA
ATOM      3  H   LIG    1       29.677 -19.400   9.446  0.00  0.00    +0.210 HD
ENDBRANCH   1   2
BRANCH   1   4
ATOM      4  C   LIG    1       30.186 -19.000   7.041  0.00  0.00    +0.186 C 
BRANCH   4   5
ATOM      5  C   LIG    1       28.930 -19.838   7.268  0.00  0.00    +0.259 C 
ATOM      6  F   LIG    1       28.212 -19.902   6.108  0.00  0.00    -0.235 F 
BRANCH   5   8
ATOM      7  O   LIG    1       29.927 -21.455   8.783  0.00  0.00    -0.298 OA
ATOM      8  C   LIG    1       29.324 -21.222   7.746  0.00  0.00    +0.262 C 
ENDBRANCH   5   8
ENDBRANCH   4   5
BRANCH   4   9
ATOM      9  O   LIG    1       31.295 -19.882   6.793  0.00  0.00    -0.386 OA
ATOM     10  H   LIG    1       32.047 -19.552   7.333  0.00  0.00    +0.210 HD
ENDBRANCH   4   9
ENDBRANCH   1   4
BRANCH   1  11
ATOM     11  C   LIG    1       31.940 -18.172   8.741  0.00  0.00    +0.171 C 
BRANCH  11  12
ATOM     12  O   LIG    1       32.149 -19.413   9.441  0.00  0.00    -0.387 OA
ATOM     13  H   LIG    1       32.551 -19.153  10.298  0.00  0.00    +0.210 HD
ENDBRANCH  11  12
BRANCH  11  14
ATOM     14  C   LIG    1       32.316 -16.995   9.657  0.00  0.00    +0.190 C 
BRANCH  14  15
ATOM     15  O   LIG    1       32.722 -15.887   8.847  0.00  0.00    -0.392 OA
ATOM     16  H   LIG    1       31.905 -15.427   8.577  0.00  0.00    +0.209 HD
ENDBRANCH  14  15
ENDBRANCH  11  14
ENDBRANCH   1  11
TORSDOF 9
ENDMDL
MODEL 4
REMARK VINA RESULT:      -5.4      1.919      2.550
REMARK  Name = *****
REMARK                            x       y       z     vdW  Elec       q    Type
REMARK                         _______ _______ _______ _____ _____    ______ ____
ROOT
ATOM      1  C   LIG    1       30.947 -17.659   9.706  0.00  0.00    +0.177 C 
ENDROOT
BRANCH   1   2
ATOM      2  O   LIG    1       30.849 -18.384  10.942  0.00  0.00    -0.387 OA
ATOM      3  H   LIG    1       31.752 -18.391  11.320  0.00  0.00    +0.210 HD
ENDBRANCH   1   2
BRANCH   1   4
ATOM      4  C   LIG    1       31.611 -18.558   8.631  0.00  0.00    +0.186 C 
BRANCH   4   5
ATOM      5  C   LIG    1       30.655 -18.830   7.471  0.00  0.00    +0.259 C 
ATOM      6  F   LIG    1       31.312 -19.522   6.494  0.00  0.00    -0.235 F 
BRANCH   5   8
ATOM      7  O   LIG    1       29.485 -20.756   8.378  0.00  0.00    -0.298 OA
ATOM      8  C   LIG    1       29.452 -19.603   7.976  0.00  0.00    +0.262 C 
ENDBRANCH   5   8
ENDBRANCH   4   5
BRANCH   4   9
ATOM      9  O   LIG    1       32.019 -19.814   9.200  0.00  0.00    -0.386 OA
ATOM     10  H   LIG    1       32.697 -20.193   8.598  0.00  0.00    +0.210 HD
ENDBRANCH   4   9
ENDBRANCH   1   4
BRANCH   1  11
ATOM     11  C   LIG    1       31.720 -16.343   9.947  0.00  0.00    +0.171 C 
BRANCH  11  12
ATOM     12  O   LIG    1       32.625 -16.099   8.853  0.00  0.00    -0.387 OA
ATOM     13  H   LIG    1       32.405 -16.787   8.188  0.00  0.00    +0.210 HD
ENDBRANCH  11  12
BRANCH  11  14
ATOM     14  C   LIG    1       32.508 -16.373  11.268  0.00  0.00    +0.190 C 
BRANCH  14  15
ATOM     15  O   LIG    1       31.686 -15.840  12.311  0.00  0.00    -0.392 OA
ATOM     16  H   LIG    1       32.219 -15.873  13.128  0.00  0.00    +0.209 HD
ENDBRANCH  14  15
ENDBRANCH  11  14
ENDBRANCH   1  11
TORSDOF 9
ENDMDL
MODEL 5
REMARK VINA RESULT:      -5.3      2.459      4.142
REMARK  Name = *****
REMARK                            x       y       z     vdW  Elec       q    Type
REMARK                         _______ _______ _______ _____ _____    ______ ____
ROOT
ATOM      1  C   LIG    1       30.772 -18.884   7.686  0.00  0.00    +0.177 C 
ENDROOT
BRANCH   1   2
ATOM      2  O   LIG    1       31.863 -19.361   6.883  0.00  0.00    -0.387 OA
ATOM      3  H   LIG    1       32.033 -18.661   6.221  0.00  0.00    +0.210 HD
ENDBRANCH   1   2
BRANCH   1   4
ATOM      4  C   LIG    1       31.121 -19.061   9.188  0.00  0.00    +0.186 C 
BRANCH   4   5
ATOM      5  C   LIG    1       31.799 -17.812   9.748  0.00  0.00    +0.259 C 
ATOM      6  F   LIG    1       31.762 -16.818   8.811  0.00  0.00    -0.235 F 
BRANCH   5   8
ATOM      7  O   LIG    1       30.133 -16.645  11.076  0.00  0.00    -0.298 OA
ATOM      8  C   LIG    1       31.103 -17.387  11.026  0.00  0.00    +0.262 C 
ENDBRANCH   5   8
ENDBRANCH   4   5
BRANCH   4   9
ATOM      9  O   LIG    1       31.993 -20.188   9.378  0.00  0.00    -0.386 OA
ATOM     10  H   LIG    1       31.794 -20.555  10.267  0.00  0.00    +0.210 HD
ENDBRANCH   4   9
ENDBRANCH   1   4
BRANCH   1  11
ATOM     11  C   LIG    1       29.478 -19.623   7.281  0.00  0.00    +0.171 C 
BRANCH  11  12
ATOM     12  O   LIG    1       29.691 -21.046   7.328  0.00  0.00    -0.387 OA
ATOM     13  H   LIG    1       30.661 -21.158   7.232  0.00  0.00    +0.210 HD
ENDBRANCH  11  12
BRANCH  11  14
ATOM     14  C   LIG    1       29.004 -19.221   5.874  0.00  0.00    +0.190 C 
BRANCH  14  15
ATOM     15  O   LIG    1       29.714 -18.048   5.462  0.00  0.00    -0.392 OA
ATOM     16  H   LIG    1       29.902 -18.158   4.510  0.00  0.00    +0.209 HD
ENDBRANCH  14  15
ENDBRANCH  11  14
ENDBRANCH   1  11
TORSDOF 9
ENDMDL
MODEL 6
REMARK VINA RESULT:      -5.3      1.773      2.100
REMARK  Name = *****
REMARK                            x       y       z     vdW  Elec       q    Type
REMARK                         _______ _______ _______ _____ _____    ______ ____
ROOT
ATOM      1  C   LIG    1       30.404 -18.142   9.057  0.00  0.00    +0.177 C 
ENDROOT
BRANCH   1   2
ATOM      2  O   LIG    1       30.832 -19.103  10.036  0.00  0.00    -0.387 OA
ATOM      3  H   LIG    1       30.029 -19.602  10.287  0.00  0.00    +0.210 HD
ENDBRANCH   1   2
BRANCH   1   4
ATOM      4  C   LIG    1       30.504 -18.768   7.641  0.00  0.00    +0.186 C 
BRANCH   4   5
ATOM      5  C   LIG    1       29.198 -19.455   7.248  0.00  0.00    +0.259 C 
ATOM      6  F   LIG    1       28.925 -19.192   5.936  0.00  0.00    -0.235 F 
BRANCH   5   8
ATOM      7  O   LIG    1       29.470 -21.460   8.593  0.00  0.00    -0.298 OA
ATOM      8  C   LIG    1       29.315 -20.947   7.495  0.00  0.00    +0.262 C 
ENDBRANCH   5   8
ENDBRANCH   4   5
BRANCH   4   9
ATOM      9  O   LIG    1       31.570 -19.732   7.586  0.00  0.00    -0.386 OA
ATOM     10  H   LIG    1       32.372 -19.290   7.944  0.00  0.00    +0.210 HD
ENDBRANCH   4   9
ENDBRANCH   1   4
BRANCH   1  11
ATOM     11  C   LIG    1       31.245 -16.855   9.203  0.00  0.00    +0.171 C 
BRANCH  11  12
ATOM     12  O   LIG    1       32.480 -16.991   8.475  0.00  0.00    -0.387 OA
ATOM     13  H   LIG    1       32.329 -17.743   7.863  0.00  0.00    +0.210 HD
ENDBRANCH  11  12
BRANCH  11  14
ATOM     14  C   LIG    1       31.550 -16.532  10.676  0.00  0.00    +0.190 C 
BRANCH  14  15
ATOM     15  O   LIG    1       30.316 -16.361  11.380  0.00  0.00    -0.392 OA
ATOM     16  H   LIG    1       30.208 -15.401  11.520  0.00  0.00    +0.209 HD
ENDBRANCH  14  15
ENDBRANCH  11  14
ENDBRANCH   1  11
TORSDOF 9
ENDMDL
MODEL 7
REMARK VINA RESULT:      -5.2      2.541      4.548
REMARK  Name = *****
REMARK                            x       y       z     vdW  Elec       q    Type
REMARK                         _______ _______ _______ _____ _____    ______ ____
ROOT
ATOM      1  C   LIG    1       31.673 -19.187   8.504  0.00  0.00    +0.177 C 
ENDROOT
BRANCH   1   2
ATOM      2  O   LIG    1       32.055 -20.407   9.159  0.00  0.00    -0.387 OA
ATOM      3  H   LIG    1       31.584 -20.408  10.018  0.00  0.00    +0.210 HD
ENDBRANCH   1   2
BRANCH   1   4
ATOM      4  C   LIG    1       31.074 -18.207   9.547  0.00  0.00    +0.186 C 
BRANCH   4   5
ATOM      5  C   LIG    1       32.079 -17.122   9.926  0.00  0.00    +0.259 C 
ATOM      6  F   LIG    1       32.272 -16.291   8.858  0.00  0.00    -0.235 F 
BRANCH   5   8
ATOM      7  O   LIG    1       30.390 -16.238  11.432  0.00  0.00    -0.298 OA
ATOM      8  C   LIG    1       31.568 -16.356  11.131  0.00  0.00    +0.262 C 
ENDBRANCH   5   8
ENDBRANCH   4   5
BRANCH   4   9
ATOM      9  O   LIG    1       30.679 -18.911  10.738  0.00  0.00    -0.386 OA
ATOM     10  H   LIG    1       31.247 -19.710  10.797  0.00  0.00    +0.210 HD
ENDBRANCH   4   9
ENDBRANCH   1   4
BRANCH   1  11
ATOM     11  C   LIG    1       30.694 -19.510   7.354  0.00  0.00    +0.171 C 
BRANCH  11  12
ATOM     12  O   LIG    1       30.519 -18.349   6.519  0.00  0.00    -0.387 OA
ATOM     13  H   LIG    1       30.079 -18.686   5.710  0.00  0.00    +0.210 HD
ENDBRANCH  11  12
BRANCH  11  14
ATOM     14  C   LIG    1       29.325 -19.976   7.878  0.00  0.00    +0.190 C 
BRANCH  14  15
ATOM     15  O   LIG    1       29.455 -21.301   8.404  0.00  0.00    -0.392 OA
ATOM     16  H   LIG    1       29.297 -21.235   9.365  0.00  0.00    +0.209 HD
ENDBRANCH  14  15
ENDBRANCH  11  14
ENDBRANCH   1  11
TORSDOF 9
ENDMDL
MODEL 8
REMARK VINA RESULT:      -5.2      1.749      2.519
REMARK  Name = *****
REMARK                            x       y       z     vdW  Elec       q    Type
REMARK                         _______ _______ _______ _____ _____    ______ ____
ROOT
ATOM      1  C   LIG    1       30.873 -19.013   9.387  0.00  0.00    +0.177 C 
ENDROOT
BRANCH   1   2
ATOM      2  O   LIG    1       32.193 -19.508   9.107  0.00  0.00    -0.387 OA
ATOM      3  H   LIG    1       32.675 -19.478   9.959  0.00  0.00    +0.210 HD
ENDBRANCH   1   2
BRANCH   1   4
ATOM      4  C   LIG    1       30.052 -18.963   8.072  0.00  0.00    +0.186 C 
BRANCH   4   5
ATOM      5  C   LIG    1       29.869 -20.360   7.482  0.00  0.00    +0.259 C 
ATOM      6  F   LIG    1       29.656 -21.255   8.493  0.00  0.00    -0.235 F 
BRANCH   5   8
ATOM      7  O   LIG    1       28.525 -19.494   5.653  0.00  0.00    -0.298 OA
ATOM      8  C   LIG    1       28.709 -20.350   6.505  0.00  0.00    +0.262 C 
ENDBRANCH   5   8
ENDBRANCH   4   5
BRANCH   4   9
ATOM      9  O   LIG    1       30.701 -18.129   7.098  0.00  0.00    -0.386 OA
ATOM     10  H   LIG    1       31.537 -17.813   7.506  0.00  0.00    +0.210 HD
ENDBRANCH   4   9
ENDBRANCH   1   4
BRANCH   1  11
ATOM     11  C   LIG    1       30.980 -17.637  10.079  0.00  0.00    +0.171 C 
BRANCH  11  12
ATOM     12  O   LIG    1       30.019 -16.727   9.512  0.00  0.00    -0.387 OA
ATOM     13  H   LIG    1       30.178 -15.874   9.970  0.00  0.00    +0.210 HD
ENDBRANCH  11  12
BRANCH  11  14
ATOM     14  C   LIG    1       32.391 -17.038   9.953  0.00  0.00    +0.190 C 
BRANCH  14  15
ATOM     15  O   LIG    1       32.541 -16.473   8.646  0.00  0.00    -0.392 OA
ATOM     16  H   LIG    1       33.093 -15.675   8.750  0.00  0.00    +0.209 HD
ENDBRANCH  14  15
ENDBRANCH  11  14
ENDBRANCH   1  11
TORSDOF 9
ENDMDL
MODEL 9
REMARK VINA RESULT:      -5.2      2.353      3.324
REMARK  Name = *****
REMARK                            x       y       z     vdW  Elec       q    Type
REMARK                         _______ _______ _______ _____ _____    ______ ____
ROOT
ATOM      1  C   LIG    1       29.484 -19.222   7.740  0.00  0.00    +0.177 C 
ENDROOT
BRANCH   1   2
ATOM      2  O   LIG    1       29.338 -18.809   9.108  0.00  0.00    -0.387 OA
ATOM      3  H   LIG    1       30.247 -18.678   9.446  0.00  0.00    +0.210 HD
ENDBRANCH   1   2
BRANCH   1   4
ATOM      4  C   LIG    1       28.704 -20.543   7.513  0.00  0.00    +0.186 C 
BRANCH   4   5
ATOM      5  C   LIG    1       27.199 -20.291   7.447  0.00  0.00    +0.259 C 
ATOM      6  F   LIG    1       26.784 -20.361   6.147  0.00  0.00    -0.235 F 
BRANCH   5   8
ATOM      7  O   LIG    1       25.891 -21.047   9.350  0.00  0.00    -0.298 OA
ATOM      8  C   LIG    1       26.476 -21.308   8.309  0.00  0.00    +0.262 C 
ENDBRANCH   5   8
ENDBRANCH   4   5
BRANCH   4   9
ATOM      9  O   LIG    1       28.971 -21.480   8.571  0.00  0.00    -0.386 OA
ATOM     10  H   LIG    1       28.689 -21.051   9.408  0.00  0.00    +0.210 HD
ENDBRANCH   4   9
ENDBRANCH   1   4
BRANCH   1  11
ATOM     11  C   LIG    1       30.986 -19.348   7.402  0.00  0.00    +0.171 C 
BRANCH  11  12
ATOM     12  O   LIG    1       31.411 -20.715   7.565  0.00  0.00    -0.387 OA
ATOM     13  H   LIG    1       30.591 -21.210   7.777  0.00  0.00    +0.210 HD
ENDBRANCH  11  12
BRANCH  11  14
ATOM     14  C   LIG    1       31.852 -18.432   8.285  0.00  0.00    +0.190 C 
BRANCH  14  15
ATOM     15  O   LIG    1       32.191 -19.131   9.487  0.00  0.00    -0.392 OA
ATOM     16  H   LIG    1       32.003 -18.520  10.225  0.00  0.00    +0.209 HD
ENDBRANCH  14  15
ENDBRANCH  11  14
ENDBRANCH   1  11
TORSDOF 9
ENDMDL
