MODEL 1
REMARK VINA RESULT:      -3.1      0.000      0.000
REMARK  Name = *****
REMARK                            x       y       z     vdW  Elec       q    Type
REMARK                         _______ _______ _______ _____ _____    ______ ____
ROOT
ATOM      1  C   LIG    1       23.842 -17.750   3.855  0.00  0.00    -0.024 A 
ATOM      2  C   LIG    1       22.678 -17.414   4.565  0.00  0.00    +0.044 A 
ATOM      3 CL   LIG    1       21.598 -18.614   5.182  0.00  0.00    -0.083 Cl
ATOM      4  C   LIG    1       22.349 -16.078   4.793  0.00  0.00    +0.020 A 
ATOM      5  C   LIG    1       23.184 -15.055   4.336  0.00  0.00    +0.008 A 
ATOM      6  C   LIG    1       24.361 -15.342   3.630  0.00  0.00    -0.016 A 
ATOM      7  C   LIG    1       24.645 -16.695   3.373  0.00  0.00    +0.011 A 
ENDROOT
BRANCH   6   8
ATOM      8  C   LIG    1       25.242 -14.260   3.007  0.00  0.00    +0.180 C 
ATOM      9  C   LIG    1       25.324 -12.886   3.712  0.00  0.00    +0.179 C 
ATOM     10  C   LIG    1       26.406 -12.866   4.795  0.00  0.00    +0.177 C 
ATOM     11  C   LIG    1       27.753 -13.264   4.191  0.00  0.00    +0.176 C 
ATOM     12  C   LIG    1       27.683 -14.577   3.391  0.00  0.00    +0.175 C 
ATOM     13  O   LIG    1       26.524 -14.736   2.551  0.00  0.00    -0.361 OA
BRANCH   9  14
ATOM     14  O   LIG    1       25.637 -11.865   2.737  0.00  0.00    -0.386 OA
ATOM     15  H   LIG    1       25.139 -12.082   1.926  0.00  0.00    +0.210 HD
ENDBRANCH   9  14
BRANCH  10  16
ATOM     16  O   LIG    1       26.057 -13.710   5.888  0.00  0.00    -0.387 OA
ATOM     17  H   LIG    1       26.081 -13.165   6.697  0.00  0.00    +0.210 HD
ENDBRANCH  10  16
BRANCH  11  18
ATOM     18  O   LIG    1       28.227 -12.207   3.341  0.00  0.00    -0.387 OA
ATOM     19  H   LIG    1       29.120 -12.471   3.030  0.00  0.00    +0.210 HD
ENDBRANCH  11  18
BRANCH  12  20
ATOM     20  C   LIG    1       27.902 -15.815   4.274  0.00  0.00    +0.190 C 
BRANCH  20  21
ATOM     21  O   LIG    1       27.658 -17.010   3.527  0.00  0.00    -0.392 OA
ATOM     22  H   LIG    1       28.484 -17.211   3.046  0.00  0.00    +0.209 HD
ENDBRANCH  20  21
ENDBRANCH  12  20
ENDBRANCH   6   8
BRANCH   1  23
ATOM     23  C   LIG    1       24.226 -19.204   3.640  0.00  0.00    +0.071 C 
BRANCH  23  27
ATOM     24  C   LIG    1       27.252 -20.923   6.229  0.00  0.00    +0.120 A 
ATOM     25  C   LIG    1       25.895 -21.167   6.476  0.00  0.00    +0.046 A 
ATOM     26  C   LIG    1       24.911 -20.599   5.656  0.00  0.00    +0.007 A 
ATOM     27  C   LIG    1       25.267 -19.780   4.581  0.00  0.00    -0.043 A 
ATOM     28  C   LIG    1       26.630 -19.529   4.350  0.00  0.00    +0.007 A 
ATOM     29  C   LIG    1       27.607 -20.074   5.189  0.00  0.00    +0.046 A 
BRANCH  24  30
ATOM     30  O   LIG    1       28.131 -21.571   7.061  0.00  0.00    -0.492 OA
BRANCH  30  32
ATOM     31  C   LIG    1       29.433 -19.546   6.979  0.00  0.00    +0.048 C 
ATOM     32  C   LIG    1       29.470 -21.064   7.056  0.00  0.00    +0.226 C 
ENDBRANCH  30  32
ENDBRANCH  24  30
ENDBRANCH  23  27
ENDBRANCH   1  23
TORSDOF 10
ENDMDL
MODEL 2
REMARK VINA RESULT:      -2.3      1.114      2.509
REMARK  Name = *****
REMARK                            x       y       z     vdW  Elec       q    Type
REMARK                         _______ _______ _______ _____ _____    ______ ____
ROOT
ATOM      1  C   LIG    1       23.748 -17.445   3.932  0.00  0.00    -0.024 A 
ATOM      2  C   LIG    1       22.404 -17.127   4.187  0.00  0.00    +0.044 A 
ATOM      3 CL   LIG    1       21.129 -18.272   3.961  0.00  0.00    -0.083 Cl
ATOM      4  C   LIG    1       22.051 -15.854   4.635  0.00  0.00    +0.020 A 
ATOM      5  C   LIG    1       23.032 -14.883   4.854  0.00  0.00    +0.008 A 
ATOM      6  C   LIG    1       24.387 -15.157   4.620  0.00  0.00    -0.016 A 
ATOM      7  C   LIG    1       24.711 -16.433   4.125  0.00  0.00    +0.011 A 
ENDROOT
BRANCH   6   8
ATOM      8  C   LIG    1       25.481 -14.095   4.729  0.00  0.00    +0.180 C 
ATOM      9  C   LIG    1       26.916 -14.475   4.296  0.00  0.00    +0.179 C 
ATOM     10  C   LIG    1       27.134 -14.262   2.796  0.00  0.00    +0.177 C 
ATOM     11  C   LIG    1       26.803 -12.817   2.423  0.00  0.00    +0.176 C 
ATOM     12  C   LIG    1       25.421 -12.371   2.933  0.00  0.00    +0.175 C 
ATOM     13  O   LIG    1       25.081 -12.790   4.268  0.00  0.00    -0.361 OA
BRANCH   9  14
ATOM     14  O   LIG    1       27.867 -13.655   5.015  0.00  0.00    -0.386 OA
ATOM     15  H   LIG    1       28.152 -14.167   5.796  0.00  0.00    +0.210 HD
ENDBRANCH   9  14
BRANCH  10  16
ATOM     16  O   LIG    1       26.367 -15.185   2.028  0.00  0.00    -0.387 OA
ATOM     17  H   LIG    1       26.648 -15.094   1.098  0.00  0.00    +0.210 HD
ENDBRANCH  10  16
BRANCH  11  18
ATOM     18  O   LIG    1       27.814 -11.943   2.952  0.00  0.00    -0.387 OA
ATOM     19  H   LIG    1       28.171 -11.429   2.195  0.00  0.00    +0.210 HD
ENDBRANCH  11  18
BRANCH  12  20
ATOM     20  C   LIG    1       24.294 -12.707   1.943  0.00  0.00    +0.190 C 
BRANCH  20  21
ATOM     21  O   LIG    1       23.341 -11.643   1.893  0.00  0.00    -0.392 OA
ATOM     22  H   LIG    1       22.476 -12.053   1.697  0.00  0.00    +0.209 HD
ENDBRANCH  20  21
ENDBRANCH  12  20
ENDBRANCH   6   8
BRANCH   1  23
ATOM     23  C   LIG    1       24.143 -18.843   3.485  0.00  0.00    +0.071 C 
BRANCH  23  27
ATOM     24  C   LIG    1       26.737 -20.979   6.227  0.00  0.00    +0.120 A 
ATOM     25  C   LIG    1       27.259 -20.431   5.048  0.00  0.00    +0.046 A 
ATOM     26  C   LIG    1       26.424 -19.756   4.148  0.00  0.00    +0.007 A 
ATOM     27  C   LIG    1       25.058 -19.621   4.410  0.00  0.00    -0.043 A 
ATOM     28  C   LIG    1       24.540 -20.187   5.588  0.00  0.00    +0.007 A 
ATOM     29  C   LIG    1       25.373 -20.885   6.469  0.00  0.00    +0.046 A 
BRANCH  24  30
ATOM     30  O   LIG    1       27.653 -21.570   7.061  0.00  0.00    -0.492 OA
BRANCH  30  32
ATOM     31  C   LIG    1       29.415 -19.928   7.059  0.00  0.00    +0.048 C 
ATOM     32  C   LIG    1       29.026 -21.358   6.715  0.00  0.00    +0.226 C 
ENDBRANCH  30  32
ENDBRANCH  24  30
ENDBRANCH  23  27
ENDBRANCH   1  23
TORSDOF 10
ENDMDL
MODEL 3
REMARK VINA RESULT:      -1.5      3.135      7.456
REMARK  Name = *****
REMARK                            x       y       z     vdW  Elec       q    Type
REMARK                         _______ _______ _______ _____ _____    ______ ____
ROOT
ATOM      1  C   LIG    1       26.892 -18.134   4.076  0.00  0.00    -0.024 A 
ATOM      2  C   LIG    1       28.064 -18.322   4.827  0.00  0.00    +0.044 A 
ATOM      3 CL   LIG    1       29.475 -17.352   4.588  0.00  0.00    -0.083 Cl
ATOM      4  C   LIG    1       28.128 -19.316   5.802  0.00  0.00    +0.020 A 
ATOM      5  C   LIG    1       27.019 -20.127   6.060  0.00  0.00    +0.008 A 
ATOM      6  C   LIG    1       25.825 -19.972   5.341  0.00  0.00    -0.016 A 
ATOM      7  C   LIG    1       25.803 -18.993   4.332  0.00  0.00    +0.011 A 
ENDROOT
BRANCH   6   8
ATOM      8  C   LIG    1       24.630 -20.910   5.502  0.00  0.00    +0.180 C 
ATOM      9  C   LIG    1       23.427 -20.426   6.345  0.00  0.00    +0.179 C 
ATOM     10  C   LIG    1       22.431 -19.621   5.507  0.00  0.00    +0.177 C 
ATOM     11  C   LIG    1       21.973 -20.449   4.307  0.00  0.00    +0.176 C 
ATOM     12  C   LIG    1       23.148 -21.036   3.504  0.00  0.00    +0.175 C 
ATOM     13  O   LIG    1       24.233 -21.570   4.284  0.00  0.00    -0.361 OA
BRANCH   9  14
ATOM     14  O   LIG    1       22.736 -21.572   6.897  0.00  0.00    -0.386 OA
ATOM     15  H   LIG    1       21.800 -21.493   6.634  0.00  0.00    +0.210 HD
ENDBRANCH   9  14
BRANCH  10  16
ATOM     16  O   LIG    1       22.991 -18.377   5.097  0.00  0.00    -0.387 OA
ATOM     17  H   LIG    1       22.249 -17.776   4.893  0.00  0.00    +0.210 HD
ENDBRANCH  10  16
BRANCH  11  18
ATOM     18  O   LIG    1       21.120 -21.514   4.758  0.00  0.00    -0.387 OA
ATOM     19  H   LIG    1       21.142 -22.209   4.065  0.00  0.00    +0.210 HD
ENDBRANCH  11  18
BRANCH  12  20
ATOM     20  C   LIG    1       23.663 -20.068   2.427  0.00  0.00    +0.190 C 
BRANCH  20  21
ATOM     21  O   LIG    1       24.974 -20.450   2.000  0.00  0.00    -0.392 OA
ATOM     22  H   LIG    1       25.594 -19.810   2.399  0.00  0.00    +0.209 HD
ENDBRANCH  20  21
ENDBRANCH  12  20
ENDBRANCH   6   8
BRANCH   1  23
ATOM     23  C   LIG    1       26.804 -17.024   3.041  0.00  0.00    +0.071 C 
BRANCH  23  27
ATOM     24  C   LIG    1       25.396 -13.202   4.532  0.00  0.00    +0.120 A 
ATOM     25  C   LIG    1       24.489 -14.246   4.309  0.00  0.00    +0.046 A 
ATOM     26  C   LIG    1       24.934 -15.478   3.810  0.00  0.00    +0.007 A 
ATOM     27  C   LIG    1       26.286 -15.683   3.524  0.00  0.00    -0.043 A 
ATOM     28  C   LIG    1       27.186 -14.625   3.736  0.00  0.00    +0.007 A 
ATOM     29  C   LIG    1       26.733 -13.388   4.207  0.00  0.00    +0.046 A 
BRANCH  24  30
ATOM     30  O   LIG    1       24.861 -12.060   5.073  0.00  0.00    -0.492 OA
BRANCH  30  32
ATOM     31  C   LIG    1       23.888 -11.720   2.895  0.00  0.00    +0.048 C 
ATOM     32  C   LIG    1       23.712 -11.539   4.395  0.00  0.00    +0.226 C 
ENDBRANCH  30  32
ENDBRANCH  24  30
ENDBRANCH  23  27
ENDBRANCH   1  23
TORSDOF 10
ENDMDL
