MODEL 1
REMARK VINA RESULT:      -9.7      0.000      0.000
REMARK  Name = *****
REMARK                            x       y       z     vdW  Elec       q    Type
REMARK                         _______ _______ _______ _____ _____    ______ ____
ROOT
ATOM      1  N   LIG    1       27.214 -21.041   6.623  0.00  0.00    -0.149 NA
ATOM      2  N   LIG    1       26.653 -21.446   7.662  0.00  0.00    -0.149 NA
ENDROOT
BRANCH   1   7
ATOM      3  C   LIG    1       30.549 -20.473   8.126  0.00  0.00    +0.102 A 
ATOM      4  C   LIG    1       30.982 -19.338   7.431  0.00  0.00    +0.131 A 
ATOM      5  C   LIG    1       30.177 -18.747   6.458  0.00  0.00    +0.048 A 
ATOM      6  C   LIG    1       28.927 -19.297   6.168  0.00  0.00    +0.033 A 
ATOM      7  C   LIG    1       28.466 -20.437   6.842  0.00  0.00    +0.087 A 
ATOM      8  C   LIG    1       29.292 -21.015   7.816  0.00  0.00    +0.048 A 
BRANCH   3  10
ATOM      9  O   LIG    1       32.527 -20.951   9.363  0.00  0.00    -0.245 OA
ATOM     10  C   LIG    1       31.338 -21.157   9.193  0.00  0.00    +0.340 C 
BRANCH  10  11
ATOM     11  O   LIG    1       30.640 -22.027   9.955  0.00  0.00    -0.477 OA
ATOM     12  H   LIG    1       31.135 -22.858  10.126  0.00  0.00    +0.295 HD
ENDBRANCH  10  11
ENDBRANCH   3  10
BRANCH   4  13
ATOM     13  O   LIG    1       32.212 -18.793   7.697  0.00  0.00    -0.506 OA
ATOM     14  H   LIG    1       32.127 -17.820   7.692  0.00  0.00    +0.292 HD
ENDBRANCH   4  13
ENDBRANCH   1   7
BRANCH   2  15
ATOM     15  C   LIG    1       25.414 -22.055   7.377  0.00  0.00    +0.087 A 
ATOM     16  C   LIG    1       25.412 -23.318   6.773  0.00  0.00    +0.048 A 
ATOM     17  C   LIG    1       24.206 -23.971   6.464  0.00  0.00    +0.102 A 
ATOM     18  C   LIG    1       22.994 -23.342   6.777  0.00  0.00    +0.131 A 
ATOM     19  C   LIG    1       22.977 -22.092   7.392  0.00  0.00    +0.048 A 
ATOM     20  C   LIG    1       24.182 -21.463   7.695  0.00  0.00    +0.033 A 
BRANCH  17  21
ATOM     21  C   LIG    1       24.303 -25.309   5.808  0.00  0.00    +0.340 C 
ATOM     22  O   LIG    1       23.916 -26.331   6.343  0.00  0.00    -0.245 OA
BRANCH  21  23
ATOM     23  O   LIG    1       24.852 -25.303   4.573  0.00  0.00    -0.477 OA
ATOM     24  H   LIG    1       24.367 -24.718   3.951  0.00  0.00    +0.295 HD
ENDBRANCH  21  23
ENDBRANCH  17  21
BRANCH  18  25
ATOM     25  O   LIG    1       21.801 -23.950   6.482  0.00  0.00    -0.506 OA
ATOM     26  H   LIG    1       21.165 -23.752   7.196  0.00  0.00    +0.292 HD
ENDBRANCH  18  25
ENDBRANCH   2  15
TORSDOF 8
ENDMDL
MODEL 2
REMARK VINA RESULT:      -9.7      0.157      7.760
REMARK  Name = *****
REMARK                            x       y       z     vdW  Elec       q    Type
REMARK                         _______ _______ _______ _____ _____    ______ ____
ROOT
ATOM      1  N   LIG    1       26.654 -21.347   7.488  0.00  0.00    -0.149 NA
ATOM      2  N   LIG    1       27.185 -20.896   6.453  0.00  0.00    -0.149 NA
ENDROOT
BRANCH   1   7
ATOM      3  C   LIG    1       24.187 -23.890   6.416  0.00  0.00    +0.102 A 
ATOM      4  C   LIG    1       22.979 -23.270   6.755  0.00  0.00    +0.131 A 
ATOM      5  C   LIG    1       22.965 -22.005   7.340  0.00  0.00    +0.048 A 
ATOM      6  C   LIG    1       24.170 -21.351   7.599  0.00  0.00    +0.033 A 
ATOM      7  C   LIG    1       25.398 -21.946   7.278  0.00  0.00    +0.087 A 
ATOM      8  C   LIG    1       25.389 -23.219   6.690  0.00  0.00    +0.048 A 
BRANCH   3  10
ATOM      9  O   LIG    1       23.884 -26.249   6.304  0.00  0.00    -0.245 OA
ATOM     10  C   LIG    1       24.292 -25.233   5.771  0.00  0.00    +0.340 C 
BRANCH  10  11
ATOM     11  O   LIG    1       24.879 -25.240   4.555  0.00  0.00    -0.477 OA
ATOM     12  H   LIG    1       25.328 -24.391   4.349  0.00  0.00    +0.295 HD
ENDBRANCH  10  11
ENDBRANCH   3  10
BRANCH   4  13
ATOM     13  O   LIG    1       21.787 -23.906   6.516  0.00  0.00    -0.506 OA
ATOM     14  H   LIG    1       21.167 -23.683   7.238  0.00  0.00    +0.292 HD
ENDBRANCH   4  13
ENDBRANCH   1   7
BRANCH   2  15
ATOM     15  C   LIG    1       28.445 -20.324   6.724  0.00  0.00    +0.087 A 
ATOM     16  C   LIG    1       29.256 -20.922   7.696  0.00  0.00    +0.048 A 
ATOM     17  C   LIG    1       30.521 -20.394   8.010  0.00  0.00    +0.102 A 
ATOM     18  C   LIG    1       30.969 -19.255   7.327  0.00  0.00    +0.131 A 
ATOM     19  C   LIG    1       30.181 -18.656   6.346  0.00  0.00    +0.048 A 
ATOM     20  C   LIG    1       28.934 -19.197   6.045  0.00  0.00    +0.033 A 
BRANCH  17  21
ATOM     21  C   LIG    1       31.308 -21.091   9.070  0.00  0.00    +0.340 C 
ATOM     22  O   LIG    1       32.427 -20.737   9.395  0.00  0.00    -0.245 OA
BRANCH  21  23
ATOM     23  O   LIG    1       30.688 -22.145   9.644  0.00  0.00    -0.477 OA
ATOM     24  H   LIG    1       29.797 -21.913   9.988  0.00  0.00    +0.295 HD
ENDBRANCH  21  23
ENDBRANCH  17  21
BRANCH  18  25
ATOM     25  O   LIG    1       32.194 -18.712   7.615  0.00  0.00    -0.506 OA
ATOM     26  H   LIG    1       32.844 -19.436   7.702  0.00  0.00    +0.292 HD
ENDBRANCH  18  25
ENDBRANCH   2  15
TORSDOF 8
ENDMDL
MODEL 3
REMARK VINA RESULT:      -9.4      2.324      7.857
REMARK  Name = *****
REMARK                            x       y       z     vdW  Elec       q    Type
REMARK                         _______ _______ _______ _____ _____    ______ ____
ROOT
ATOM      1  N   LIG    1       26.558 -20.801   7.430  0.00  0.00    -0.149 NA
ATOM      2  N   LIG    1       27.379 -20.356   6.602  0.00  0.00    -0.149 NA
ENDROOT
BRANCH   1   7
ATOM      3  C   LIG    1       23.520 -20.446   5.346  0.00  0.00    +0.102 A 
ATOM      4  C   LIG    1       22.790 -21.582   5.715  0.00  0.00    +0.131 A 
ATOM      5  C   LIG    1       23.293 -22.477   6.658  0.00  0.00    +0.048 A 
ATOM      6  C   LIG    1       24.543 -22.244   7.234  0.00  0.00    +0.033 A 
ATOM      7  C   LIG    1       25.301 -21.119   6.882  0.00  0.00    +0.087 A 
ATOM      8  C   LIG    1       24.777 -20.232   5.933  0.00  0.00    +0.048 A 
BRANCH   3  10
ATOM      9  O   LIG    1       21.949 -18.907   4.431  0.00  0.00    -0.245 OA
ATOM     10  C   LIG    1       23.049 -19.427   4.361  0.00  0.00    +0.340 C 
BRANCH  10  11
ATOM     11  O   LIG    1       23.928 -19.128   3.380  0.00  0.00    -0.477 OA
ATOM     12  H   LIG    1       23.910 -18.176   3.137  0.00  0.00    +0.295 HD
ENDBRANCH  10  11
ENDBRANCH   3  10
BRANCH   4  13
ATOM     13  O   LIG    1       21.567 -21.830   5.148  0.00  0.00    -0.506 OA
ATOM     14  H   LIG    1       21.686 -22.472   4.422  0.00  0.00    +0.292 HD
ENDBRANCH   4  13
ENDBRANCH   1   7
BRANCH   2  15
ATOM     15  C   LIG    1       28.622 -20.073   7.206  0.00  0.00    +0.087 A 
ATOM     16  C   LIG    1       29.283 -21.100   7.889  0.00  0.00    +0.048 A 
ATOM     17  C   LIG    1       30.524 -20.874   8.512  0.00  0.00    +0.102 A 
ATOM     18  C   LIG    1       31.099 -19.599   8.435  0.00  0.00    +0.131 A 
ATOM     19  C   LIG    1       30.461 -18.569   7.747  0.00  0.00    +0.048 A 
ATOM     20  C   LIG    1       29.236 -18.813   7.131  0.00  0.00    +0.033 A 
BRANCH  17  21
ATOM     21  C   LIG    1       31.147 -22.026   9.228  0.00  0.00    +0.340 C 
ATOM     22  O   LIG    1       30.721 -22.447  10.288  0.00  0.00    -0.245 OA
BRANCH  21  23
ATOM     23  O   LIG    1       32.220 -22.571   8.612  0.00  0.00    -0.477 OA
ATOM     24  H   LIG    1       33.056 -22.110   8.840  0.00  0.00    +0.295 HD
ENDBRANCH  21  23
ENDBRANCH  17  21
BRANCH  18  25
ATOM     25  O   LIG    1       32.304 -19.345   9.038  0.00  0.00    -0.506 OA
ATOM     26  H   LIG    1       32.921 -20.070   8.819  0.00  0.00    +0.292 HD
ENDBRANCH  18  25
ENDBRANCH   2  15
TORSDOF 8
ENDMDL
MODEL 4
REMARK VINA RESULT:      -9.3      1.642      1.890
REMARK  Name = *****
REMARK                            x       y       z     vdW  Elec       q    Type
REMARK                         _______ _______ _______ _____ _____    ______ ____
ROOT
ATOM      1  N   LIG    1       27.322 -20.410   7.382  0.00  0.00    -0.149 NA
ATOM      2  N   LIG    1       27.341 -21.653   7.278  0.00  0.00    -0.149 NA
ENDROOT
BRANCH   1   7
ATOM      3  C   LIG    1       30.125 -18.536   8.910  0.00  0.00    +0.102 A 
ATOM      4  C   LIG    1       31.075 -18.563   7.883  0.00  0.00    +0.131 A 
ATOM      5  C   LIG    1       30.801 -19.200   6.674  0.00  0.00    +0.048 A 
ATOM      6  C   LIG    1       29.567 -19.825   6.487  0.00  0.00    +0.033 A 
ATOM      7  C   LIG    1       28.595 -19.821   7.497  0.00  0.00    +0.087 A 
ATOM      8  C   LIG    1       28.892 -19.175   8.705  0.00  0.00    +0.048 A 
BRANCH   3  10
ATOM      9  O   LIG    1       30.712 -18.460  11.217  0.00  0.00    -0.245 OA
ATOM     10  C   LIG    1       30.328 -17.862  10.227  0.00  0.00    +0.340 C 
BRANCH  10  11
ATOM     11  O   LIG    1       30.049 -16.541  10.245  0.00  0.00    -0.477 OA
ATOM     12  H   LIG    1       29.776 -16.227  11.135  0.00  0.00    +0.295 HD
ENDBRANCH  10  11
ENDBRANCH   3  10
BRANCH   4  13
ATOM     13  O   LIG    1       32.296 -17.963   8.057  0.00  0.00    -0.506 OA
ATOM     14  H   LIG    1       32.851 -18.158   7.277  0.00  0.00    +0.292 HD
ENDBRANCH   4  13
ENDBRANCH   1   7
BRANCH   2  15
ATOM     15  C   LIG    1       26.041 -22.183   7.149  0.00  0.00    +0.087 A 
ATOM     16  C   LIG    1       25.900 -23.533   6.807  0.00  0.00    +0.048 A 
ATOM     17  C   LIG    1       24.627 -24.114   6.662  0.00  0.00    +0.102 A 
ATOM     18  C   LIG    1       23.491 -23.321   6.873  0.00  0.00    +0.131 A 
ATOM     19  C   LIG    1       23.614 -21.980   7.228  0.00  0.00    +0.048 A 
ATOM     20  C   LIG    1       24.883 -21.423   7.372  0.00  0.00    +0.033 A 
BRANCH  17  21
ATOM     21  C   LIG    1       24.576 -25.557   6.282  0.00  0.00    +0.340 C 
ATOM     22  O   LIG    1       25.352 -26.381   6.730  0.00  0.00    -0.245 OA
BRANCH  21  23
ATOM     23  O   LIG    1       23.602 -25.884   5.405  0.00  0.00    -0.477 OA
ATOM     24  H   LIG    1       22.740 -25.470   5.630  0.00  0.00    +0.295 HD
ENDBRANCH  21  23
ENDBRANCH  17  21
BRANCH  18  25
ATOM     25  O   LIG    1       22.237 -23.857   6.732  0.00  0.00    -0.506 OA
ATOM     26  H   LIG    1       22.262 -24.528   6.023  0.00  0.00    +0.292 HD
ENDBRANCH  18  25
ENDBRANCH   2  15
TORSDOF 8
ENDMDL
MODEL 5
REMARK VINA RESULT:      -9.3      2.320      3.047
REMARK  Name = *****
REMARK                            x       y       z     vdW  Elec       q    Type
REMARK                         _______ _______ _______ _____ _____    ______ ____
ROOT
ATOM      1  N   LIG    1       27.342 -20.334   6.749  0.00  0.00    -0.149 NA
ATOM      2  N   LIG    1       26.511 -20.745   7.584  0.00  0.00    -0.149 NA
ENDROOT
BRANCH   1   7
ATOM      3  C   LIG    1       30.535 -20.865   8.545  0.00  0.00    +0.102 A 
ATOM      4  C   LIG    1       31.120 -19.597   8.461  0.00  0.00    +0.131 A 
ATOM      5  C   LIG    1       30.466 -18.551   7.811  0.00  0.00    +0.048 A 
ATOM      6  C   LIG    1       29.217 -18.773   7.230  0.00  0.00    +0.033 A 
ATOM      7  C   LIG    1       28.605 -20.033   7.291  0.00  0.00    +0.087 A 
ATOM      8  C   LIG    1       29.280 -21.070   7.949  0.00  0.00    +0.048 A 
BRANCH   3  10
ATOM      9  O   LIG    1       30.743 -22.460  10.302  0.00  0.00    -0.245 OA
ATOM     10  C   LIG    1       31.155 -22.034   9.237  0.00  0.00    +0.340 C 
BRANCH  10  11
ATOM     11  O   LIG    1       32.213 -22.582   8.600  0.00  0.00    -0.477 OA
ATOM     12  H   LIG    1       31.949 -23.303   7.987  0.00  0.00    +0.295 HD
ENDBRANCH  10  11
ENDBRANCH   3  10
BRANCH   4  13
ATOM     13  O   LIG    1       32.352 -19.367   9.018  0.00  0.00    -0.506 OA
ATOM     14  H   LIG    1       33.009 -19.301   8.298  0.00  0.00    +0.292 HD
ENDBRANCH   4  13
ENDBRANCH   1   7
BRANCH   2  15
ATOM     15  C   LIG    1       25.273 -21.045   6.981  0.00  0.00    +0.087 A 
ATOM     16  C   LIG    1       24.806 -20.206   5.961  0.00  0.00    +0.048 A 
ATOM     17  C   LIG    1       23.576 -20.455   5.326  0.00  0.00    +0.102 A 
ATOM     18  C   LIG    1       22.820 -21.566   5.722  0.00  0.00    +0.131 A 
ATOM     19  C   LIG    1       23.277 -22.419   6.724  0.00  0.00    +0.048 A 
ATOM     20  C   LIG    1       24.500 -22.160   7.338  0.00  0.00    +0.033 A 
BRANCH  17  21
ATOM     21  C   LIG    1       23.154 -19.498   4.260  0.00  0.00    +0.340 C 
ATOM     22  O   LIG    1       23.850 -19.245   3.293  0.00  0.00    -0.245 OA
BRANCH  21  23
ATOM     23  O   LIG    1       21.941 -18.933   4.444  0.00  0.00    -0.477 OA
ATOM     24  H   LIG    1       21.206 -19.569   4.300  0.00  0.00    +0.295 HD
ENDBRANCH  21  23
ENDBRANCH  17  21
BRANCH  18  25
ATOM     25  O   LIG    1       21.614 -21.831   5.126  0.00  0.00    -0.506 OA
ATOM     26  H   LIG    1       21.690 -22.667   4.627  0.00  0.00    +0.292 HD
ENDBRANCH  18  25
ENDBRANCH   2  15
TORSDOF 8
ENDMDL
MODEL 6
REMARK VINA RESULT:      -9.2      1.594      8.036
REMARK  Name = *****
REMARK                            x       y       z     vdW  Elec       q    Type
REMARK                         _______ _______ _______ _____ _____    ______ ____
ROOT
ATOM      1  N   LIG    1       27.155 -21.324   7.637  0.00  0.00    -0.149 NA
ATOM      2  N   LIG    1       27.355 -20.283   6.977  0.00  0.00    -0.149 NA
ENDROOT
BRANCH   1   7
ATOM      3  C   LIG    1       24.675 -23.919   6.735  0.00  0.00    +0.102 A 
ATOM      4  C   LIG    1       23.469 -23.228   6.906  0.00  0.00    +0.131 A 
ATOM      5  C   LIG    1       23.463 -21.897   7.320  0.00  0.00    +0.048 A 
ATOM      6  C   LIG    1       24.671 -21.247   7.575  0.00  0.00    +0.033 A 
ATOM      7  C   LIG    1       25.896 -21.912   7.419  0.00  0.00    +0.087 A 
ATOM      8  C   LIG    1       25.879 -23.249   7.003  0.00  0.00    +0.048 A 
BRANCH   3  10
ATOM      9  O   LIG    1       25.546 -26.135   6.780  0.00  0.00    -0.245 OA
ATOM     10  C   LIG    1       24.774 -25.337   6.278  0.00  0.00    +0.340 C 
BRANCH  10  11
ATOM     11  O   LIG    1       23.951 -25.671   5.260  0.00  0.00    -0.477 OA
ATOM     12  H   LIG    1       23.023 -25.803   5.556  0.00  0.00    +0.295 HD
ENDBRANCH  10  11
ENDBRANCH   3  10
BRANCH   4  13
ATOM     13  O   LIG    1       22.274 -23.857   6.670  0.00  0.00    -0.506 OA
ATOM     14  H   LIG    1       21.841 -24.032   7.528  0.00  0.00    +0.292 HD
ENDBRANCH   4  13
ENDBRANCH   1   7
BRANCH   2  15
ATOM     15  C   LIG    1       28.637 -19.751   7.224  0.00  0.00    +0.087 A 
ATOM     16  C   LIG    1       28.871 -19.109   8.447  0.00  0.00    +0.048 A 
ATOM     17  C   LIG    1       30.129 -18.557   8.746  0.00  0.00    +0.102 A 
ATOM     18  C   LIG    1       31.159 -18.663   7.802  0.00  0.00    +0.131 A 
ATOM     19  C   LIG    1       30.947 -19.311   6.587  0.00  0.00    +0.048 A 
ATOM     20  C   LIG    1       29.696 -19.856   6.310  0.00  0.00    +0.033 A 
BRANCH  17  21
ATOM     21  C   LIG    1       30.280 -17.881  10.069  0.00  0.00    +0.340 C 
ATOM     22  O   LIG    1       30.434 -18.499  11.107  0.00  0.00    -0.245 OA
BRANCH  21  23
ATOM     23  O   LIG    1       30.235 -16.532  10.031  0.00  0.00    -0.477 OA
ATOM     24  H   LIG    1       31.129 -16.129   9.975  0.00  0.00    +0.295 HD
ENDBRANCH  21  23
ENDBRANCH  17  21
BRANCH  18  25
ATOM     25  O   LIG    1       32.394 -18.129   8.061  0.00  0.00    -0.506 OA
ATOM     26  H   LIG    1       32.326 -17.551   8.845  0.00  0.00    +0.292 HD
ENDBRANCH  18  25
ENDBRANCH   2  15
TORSDOF 8
ENDMDL
MODEL 7
REMARK VINA RESULT:      -9.2      1.351      2.319
REMARK  Name = *****
REMARK                            x       y       z     vdW  Elec       q    Type
REMARK                         _______ _______ _______ _____ _____    ______ ____
ROOT
ATOM      1  N   LIG    1       27.139 -20.772   6.563  0.00  0.00    -0.149 NA
ATOM      2  N   LIG    1       26.946 -21.868   7.129  0.00  0.00    -0.149 NA
ENDROOT
BRANCH   1   7
ATOM      3  C   LIG    1       30.514 -20.359   8.027  0.00  0.00    +0.102 A 
ATOM      4  C   LIG    1       31.024 -19.302   7.264  0.00  0.00    +0.131 A 
ATOM      5  C   LIG    1       30.259 -18.713   6.258  0.00  0.00    +0.048 A 
ATOM      6  C   LIG    1       28.971 -19.188   6.003  0.00  0.00    +0.033 A 
ATOM      7  C   LIG    1       28.432 -20.249   6.744  0.00  0.00    +0.087 A 
ATOM      8  C   LIG    1       29.219 -20.826   7.750  0.00  0.00    +0.048 A 
BRANCH   3  10
ATOM      9  O   LIG    1       32.437 -20.826   9.350  0.00  0.00    -0.245 OA
ATOM     10  C   LIG    1       31.256 -21.034   9.132  0.00  0.00    +0.340 C 
BRANCH  10  11
ATOM     11  O   LIG    1       30.526 -21.897   9.871  0.00  0.00    -0.477 OA
ATOM     12  H   LIG    1       31.012 -22.219  10.662  0.00  0.00    +0.295 HD
ENDBRANCH  10  11
ENDBRANCH   3  10
BRANCH   4  13
ATOM     13  O   LIG    1       32.291 -18.833   7.496  0.00  0.00    -0.506 OA
ATOM     14  H   LIG    1       32.342 -17.909   7.184  0.00  0.00    +0.292 HD
ENDBRANCH   4  13
ENDBRANCH   1   7
BRANCH   2  15
ATOM     15  C   LIG    1       25.641 -22.349   6.898  0.00  0.00    +0.087 A 
ATOM     16  C   LIG    1       24.696 -21.477   6.344  0.00  0.00    +0.048 A 
ATOM     17  C   LIG    1       23.378 -21.901   6.094  0.00  0.00    +0.102 A 
ATOM     18  C   LIG    1       23.021 -23.221   6.402  0.00  0.00    +0.131 A 
ATOM     19  C   LIG    1       23.953 -24.105   6.940  0.00  0.00    +0.048 A 
ATOM     20  C   LIG    1       25.254 -23.668   7.175  0.00  0.00    +0.033 A 
BRANCH  17  21
ATOM     21  C   LIG    1       22.437 -20.898   5.515  0.00  0.00    +0.340 C 
ATOM     22  O   LIG    1       22.542 -19.703   5.725  0.00  0.00    -0.245 OA
BRANCH  21  23
ATOM     23  O   LIG    1       21.459 -21.412   4.737  0.00  0.00    -0.477 OA
ATOM     24  H   LIG    1       21.130 -20.765   4.075  0.00  0.00    +0.295 HD
ENDBRANCH  21  23
ENDBRANCH  17  21
BRANCH  18  25
ATOM     25  O   LIG    1       21.742 -23.662   6.177  0.00  0.00    -0.506 OA
ATOM     26  H   LIG    1       21.282 -23.737   7.035  0.00  0.00    +0.292 HD
ENDBRANCH  18  25
ENDBRANCH   2  15
TORSDOF 8
ENDMDL
MODEL 8
REMARK VINA RESULT:      -8.9      1.416      1.888
REMARK  Name = *****
REMARK                            x       y       z     vdW  Elec       q    Type
REMARK                         _______ _______ _______ _____ _____    ______ ____
ROOT
ATOM      1  N   LIG    1       27.501 -20.044   6.672  0.00  0.00    -0.149 NA
ATOM      2  N   LIG    1       26.818 -20.909   7.258  0.00  0.00    -0.149 NA
ENDROOT
BRANCH   1   7
ATOM      3  C   LIG    1       30.615 -20.773   8.535  0.00  0.00    +0.102 A 
ATOM      4  C   LIG    1       31.272 -19.539   8.481  0.00  0.00    +0.131 A 
ATOM      5  C   LIG    1       30.693 -18.451   7.829  0.00  0.00    +0.048 A 
ATOM      6  C   LIG    1       29.447 -18.596   7.216  0.00  0.00    +0.033 A 
ATOM      7  C   LIG    1       28.766 -19.821   7.247  0.00  0.00    +0.087 A 
ATOM      8  C   LIG    1       29.366 -20.901   7.907  0.00  0.00    +0.048 A 
BRANCH   3  10
ATOM      9  O   LIG    1       30.695 -22.396  10.276  0.00  0.00    -0.245 OA
ATOM     10  C   LIG    1       31.154 -21.983   9.225  0.00  0.00    +0.340 C 
BRANCH  10  11
ATOM     11  O   LIG    1       32.192 -22.584   8.605  0.00  0.00    -0.477 OA
ATOM     12  H   LIG    1       32.101 -23.562   8.582  0.00  0.00    +0.295 HD
ENDBRANCH  10  11
ENDBRANCH   3  10
BRANCH   4  13
ATOM     13  O   LIG    1       32.501 -19.385   9.068  0.00  0.00    -0.506 OA
ATOM     14  H   LIG    1       32.403 -18.798   9.843  0.00  0.00    +0.292 HD
ENDBRANCH   4  13
ENDBRANCH   1   7
BRANCH   2  15
ATOM     15  C   LIG    1       25.572 -21.101   6.627  0.00  0.00    +0.087 A 
ATOM     16  C   LIG    1       24.875 -22.290   6.871  0.00  0.00    +0.048 A 
ATOM     17  C   LIG    1       23.628 -22.536   6.267  0.00  0.00    +0.102 A 
ATOM     18  C   LIG    1       23.083 -21.565   5.416  0.00  0.00    +0.131 A 
ATOM     19  C   LIG    1       23.757 -20.369   5.175  0.00  0.00    +0.048 A 
ATOM     20  C   LIG    1       24.987 -20.142   5.786  0.00  0.00    +0.033 A 
BRANCH  17  21
ATOM     21  C   LIG    1       22.966 -23.838   6.575  0.00  0.00    +0.340 C 
ATOM     22  O   LIG    1       23.580 -24.888   6.631  0.00  0.00    -0.245 OA
BRANCH  21  23
ATOM     23  O   LIG    1       21.634 -23.767   6.789  0.00  0.00    -0.477 OA
ATOM     24  H   LIG    1       21.402 -23.120   7.491  0.00  0.00    +0.295 HD
ENDBRANCH  21  23
ENDBRANCH  17  21
BRANCH  18  25
ATOM     25  O   LIG    1       21.874 -21.778   4.807  0.00  0.00    -0.506 OA
ATOM     26  H   LIG    1       21.960 -22.538   4.200  0.00  0.00    +0.292 HD
ENDBRANCH  18  25
ENDBRANCH   2  15
TORSDOF 8
ENDMDL
MODEL 9
REMARK VINA RESULT:      -8.9      2.551      8.246
REMARK  Name = *****
REMARK                            x       y       z     vdW  Elec       q    Type
REMARK                         _______ _______ _______ _____ _____    ______ ____
ROOT
ATOM      1  N   LIG    1       26.548 -21.329   7.357  0.00  0.00    -0.149 NA
ATOM      2  N   LIG    1       27.200 -20.335   6.976  0.00  0.00    -0.149 NA
ENDROOT
BRANCH   1   7
ATOM      3  C   LIG    1       23.639 -20.452   5.242  0.00  0.00    +0.102 A 
ATOM      4  C   LIG    1       22.735 -21.469   5.571  0.00  0.00    +0.131 A 
ATOM      5  C   LIG    1       23.075 -22.455   6.495  0.00  0.00    +0.048 A 
ATOM      6  C   LIG    1       24.336 -22.434   7.095  0.00  0.00    +0.033 A 
ATOM      7  C   LIG    1       25.267 -21.433   6.784  0.00  0.00    +0.087 A 
ATOM      8  C   LIG    1       24.904 -20.452   5.851  0.00  0.00    +0.048 A 
BRANCH   3  10
ATOM      9  O   LIG    1       24.160 -18.978   3.446  0.00  0.00    -0.245 OA
ATOM     10  C   LIG    1       23.350 -19.349   4.278  0.00  0.00    +0.340 C 
BRANCH  10  11
ATOM     11  O   LIG    1       22.129 -18.786   4.399  0.00  0.00    -0.477 OA
ATOM     12  H   LIG    1       22.177 -17.821   4.580  0.00  0.00    +0.295 HD
ENDBRANCH  10  11
ENDBRANCH   3  10
BRANCH   4  13
ATOM     13  O   LIG    1       21.498 -21.509   4.981  0.00  0.00    -0.506 OA
ATOM     14  H   LIG    1       21.581 -21.183   4.063  0.00  0.00    +0.292 HD
ENDBRANCH   4  13
ENDBRANCH   1   7
BRANCH   2  15
ATOM     15  C   LIG    1       28.477 -20.295   7.570  0.00  0.00    +0.087 A 
ATOM     16  C   LIG    1       29.014 -19.049   7.919  0.00  0.00    +0.048 A 
ATOM     17  C   LIG    1       30.285 -18.948   8.512  0.00  0.00    +0.102 A 
ATOM     18  C   LIG    1       31.013 -20.120   8.759  0.00  0.00    +0.131 A 
ATOM     19  C   LIG    1       30.488 -21.368   8.432  0.00  0.00    +0.048 A 
ATOM     20  C   LIG    1       29.225 -21.448   7.851  0.00  0.00    +0.033 A 
BRANCH  17  21
ATOM     21  C   LIG    1       30.780 -17.577   8.836  0.00  0.00    +0.340 C 
ATOM     22  O   LIG    1       30.123 -16.779   9.478  0.00  0.00    -0.245 OA
BRANCH  21  23
ATOM     23  O   LIG    1       32.012 -17.287   8.365  0.00  0.00    -0.477 OA
ATOM     24  H   LIG    1       32.588 -16.879   9.049  0.00  0.00    +0.295 HD
ENDBRANCH  21  23
ENDBRANCH  17  21
BRANCH  18  25
ATOM     25  O   LIG    1       32.258 -20.054   9.329  0.00  0.00    -0.506 OA
ATOM     26  H   LIG    1       32.898 -20.489   8.733  0.00  0.00    +0.292 HD
ENDBRANCH  18  25
ENDBRANCH   2  15
TORSDOF 8
ENDMDL
