MODEL 1
REMARK VINA RESULT:      -6.3      0.000      0.000
REMARK  Name = *****
REMARK                            x       y       z     vdW  Elec       q    Type
REMARK                         _______ _______ _______ _____ _____    ______ ____
ROOT
ATOM      1  C   LIG    1       29.414 -18.936   6.053  0.00  0.00    +0.033 C 
ENDROOT
BRANCH   1   2
ATOM      2  C   LIG    1       30.760 -19.256   6.693  0.00  0.00    +0.193 C 
BRANCH   2   3
ATOM      3  O   LIG    1       31.117 -18.175   7.535  0.00  0.00    -0.239 OA
BRANCH   3   5
ATOM      4  C   LIG    1       32.286 -17.035   9.484  0.00  0.00    +0.228 C 
ATOM      5  S   LIG    1       31.301 -18.468   9.122  0.00  0.00    +0.079 S 
ATOM      6  O   LIG    1       30.005 -18.318   9.766  0.00  0.00    -0.147 OA
ATOM      7  O   LIG    1       32.108 -19.653   9.286  0.00  0.00    -0.147 OA
ENDBRANCH   3   5
ENDBRANCH   2   3
ENDBRANCH   1   2
BRANCH   1   8
ATOM      8  C   LIG    1       28.434 -20.121   6.074  0.00  0.00    +0.033 C 
BRANCH   8   9
ATOM      9  C   LIG    1       27.624 -20.221   7.366  0.00  0.00    +0.193 C 
BRANCH   9  10
ATOM     10  O   LIG    1       26.229 -20.326   7.102  0.00  0.00    -0.239 OA
BRANCH  10  11
ATOM     11  S   LIG    1       25.316 -21.240   8.109  0.00  0.00    +0.079 S 
ATOM     12  O   LIG    1       23.930 -21.060   7.771  0.00  0.00    -0.147 OA
ATOM     13  O   LIG    1       25.807 -21.080   9.470  0.00  0.00    -0.147 OA
ATOM     14  C   LIG    1       25.864 -22.822   7.553  0.00  0.00    +0.228 C 
ENDBRANCH  10  11
ENDBRANCH   9  10
ENDBRANCH   8   9
ENDBRANCH   1   8
TORSDOF 7
ENDMDL
MODEL 2
REMARK VINA RESULT:      -6.2      0.555      5.997
REMARK  Name = *****
REMARK                            x       y       z     vdW  Elec       q    Type
REMARK                         _______ _______ _______ _____ _____    ______ ____
ROOT
ATOM      1  C   LIG    1       28.369 -19.816   5.765  0.00  0.00    +0.033 C 
ENDROOT
BRANCH   1   2
ATOM      2  C   LIG    1       27.748 -20.333   7.058  0.00  0.00    +0.193 C 
BRANCH   2   3
ATOM      3  O   LIG    1       26.339 -20.275   6.926  0.00  0.00    -0.239 OA
BRANCH   3   5
ATOM      4  C   LIG    1       25.904 -22.618   7.813  0.00  0.00    +0.228 C 
ATOM      5  S   LIG    1       25.432 -20.931   8.104  0.00  0.00    +0.079 S 
ATOM      6  O   LIG    1       25.977 -20.508   9.385  0.00  0.00    -0.147 OA
ATOM      7  O   LIG    1       24.039 -20.761   7.767  0.00  0.00    -0.147 OA
ENDBRANCH   3   5
ENDBRANCH   2   3
ENDBRANCH   1   2
BRANCH   1   8
ATOM      8  C   LIG    1       29.395 -18.694   5.990  0.00  0.00    +0.033 C 
BRANCH   8   9
ATOM      9  C   LIG    1       30.452 -19.036   7.040  0.00  0.00    +0.193 C 
BRANCH   9  10
ATOM     10  O   LIG    1       30.211 -18.355   8.267  0.00  0.00    -0.239 OA
BRANCH  10  11
ATOM     11  S   LIG    1       31.289 -18.545   9.486  0.00  0.00    +0.079 S 
ATOM     12  O   LIG    1       32.143 -19.660   9.180  0.00  0.00    -0.147 OA
ATOM     13  O   LIG    1       30.590 -18.433  10.757  0.00  0.00    -0.147 OA
ATOM     14  C   LIG    1       32.172 -17.036   9.256  0.00  0.00    +0.228 C 
ENDBRANCH  10  11
ENDBRANCH   9  10
ENDBRANCH   8   9
ENDBRANCH   1   8
TORSDOF 7
ENDMDL
MODEL 3
REMARK VINA RESULT:      -6.2      0.977      1.200
REMARK  Name = *****
REMARK                            x       y       z     vdW  Elec       q    Type
REMARK                         _______ _______ _______ _____ _____    ______ ____
ROOT
ATOM      1  C   LIG    1       29.569 -18.673   5.937  0.00  0.00    +0.033 C 
ENDROOT
BRANCH   1   2
ATOM      2  C   LIG    1       30.788 -19.204   6.683  0.00  0.00    +0.193 C 
BRANCH   2   3
ATOM      3  O   LIG    1       31.239 -18.194   7.567  0.00  0.00    -0.239 OA
BRANCH   3   5
ATOM      4  C   LIG    1       32.244 -17.109   9.635  0.00  0.00    +0.228 C 
ATOM      5  S   LIG    1       31.308 -18.539   9.153  0.00  0.00    +0.079 S 
ATOM      6  O   LIG    1       29.965 -18.423   9.702  0.00  0.00    -0.147 OA
ATOM      7  O   LIG    1       32.114 -19.720   9.338  0.00  0.00    -0.147 OA
ENDBRANCH   3   5
ENDBRANCH   2   3
ENDBRANCH   1   2
BRANCH   1   8
ATOM      8  C   LIG    1       28.409 -19.681   5.874  0.00  0.00    +0.033 C 
BRANCH   8   9
ATOM      9  C   LIG    1       28.121 -20.365   7.210  0.00  0.00    +0.193 C 
BRANCH   9  10
ATOM     10  O   LIG    1       26.773 -20.164   7.621  0.00  0.00    -0.239 OA
BRANCH  10  11
ATOM     11  S   LIG    1       25.907 -21.467   8.106  0.00  0.00    +0.079 S 
ATOM     12  O   LIG    1       25.700 -21.384   9.526  0.00  0.00    -0.147 OA
ATOM     13  O   LIG    1       26.450 -22.658   7.471  0.00  0.00    -0.147 OA
ATOM     14  C   LIG    1       24.408 -21.080   7.261  0.00  0.00    +0.228 C 
ENDBRANCH  10  11
ENDBRANCH   9  10
ENDBRANCH   8   9
ENDBRANCH   1   8
TORSDOF 7
ENDMDL
MODEL 4
REMARK VINA RESULT:      -6.0      1.877      6.709
REMARK  Name = *****
REMARK                            x       y       z     vdW  Elec       q    Type
REMARK                         _______ _______ _______ _____ _____    ______ ____
ROOT
ATOM      1  C   LIG    1       26.647 -20.495   8.011  0.00  0.00    +0.033 C 
ENDROOT
BRANCH   1   2
ATOM      2  C   LIG    1       26.262 -21.961   8.177  0.00  0.00    +0.193 C 
BRANCH   2   3
ATOM      3  O   LIG    1       24.902 -22.104   7.811  0.00  0.00    -0.239 OA
BRANCH   3   5
ATOM      4  C   LIG    1       25.863 -24.245   6.833  0.00  0.00    +0.228 C 
ATOM      5  S   LIG    1       24.543 -23.087   6.568  0.00  0.00    +0.079 S 
ATOM      6  O   LIG    1       23.279 -23.746   6.861  0.00  0.00    -0.147 OA
ATOM      7  O   LIG    1       24.772 -22.379   5.333  0.00  0.00    -0.147 OA
ENDBRANCH   3   5
ENDBRANCH   2   3
ENDBRANCH   1   2
BRANCH   1   8
ATOM      8  C   LIG    1       27.777 -20.275   6.993  0.00  0.00    +0.033 C 
BRANCH   8   9
ATOM      9  C   LIG    1       29.073 -21.003   7.351  0.00  0.00    +0.193 C 
BRANCH   9  10
ATOM     10  O   LIG    1       29.689 -20.438   8.503  0.00  0.00    -0.239 OA
BRANCH  10  11
ATOM     11  S   LIG    1       31.080 -19.596   8.305  0.00  0.00    +0.079 S 
ATOM     12  O   LIG    1       31.460 -19.648   6.920  0.00  0.00    -0.147 OA
ATOM     13  O   LIG    1       32.003 -19.950   9.374  0.00  0.00    -0.147 OA
ATOM     14  C   LIG    1       30.444 -17.997   8.691  0.00  0.00    +0.228 C 
ENDBRANCH  10  11
ENDBRANCH   9  10
ENDBRANCH   8   9
ENDBRANCH   1   8
TORSDOF 7
ENDMDL
MODEL 5
REMARK VINA RESULT:      -6.0      2.075      2.871
REMARK  Name = *****
REMARK                            x       y       z     vdW  Elec       q    Type
REMARK                         _______ _______ _______ _____ _____    ______ ____
ROOT
ATOM      1  C   LIG    1       27.632 -21.316   7.900  0.00  0.00    +0.033 C 
ENDROOT
BRANCH   1   2
ATOM      2  C   LIG    1       28.698 -20.262   7.620  0.00  0.00    +0.193 C 
BRANCH   2   3
ATOM      3  O   LIG    1       29.804 -20.517   8.466  0.00  0.00    -0.239 OA
BRANCH   3   5
ATOM      4  C   LIG    1       30.309 -18.032   8.657  0.00  0.00    +0.228 C 
ATOM      5  S   LIG    1       31.119 -19.575   8.312  0.00  0.00    +0.079 S 
ATOM      6  O   LIG    1       32.027 -19.879   9.408  0.00  0.00    -0.147 OA
ATOM      7  O   LIG    1       31.545 -19.591   6.934  0.00  0.00    -0.147 OA
ENDBRANCH   3   5
ENDBRANCH   2   3
ENDBRANCH   1   2
BRANCH   1   8
ATOM      8  C   LIG    1       26.282 -20.717   8.324  0.00  0.00    +0.033 C 
BRANCH   8   9
ATOM      9  C   LIG    1       25.137 -21.054   7.369  0.00  0.00    +0.193 C 
BRANCH   9  10
ATOM     10  O   LIG    1       24.527 -22.297   7.701  0.00  0.00    -0.239 OA
BRANCH  10  11
ATOM     11  S   LIG    1       24.338 -23.410   6.514  0.00  0.00    +0.079 S 
ATOM     12  O   LIG    1       24.556 -22.775   5.243  0.00  0.00    -0.147 OA
ATOM     13  O   LIG    1       23.145 -24.198   6.790  0.00  0.00    -0.147 OA
ATOM     14  C   LIG    1       25.722 -24.424   6.921  0.00  0.00    +0.228 C 
ENDBRANCH  10  11
ENDBRANCH   9  10
ENDBRANCH   8   9
ENDBRANCH   1   8
TORSDOF 7
ENDMDL
MODEL 6
REMARK VINA RESULT:      -6.0      1.958      6.849
REMARK  Name = *****
REMARK                            x       y       z     vdW  Elec       q    Type
REMARK                         _______ _______ _______ _____ _____    ______ ____
ROOT
ATOM      1  C   LIG    1       26.518 -20.571   8.397  0.00  0.00    +0.033 C 
ENDROOT
BRANCH   1   2
ATOM      2  C   LIG    1       25.337 -20.661   7.436  0.00  0.00    +0.193 C 
BRANCH   2   3
ATOM      3  O   LIG    1       24.524 -21.748   7.838  0.00  0.00    -0.239 OA
BRANCH   3   5
ATOM      4  C   LIG    1       24.661 -22.179   5.336  0.00  0.00    +0.228 C 
ATOM      5  S   LIG    1       24.455 -23.051   6.869  0.00  0.00    +0.079 S 
ATOM      6  O   LIG    1       25.641 -23.859   7.109  0.00  0.00    -0.147 OA
ATOM      7  O   LIG    1       23.124 -23.604   6.926  0.00  0.00    -0.147 OA
ENDBRANCH   3   5
ENDBRANCH   2   3
ENDBRANCH   1   2
BRANCH   1   8
ATOM      8  C   LIG    1       27.841 -21.050   7.779  0.00  0.00    +0.033 C 
BRANCH   8   9
ATOM      9  C   LIG    1       28.894 -19.948   7.661  0.00  0.00    +0.193 C 
BRANCH   9  10
ATOM     10  O   LIG    1       29.769 -19.937   8.783  0.00  0.00    -0.239 OA
BRANCH  10  11
ATOM     11  S   LIG    1       31.377 -19.775   8.513  0.00  0.00    +0.079 S 
ATOM     12  O   LIG    1       31.597 -19.627   7.101  0.00  0.00    -0.147 OA
ATOM     13  O   LIG    1       32.091 -20.764   9.308  0.00  0.00    -0.147 OA
ATOM     14  C   LIG    1       31.595 -18.222   9.319  0.00  0.00    +0.228 C 
ENDBRANCH  10  11
ENDBRANCH   9  10
ENDBRANCH   8   9
ENDBRANCH   1   8
TORSDOF 7
ENDMDL
MODEL 7
REMARK VINA RESULT:      -5.9      2.106      6.767
REMARK  Name = *****
REMARK                            x       y       z     vdW  Elec       q    Type
REMARK                         _______ _______ _______ _____ _____    ______ ____
ROOT
ATOM      1  C   LIG    1       26.727 -20.999   8.132  0.00  0.00    +0.033 C 
ENDROOT
BRANCH   1   2
ATOM      2  C   LIG    1       25.240 -20.849   7.831  0.00  0.00    +0.193 C 
BRANCH   2   3
ATOM      3  O   LIG    1       25.100 -20.488   6.469  0.00  0.00    -0.239 OA
BRANCH   3   5
ATOM      4  C   LIG    1       23.289 -22.244   6.786  0.00  0.00    +0.228 C 
ATOM      5  S   LIG    1       23.730 -20.908   5.703  0.00  0.00    +0.079 S 
ATOM      6  O   LIG    1       22.766 -19.831   5.873  0.00  0.00    -0.147 OA
ATOM      7  O   LIG    1       24.066 -21.439   4.404  0.00  0.00    -0.147 OA
ENDBRANCH   3   5
ENDBRANCH   2   3
ENDBRANCH   1   2
BRANCH   1   8
ATOM      8  C   LIG    1       27.629 -20.289   7.109  0.00  0.00    +0.033 C 
BRANCH   8   9
ATOM      9  C   LIG    1       29.055 -20.836   7.069  0.00  0.00    +0.193 C 
BRANCH   9  10
ATOM     10  O   LIG    1       29.732 -20.625   8.304  0.00  0.00    -0.239 OA
BRANCH  10  11
ATOM     11  S   LIG    1       31.084 -19.699   8.300  0.00  0.00    +0.079 S 
ATOM     12  O   LIG    1       31.562 -19.582   6.949  0.00  0.00    -0.147 OA
ATOM     13  O   LIG    1       31.948 -20.120   9.393  0.00  0.00    -0.147 OA
ATOM     14  C   LIG    1       30.332 -18.184   8.800  0.00  0.00    +0.228 C 
ENDBRANCH  10  11
ENDBRANCH   9  10
ENDBRANCH   8   9
ENDBRANCH   1   8
TORSDOF 7
ENDMDL
MODEL 8
REMARK VINA RESULT:      -5.8      2.390      3.089
REMARK  Name = *****
REMARK                            x       y       z     vdW  Elec       q    Type
REMARK                         _______ _______ _______ _____ _____    ______ ____
ROOT
ATOM      1  C   LIG    1       27.505 -20.387   7.337  0.00  0.00    +0.033 C 
ENDROOT
BRANCH   1   2
ATOM      2  C   LIG    1       28.860 -20.892   7.818  0.00  0.00    +0.193 C 
BRANCH   2   3
ATOM      3  O   LIG    1       29.556 -19.804   8.398  0.00  0.00    -0.239 OA
BRANCH   3   5
ATOM      4  C   LIG    1       31.183 -21.670   8.977  0.00  0.00    +0.228 C 
ATOM      5  S   LIG    1       31.165 -19.938   8.588  0.00  0.00    +0.079 S 
ATOM      6  O   LIG    1       31.793 -19.745   7.290  0.00  0.00    -0.147 OA
ATOM      7  O   LIG    1       31.560 -19.184   9.752  0.00  0.00    -0.147 OA
ENDBRANCH   3   5
ENDBRANCH   2   3
ENDBRANCH   1   2
BRANCH   1   8
ATOM      8  C   LIG    1       26.352 -20.739   8.292  0.00  0.00    +0.033 C 
BRANCH   8   9
ATOM      9  C   LIG    1       25.922 -22.204   8.216  0.00  0.00    +0.193 C 
BRANCH   9  10
ATOM     10  O   LIG    1       26.106 -22.737   6.909  0.00  0.00    -0.239 OA
BRANCH  10  11
ATOM     11  S   LIG    1       24.781 -23.212   6.070  0.00  0.00    +0.079 S 
ATOM     12  O   LIG    1       23.674 -23.330   6.979  0.00  0.00    -0.147 OA
ATOM     13  O   LIG    1       25.156 -24.287   5.164  0.00  0.00    -0.147 OA
ATOM     14  C   LIG    1       24.593 -21.760   5.086  0.00  0.00    +0.228 C 
ENDBRANCH  10  11
ENDBRANCH   9  10
ENDBRANCH   8   9
ENDBRANCH   1   8
TORSDOF 7
ENDMDL
MODEL 9
REMARK VINA RESULT:      -5.8      2.145      2.812
REMARK  Name = *****
REMARK                            x       y       z     vdW  Elec       q    Type
REMARK                         _______ _______ _______ _____ _____    ______ ____
ROOT
ATOM      1  C   LIG    1       27.787 -20.312   6.965  0.00  0.00    +0.033 C 
ENDROOT
BRANCH   1   2
ATOM      2  C   LIG    1       29.118 -21.031   7.154  0.00  0.00    +0.193 C 
BRANCH   2   3
ATOM      3  O   LIG    1       29.695 -20.581   8.366  0.00  0.00    -0.239 OA
BRANCH   3   5
ATOM      4  C   LIG    1       30.298 -18.139   8.733  0.00  0.00    +0.228 C 
ATOM      5  S   LIG    1       31.047 -19.685   8.285  0.00  0.00    +0.079 S 
ATOM      6  O   LIG    1       31.934 -20.102   9.361  0.00  0.00    -0.147 OA
ATOM      7  O   LIG    1       31.483 -19.623   6.911  0.00  0.00    -0.147 OA
ENDBRANCH   3   5
ENDBRANCH   2   3
ENDBRANCH   1   2
BRANCH   1   8
ATOM      8  C   LIG    1       26.844 -20.455   8.171  0.00  0.00    +0.033 C 
BRANCH   8   9
ATOM      9  C   LIG    1       25.406 -20.800   7.784  0.00  0.00    +0.193 C 
BRANCH   9  10
ATOM     10  O   LIG    1       25.185 -20.635   6.387  0.00  0.00    -0.239 OA
BRANCH  10  11
ATOM     11  S   LIG    1       24.194 -21.695   5.627  0.00  0.00    +0.079 S 
ATOM     12  O   LIG    1       24.950 -22.866   5.274  0.00  0.00    -0.147 OA
ATOM     13  O   LIG    1       23.387 -20.973   4.654  0.00  0.00    -0.147 OA
ATOM     14  C   LIG    1       23.141 -22.054   6.995  0.00  0.00    +0.228 C 
ENDBRANCH  10  11
ENDBRANCH   9  10
ENDBRANCH   8   9
ENDBRANCH   1   8
TORSDOF 7
ENDMDL
