MODEL 1
REMARK VINA RESULT:      -7.8      0.000      0.000
REMARK  Name = *****
REMARK                            x       y       z     vdW  Elec       q    Type
REMARK                         _______ _______ _______ _____ _____    ______ ____
ROOT
ATOM      1  N   LIG    1       25.419 -28.351   6.881  0.00  0.00    -0.237 N 
ATOM      2  C   LIG    1       25.755 -29.149   8.058  0.00  0.00    +0.046 A 
ATOM      3  C   LIG    1       25.772 -30.560   7.941  0.00  0.00    -0.025 A 
ATOM      4  C   LIG    1       26.517 -31.309   8.892  0.00  0.00    +0.009 A 
ATOM      5  C   LIG    1       27.179 -30.655   9.990  0.00  0.00    +0.046 A 
ATOM      6  C   LIG    1       26.992 -29.265  10.239  0.00  0.00    +0.122 A 
ATOM      7  C   LIG    1       25.089 -31.176   6.740  0.00  0.00    +0.046 C 
ATOM      8  C   LIG    1       23.943 -30.232   6.385  0.00  0.00    +0.101 C 
ATOM      9  C   LIG    1       26.199 -28.584   9.281  0.00  0.00    +0.069 A 
ATOM     10  C   LIG    1       24.494 -28.883   5.977  0.00  0.00    +0.223 C 
ATOM     11  O   LIG    1       24.063 -28.278   4.997  0.00  0.00    -0.275 OA
ENDROOT
BRANCH   1  12
ATOM     12  C   LIG    1       26.118 -27.110   6.418  0.00  0.00    +0.349 C 
BRANCH  12  13
ATOM     13  O   LIG    1       25.643 -25.919   7.032  0.00  0.00    -0.445 OA
BRANCH  13  14
ATOM     14  C   LIG    1       25.314 -24.925   6.122  0.00  0.00    +0.309 C 
ATOM     15  O   LIG    1       25.270 -25.017   4.972  0.00  0.00    -0.251 OA
BRANCH  14  16
ATOM     16  C   LIG    1       24.985 -23.667   6.871  0.00  0.00    +0.120 C 
BRANCH  16  17
ATOM     17  C   LIG    1       23.587 -23.051   6.656  0.00  0.00    +0.011 C 
BRANCH  17  18
ATOM     18  C   LIG    1       23.316 -21.652   7.228  0.00  0.00    +0.000 C 
BRANCH  18  19
ATOM     19  C   LIG    1       22.922 -20.448   6.367  0.00  0.00    +0.000 C 
BRANCH  19  20
ATOM     20  C   LIG    1       23.093 -20.562   4.880  0.00  0.00    -0.000 C 
BRANCH  20  21
ATOM     21  C   LIG    1       23.731 -19.381   4.167  0.00  0.00    -0.000 C 
BRANCH  21  22
ATOM     22  C   LIG    1       25.214 -19.689   3.834  0.00  0.00    -0.000 C 
BRANCH  22  23
ATOM     23  C   LIG    1       25.919 -20.478   4.983  0.00  0.00    -0.000 C 
BRANCH  23  24
ATOM     24  C   LIG    1       27.244 -19.878   5.532  0.00  0.00    -0.000 C 
BRANCH  24  26
ATOM     25  C   LIG    1       26.526 -20.422   7.956  0.00  0.00    +0.004 C 
ATOM     26  C   LIG    1       27.700 -20.273   6.969  0.00  0.00    -0.003 C 
ENDBRANCH  24  26
ENDBRANCH  23  24
ENDBRANCH  22  23
ENDBRANCH  21  22
ENDBRANCH  20  21
ENDBRANCH  19  20
ENDBRANCH  18  19
ENDBRANCH  17  18
ENDBRANCH  16  17
ENDBRANCH  14  16
ENDBRANCH  13  14
ENDBRANCH  12  13
ENDBRANCH   1  12
BRANCH   6  27
ATOM     27  O   LIG    1       27.694 -28.665  11.295  0.00  0.00    -0.492 OA
BRANCH  27  28
ATOM     28  C   LIG    1       27.216 -28.195  12.644  0.00  0.00    +0.229 C 
BRANCH  28  29
ATOM     29  C   LIG    1       25.941 -28.897  13.202  0.00  0.00    +0.042 C 
BRANCH  29  30
ATOM     30  C   LIG    1       25.852 -30.446  13.543  0.00  0.00    +0.019 C 
BRANCH  30  31
ATOM     31  C   LIG    1       24.379 -31.077  13.443  0.00  0.00    +0.085 C 
BRANCH  31  32
ATOM     32  N   LIG    1       23.955 -31.791  12.210  0.00  0.00    -0.299 NA
ATOM     33  C   LIG    1       22.778 -32.651  12.420  0.00  0.00    +0.103 C 
ATOM     34  C   LIG    1       21.377 -31.914  12.580  0.00  0.00    +0.120 C 
ATOM     35  N   LIG    1       21.423 -30.468  12.171  0.00  0.00    -0.326 N 
ATOM     36  C   LIG    1       22.107 -30.405  10.878  0.00  0.00    +0.120 C 
ATOM     37  C   LIG    1       23.584 -30.904  11.046  0.00  0.00    +0.103 C 
BRANCH  35  38
ATOM     38  C   LIG    1       21.354 -29.246  12.857  0.00  0.00    +0.050 A 
ATOM     39  C   LIG    1       20.226 -28.707  13.515  0.00  0.00    +0.080 A 
ATOM     40 CL   LIG    1       18.953 -29.731  14.090  0.00  0.00    -0.080 Cl
ATOM     41  C   LIG    1       20.133 -27.298  13.742  0.00  0.00    +0.061 A 
ATOM     42 CL   LIG    1       18.636 -26.511  14.142  0.00  0.00    -0.082 Cl
ATOM     43  C   LIG    1       21.222 -26.443  13.545  0.00  0.00    +0.021 A 
ATOM     44  C   LIG    1       22.404 -26.976  13.087  0.00  0.00    +0.003 A 
ATOM     45  C   LIG    1       22.438 -28.325  12.727  0.00  0.00    +0.025 A 
ENDBRANCH  35  38
ENDBRANCH  31  32
ENDBRANCH  30  31
ENDBRANCH  29  30
ENDBRANCH  28  29
ENDBRANCH  27  28
ENDBRANCH   6  27
TORSDOF 20
ENDMDL
MODEL 2
REMARK VINA RESULT:      -7.8      3.606      6.451
REMARK  Name = *****
REMARK                            x       y       z     vdW  Elec       q    Type
REMARK                         _______ _______ _______ _____ _____    ______ ____
ROOT
ATOM      1  N   LIG    1       25.425 -22.467   7.709  0.00  0.00    -0.237 N 
ATOM      2  C   LIG    1       25.061 -23.516   6.759  0.00  0.00    +0.046 A 
ATOM      3  C   LIG    1       24.666 -23.141   5.451  0.00  0.00    -0.025 A 
ATOM      4  C   LIG    1       24.756 -24.107   4.413  0.00  0.00    +0.009 A 
ATOM      5  C   LIG    1       25.171 -25.456   4.697  0.00  0.00    +0.046 A 
ATOM      6  C   LIG    1       25.365 -25.900   6.037  0.00  0.00    +0.122 A 
ATOM      7  C   LIG    1       24.279 -21.697   5.219  0.00  0.00    +0.046 C 
ATOM      8  C   LIG    1       23.692 -21.207   6.540  0.00  0.00    +0.101 C 
ATOM      9  C   LIG    1       25.212 -24.899   7.030  0.00  0.00    +0.069 A 
ATOM     10  C   LIG    1       24.749 -21.246   7.621  0.00  0.00    +0.223 C 
ATOM     11  O   LIG    1       24.900 -20.317   8.413  0.00  0.00    -0.275 OA
ENDROOT
BRANCH   1  12
ATOM     12  C   LIG    1       26.597 -22.478   8.641  0.00  0.00    +0.349 C 
BRANCH  12  13
ATOM     13  O   LIG    1       27.322 -21.256   8.669  0.00  0.00    -0.445 OA
BRANCH  13  14
ATOM     14  C   LIG    1       28.612 -21.370   8.170  0.00  0.00    +0.309 C 
ATOM     15  O   LIG    1       29.569 -21.633   8.760  0.00  0.00    -0.251 OA
BRANCH  14  16
ATOM     16  C   LIG    1       28.587 -21.120   6.691  0.00  0.00    +0.120 C 
BRANCH  16  17
ATOM     17  C   LIG    1       28.445 -19.660   6.214  0.00  0.00    +0.011 C 
BRANCH  17  18
ATOM     18  C   LIG    1       29.688 -18.760   6.252  0.00  0.00    +0.000 C 
BRANCH  18  19
ATOM     19  C   LIG    1       31.039 -19.207   6.820  0.00  0.00    +0.000 C 
BRANCH  19  20
ATOM     20  C   LIG    1       31.458 -18.654   8.150  0.00  0.00    -0.000 C 
BRANCH  20  21
ATOM     21  C   LIG    1       30.349 -18.250   9.109  0.00  0.00    -0.000 C 
BRANCH  21  22
ATOM     22  C   LIG    1       30.560 -16.791   9.594  0.00  0.00    -0.000 C 
BRANCH  22  23
ATOM     23  C   LIG    1       32.069 -16.387   9.591  0.00  0.00    -0.000 C 
BRANCH  23  24
ATOM     24  C   LIG    1       32.674 -15.938  10.950  0.00  0.00    -0.000 C 
BRANCH  24  26
ATOM     25  C   LIG    1       32.344 -15.857  13.514  0.00  0.00    +0.004 C 
ATOM     26  C   LIG    1       32.267 -16.717  12.239  0.00  0.00    -0.003 C 
ENDBRANCH  24  26
ENDBRANCH  23  24
ENDBRANCH  22  23
ENDBRANCH  21  22
ENDBRANCH  20  21
ENDBRANCH  19  20
ENDBRANCH  18  19
ENDBRANCH  17  18
ENDBRANCH  16  17
ENDBRANCH  14  16
ENDBRANCH  13  14
ENDBRANCH  12  13
ENDBRANCH   1  12
BRANCH   6  27
ATOM     27  O   LIG    1       25.812 -27.211   6.258  0.00  0.00    -0.492 OA
BRANCH  27  28
ATOM     28  C   LIG    1       25.159 -28.532   5.947  0.00  0.00    +0.229 C 
BRANCH  28  29
ATOM     29  C   LIG    1       25.188 -29.595   7.088  0.00  0.00    +0.042 C 
BRANCH  29  30
ATOM     30  C   LIG    1       25.039 -29.251   8.631  0.00  0.00    +0.019 C 
BRANCH  30  31
ATOM     31  C   LIG    1       26.403 -28.819   9.362  0.00  0.00    +0.085 C 
BRANCH  31  32
ATOM     32  N   LIG    1       27.224 -29.836  10.070  0.00  0.00    -0.299 NA
ATOM     33  C   LIG    1       27.991 -29.274  11.195  0.00  0.00    +0.103 C 
ATOM     34  C   LIG    1       27.166 -28.902  12.503  0.00  0.00    +0.120 C 
ATOM     35  N   LIG    1       25.779 -29.480  12.509  0.00  0.00    -0.326 N 
ATOM     36  C   LIG    1       25.895 -30.889  12.128  0.00  0.00    +0.120 C 
ATOM     37  C   LIG    1       26.451 -30.989  10.666  0.00  0.00    +0.103 C 
BRANCH  35  38
ATOM     38  C   LIG    1       24.486 -28.946  12.389  0.00  0.00    +0.050 A 
ATOM     39  C   LIG    1       23.998 -27.767  12.993  0.00  0.00    +0.080 A 
ATOM     40 CL   LIG    1       25.074 -26.495  13.470  0.00  0.00    -0.080 Cl
ATOM     41  C   LIG    1       22.594 -27.592  13.197  0.00  0.00    +0.061 A 
ATOM     42 CL   LIG    1       21.945 -26.407  14.289  0.00  0.00    -0.082 Cl
ATOM     43  C   LIG    1       21.650 -28.444  12.612  0.00  0.00    +0.021 A 
ATOM     44  C   LIG    1       22.096 -29.497  11.849  0.00  0.00    +0.003 A 
ATOM     45  C   LIG    1       23.469 -29.744  11.783  0.00  0.00    +0.025 A 
ENDBRANCH  35  38
ENDBRANCH  31  32
ENDBRANCH  30  31
ENDBRANCH  29  30
ENDBRANCH  28  29
ENDBRANCH  27  28
ENDBRANCH   6  27
TORSDOF 20
ENDMDL
MODEL 3
REMARK VINA RESULT:      -7.8      2.995      6.163
REMARK  Name = *****
REMARK                            x       y       z     vdW  Elec       q    Type
REMARK                         _______ _______ _______ _____ _____    ______ ____
ROOT
ATOM      1  N   LIG    1       26.623 -21.986   7.756  0.00  0.00    -0.237 N 
ATOM      2  C   LIG    1       25.839 -23.128   7.291  0.00  0.00    +0.046 A 
ATOM      3  C   LIG    1       24.464 -22.940   7.009  0.00  0.00    -0.025 A 
ATOM      4  C   LIG    1       23.816 -23.867   6.149  0.00  0.00    +0.009 A 
ATOM      5  C   LIG    1       24.521 -25.011   5.634  0.00  0.00    +0.046 A 
ATOM      6  C   LIG    1       25.837 -25.326   6.078  0.00  0.00    +0.122 A 
ATOM      7  C   LIG    1       23.798 -21.695   7.552  0.00  0.00    +0.046 C 
ATOM      8  C   LIG    1       24.531 -21.364   8.850  0.00  0.00    +0.101 C 
ATOM      9  C   LIG    1       26.410 -24.387   6.974  0.00  0.00    +0.069 A 
ATOM     10  C   LIG    1       25.979 -21.037   8.555  0.00  0.00    +0.223 C 
ATOM     11  O   LIG    1       26.546 -20.080   9.080  0.00  0.00    -0.275 OA
ENDROOT
BRANCH   1  12
ATOM     12  C   LIG    1       27.995 -21.602   7.295  0.00  0.00    +0.349 C 
BRANCH  12  13
ATOM     13  O   LIG    1       28.965 -21.575   8.334  0.00  0.00    -0.445 OA
BRANCH  13  14
ATOM     14  C   LIG    1       30.020 -20.710   8.079  0.00  0.00    +0.309 C 
ATOM     15  O   LIG    1       31.148 -20.929   8.199  0.00  0.00    -0.251 OA
BRANCH  14  16
ATOM     16  C   LIG    1       29.472 -19.406   7.580  0.00  0.00    +0.120 C 
BRANCH  16  17
ATOM     17  C   LIG    1       30.108 -18.801   6.311  0.00  0.00    +0.011 C 
BRANCH  17  18
ATOM     18  C   LIG    1       29.174 -18.318   5.192  0.00  0.00    +0.000 C 
BRANCH  18  19
ATOM     19  C   LIG    1       27.765 -18.873   4.966  0.00  0.00    +0.000 C 
BRANCH  19  20
ATOM     20  C   LIG    1       26.859 -18.128   4.030  0.00  0.00    -0.000 C 
BRANCH  20  21
ATOM     21  C   LIG    1       25.632 -18.870   3.522  0.00  0.00    -0.000 C 
BRANCH  21  22
ATOM     22  C   LIG    1       25.343 -20.108   4.412  0.00  0.00    -0.000 C 
BRANCH  22  23
ATOM     23  C   LIG    1       24.145 -20.950   3.869  0.00  0.00    -0.000 C 
BRANCH  23  24
ATOM     24  C   LIG    1       22.756 -20.684   4.513  0.00  0.00    -0.000 C 
BRANCH  24  26
ATOM     25  C   LIG    1       22.034 -18.208   4.331  0.00  0.00    +0.004 C 
ATOM     26  C   LIG    1       22.529 -19.333   5.258  0.00  0.00    -0.003 C 
ENDBRANCH  24  26
ENDBRANCH  23  24
ENDBRANCH  22  23
ENDBRANCH  21  22
ENDBRANCH  20  21
ENDBRANCH  19  20
ENDBRANCH  18  19
ENDBRANCH  17  18
ENDBRANCH  16  17
ENDBRANCH  14  16
ENDBRANCH  13  14
ENDBRANCH  12  13
ENDBRANCH   1  12
BRANCH   6  27
ATOM     27  O   LIG    1       26.498 -26.426   5.513  0.00  0.00    -0.492 OA
BRANCH  27  28
ATOM     28  C   LIG    1       25.987 -27.514   4.606  0.00  0.00    +0.229 C 
BRANCH  28  29
ATOM     29  C   LIG    1       25.363 -28.756   5.312  0.00  0.00    +0.042 C 
BRANCH  29  30
ATOM     30  C   LIG    1       24.332 -28.673   6.517  0.00  0.00    +0.019 C 
BRANCH  30  31
ATOM     31  C   LIG    1       24.816 -29.387   7.872  0.00  0.00    +0.085 C 
BRANCH  31  32
ATOM     32  N   LIG    1       24.754 -30.867   7.998  0.00  0.00    -0.299 NA
ATOM     33  C   LIG    1       25.991 -31.449   8.545  0.00  0.00    +0.103 C 
ATOM     34  C   LIG    1       26.249 -31.240  10.101  0.00  0.00    +0.120 C 
ATOM     35  N   LIG    1       25.033 -30.756  10.839  0.00  0.00    -0.326 N 
ATOM     36  C   LIG    1       23.909 -31.595  10.420  0.00  0.00    +0.120 C 
ATOM     37  C   LIG    1       23.652 -31.394   8.887  0.00  0.00    +0.103 C 
BRANCH  35  38
ATOM     38  C   LIG    1       24.664 -29.547  11.450  0.00  0.00    +0.050 A 
ATOM     39  C   LIG    1       25.527 -28.503  11.850  0.00  0.00    +0.080 A 
ATOM     40 CL   LIG    1       27.079 -28.291  11.108  0.00  0.00    -0.080 Cl
ATOM     41  C   LIG    1       25.118 -27.581  12.863  0.00  0.00    +0.061 A 
ATOM     42 CL   LIG    1       26.239 -26.556  13.707  0.00  0.00    -0.082 Cl
ATOM     43  C   LIG    1       23.797 -27.524  13.321  0.00  0.00    +0.021 A 
ATOM     44  C   LIG    1       22.880 -28.408  12.801  0.00  0.00    +0.003 A 
ATOM     45  C   LIG    1       23.326 -29.400  11.925  0.00  0.00    +0.025 A 
ENDBRANCH  35  38
ENDBRANCH  31  32
ENDBRANCH  30  31
ENDBRANCH  29  30
ENDBRANCH  28  29
ENDBRANCH  27  28
ENDBRANCH   6  27
TORSDOF 20
ENDMDL
MODEL 4
REMARK VINA RESULT:      -7.7      1.333      2.209
REMARK  Name = *****
REMARK                            x       y       z     vdW  Elec       q    Type
REMARK                         _______ _______ _______ _____ _____    ______ ____
ROOT
ATOM      1  N   LIG    1       24.603 -29.816   7.290  0.00  0.00    -0.237 N 
ATOM      2  C   LIG    1       25.405 -29.960   8.502  0.00  0.00    +0.046 A 
ATOM      3  C   LIG    1       26.193 -31.126   8.663  0.00  0.00    -0.025 A 
ATOM      4  C   LIG    1       27.292 -31.082   9.563  0.00  0.00    +0.009 A 
ATOM      5  C   LIG    1       27.556 -29.904  10.347  0.00  0.00    +0.046 A 
ATOM      6  C   LIG    1       26.649 -28.805  10.352  0.00  0.00    +0.122 A 
ATOM      7  C   LIG    1       25.883 -32.313   7.778  0.00  0.00    +0.046 C 
ATOM      8  C   LIG    1       24.384 -32.239   7.496  0.00  0.00    +0.101 C 
ATOM      9  C   LIG    1       25.546 -28.931   9.469  0.00  0.00    +0.069 A 
ATOM     10  C   LIG    1       24.066 -30.977   6.724  0.00  0.00    +0.223 C 
ATOM     11  O   LIG    1       23.305 -30.984   5.758  0.00  0.00    -0.275 OA
ENDROOT
BRANCH   1  12
ATOM     12  C   LIG    1       24.463 -28.580   6.456  0.00  0.00    +0.349 C 
BRANCH  12  13
ATOM     13  O   LIG    1       25.406 -28.492   5.395  0.00  0.00    -0.445 OA
BRANCH  13  14
ATOM     14  C   LIG    1       26.230 -27.379   5.484  0.00  0.00    +0.309 C 
ATOM     15  O   LIG    1       27.022 -27.032   4.718  0.00  0.00    -0.251 OA
BRANCH  14  16
ATOM     16  C   LIG    1       25.917 -26.641   6.752  0.00  0.00    +0.120 C 
BRANCH  16  17
ATOM     17  C   LIG    1       25.876 -25.100   6.693  0.00  0.00    +0.011 C 
BRANCH  17  18
ATOM     18  C   LIG    1       24.913 -24.439   5.697  0.00  0.00    +0.000 C 
BRANCH  18  19
ATOM     19  C   LIG    1       24.526 -22.957   5.750  0.00  0.00    +0.000 C 
BRANCH  19  20
ATOM     20  C   LIG    1       23.744 -22.478   6.938  0.00  0.00    -0.000 C 
BRANCH  20  21
ATOM     21  C   LIG    1       23.235 -21.046   6.894  0.00  0.00    -0.000 C 
BRANCH  21  22
ATOM     22  C   LIG    1       22.499 -20.775   5.556  0.00  0.00    -0.000 C 
BRANCH  22  23
ATOM     23  C   LIG    1       22.738 -19.318   5.043  0.00  0.00    -0.000 C 
BRANCH  23  24
ATOM     24  C   LIG    1       23.555 -19.166   3.729  0.00  0.00    -0.000 C 
BRANCH  24  26
ATOM     25  C   LIG    1       25.899 -19.810   4.612  0.00  0.00    +0.004 C 
ATOM     26  C   LIG    1       24.824 -20.052   3.536  0.00  0.00    -0.003 C 
ENDBRANCH  24  26
ENDBRANCH  23  24
ENDBRANCH  22  23
ENDBRANCH  21  22
ENDBRANCH  20  21
ENDBRANCH  19  20
ENDBRANCH  18  19
ENDBRANCH  17  18
ENDBRANCH  16  17
ENDBRANCH  14  16
ENDBRANCH  13  14
ENDBRANCH  12  13
ENDBRANCH   1  12
BRANCH   6  27
ATOM     27  O   LIG    1       26.973 -27.662  11.098  0.00  0.00    -0.492 OA
BRANCH  27  28
ATOM     28  C   LIG    1       26.507 -27.218  12.459  0.00  0.00    +0.229 C 
BRANCH  28  29
ATOM     29  C   LIG    1       25.244 -27.941  13.019  0.00  0.00    +0.042 C 
BRANCH  29  30
ATOM     30  C   LIG    1       25.265 -29.379  13.694  0.00  0.00    +0.019 C 
BRANCH  30  31
ATOM     31  C   LIG    1       23.851 -30.140  13.707  0.00  0.00    +0.085 C 
BRANCH  31  32
ATOM     32  N   LIG    1       23.505 -31.089  12.616  0.00  0.00    -0.299 NA
ATOM     33  C   LIG    1       22.606 -32.169  13.058  0.00  0.00    +0.103 C 
ATOM     34  C   LIG    1       21.087 -31.772  13.314  0.00  0.00    +0.120 C 
ATOM     35  N   LIG    1       20.730 -30.423  12.757  0.00  0.00    -0.326 N 
ATOM     36  C   LIG    1       21.249 -30.367  11.389  0.00  0.00    +0.120 C 
ATOM     37  C   LIG    1       22.812 -30.474  11.422  0.00  0.00    +0.103 C 
BRANCH  35  38
ATOM     38  C   LIG    1       20.421 -29.173  13.317  0.00  0.00    +0.050 A 
ATOM     39  C   LIG    1       19.358 -28.880  14.199  0.00  0.00    +0.080 A 
ATOM     40 CL   LIG    1       18.652 -30.114  15.190  0.00  0.00    -0.080 Cl
ATOM     41  C   LIG    1       18.863 -27.543  14.308  0.00  0.00    +0.061 A 
ATOM     42 CL   LIG    1       17.322 -27.169  15.019  0.00  0.00    -0.082 Cl
ATOM     43  C   LIG    1       19.541 -26.456  13.746  0.00  0.00    +0.021 A 
ATOM     44  C   LIG    1       20.697 -26.693  13.040  0.00  0.00    +0.003 A 
ATOM     45  C   LIG    1       21.087 -28.014  12.814  0.00  0.00    +0.025 A 
ENDBRANCH  35  38
ENDBRANCH  31  32
ENDBRANCH  30  31
ENDBRANCH  29  30
ENDBRANCH  28  29
ENDBRANCH  27  28
ENDBRANCH   6  27
TORSDOF 20
ENDMDL
MODEL 5
REMARK VINA RESULT:      -7.5      1.539      2.785
REMARK  Name = *****
REMARK                            x       y       z     vdW  Elec       q    Type
REMARK                         _______ _______ _______ _____ _____    ______ ____
ROOT
ATOM      1  N   LIG    1       25.417 -28.508   7.120  0.00  0.00    -0.237 N 
ATOM      2  C   LIG    1       25.819 -29.103   8.392  0.00  0.00    +0.046 A 
ATOM      3  C   LIG    1       26.010 -30.505   8.458  0.00  0.00    -0.025 A 
ATOM      4  C   LIG    1       26.818 -31.030   9.502  0.00  0.00    +0.009 A 
ATOM      5  C   LIG    1       27.369 -30.166  10.513  0.00  0.00    +0.046 A 
ATOM      6  C   LIG    1       27.010 -28.789  10.580  0.00  0.00    +0.122 A 
ATOM      7  C   LIG    1       25.435 -31.347   7.340  0.00  0.00    +0.046 C 
ATOM      8  C   LIG    1       24.192 -30.603   6.858  0.00  0.00    +0.101 C 
ATOM      9  C   LIG    1       26.162 -28.338   9.536  0.00  0.00    +0.069 A 
ATOM     10  C   LIG    1       24.585 -29.259   6.285  0.00  0.00    +0.223 C 
ATOM     11  O   LIG    1       24.107 -28.840   5.231  0.00  0.00    -0.275 OA
ENDROOT
BRANCH   1  12
ATOM     12  C   LIG    1       25.971 -27.259   6.507  0.00  0.00    +0.349 C 
BRANCH  12  13
ATOM     13  O   LIG    1       25.064 -26.164   6.511  0.00  0.00    -0.445 OA
BRANCH  13  14
ATOM     14  C   LIG    1       25.141 -25.383   5.367  0.00  0.00    +0.309 C 
ATOM     15  O   LIG    1       25.231 -25.748   4.275  0.00  0.00    -0.251 OA
BRANCH  14  16
ATOM     16  C   LIG    1       25.062 -23.937   5.759  0.00  0.00    +0.120 C 
BRANCH  16  17
ATOM     17  C   LIG    1       24.149 -23.565   6.945  0.00  0.00    +0.011 C 
BRANCH  17  18
ATOM     18  C   LIG    1       23.018 -22.555   6.702  0.00  0.00    +0.000 C 
BRANCH  18  19
ATOM     19  C   LIG    1       23.151 -21.054   6.976  0.00  0.00    +0.000 C 
BRANCH  19  20
ATOM     20  C   LIG    1       22.805 -20.104   5.866  0.00  0.00    -0.000 C 
BRANCH  20  21
ATOM     21  C   LIG    1       23.480 -20.339   4.524  0.00  0.00    -0.000 C 
BRANCH  21  22
ATOM     22  C   LIG    1       24.834 -19.584   4.462  0.00  0.00    -0.000 C 
BRANCH  22  23
ATOM     23  C   LIG    1       26.046 -20.536   4.720  0.00  0.00    -0.000 C 
BRANCH  23  24
ATOM     24  C   LIG    1       26.975 -20.175   5.913  0.00  0.00    -0.000 C 
BRANCH  24  26
ATOM     25  C   LIG    1       27.114 -21.633   8.045  0.00  0.00    +0.004 C 
ATOM     26  C   LIG    1       26.453 -20.421   7.362  0.00  0.00    -0.003 C 
ENDBRANCH  24  26
ENDBRANCH  23  24
ENDBRANCH  22  23
ENDBRANCH  21  22
ENDBRANCH  20  21
ENDBRANCH  19  20
ENDBRANCH  18  19
ENDBRANCH  17  18
ENDBRANCH  16  17
ENDBRANCH  14  16
ENDBRANCH  13  14
ENDBRANCH  12  13
ENDBRANCH   1  12
BRANCH   6  27
ATOM     27  O   LIG    1       27.608 -27.979  11.556  0.00  0.00    -0.492 OA
BRANCH  27  28
ATOM     28  C   LIG    1       26.997 -27.209  12.697  0.00  0.00    +0.229 C 
BRANCH  28  29
ATOM     29  C   LIG    1       25.471 -27.426  12.929  0.00  0.00    +0.042 C 
BRANCH  29  30
ATOM     30  C   LIG    1       24.751 -27.261  14.335  0.00  0.00    +0.019 C 
BRANCH  30  31
ATOM     31  C   LIG    1       23.565 -28.309  14.614  0.00  0.00    +0.085 C 
BRANCH  31  32
ATOM     32  N   LIG    1       22.279 -27.842  15.196  0.00  0.00    -0.299 NA
ATOM     33  C   LIG    1       21.668 -26.742  14.432  0.00  0.00    +0.103 C 
ATOM     34  C   LIG    1       21.000 -27.127  13.040  0.00  0.00    +0.120 C 
ATOM     35  N   LIG    1       20.811 -28.608  12.868  0.00  0.00    -0.326 N 
ATOM     36  C   LIG    1       20.207 -29.114  14.102  0.00  0.00    +0.120 C 
ATOM     37  C   LIG    1       21.197 -28.892  15.296  0.00  0.00    +0.103 C 
BRANCH  35  38
ATOM     38  C   LIG    1       21.402 -29.591  12.060  0.00  0.00    +0.050 A 
ATOM     39  C   LIG    1       20.857 -30.849  11.722  0.00  0.00    +0.080 A 
ATOM     40 CL   LIG    1       19.146 -31.119  11.750  0.00  0.00    -0.080 Cl
ATOM     41  C   LIG    1       21.716 -31.920  11.321  0.00  0.00    +0.061 A 
ATOM     42 CL   LIG    1       21.200 -33.579  11.303  0.00  0.00    -0.082 Cl
ATOM     43  C   LIG    1       23.068 -31.712  11.024  0.00  0.00    +0.021 A 
ATOM     44  C   LIG    1       23.585 -30.445  11.157  0.00  0.00    +0.003 A 
ATOM     45  C   LIG    1       22.774 -29.442  11.693  0.00  0.00    +0.025 A 
ENDBRANCH  35  38
ENDBRANCH  31  32
ENDBRANCH  30  31
ENDBRANCH  29  30
ENDBRANCH  28  29
ENDBRANCH  27  28
ENDBRANCH   6  27
TORSDOF 20
ENDMDL
MODEL 6
REMARK VINA RESULT:      -7.4      1.987      3.561
REMARK  Name = *****
REMARK                            x       y       z     vdW  Elec       q    Type
REMARK                         _______ _______ _______ _____ _____    ______ ____
ROOT
ATOM      1  N   LIG    1       25.444 -28.391   6.968  0.00  0.00    -0.237 N 
ATOM      2  C   LIG    1       25.794 -29.037   8.231  0.00  0.00    +0.046 A 
ATOM      3  C   LIG    1       25.946 -30.445   8.257  0.00  0.00    -0.025 A 
ATOM      4  C   LIG    1       26.710 -31.025   9.305  0.00  0.00    +0.009 A 
ATOM      5  C   LIG    1       27.256 -30.208  10.357  0.00  0.00    +0.046 A 
ATOM      6  C   LIG    1       26.932 -28.824  10.458  0.00  0.00    +0.122 A 
ATOM      7  C   LIG    1       25.380 -31.235   7.098  0.00  0.00    +0.046 C 
ATOM      8  C   LIG    1       24.171 -30.443   6.606  0.00  0.00    +0.101 C 
ATOM      9  C   LIG    1       26.126 -28.317   9.408  0.00  0.00    +0.069 A 
ATOM     10  C   LIG    1       24.615 -29.093   6.087  0.00  0.00    +0.223 C 
ATOM     11  O   LIG    1       24.178 -28.628   5.036  0.00  0.00    -0.275 OA
ENDROOT
BRANCH   1  12
ATOM     12  C   LIG    1       26.047 -27.139   6.411  0.00  0.00    +0.349 C 
BRANCH  12  13
ATOM     13  O   LIG    1       25.352 -25.954   6.774  0.00  0.00    -0.445 OA
BRANCH  13  14
ATOM     14  C   LIG    1       25.221 -25.051   5.728  0.00  0.00    +0.309 C 
ATOM     15  O   LIG    1       24.972 -25.290   4.626  0.00  0.00    -0.251 OA
BRANCH  14  16
ATOM     16  C   LIG    1       25.429 -23.662   6.254  0.00  0.00    +0.120 C 
BRANCH  16  17
ATOM     17  C   LIG    1       24.251 -22.990   6.990  0.00  0.00    +0.011 C 
BRANCH  17  18
ATOM     18  C   LIG    1       24.483 -21.610   7.620  0.00  0.00    +0.000 C 
BRANCH  18  19
ATOM     19  C   LIG    1       25.644 -21.296   8.568  0.00  0.00    +0.000 C 
BRANCH  19  20
ATOM     20  C   LIG    1       26.739 -20.401   8.064  0.00  0.00    -0.000 C 
BRANCH  20  21
ATOM     21  C   LIG    1       26.999 -20.407   6.566  0.00  0.00    -0.000 C 
BRANCH  21  22
ATOM     22  C   LIG    1       28.524 -20.417   6.283  0.00  0.00    -0.000 C 
BRANCH  22  23
ATOM     23  C   LIG    1       29.346 -20.878   7.529  0.00  0.00    -0.000 C 
BRANCH  23  24
ATOM     24  C   LIG    1       30.447 -19.905   8.038  0.00  0.00    -0.000 C 
BRANCH  24  26
ATOM     25  C   LIG    1       30.234 -17.791   9.512  0.00  0.00    +0.004 C 
ATOM     26  C   LIG    1       30.123 -18.381   8.094  0.00  0.00    -0.003 C 
ENDBRANCH  24  26
ENDBRANCH  23  24
ENDBRANCH  22  23
ENDBRANCH  21  22
ENDBRANCH  20  21
ENDBRANCH  19  20
ENDBRANCH  18  19
ENDBRANCH  17  18
ENDBRANCH  16  17
ENDBRANCH  14  16
ENDBRANCH  13  14
ENDBRANCH  12  13
ENDBRANCH   1  12
BRANCH   6  27
ATOM     27  O   LIG    1       27.524 -28.062  11.476  0.00  0.00    -0.492 OA
BRANCH  27  28
ATOM     28  C   LIG    1       26.903 -27.167  12.516  0.00  0.00    +0.229 C 
BRANCH  28  29
ATOM     29  C   LIG    1       25.572 -27.675  13.149  0.00  0.00    +0.042 C 
BRANCH  29  30
ATOM     30  C   LIG    1       24.549 -26.749  13.936  0.00  0.00    +0.019 C 
BRANCH  30  31
ATOM     31  C   LIG    1       23.110 -26.588  13.241  0.00  0.00    +0.085 C 
BRANCH  31  32
ATOM     32  N   LIG    1       21.873 -26.656  14.062  0.00  0.00    -0.299 NA
ATOM     33  C   LIG    1       20.706 -27.139  13.304  0.00  0.00    +0.103 C 
ATOM     34  C   LIG    1       20.671 -28.693  12.964  0.00  0.00    +0.120 C 
ATOM     35  N   LIG    1       21.678 -29.489  13.746  0.00  0.00    -0.326 N 
ATOM     36  C   LIG    1       21.566 -29.074  15.145  0.00  0.00    +0.120 C 
ATOM     37  C   LIG    1       21.950 -27.559  15.271  0.00  0.00    +0.103 C 
BRANCH  35  38
ATOM     38  C   LIG    1       22.869 -30.160  13.428  0.00  0.00    +0.050 A 
ATOM     39  C   LIG    1       23.211 -30.733  12.184  0.00  0.00    +0.080 A 
ATOM     40 CL   LIG    1       22.488 -30.173  10.712  0.00  0.00    -0.080 Cl
ATOM     41  C   LIG    1       24.190 -31.773  12.117  0.00  0.00    +0.061 A 
ATOM     42 CL   LIG    1       24.362 -32.811  10.734  0.00  0.00    -0.082 Cl
ATOM     43  C   LIG    1       25.000 -32.098  13.210  0.00  0.00    +0.021 A 
ATOM     44  C   LIG    1       24.820 -31.414  14.390  0.00  0.00    +0.003 A 
ATOM     45  C   LIG    1       23.763 -30.507  14.486  0.00  0.00    +0.025 A 
ENDBRANCH  35  38
ENDBRANCH  31  32
ENDBRANCH  30  31
ENDBRANCH  29  30
ENDBRANCH  28  29
ENDBRANCH  27  28
ENDBRANCH   6  27
TORSDOF 20
ENDMDL
MODEL 7
REMARK VINA RESULT:      -7.4      3.212      5.904
REMARK  Name = *****
REMARK                            x       y       z     vdW  Elec       q    Type
REMARK                         _______ _______ _______ _____ _____    ______ ____
ROOT
ATOM      1  N   LIG    1       23.582 -21.916   6.842  0.00  0.00    -0.237 N 
ATOM      2  C   LIG    1       23.795 -23.148   6.086  0.00  0.00    +0.046 A 
ATOM      3  C   LIG    1       24.371 -23.064   4.795  0.00  0.00    -0.025 A 
ATOM      4  C   LIG    1       24.996 -24.220   4.255  0.00  0.00    +0.009 A 
ATOM      5  C   LIG    1       24.979 -25.469   4.971  0.00  0.00    +0.046 A 
ATOM      6  C   LIG    1       24.221 -25.620   6.168  0.00  0.00    +0.122 A 
ATOM      7  C   LIG    1       24.388 -21.711   4.118  0.00  0.00    +0.046 C 
ATOM      8  C   LIG    1       23.151 -20.976   4.630  0.00  0.00    +0.101 C 
ATOM      9  C   LIG    1       23.582 -24.441   6.628  0.00  0.00    +0.069 A 
ATOM     10  C   LIG    1       23.261 -20.760   6.124  0.00  0.00    +0.223 C 
ATOM     11  O   LIG    1       22.973 -19.684   6.645  0.00  0.00    -0.275 OA
ENDROOT
BRANCH   1  12
ATOM     12  C   LIG    1       23.878 -21.700   8.294  0.00  0.00    +0.349 C 
BRANCH  12  13
ATOM     13  O   LIG    1       25.137 -22.214   8.707  0.00  0.00    -0.445 OA
BRANCH  13  14
ATOM     14  C   LIG    1       26.191 -21.344   8.466  0.00  0.00    +0.309 C 
ATOM     15  O   LIG    1       26.460 -20.389   9.059  0.00  0.00    -0.251 OA
BRANCH  14  16
ATOM     16  C   LIG    1       26.983 -21.850   7.297  0.00  0.00    +0.120 C 
BRANCH  16  17
ATOM     17  C   LIG    1       28.273 -21.090   6.924  0.00  0.00    +0.011 C 
BRANCH  17  18
ATOM     18  C   LIG    1       28.173 -19.950   5.901  0.00  0.00    +0.000 C 
BRANCH  18  19
ATOM     19  C   LIG    1       29.246 -18.870   5.730  0.00  0.00    +0.000 C 
BRANCH  19  20
ATOM     20  C   LIG    1       29.957 -18.386   6.960  0.00  0.00    -0.000 C 
BRANCH  20  21
ATOM     21  C   LIG    1       31.185 -19.169   7.398  0.00  0.00    -0.000 C 
BRANCH  21  22
ATOM     22  C   LIG    1       31.294 -19.179   8.946  0.00  0.00    -0.000 C 
BRANCH  22  23
ATOM     23  C   LIG    1       30.350 -18.123   9.605  0.00  0.00    -0.000 C 
BRANCH  23  24
ATOM     24  C   LIG    1       30.717 -17.659  11.042  0.00  0.00    -0.000 C 
BRANCH  24  26
ATOM     25  C   LIG    1       32.504 -16.036  10.113  0.00  0.00    +0.004 C 
ATOM     26  C   LIG    1       31.462 -16.300  11.216  0.00  0.00    -0.003 C 
ENDBRANCH  24  26
ENDBRANCH  23  24
ENDBRANCH  22  23
ENDBRANCH  21  22
ENDBRANCH  20  21
ENDBRANCH  19  20
ENDBRANCH  18  19
ENDBRANCH  17  18
ENDBRANCH  16  17
ENDBRANCH  14  16
ENDBRANCH  13  14
ENDBRANCH  12  13
ENDBRANCH   1  12
BRANCH   6  27
ATOM     27  O   LIG    1       24.272 -26.844   6.852  0.00  0.00    -0.492 OA
BRANCH  27  28
ATOM     28  C   LIG    1       25.311 -27.934   6.829  0.00  0.00    +0.229 C 
BRANCH  28  29
ATOM     29  C   LIG    1       25.707 -28.531   8.214  0.00  0.00    +0.042 C 
BRANCH  29  30
ATOM     30  C   LIG    1       25.306 -29.987   8.705  0.00  0.00    +0.019 C 
BRANCH  30  31
ATOM     31  C   LIG    1       23.787 -30.139   9.203  0.00  0.00    +0.085 C 
BRANCH  31  32
ATOM     32  N   LIG    1       23.274 -31.464   9.641  0.00  0.00    -0.299 NA
ATOM     33  C   LIG    1       24.093 -32.075  10.702  0.00  0.00    +0.103 C 
ATOM     34  C   LIG    1       23.959 -31.446  12.156  0.00  0.00    +0.120 C 
ATOM     35  N   LIG    1       22.776 -30.528  12.294  0.00  0.00    -0.326 N 
ATOM     36  C   LIG    1       21.621 -31.221  11.719  0.00  0.00    +0.120 C 
ATOM     37  C   LIG    1       21.867 -31.462  10.190  0.00  0.00    +0.103 C 
BRANCH  35  38
ATOM     38  C   LIG    1       22.613 -29.142  12.440  0.00  0.00    +0.050 A 
ATOM     39  C   LIG    1       23.629 -28.191  12.680  0.00  0.00    +0.080 A 
ATOM     40 CL   LIG    1       25.272 -28.505  12.229  0.00  0.00    -0.080 Cl
ATOM     41  C   LIG    1       23.309 -26.933  13.278  0.00  0.00    +0.061 A 
ATOM     42 CL   LIG    1       24.511 -25.899  13.990  0.00  0.00    -0.082 Cl
ATOM     43  C   LIG    1       21.986 -26.502  13.431  0.00  0.00    +0.021 A 
ATOM     44  C   LIG    1       20.971 -27.334  13.022  0.00  0.00    +0.003 A 
ATOM     45  C   LIG    1       21.292 -28.619  12.579  0.00  0.00    +0.025 A 
ENDBRANCH  35  38
ENDBRANCH  31  32
ENDBRANCH  30  31
ENDBRANCH  29  30
ENDBRANCH  28  29
ENDBRANCH  27  28
ENDBRANCH   6  27
TORSDOF 20
ENDMDL
MODEL 8
REMARK VINA RESULT:      -7.4      1.789      3.508
REMARK  Name = *****
REMARK                            x       y       z     vdW  Elec       q    Type
REMARK                         _______ _______ _______ _____ _____    ______ ____
ROOT
ATOM      1  N   LIG    1       25.349 -28.670   6.881  0.00  0.00    -0.237 N 
ATOM      2  C   LIG    1       25.725 -29.224   8.180  0.00  0.00    +0.046 A 
ATOM      3  C   LIG    1       25.870 -30.627   8.305  0.00  0.00    -0.025 A 
ATOM      4  C   LIG    1       26.656 -31.134   9.375  0.00  0.00    +0.009 A 
ATOM      5  C   LIG    1       27.229 -30.246  10.352  0.00  0.00    +0.046 A 
ATOM      6  C   LIG    1       26.915 -28.857  10.359  0.00  0.00    +0.122 A 
ATOM      7  C   LIG    1       25.274 -31.497   7.220  0.00  0.00    +0.046 C 
ATOM      8  C   LIG    1       24.058 -30.734   6.699  0.00  0.00    +0.101 C 
ATOM      9  C   LIG    1       26.087 -28.423   9.292  0.00  0.00    +0.069 A 
ATOM     10  C   LIG    1       24.496 -29.429   6.073  0.00  0.00    +0.223 C 
ATOM     11  O   LIG    1       24.038 -29.040   5.000  0.00  0.00    -0.275 OA
ENDROOT
BRANCH   1  12
ATOM     12  C   LIG    1       25.945 -27.466   6.220  0.00  0.00    +0.349 C 
BRANCH  12  13
ATOM     13  O   LIG    1       25.386 -26.234   6.655  0.00  0.00    -0.445 OA
BRANCH  13  14
ATOM     14  C   LIG    1       25.221 -25.313   5.630  0.00  0.00    +0.309 C 
ATOM     15  O   LIG    1       25.220 -25.524   4.494  0.00  0.00    -0.251 OA
BRANCH  14  16
ATOM     16  C   LIG    1       25.009 -23.953   6.226  0.00  0.00    +0.120 C 
BRANCH  16  17
ATOM     17  C   LIG    1       26.080 -23.425   7.203  0.00  0.00    +0.011 C 
BRANCH  17  18
ATOM     18  C   LIG    1       25.646 -22.420   8.279  0.00  0.00    +0.000 C 
BRANCH  18  19
ATOM     19  C   LIG    1       25.531 -20.912   8.033  0.00  0.00    +0.000 C 
BRANCH  19  20
ATOM     20  C   LIG    1       24.269 -20.399   7.403  0.00  0.00    -0.000 C 
BRANCH  20  21
ATOM     21  C   LIG    1       23.188 -21.422   7.094  0.00  0.00    -0.000 C 
BRANCH  21  22
ATOM     22  C   LIG    1       22.542 -21.125   5.715  0.00  0.00    -0.000 C 
BRANCH  22  23
ATOM     23  C   LIG    1       22.611 -19.606   5.353  0.00  0.00    -0.000 C 
BRANCH  23  24
ATOM     24  C   LIG    1       23.098 -19.252   3.920  0.00  0.00    -0.000 C 
BRANCH  24  26
ATOM     25  C   LIG    1       25.527 -20.129   4.065  0.00  0.00    +0.004 C 
ATOM     26  C   LIG    1       24.611 -18.944   3.704  0.00  0.00    -0.003 C 
ENDBRANCH  24  26
ENDBRANCH  23  24
ENDBRANCH  22  23
ENDBRANCH  21  22
ENDBRANCH  20  21
ENDBRANCH  19  20
ENDBRANCH  18  19
ENDBRANCH  17  18
ENDBRANCH  16  17
ENDBRANCH  14  16
ENDBRANCH  13  14
ENDBRANCH  12  13
ENDBRANCH   1  12
BRANCH   6  27
ATOM     27  O   LIG    1       27.534 -28.026  11.304  0.00  0.00    -0.492 OA
BRANCH  27  28
ATOM     28  C   LIG    1       26.939 -27.103  12.334  0.00  0.00    +0.229 C 
BRANCH  28  29
ATOM     29  C   LIG    1       25.772 -27.688  13.186  0.00  0.00    +0.042 C 
BRANCH  29  30
ATOM     30  C   LIG    1       24.738 -26.807  14.008  0.00  0.00    +0.019 C 
BRANCH  30  31
ATOM     31  C   LIG    1       23.329 -26.560  13.277  0.00  0.00    +0.085 C 
BRANCH  31  32
ATOM     32  N   LIG    1       22.068 -26.579  14.064  0.00  0.00    -0.299 NA
ATOM     33  C   LIG    1       20.891 -26.936  13.254  0.00  0.00    +0.103 C 
ATOM     34  C   LIG    1       20.753 -28.464  12.832  0.00  0.00    +0.120 C 
ATOM     35  N   LIG    1       21.678 -29.370  13.596  0.00  0.00    -0.326 N 
ATOM     36  C   LIG    1       21.557 -29.018  15.012  0.00  0.00    +0.120 C 
ATOM     37  C   LIG    1       22.046 -27.544  15.226  0.00  0.00    +0.103 C 
BRANCH  35  38
ATOM     38  C   LIG    1       22.826 -30.109  13.273  0.00  0.00    +0.050 A 
ATOM     39  C   LIG    1       23.091 -30.772  12.054  0.00  0.00    +0.080 A 
ATOM     40 CL   LIG    1       22.327 -30.274  10.581  0.00  0.00    -0.080 Cl
ATOM     41  C   LIG    1       24.023 -31.856  12.013  0.00  0.00    +0.061 A 
ATOM     42 CL   LIG    1       24.093 -32.983  10.693  0.00  0.00    -0.082 Cl
ATOM     43  C   LIG    1       24.866 -32.146  13.091  0.00  0.00    +0.021 A 
ATOM     44  C   LIG    1       24.766 -31.385  14.231  0.00  0.00    +0.003 A 
ATOM     45  C   LIG    1       23.751 -30.429  14.313  0.00  0.00    +0.025 A 
ENDBRANCH  35  38
ENDBRANCH  31  32
ENDBRANCH  30  31
ENDBRANCH  29  30
ENDBRANCH  28  29
ENDBRANCH  27  28
ENDBRANCH   6  27
TORSDOF 20
ENDMDL
MODEL 9
REMARK VINA RESULT:      -7.2      4.042      9.647
REMARK  Name = *****
REMARK                            x       y       z     vdW  Elec       q    Type
REMARK                         _______ _______ _______ _____ _____    ______ ____
ROOT
ATOM      1  N   LIG    1       24.493 -31.319  10.857  0.00  0.00    -0.237 N 
ATOM      2  C   LIG    1       24.897 -30.132  10.106  0.00  0.00    +0.046 A 
ATOM      3  C   LIG    1       25.908 -29.299  10.643  0.00  0.00    -0.025 A 
ATOM      4  C   LIG    1       26.620 -28.443   9.760  0.00  0.00    +0.009 A 
ATOM      5  C   LIG    1       26.273 -28.370   8.365  0.00  0.00    +0.046 A 
ATOM      6  C   LIG    1       25.123 -29.041   7.857  0.00  0.00    +0.122 A 
ATOM      7  C   LIG    1       26.247 -29.457  12.109  0.00  0.00    +0.046 C 
ATOM      8  C   LIG    1       24.952 -29.898  12.788  0.00  0.00    +0.101 C 
ATOM      9  C   LIG    1       24.428 -29.840   8.800  0.00  0.00    +0.069 A 
ATOM     10  C   LIG    1       24.522 -31.246  12.253  0.00  0.00    +0.223 C 
ATOM     11  O   LIG    1       24.125 -32.141  12.998  0.00  0.00    -0.275 OA
ENDROOT
BRANCH   1  12
ATOM     12  C   LIG    1       24.250 -32.686  10.298  0.00  0.00    +0.349 C 
BRANCH  12  13
ATOM     13  O   LIG    1       22.997 -32.826   9.641  0.00  0.00    -0.445 OA
BRANCH  13  14
ATOM     14  C   LIG    1       21.933 -32.987  10.517  0.00  0.00    +0.309 C 
ATOM     15  O   LIG    1       21.826 -33.780  11.350  0.00  0.00    -0.251 OA
BRANCH  14  16
ATOM     16  C   LIG    1       20.909 -31.926  10.239  0.00  0.00    +0.120 C 
BRANCH  16  17
ATOM     17  C   LIG    1       21.105 -30.549  10.906  0.00  0.00    +0.011 C 
BRANCH  17  18
ATOM     18  C   LIG    1       20.624 -30.369  12.353  0.00  0.00    +0.000 C 
BRANCH  18  19
ATOM     19  C   LIG    1       20.851 -29.092  13.168  0.00  0.00    +0.000 C 
BRANCH  19  20
ATOM     20  C   LIG    1       21.825 -28.082  12.634  0.00  0.00    -0.000 C 
BRANCH  20  21
ATOM     21  C   LIG    1       21.799 -26.699  13.264  0.00  0.00    -0.000 C 
BRANCH  21  22
ATOM     22  C   LIG    1       23.034 -26.501  14.183  0.00  0.00    -0.000 C 
BRANCH  22  23
ATOM     23  C   LIG    1       24.360 -26.399  13.362  0.00  0.00    -0.000 C 
BRANCH  23  24
ATOM     24  C   LIG    1       25.354 -25.279  13.780  0.00  0.00    -0.000 C 
BRANCH  24  26
ATOM     25  C   LIG    1       27.847 -25.029  14.418  0.00  0.00    +0.004 C 
ATOM     26  C   LIG    1       26.837 -25.388  13.312  0.00  0.00    -0.003 C 
ENDBRANCH  24  26
ENDBRANCH  23  24
ENDBRANCH  22  23
ENDBRANCH  21  22
ENDBRANCH  20  21
ENDBRANCH  19  20
ENDBRANCH  18  19
ENDBRANCH  17  18
ENDBRANCH  16  17
ENDBRANCH  14  16
ENDBRANCH  13  14
ENDBRANCH  12  13
ENDBRANCH   1  12
BRANCH   6  27
ATOM     27  O   LIG    1       24.852 -28.976   6.482  0.00  0.00    -0.492 OA
BRANCH  27  28
ATOM     28  C   LIG    1       24.396 -27.821   5.629  0.00  0.00    +0.229 C 
BRANCH  28  29
ATOM     29  C   LIG    1       25.381 -26.617   5.524  0.00  0.00    +0.042 C 
BRANCH  29  30
ATOM     30  C   LIG    1       25.110 -25.318   4.652  0.00  0.00    +0.019 C 
BRANCH  30  31
ATOM     31  C   LIG    1       25.076 -23.942   5.481  0.00  0.00    +0.085 C 
BRANCH  31  32
ATOM     32  N   LIG    1       24.685 -23.945   6.915  0.00  0.00    -0.299 NA
ATOM     33  C   LIG    1       25.632 -23.209   7.770  0.00  0.00    +0.103 C 
ATOM     34  C   LIG    1       25.595 -21.622   7.672  0.00  0.00    +0.120 C 
ATOM     35  N   LIG    1       24.377 -21.105   6.959  0.00  0.00    -0.326 N 
ATOM     36  C   LIG    1       23.218 -21.802   7.520  0.00  0.00    +0.120 C 
ATOM     37  C   LIG    1       23.336 -23.335   7.218  0.00  0.00    +0.103 C 
BRANCH  35  38
ATOM     38  C   LIG    1       24.145 -20.489   5.720  0.00  0.00    +0.050 A 
ATOM     39  C   LIG    1       25.103 -19.859   4.895  0.00  0.00    +0.080 A 
ATOM     40 CL   LIG    1       26.782 -20.280   4.993  0.00  0.00    -0.080 Cl
ATOM     41  C   LIG    1       24.695 -18.878   3.939  0.00  0.00    +0.061 A 
ATOM     42 CL   LIG    1       25.809 -17.766   3.202  0.00  0.00    -0.082 Cl
ATOM     43  C   LIG    1       23.348 -18.673   3.619  0.00  0.00    +0.021 A 
ATOM     44  C   LIG    1       22.395 -19.418   4.272  0.00  0.00    +0.003 A 
ATOM     45  C   LIG    1       22.797 -20.263   5.308  0.00  0.00    +0.025 A 
ENDBRANCH  35  38
ENDBRANCH  31  32
ENDBRANCH  30  31
ENDBRANCH  29  30
ENDBRANCH  28  29
ENDBRANCH  27  28
ENDBRANCH   6  27
TORSDOF 20
ENDMDL
