MODEL 1
REMARK VINA RESULT:     -10.3      0.000      0.000
REMARK  Name = *****
REMARK                            x       y       z     vdW  Elec       q    Type
REMARK                         _______ _______ _______ _____ _____    ______ ____
ROOT
ATOM      1  C   LIG    1       24.145 -20.380   5.824  0.00  0.00    +0.080 A 
ATOM      2  C   LIG    1       25.055 -19.958   4.828  0.00  0.00    +0.045 A 
ATOM      3  C   LIG    1       24.542 -19.184   3.771  0.00  0.00    +0.024 A 
ATOM      4  C   LIG    1       23.208 -18.767   3.745  0.00  0.00    +0.002 A 
ATOM      5  C   LIG    1       22.335 -19.161   4.751  0.00  0.00    +0.001 A 
ATOM      6  C   LIG    1       22.797 -19.979   5.778  0.00  0.00    +0.017 A 
ENDROOT
BRANCH   1   8
ATOM      7  O   LIG    1       24.849 -20.747   8.078  0.00  0.00    -0.245 OA
ATOM      8  C   LIG    1       24.518 -21.208   6.999  0.00  0.00    +0.341 C 
BRANCH   8   9
ATOM      9  O   LIG    1       24.588 -22.512   6.632  0.00  0.00    -0.460 OA
BRANCH   9  10
ATOM     10  C   LIG    1       23.404 -23.292   6.890  0.00  0.00    +0.247 C 
BRANCH  10  11
ATOM     11  C   LIG    1       23.685 -24.761   6.519  0.00  0.00    +0.125 C 
BRANCH  11  12
ATOM     12  N   LIG    1       24.990 -25.023   5.891  0.00  0.00    -0.296 NA
ATOM     13  C   LIG    1       25.973 -25.655   6.789  0.00  0.00    +0.103 C 
ATOM     14  C   LIG    1       25.650 -27.104   7.205  0.00  0.00    +0.120 C 
ATOM     15  N   LIG    1       25.418 -27.983   6.036  0.00  0.00    -0.327 N 
ATOM     16  C   LIG    1       24.509 -27.400   5.018  0.00  0.00    +0.120 C 
ATOM     17  C   LIG    1       24.844 -25.913   4.714  0.00  0.00    +0.103 C 
BRANCH  15  18
ATOM     18  C   LIG    1       25.377 -29.370   6.261  0.00  0.00    +0.030 A 
ATOM     19  C   LIG    1       25.491 -30.303   5.216  0.00  0.00    +0.035 A 
ATOM     20  C   LIG    1       25.509 -31.699   5.433  0.00  0.00    +0.057 A 
ATOM     21  C   LIG    1       25.421 -32.189   6.740  0.00  0.00    +0.012 A 
ATOM     22  C   LIG    1       25.317 -31.298   7.798  0.00  0.00    +0.002 A 
ATOM     23  C   LIG    1       25.290 -29.920   7.553  0.00  0.00    +0.023 A 
BRANCH  20  24
ATOM     24  C   LIG    1       25.627 -32.640   4.263  0.00  0.00    +0.417 C 
ATOM     25  F   LIG    1       25.689 -31.988   3.070  0.00  0.00    -0.166 F 
ATOM     26  F   LIG    1       24.565 -33.489   4.169  0.00  0.00    -0.166 F 
ATOM     27  F   LIG    1       26.734 -33.436   4.309  0.00  0.00    -0.166 F 
ENDBRANCH  20  24
ENDBRANCH  15  18
ENDBRANCH  11  12
ENDBRANCH  10  11
ENDBRANCH   9  10
ENDBRANCH   8   9
ENDBRANCH   1   8
BRANCH   2  28
ATOM     28  N   LIG    1       26.403 -20.412   4.794  0.00  0.00    -0.313 N 
ATOM     29  H   LIG    1       26.470 -21.370   5.149  0.00  0.00    +0.152 HD
BRANCH  28  30
ATOM     30  C   LIG    1       27.588 -19.709   5.157  0.00  0.00    +0.042 A 
ATOM     31  C   LIG    1       28.454 -20.243   6.149  0.00  0.00    +0.021 A 
ATOM     32  C   LIG    1       29.582 -19.477   6.513  0.00  0.00    +0.073 A 
ATOM     33  C   LIG    1       30.446 -19.966   7.483  0.00  0.00    +0.040 A 
ATOM     34  C   LIG    1       30.237 -21.196   8.124  0.00  0.00    +0.057 A 
ATOM     35  C   LIG    1       29.130 -21.963   7.753  0.00  0.00    +0.013 A 
ATOM     36  N   LIG    1       29.858 -18.281   5.972  0.00  0.00    -0.255 NA
ATOM     37  C   LIG    1       29.003 -17.788   5.056  0.00  0.00    +0.113 A 
ATOM     38  C   LIG    1       28.250 -21.494   6.774  0.00  0.00    +0.012 A 
ATOM     39  C   LIG    1       27.863 -18.444   4.637  0.00  0.00    +0.043 A 
BRANCH  34  40
ATOM     40  C   LIG    1       31.178 -21.682   9.198  0.00  0.00    +0.417 C 
ATOM     41  F   LIG    1       31.980 -20.692   9.677  0.00  0.00    -0.166 F 
ATOM     42  F   LIG    1       32.017 -22.655   8.745  0.00  0.00    -0.166 F 
ATOM     43  F   LIG    1       30.547 -22.211  10.282  0.00  0.00    -0.166 F 
ENDBRANCH  34  40
ENDBRANCH  28  30
ENDBRANCH   2  28
TORSDOF 10
ENDMDL
MODEL 2
REMARK VINA RESULT:     -10.3      2.691      3.225
REMARK  Name = *****
REMARK                            x       y       z     vdW  Elec       q    Type
REMARK                         _______ _______ _______ _____ _____    ______ ____
ROOT
ATOM      1  C   LIG    1       23.980 -20.385   5.837  0.00  0.00    +0.080 A 
ATOM      2  C   LIG    1       24.965 -19.994   4.901  0.00  0.00    +0.045 A 
ATOM      3  C   LIG    1       24.543 -19.208   3.814  0.00  0.00    +0.024 A 
ATOM      4  C   LIG    1       23.227 -18.750   3.702  0.00  0.00    +0.002 A 
ATOM      5  C   LIG    1       22.280 -19.116   4.650  0.00  0.00    +0.001 A 
ATOM      6  C   LIG    1       22.650 -19.945   5.704  0.00  0.00    +0.017 A 
ENDROOT
BRANCH   1   8
ATOM      7  O   LIG    1       24.928 -20.854   7.980  0.00  0.00    -0.245 OA
ATOM      8  C   LIG    1       24.252 -21.221   7.034  0.00  0.00    +0.341 C 
BRANCH   8   9
ATOM      9  O   LIG    1       23.778 -22.475   6.830  0.00  0.00    -0.460 OA
BRANCH   9  10
ATOM     10  C   LIG    1       24.780 -23.497   6.657  0.00  0.00    +0.247 C 
BRANCH  10  11
ATOM     11  C   LIG    1       24.096 -24.788   6.167  0.00  0.00    +0.125 C 
BRANCH  11  12
ATOM     12  N   LIG    1       24.947 -25.708   5.395  0.00  0.00    -0.296 NA
ATOM     13  C   LIG    1       26.274 -25.941   5.991  0.00  0.00    +0.103 C 
ATOM     14  C   LIG    1       26.274 -26.725   7.318  0.00  0.00    +0.120 C 
ATOM     15  N   LIG    1       25.553 -28.015   7.206  0.00  0.00    -0.327 N 
ATOM     16  C   LIG    1       24.235 -27.909   6.533  0.00  0.00    +0.120 C 
ATOM     17  C   LIG    1       24.298 -27.034   5.249  0.00  0.00    +0.103 C 
BRANCH  15  18
ATOM     18  C   LIG    1       25.704 -28.938   8.254  0.00  0.00    +0.030 A 
ATOM     19  C   LIG    1       26.530 -28.685   9.364  0.00  0.00    +0.035 A 
ATOM     20  C   LIG    1       26.647 -29.578  10.452  0.00  0.00    +0.057 A 
ATOM     21  C   LIG    1       25.909 -30.767  10.443  0.00  0.00    +0.012 A 
ATOM     22  C   LIG    1       25.078 -31.047   9.369  0.00  0.00    +0.002 A 
ATOM     23  C   LIG    1       24.989 -30.149   8.300  0.00  0.00    +0.023 A 
BRANCH  20  24
ATOM     24  C   LIG    1       27.556 -29.242  11.605  0.00  0.00    +0.417 C 
ATOM     25  F   LIG    1       28.867 -29.484  11.327  0.00  0.00    -0.166 F 
ATOM     26  F   LIG    1       27.271 -29.971  12.721  0.00  0.00    -0.166 F 
ATOM     27  F   LIG    1       27.493 -27.936  11.990  0.00  0.00    -0.166 F 
ENDBRANCH  20  24
ENDBRANCH  15  18
ENDBRANCH  11  12
ENDBRANCH  10  11
ENDBRANCH   9  10
ENDBRANCH   8   9
ENDBRANCH   1   8
BRANCH   2  28
ATOM     28  N   LIG    1       26.297 -20.488   4.954  0.00  0.00    -0.313 N 
ATOM     29  H   LIG    1       26.327 -21.395   5.428  0.00  0.00    +0.152 HD
BRANCH  28  30
ATOM     30  C   LIG    1       27.498 -19.780   5.252  0.00  0.00    +0.042 A 
ATOM     31  C   LIG    1       28.398 -20.287   6.226  0.00  0.00    +0.021 A 
ATOM     32  C   LIG    1       29.542 -19.515   6.525  0.00  0.00    +0.073 A 
ATOM     33  C   LIG    1       30.439 -19.978   7.477  0.00  0.00    +0.040 A 
ATOM     34  C   LIG    1       30.250 -21.188   8.162  0.00  0.00    +0.057 A 
ATOM     35  C   LIG    1       29.127 -21.961   7.856  0.00  0.00    +0.013 A 
ATOM     36  N   LIG    1       29.802 -18.338   5.938  0.00  0.00    -0.255 NA
ATOM     37  C   LIG    1       28.914 -17.868   5.040  0.00  0.00    +0.113 A 
ATOM     38  C   LIG    1       28.213 -21.518   6.897  0.00  0.00    +0.012 A 
ATOM     39  C   LIG    1       27.758 -18.532   4.684  0.00  0.00    +0.043 A 
BRANCH  34  40
ATOM     40  C   LIG    1       31.228 -21.646   9.214  0.00  0.00    +0.417 C 
ATOM     41  F   LIG    1       32.102 -22.578   8.744  0.00  0.00    -0.166 F 
ATOM     42  F   LIG    1       30.606 -22.223  10.280  0.00  0.00    -0.166 F 
ATOM     43  F   LIG    1       31.991 -20.642   9.728  0.00  0.00    -0.166 F 
ENDBRANCH  34  40
ENDBRANCH  28  30
ENDBRANCH   2  28
TORSDOF 10
ENDMDL
MODEL 3
REMARK VINA RESULT:     -10.3      2.166      2.633
REMARK  Name = *****
REMARK                            x       y       z     vdW  Elec       q    Type
REMARK                         _______ _______ _______ _____ _____    ______ ____
ROOT
ATOM      1  C   LIG    1       24.125 -20.546   5.744  0.00  0.00    +0.080 A 
ATOM      2  C   LIG    1       25.039 -19.982   4.826  0.00  0.00    +0.045 A 
ATOM      3  C   LIG    1       24.525 -19.086   3.872  0.00  0.00    +0.024 A 
ATOM      4  C   LIG    1       23.183 -18.692   3.880  0.00  0.00    +0.002 A 
ATOM      5  C   LIG    1       22.305 -19.231   4.812  0.00  0.00    +0.001 A 
ATOM      6  C   LIG    1       22.769 -20.167   5.730  0.00  0.00    +0.017 A 
ENDROOT
BRANCH   1   8
ATOM      7  O   LIG    1       24.322 -21.318   7.998  0.00  0.00    -0.245 OA
ATOM      8  C   LIG    1       24.499 -21.514   6.807  0.00  0.00    +0.341 C 
BRANCH   8   9
ATOM      9  O   LIG    1       25.196 -22.541   6.261  0.00  0.00    -0.460 OA
BRANCH   9  10
ATOM     10  C   LIG    1       24.937 -23.839   6.833  0.00  0.00    +0.247 C 
BRANCH  10  11
ATOM     11  C   LIG    1       24.728 -24.853   5.692  0.00  0.00    +0.125 C 
BRANCH  11  12
ATOM     12  N   LIG    1       25.899 -25.673   5.343  0.00  0.00    -0.296 NA
ATOM     13  C   LIG    1       26.569 -26.288   6.503  0.00  0.00    +0.103 C 
ATOM     14  C   LIG    1       25.760 -27.382   7.228  0.00  0.00    +0.120 C 
ATOM     15  N   LIG    1       25.304 -28.446   6.304  0.00  0.00    -0.327 N 
ATOM     16  C   LIG    1       24.694 -27.932   5.052  0.00  0.00    +0.120 C 
ATOM     17  C   LIG    1       25.521 -26.775   4.426  0.00  0.00    +0.103 C 
BRANCH  15  18
ATOM     18  C   LIG    1       24.792 -29.625   6.871  0.00  0.00    +0.030 A 
ATOM     19  C   LIG    1       24.243 -29.658   8.165  0.00  0.00    +0.035 A 
ATOM     20  C   LIG    1       23.673 -30.822   8.727  0.00  0.00    +0.057 A 
ATOM     21  C   LIG    1       23.637 -31.999   7.971  0.00  0.00    +0.012 A 
ATOM     22  C   LIG    1       24.160 -32.002   6.687  0.00  0.00    +0.002 A 
ATOM     23  C   LIG    1       24.728 -30.837   6.159  0.00  0.00    +0.023 A 
BRANCH  20  24
ATOM     24  C   LIG    1       23.110 -30.784  10.123  0.00  0.00    +0.417 C 
ATOM     25  F   LIG    1       23.669 -29.806  10.888  0.00  0.00    -0.166 F 
ATOM     26  F   LIG    1       23.317 -31.949  10.799  0.00  0.00    -0.166 F 
ATOM     27  F   LIG    1       21.764 -30.566  10.166  0.00  0.00    -0.166 F 
ENDBRANCH  20  24
ENDBRANCH  15  18
ENDBRANCH  11  12
ENDBRANCH  10  11
ENDBRANCH   9  10
ENDBRANCH   8   9
ENDBRANCH   1   8
BRANCH   2  28
ATOM     28  N   LIG    1       26.396 -20.403   4.754  0.00  0.00    -0.313 N 
ATOM     29  H   LIG    1       26.490 -21.372   5.072  0.00  0.00    +0.152 HD
BRANCH  28  30
ATOM     30  C   LIG    1       27.571 -19.687   5.126  0.00  0.00    +0.042 A 
ATOM     31  C   LIG    1       28.438 -20.213   6.120  0.00  0.00    +0.021 A 
ATOM     32  C   LIG    1       29.555 -19.435   6.493  0.00  0.00    +0.073 A 
ATOM     33  C   LIG    1       30.420 -19.916   7.466  0.00  0.00    +0.040 A 
ATOM     34  C   LIG    1       30.222 -21.150   8.102  0.00  0.00    +0.057 A 
ATOM     35  C   LIG    1       29.126 -21.929   7.723  0.00  0.00    +0.013 A 
ATOM     36  N   LIG    1       29.820 -18.234   5.956  0.00  0.00    -0.255 NA
ATOM     37  C   LIG    1       28.964 -17.749   5.037  0.00  0.00    +0.113 A 
ATOM     38  C   LIG    1       28.246 -21.468   6.742  0.00  0.00    +0.012 A 
ATOM     39  C   LIG    1       27.834 -18.417   4.610  0.00  0.00    +0.043 A 
BRANCH  34  40
ATOM     40  C   LIG    1       31.163 -21.628   9.179  0.00  0.00    +0.417 C 
ATOM     41  F   LIG    1       30.509 -22.179  10.238  0.00  0.00    -0.166 F 
ATOM     42  F   LIG    1       31.915 -20.615   9.693  0.00  0.00    -0.166 F 
ATOM     43  F   LIG    1       32.050 -22.570   8.755  0.00  0.00    -0.166 F 
ENDBRANCH  34  40
ENDBRANCH  28  30
ENDBRANCH   2  28
TORSDOF 10
ENDMDL
MODEL 4
REMARK VINA RESULT:     -10.3      5.346     10.633
REMARK  Name = *****
REMARK                            x       y       z     vdW  Elec       q    Type
REMARK                         _______ _______ _______ _____ _____    ______ ____
ROOT
ATOM      1  C   LIG    1       25.312 -31.850   7.495  0.00  0.00    +0.080 A 
ATOM      2  C   LIG    1       26.182 -32.026   8.595  0.00  0.00    +0.045 A 
ATOM      3  C   LIG    1       27.394 -32.699   8.358  0.00  0.00    +0.024 A 
ATOM      4  C   LIG    1       27.774 -33.100   7.073  0.00  0.00    +0.002 A 
ATOM      5  C   LIG    1       26.922 -32.887   5.997  0.00  0.00    +0.001 A 
ATOM      6  C   LIG    1       25.688 -32.280   6.209  0.00  0.00    +0.017 A 
ENDROOT
BRANCH   1   8
ATOM      7  O   LIG    1       23.090 -31.525   8.313  0.00  0.00    -0.245 OA
ATOM      8  C   LIG    1       23.993 -31.171   7.574  0.00  0.00    +0.341 C 
BRANCH   8   9
ATOM      9  O   LIG    1       23.908 -30.230   6.601  0.00  0.00    -0.460 OA
BRANCH   9  10
ATOM     10  C   LIG    1       24.464 -28.943   6.934  0.00  0.00    +0.247 C 
BRANCH  10  11
ATOM     11  C   LIG    1       24.437 -28.050   5.679  0.00  0.00    +0.125 C 
BRANCH  11  12
ATOM     12  N   LIG    1       25.724 -27.445   5.297  0.00  0.00    -0.296 NA
ATOM     13  C   LIG    1       25.608 -26.368   4.298  0.00  0.00    +0.103 C 
ATOM     14  C   LIG    1       24.914 -25.083   4.790  0.00  0.00    +0.120 C 
ATOM     15  N   LIG    1       25.539 -24.545   6.021  0.00  0.00    -0.327 N 
ATOM     16  C   LIG    1       25.787 -25.570   7.065  0.00  0.00    +0.120 C 
ATOM     17  C   LIG    1       26.410 -26.868   6.479  0.00  0.00    +0.103 C 
BRANCH  15  18
ATOM     18  C   LIG    1       25.179 -23.247   6.420  0.00  0.00    +0.030 A 
ATOM     19  C   LIG    1       24.239 -22.478   5.711  0.00  0.00    +0.035 A 
ATOM     20  C   LIG    1       23.824 -21.194   6.132  0.00  0.00    +0.057 A 
ATOM     21  C   LIG    1       24.356 -20.656   7.309  0.00  0.00    +0.012 A 
ATOM     22  C   LIG    1       25.279 -21.389   8.039  0.00  0.00    +0.002 A 
ATOM     23  C   LIG    1       25.680 -22.654   7.593  0.00  0.00    +0.023 A 
BRANCH  20  24
ATOM     24  C   LIG    1       22.816 -20.426   5.318  0.00  0.00    +0.417 C 
ATOM     25  F   LIG    1       21.680 -21.137   5.083  0.00  0.00    -0.166 F 
ATOM     26  F   LIG    1       23.297 -20.077   4.092  0.00  0.00    -0.166 F 
ATOM     27  F   LIG    1       22.413 -19.261   5.902  0.00  0.00    -0.166 F 
ENDBRANCH  20  24
ENDBRANCH  15  18
ENDBRANCH  11  12
ENDBRANCH  10  11
ENDBRANCH   9  10
ENDBRANCH   8   9
ENDBRANCH   1   8
BRANCH   2  28
ATOM     28  N   LIG    1       25.802 -31.683   9.922  0.00  0.00    -0.313 N 
ATOM     29  H   LIG    1       24.808 -31.876  10.074  0.00  0.00    +0.152 HD
BRANCH  28  30
ATOM     30  C   LIG    1       26.163 -30.531  10.682  0.00  0.00    +0.042 A 
ATOM     31  C   LIG    1       25.158 -29.767  11.332  0.00  0.00    +0.021 A 
ATOM     32  C   LIG    1       25.564 -28.603  12.020  0.00  0.00    +0.073 A 
ATOM     33  C   LIG    1       24.607 -27.829  12.662  0.00  0.00    +0.040 A 
ATOM     34  C   LIG    1       23.243 -28.157  12.648  0.00  0.00    +0.057 A 
ATOM     35  C   LIG    1       22.842 -29.318  11.981  0.00  0.00    +0.013 A 
ATOM     36  N   LIG    1       26.840 -28.196  12.076  0.00  0.00    -0.255 NA
ATOM     37  C   LIG    1       27.766 -28.925  11.425  0.00  0.00    +0.113 A 
ATOM     38  C   LIG    1       23.788 -30.115  11.334  0.00  0.00    +0.012 A 
ATOM     39  C   LIG    1       27.479 -30.070  10.709  0.00  0.00    +0.043 A 
BRANCH  34  40
ATOM     40  C   LIG    1       22.225 -27.277  13.329  0.00  0.00    +0.417 C 
ATOM     41  F   LIG    1       20.977 -27.420  12.805  0.00  0.00    -0.166 F 
ATOM     42  F   LIG    1       22.528 -25.954  13.210  0.00  0.00    -0.166 F 
ATOM     43  F   LIG    1       22.102 -27.512  14.664  0.00  0.00    -0.166 F 
ENDBRANCH  34  40
ENDBRANCH  28  30
ENDBRANCH   2  28
TORSDOF 10
ENDMDL
MODEL 5
REMARK VINA RESULT:     -10.0      5.000     10.488
REMARK  Name = *****
REMARK                            x       y       z     vdW  Elec       q    Type
REMARK                         _______ _______ _______ _____ _____    ______ ____
ROOT
ATOM      1  C   LIG    1       25.129 -32.136   6.392  0.00  0.00    +0.080 A 
ATOM      2  C   LIG    1       26.460 -32.032   6.857  0.00  0.00    +0.045 A 
ATOM      3  C   LIG    1       27.427 -32.837   6.228  0.00  0.00    +0.024 A 
ATOM      4  C   LIG    1       27.113 -33.642   5.129  0.00  0.00    +0.002 A 
ATOM      5  C   LIG    1       25.806 -33.706   4.663  0.00  0.00    +0.001 A 
ATOM      6  C   LIG    1       24.814 -32.969   5.302  0.00  0.00    +0.017 A 
ENDROOT
BRANCH   1   8
ATOM      7  O   LIG    1       23.283 -31.762   7.864  0.00  0.00    -0.245 OA
ATOM      8  C   LIG    1       23.987 -31.367   6.950  0.00  0.00    +0.341 C 
BRANCH   8   9
ATOM      9  O   LIG    1       23.766 -30.267   6.188  0.00  0.00    -0.460 OA
BRANCH   9  10
ATOM     10  C   LIG    1       24.391 -29.055   6.653  0.00  0.00    +0.247 C 
BRANCH  10  11
ATOM     11  C   LIG    1       24.392 -28.024   5.508  0.00  0.00    +0.125 C 
BRANCH  11  12
ATOM     12  N   LIG    1       25.696 -27.421   5.190  0.00  0.00    -0.296 NA
ATOM     13  C   LIG    1       25.627 -26.312   4.224  0.00  0.00    +0.103 C 
ATOM     14  C   LIG    1       24.929 -25.035   4.734  0.00  0.00    +0.120 C 
ATOM     15  N   LIG    1       25.518 -24.545   6.002  0.00  0.00    -0.327 N 
ATOM     16  C   LIG    1       25.719 -25.606   7.020  0.00  0.00    +0.120 C 
ATOM     17  C   LIG    1       26.348 -26.892   6.413  0.00  0.00    +0.103 C 
BRANCH  15  18
ATOM     18  C   LIG    1       25.157 -23.256   6.432  0.00  0.00    +0.030 A 
ATOM     19  C   LIG    1       24.247 -22.456   5.720  0.00  0.00    +0.035 A 
ATOM     20  C   LIG    1       23.832 -21.182   6.169  0.00  0.00    +0.057 A 
ATOM     21  C   LIG    1       24.332 -20.687   7.378  0.00  0.00    +0.012 A 
ATOM     22  C   LIG    1       25.225 -21.452   8.112  0.00  0.00    +0.002 A 
ATOM     23  C   LIG    1       25.627 -22.706   7.639  0.00  0.00    +0.023 A 
BRANCH  20  24
ATOM     24  C   LIG    1       22.858 -20.377   5.349  0.00  0.00    +0.417 C 
ATOM     25  F   LIG    1       23.387 -19.958   4.167  0.00  0.00    -0.166 F 
ATOM     26  F   LIG    1       22.444 -19.250   5.993  0.00  0.00    -0.166 F 
ATOM     27  F   LIG    1       21.720 -21.057   5.026  0.00  0.00    -0.166 F 
ENDBRANCH  20  24
ENDBRANCH  15  18
ENDBRANCH  11  12
ENDBRANCH  10  11
ENDBRANCH   9  10
ENDBRANCH   8   9
ENDBRANCH   1   8
BRANCH   2  28
ATOM     28  N   LIG    1       26.801 -31.269   8.007  0.00  0.00    -0.313 N 
ATOM     29  H   LIG    1       27.807 -31.079   8.029  0.00  0.00    +0.152 HD
BRANCH  28  30
ATOM     30  C   LIG    1       26.340 -31.423   9.347  0.00  0.00    +0.042 A 
ATOM     31  C   LIG    1       26.372 -30.320  10.240  0.00  0.00    +0.021 A 
ATOM     32  C   LIG    1       25.960 -30.544  11.572  0.00  0.00    +0.073 A 
ATOM     33  C   LIG    1       25.984 -29.488  12.473  0.00  0.00    +0.040 A 
ATOM     34  C   LIG    1       26.412 -28.202  12.112  0.00  0.00    +0.057 A 
ATOM     35  C   LIG    1       26.805 -27.975  10.790  0.00  0.00    +0.013 A 
ATOM     36  N   LIG    1       25.552 -31.740  12.018  0.00  0.00    -0.255 NA
ATOM     37  C   LIG    1       25.560 -32.775  11.155  0.00  0.00    +0.113 A 
ATOM     38  C   LIG    1       26.782 -29.020   9.864  0.00  0.00    +0.012 A 
ATOM     39  C   LIG    1       25.957 -32.673   9.837  0.00  0.00    +0.043 A 
BRANCH  34  40
ATOM     40  C   LIG    1       26.457 -27.086  13.125  0.00  0.00    +0.417 C 
ATOM     41  F   LIG    1       26.439 -25.854  12.546  0.00  0.00    -0.166 F 
ATOM     42  F   LIG    1       27.588 -27.125  13.883  0.00  0.00    -0.166 F 
ATOM     43  F   LIG    1       25.419 -27.101  14.005  0.00  0.00    -0.166 F 
ENDBRANCH  34  40
ENDBRANCH  28  30
ENDBRANCH   2  28
TORSDOF 10
ENDMDL
MODEL 6
REMARK VINA RESULT:      -9.5      6.454     11.560
REMARK  Name = *****
REMARK                            x       y       z     vdW  Elec       q    Type
REMARK                         _______ _______ _______ _____ _____    ______ ____
ROOT
ATOM      1  C   LIG    1       25.125 -29.506   9.757  0.00  0.00    +0.080 A 
ATOM      2  C   LIG    1       24.660 -29.693  11.079  0.00  0.00    +0.045 A 
ATOM      3  C   LIG    1       25.456 -29.184  12.120  0.00  0.00    +0.024 A 
ATOM      4  C   LIG    1       26.614 -28.442  11.867  0.00  0.00    +0.002 A 
ATOM      5  C   LIG    1       27.037 -28.237  10.560  0.00  0.00    +0.001 A 
ATOM      6  C   LIG    1       26.305 -28.781   9.509  0.00  0.00    +0.017 A 
ENDROOT
BRANCH   1   8
ATOM      7  O   LIG    1       23.349 -30.582   8.574  0.00  0.00    -0.245 OA
ATOM      8  C   LIG    1       24.413 -29.988   8.545  0.00  0.00    +0.341 C 
BRANCH   8   9
ATOM      9  O   LIG    1       25.200 -29.809   7.455  0.00  0.00    -0.460 OA
BRANCH   9  10
ATOM     10  C   LIG    1       24.512 -29.410   6.253  0.00  0.00    +0.247 C 
BRANCH  10  11
ATOM     11  C   LIG    1       24.457 -27.871   6.197  0.00  0.00    +0.125 C 
BRANCH  11  12
ATOM     12  N   LIG    1       25.695 -27.203   5.765  0.00  0.00    -0.296 NA
ATOM     13  C   LIG    1       25.542 -26.380   4.552  0.00  0.00    +0.103 C 
ATOM     14  C   LIG    1       24.673 -25.117   4.718  0.00  0.00    +0.120 C 
ATOM     15  N   LIG    1       25.137 -24.262   5.836  0.00  0.00    -0.327 N 
ATOM     16  C   LIG    1       25.412 -25.010   7.088  0.00  0.00    +0.120 C 
ATOM     17  C   LIG    1       26.218 -26.314   6.830  0.00  0.00    +0.103 C 
BRANCH  15  18
ATOM     18  C   LIG    1       24.605 -22.965   5.927  0.00  0.00    +0.030 A 
ATOM     19  C   LIG    1       24.692 -22.043   4.868  0.00  0.00    +0.035 A 
ATOM     20  C   LIG    1       24.113 -20.755   4.924  0.00  0.00    +0.057 A 
ATOM     21  C   LIG    1       23.412 -20.370   6.072  0.00  0.00    +0.012 A 
ATOM     22  C   LIG    1       23.299 -21.256   7.132  0.00  0.00    +0.002 A 
ATOM     23  C   LIG    1       23.891 -22.521   7.055  0.00  0.00    +0.023 A 
BRANCH  20  24
ATOM     24  C   LIG    1       24.251 -19.819   3.753  0.00  0.00    +0.417 C 
ATOM     25  F   LIG    1       25.408 -19.102   3.788  0.00  0.00    -0.166 F 
ATOM     26  F   LIG    1       23.245 -18.901   3.700  0.00  0.00    -0.166 F 
ATOM     27  F   LIG    1       24.240 -20.448   2.543  0.00  0.00    -0.166 F 
ENDBRANCH  20  24
ENDBRANCH  15  18
ENDBRANCH  11  12
ENDBRANCH  10  11
ENDBRANCH   9  10
ENDBRANCH   8   9
ENDBRANCH   1   8
BRANCH   2  28
ATOM     28  N   LIG    1       23.520 -30.491  11.373  0.00  0.00    -0.313 N 
ATOM     29  H   LIG    1       22.817 -30.402  10.635  0.00  0.00    +0.152 HD
BRANCH  28  30
ATOM     30  C   LIG    1       22.851 -30.661  12.620  0.00  0.00    +0.042 A 
ATOM     31  C   LIG    1       21.934 -29.676  13.074  0.00  0.00    +0.021 A 
ATOM     32  C   LIG    1       21.345 -29.865  14.343  0.00  0.00    +0.073 A 
ATOM     33  C   LIG    1       20.448 -28.919  14.819  0.00  0.00    +0.040 A 
ATOM     34  C   LIG    1       20.108 -27.772  14.087  0.00  0.00    +0.057 A 
ATOM     35  C   LIG    1       20.677 -27.592  12.824  0.00  0.00    +0.013 A 
ATOM     36  N   LIG    1       21.620 -30.919  15.125  0.00  0.00    -0.255 NA
ATOM     37  C   LIG    1       22.516 -31.821  14.681  0.00  0.00    +0.113 A 
ATOM     38  C   LIG    1       21.577 -28.534  12.321  0.00  0.00    +0.012 A 
ATOM     39  C   LIG    1       23.162 -31.728  13.465  0.00  0.00    +0.043 A 
BRANCH  34  40
ATOM     40  C   LIG    1       19.155 -26.747  14.648  0.00  0.00    +0.417 C 
ATOM     41  F   LIG    1       19.765 -25.878  15.500  0.00  0.00    -0.166 F 
ATOM     42  F   LIG    1       18.144 -27.319  15.361  0.00  0.00    -0.166 F 
ATOM     43  F   LIG    1       18.551 -25.980  13.699  0.00  0.00    -0.166 F 
ENDBRANCH  34  40
ENDBRANCH  28  30
ENDBRANCH   2  28
TORSDOF 10
ENDMDL
MODEL 7
REMARK VINA RESULT:      -9.2      5.349     11.556
REMARK  Name = *****
REMARK                            x       y       z     vdW  Elec       q    Type
REMARK                         _______ _______ _______ _____ _____    ______ ____
ROOT
ATOM      1  C   LIG    1       25.266 -31.496   7.238  0.00  0.00    +0.080 A 
ATOM      2  C   LIG    1       25.656 -31.971   8.511  0.00  0.00    +0.045 A 
ATOM      3  C   LIG    1       26.723 -32.886   8.558  0.00  0.00    +0.024 A 
ATOM      4  C   LIG    1       27.435 -33.247   7.410  0.00  0.00    +0.002 A 
ATOM      5  C   LIG    1       27.060 -32.743   6.172  0.00  0.00    +0.001 A 
ATOM      6  C   LIG    1       25.970 -31.884   6.082  0.00  0.00    +0.017 A 
ENDROOT
BRANCH   1   8
ATOM      7  O   LIG    1       23.348 -30.635   6.101  0.00  0.00    -0.245 OA
ATOM      8  C   LIG    1       24.156 -30.536   7.009  0.00  0.00    +0.341 C 
BRANCH   8   9
ATOM      9  O   LIG    1       24.289 -29.479   7.849  0.00  0.00    -0.460 OA
BRANCH   9  10
ATOM     10  C   LIG    1       25.329 -28.543   7.507  0.00  0.00    +0.247 C 
BRANCH  10  11
ATOM     11  C   LIG    1       24.927 -27.799   6.219  0.00  0.00    +0.125 C 
BRANCH  11  12
ATOM     12  N   LIG    1       26.005 -27.054   5.548  0.00  0.00    -0.296 NA
ATOM     13  C   LIG    1       25.560 -26.278   4.377  0.00  0.00    +0.103 C 
ATOM     14  C   LIG    1       24.644 -25.078   4.691  0.00  0.00    +0.120 C 
ATOM     15  N   LIG    1       25.244 -24.162   5.688  0.00  0.00    -0.327 N 
ATOM     16  C   LIG    1       25.810 -24.852   6.873  0.00  0.00    +0.120 C 
ATOM     17  C   LIG    1       26.651 -26.100   6.481  0.00  0.00    +0.103 C 
BRANCH  15  18
ATOM     18  C   LIG    1       24.641 -22.905   5.863  0.00  0.00    +0.030 A 
ATOM     19  C   LIG    1       24.635 -21.929   4.850  0.00  0.00    +0.035 A 
ATOM     20  C   LIG    1       23.984 -20.682   4.991  0.00  0.00    +0.057 A 
ATOM     21  C   LIG    1       23.304 -20.397   6.179  0.00  0.00    +0.012 A 
ATOM     22  C   LIG    1       23.281 -21.339   7.196  0.00  0.00    +0.002 A 
ATOM     23  C   LIG    1       23.943 -22.561   7.035  0.00  0.00    +0.023 A 
BRANCH  20  24
ATOM     24  C   LIG    1       24.025 -19.683   3.865  0.00  0.00    +0.417 C 
ATOM     25  F   LIG    1       24.069 -20.274   2.640  0.00  0.00    -0.166 F 
ATOM     26  F   LIG    1       25.119 -18.874   3.928  0.00  0.00    -0.166 F 
ATOM     27  F   LIG    1       22.948 -18.845   3.836  0.00  0.00    -0.166 F 
ENDBRANCH  20  24
ENDBRANCH  15  18
ENDBRANCH  11  12
ENDBRANCH  10  11
ENDBRANCH   9  10
ENDBRANCH   8   9
ENDBRANCH   1   8
BRANCH   2  28
ATOM     28  N   LIG    1       24.918 -31.670   9.689  0.00  0.00    -0.313 N 
ATOM     29  H   LIG    1       25.408 -32.013  10.519  0.00  0.00    +0.152 HD
BRANCH  28  30
ATOM     30  C   LIG    1       23.514 -31.779   9.912  0.00  0.00    +0.042 A 
ATOM     31  C   LIG    1       22.852 -30.837  10.743  0.00  0.00    +0.021 A 
ATOM     32  C   LIG    1       21.473 -31.027  10.978  0.00  0.00    +0.073 A 
ATOM     33  C   LIG    1       20.796 -30.128  11.791  0.00  0.00    +0.040 A 
ATOM     34  C   LIG    1       21.434 -29.035  12.396  0.00  0.00    +0.057 A 
ATOM     35  C   LIG    1       22.795 -28.836  12.151  0.00  0.00    +0.013 A 
ATOM     36  N   LIG    1       20.779 -32.050  10.461  0.00  0.00    -0.255 NA
ATOM     37  C   LIG    1       21.440 -32.945   9.701  0.00  0.00    +0.113 A 
ATOM     38  C   LIG    1       23.496 -29.724  11.331  0.00  0.00    +0.012 A 
ATOM     39  C   LIG    1       22.789 -32.864   9.418  0.00  0.00    +0.043 A 
BRANCH  34  40
ATOM     40  C   LIG    1       20.675 -28.096  13.299  0.00  0.00    +0.417 C 
ATOM     41  F   LIG    1       19.462 -28.591  13.668  0.00  0.00    -0.166 F 
ATOM     42  F   LIG    1       20.422 -26.898  12.701  0.00  0.00    -0.166 F 
ATOM     43  F   LIG    1       21.328 -27.801  14.457  0.00  0.00    -0.166 F 
ENDBRANCH  34  40
ENDBRANCH  28  30
ENDBRANCH   2  28
TORSDOF 10
ENDMDL
MODEL 8
REMARK VINA RESULT:      -9.2      4.831     11.065
REMARK  Name = *****
REMARK                            x       y       z     vdW  Elec       q    Type
REMARK                         _______ _______ _______ _____ _____    ______ ____
ROOT
ATOM      1  C   LIG    1       25.531 -32.311   6.925  0.00  0.00    +0.080 A 
ATOM      2  C   LIG    1       25.491 -32.910   8.205  0.00  0.00    +0.045 A 
ATOM      3  C   LIG    1       26.622 -33.642   8.609  0.00  0.00    +0.024 A 
ATOM      4  C   LIG    1       27.778 -33.705   7.825  0.00  0.00    +0.002 A 
ATOM      5  C   LIG    1       27.812 -33.080   6.585  0.00  0.00    +0.001 A 
ATOM      6  C   LIG    1       26.687 -32.400   6.128  0.00  0.00    +0.017 A 
ENDROOT
BRANCH   1   8
ATOM      7  O   LIG    1       23.283 -31.930   6.210  0.00  0.00    -0.245 OA
ATOM      8  C   LIG    1       24.422 -31.514   6.342  0.00  0.00    +0.341 C 
BRANCH   8   9
ATOM      9  O   LIG    1       24.910 -30.350   5.847  0.00  0.00    -0.460 OA
BRANCH   9  10
ATOM     10  C   LIG    1       24.577 -29.168   6.601  0.00  0.00    +0.247 C 
BRANCH  10  11
ATOM     11  C   LIG    1       24.455 -27.977   5.631  0.00  0.00    +0.125 C 
BRANCH  11  12
ATOM     12  N   LIG    1       25.722 -27.333   5.248  0.00  0.00    -0.296 NA
ATOM     13  C   LIG    1       25.572 -26.255   4.254  0.00  0.00    +0.103 C 
ATOM     14  C   LIG    1       24.843 -24.993   4.756  0.00  0.00    +0.120 C 
ATOM     15  N   LIG    1       25.458 -24.443   5.986  0.00  0.00    -0.327 N 
ATOM     16  C   LIG    1       25.739 -25.466   7.024  0.00  0.00    +0.120 C 
ATOM     17  C   LIG    1       26.396 -26.743   6.429  0.00  0.00    +0.103 C 
BRANCH  15  18
ATOM     18  C   LIG    1       25.062 -23.158   6.394  0.00  0.00    +0.030 A 
ATOM     19  C   LIG    1       24.176 -22.371   5.637  0.00  0.00    +0.035 A 
ATOM     20  C   LIG    1       23.724 -21.101   6.061  0.00  0.00    +0.057 A 
ATOM     21  C   LIG    1       24.161 -20.596   7.290  0.00  0.00    +0.012 A 
ATOM     22  C   LIG    1       25.028 -21.348   8.068  0.00  0.00    +0.002 A 
ATOM     23  C   LIG    1       25.468 -22.598   7.619  0.00  0.00    +0.023 A 
BRANCH  20  24
ATOM     24  C   LIG    1       22.779 -20.312   5.194  0.00  0.00    +0.417 C 
ATOM     25  F   LIG    1       22.417 -19.127   5.756  0.00  0.00    -0.166 F 
ATOM     26  F   LIG    1       21.617 -20.980   4.951  0.00  0.00    -0.166 F 
ATOM     27  F   LIG    1       23.290 -20.001   3.968  0.00  0.00    -0.166 F 
ENDBRANCH  20  24
ENDBRANCH  15  18
ENDBRANCH  11  12
ENDBRANCH  10  11
ENDBRANCH   9  10
ENDBRANCH   8   9
ENDBRANCH   1   8
BRANCH   2  28
ATOM     28  N   LIG    1       24.313 -32.915   9.002  0.00  0.00    -0.313 N 
ATOM     29  H   LIG    1       23.526 -32.513   8.485  0.00  0.00    +0.152 HD
BRANCH  28  30
ATOM     30  C   LIG    1       24.170 -32.581  10.380  0.00  0.00    +0.042 A 
ATOM     31  C   LIG    1       24.658 -31.338  10.864  0.00  0.00    +0.021 A 
ATOM     32  C   LIG    1       24.544 -31.084  12.248  0.00  0.00    +0.073 A 
ATOM     33  C   LIG    1       25.017 -29.881  12.755  0.00  0.00    +0.040 A 
ATOM     34  C   LIG    1       25.613 -28.906  11.942  0.00  0.00    +0.057 A 
ATOM     35  C   LIG    1       25.713 -29.150  10.570  0.00  0.00    +0.013 A 
ATOM     36  N   LIG    1       24.007 -31.960  13.109  0.00  0.00    -0.255 NA
ATOM     37  C   LIG    1       23.579 -33.142  12.625  0.00  0.00    +0.113 A 
ATOM     38  C   LIG    1       25.238 -30.349  10.036  0.00  0.00    +0.012 A 
ATOM     39  C   LIG    1       23.655 -33.501  11.295  0.00  0.00    +0.043 A 
BRANCH  34  40
ATOM     40  C   LIG    1       26.146 -27.624  12.531  0.00  0.00    +0.417 C 
ATOM     41  F   LIG    1       26.882 -26.906  11.639  0.00  0.00    -0.166 F 
ATOM     42  F   LIG    1       26.967 -27.849  13.595  0.00  0.00    -0.166 F 
ATOM     43  F   LIG    1       25.176 -26.782  12.982  0.00  0.00    -0.166 F 
ENDBRANCH  34  40
ENDBRANCH  28  30
ENDBRANCH   2  28
TORSDOF 10
ENDMDL
MODEL 9
REMARK VINA RESULT:      -8.9      5.769     12.220
REMARK  Name = *****
REMARK                            x       y       z     vdW  Elec       q    Type
REMARK                         _______ _______ _______ _____ _____    ______ ____
ROOT
ATOM      1  C   LIG    1       25.160 -30.002   9.594  0.00  0.00    +0.080 A 
ATOM      2  C   LIG    1       25.116 -30.551  10.896  0.00  0.00    +0.045 A 
ATOM      3  C   LIG    1       25.986 -30.003  11.856  0.00  0.00    +0.024 A 
ATOM      4  C   LIG    1       26.799 -28.902  11.569  0.00  0.00    +0.002 A 
ATOM      5  C   LIG    1       26.803 -28.353  10.294  0.00  0.00    +0.001 A 
ATOM      6  C   LIG    1       26.000 -28.911   9.304  0.00  0.00    +0.017 A 
ENDROOT
BRANCH   1   8
ATOM      7  O   LIG    1       24.085 -31.642   8.227  0.00  0.00    -0.245 OA
ATOM      8  C   LIG    1       24.317 -30.468   8.463  0.00  0.00    +0.341 C 
BRANCH   8   9
ATOM      9  O   LIG    1       23.999 -29.415   7.670  0.00  0.00    -0.460 OA
BRANCH   9  10
ATOM     10  C   LIG    1       24.502 -29.481   6.321  0.00  0.00    +0.247 C 
BRANCH  10  11
ATOM     11  C   LIG    1       24.406 -28.082   5.684  0.00  0.00    +0.125 C 
BRANCH  11  12
ATOM     12  N   LIG    1       25.682 -27.483   5.261  0.00  0.00    -0.296 NA
ATOM     13  C   LIG    1       25.538 -26.398   4.274  0.00  0.00    +0.103 C 
ATOM     14  C   LIG    1       24.872 -25.111   4.802  0.00  0.00    +0.120 C 
ATOM     15  N   LIG    1       25.547 -24.588   6.013  0.00  0.00    -0.327 N 
ATOM     16  C   LIG    1       25.825 -25.623   7.039  0.00  0.00    +0.120 C 
ATOM     17  C   LIG    1       26.416 -26.921   6.420  0.00  0.00    +0.103 C 
BRANCH  15  18
ATOM     18  C   LIG    1       25.212 -23.290   6.436  0.00  0.00    +0.030 A 
ATOM     19  C   LIG    1       24.273 -22.498   5.752  0.00  0.00    +0.035 A 
ATOM     20  C   LIG    1       23.883 -21.215   6.197  0.00  0.00    +0.057 A 
ATOM     21  C   LIG    1       24.441 -20.701   7.372  0.00  0.00    +0.012 A 
ATOM     22  C   LIG    1       25.363 -21.457   8.078  0.00  0.00    +0.002 A 
ATOM     23  C   LIG    1       25.739 -22.721   7.609  0.00  0.00    +0.023 A 
BRANCH  20  24
ATOM     24  C   LIG    1       22.876 -20.421   5.408  0.00  0.00    +0.417 C 
ATOM     25  F   LIG    1       21.757 -21.137   5.114  0.00  0.00    -0.166 F 
ATOM     26  F   LIG    1       23.370 -19.995   4.212  0.00  0.00    -0.166 F 
ATOM     27  F   LIG    1       22.441 -19.297   6.048  0.00  0.00    -0.166 F 
ENDBRANCH  20  24
ENDBRANCH  15  18
ENDBRANCH  11  12
ENDBRANCH  10  11
ENDBRANCH   9  10
ENDBRANCH   8   9
ENDBRANCH   1   8
BRANCH   2  28
ATOM     28  N   LIG    1       24.345 -31.705  11.204  0.00  0.00    -0.313 N 
ATOM     29  H   LIG    1       24.003 -32.150  10.348  0.00  0.00    +0.152 HD
BRANCH  28  30
ATOM     30  C   LIG    1       23.367 -31.875  12.228  0.00  0.00    +0.042 A 
ATOM     31  C   LIG    1       21.986 -31.785  11.911  0.00  0.00    +0.021 A 
ATOM     32  C   LIG    1       21.062 -31.901  12.972  0.00  0.00    +0.073 A 
ATOM     33  C   LIG    1       19.704 -31.812  12.698  0.00  0.00    +0.040 A 
ATOM     34  C   LIG    1       19.211 -31.603  11.402  0.00  0.00    +0.057 A 
ATOM     35  C   LIG    1       20.124 -31.503  10.348  0.00  0.00    +0.013 A 
ATOM     36  N   LIG    1       21.434 -32.084  14.247  0.00  0.00    -0.255 NA
ATOM     37  C   LIG    1       22.752 -32.136  14.521  0.00  0.00    +0.113 A 
ATOM     38  C   LIG    1       21.494 -31.597  10.598  0.00  0.00    +0.012 A 
ATOM     39  C   LIG    1       23.741 -32.019  13.565  0.00  0.00    +0.043 A 
BRANCH  34  40
ATOM     40  C   LIG    1       17.731 -31.478  11.144  0.00  0.00    +0.417 C 
ATOM     41  F   LIG    1       17.111 -30.666  12.044  0.00  0.00    -0.166 F 
ATOM     42  F   LIG    1       17.091 -32.678  11.224  0.00  0.00    -0.166 F 
ATOM     43  F   LIG    1       17.428 -30.976   9.916  0.00  0.00    -0.166 F 
ENDBRANCH  34  40
ENDBRANCH  28  30
ENDBRANCH   2  28
TORSDOF 10
ENDMDL
