MODEL 1
REMARK VINA RESULT:      -3.1      0.000      0.000
REMARK  Name = *****
REMARK                            x       y       z     vdW  Elec       q    Type
REMARK                         _______ _______ _______ _____ _____    ______ ____
ROOT
ATOM      1  C   LIG    1       24.703 -20.812   6.894  0.00  0.00    +0.138 C 
ATOM      2  N   LIG    1       24.783 -20.155   5.597  0.00  0.00    -0.270 N 
ATOM      3  C   LIG    1       26.034 -20.159   4.968  0.00  0.00    +0.271 C 
ATOM      4  O   LIG    1       27.051 -20.571   5.539  0.00  0.00    -0.270 OA
ATOM      5  C   LIG    1       26.108 -19.672   3.491  0.00  0.00    +0.320 C 
ATOM      6  N   LIG    1       25.904 -18.227   3.474  0.00  0.00    -0.243 NA
ATOM      7  C   LIG    1       24.741 -17.766   3.788  0.00  0.00    +0.078 C 
ATOM      8  C   LIG    1       23.546 -18.615   4.072  0.00  0.00    +0.023 A 
ATOM      9  C   LIG    1       22.345 -18.254   3.432  0.00  0.00    +0.032 A 
ATOM     10  C   LIG    1       21.167 -18.933   3.723  0.00  0.00    +0.042 A 
ATOM     11 CL   LIG    1       19.701 -18.475   2.950  0.00  0.00    -0.084 Cl
ATOM     12  C   LIG    1       21.169 -19.970   4.645  0.00  0.00    +0.022 A 
ATOM     13  C   LIG    1       22.366 -20.346   5.264  0.00  0.00    +0.025 A 
ATOM     14  C   LIG    1       23.582 -19.698   4.972  0.00  0.00    +0.045 A 
ENDROOT
BRANCH   7  15
ATOM     15  C   LIG    1       24.590 -16.276   3.848  0.00  0.00    +0.001 A 
ATOM     16  C   LIG    1       23.445 -15.683   4.396  0.00  0.00    +0.010 A 
ATOM     17  C   LIG    1       23.332 -14.291   4.440  0.00  0.00    +0.001 A 
ATOM     18  C   LIG    1       24.364 -13.490   3.951  0.00  0.00    +0.000 A 
ATOM     19  C   LIG    1       25.513 -14.076   3.423  0.00  0.00    +0.001 A 
ATOM     20  C   LIG    1       25.630 -15.466   3.375  0.00  0.00    +0.010 A 
ENDBRANCH   7  15
BRANCH   5  21
ATOM     21  O   LIG    1       25.320 -20.390   2.563  0.00  0.00    -0.364 OA
ATOM     22  H   LIG    1       25.934 -20.557   1.829  0.00  0.00    +0.212 HD
ENDBRANCH   5  21
TORSDOF 2
ENDMDL
MODEL 2
REMARK VINA RESULT:      -1.2      2.787      5.128
REMARK  Name = *****
REMARK                            x       y       z     vdW  Elec       q    Type
REMARK                         _______ _______ _______ _____ _____    ______ ____
ROOT
ATOM      1  C   LIG    1       21.960 -18.328   5.181  0.00  0.00    +0.138 C 
ATOM      2  N   LIG    1       23.154 -18.821   4.509  0.00  0.00    -0.270 N 
ATOM      3  C   LIG    1       23.146 -20.167   4.121  0.00  0.00    +0.271 C 
ATOM      4  O   LIG    1       22.237 -20.936   4.454  0.00  0.00    -0.270 OA
ATOM      5  C   LIG    1       24.300 -20.667   3.204  0.00  0.00    +0.320 C 
ATOM      6  N   LIG    1       25.526 -20.716   3.994  0.00  0.00    -0.243 NA
ATOM      7  C   LIG    1       26.045 -19.605   4.395  0.00  0.00    +0.078 C 
ATOM      8  C   LIG    1       25.535 -18.252   4.019  0.00  0.00    +0.023 A 
ATOM      9  C   LIG    1       26.488 -17.314   3.583  0.00  0.00    +0.032 A 
ATOM     10  C   LIG    1       26.107 -16.005   3.312  0.00  0.00    +0.042 A 
ATOM     11 CL   LIG    1       27.281 -14.860   2.795  0.00  0.00    -0.084 Cl
ATOM     12  C   LIG    1       24.785 -15.616   3.471  0.00  0.00    +0.022 A 
ATOM     13  C   LIG    1       23.830 -16.554   3.882  0.00  0.00    +0.025 A 
ATOM     14  C   LIG    1       24.177 -17.895   4.138  0.00  0.00    +0.045 A 
ENDROOT
BRANCH   7  15
ATOM     15  C   LIG    1       27.251 -19.694   5.280  0.00  0.00    +0.001 A 
ATOM     16  C   LIG    1       28.283 -18.751   5.199  0.00  0.00    +0.010 A 
ATOM     17  C   LIG    1       29.396 -18.858   6.037  0.00  0.00    +0.001 A 
ATOM     18  C   LIG    1       29.475 -19.896   6.964  0.00  0.00    +0.000 A 
ATOM     19  C   LIG    1       28.441 -20.826   7.062  0.00  0.00    +0.001 A 
ATOM     20  C   LIG    1       27.328 -20.724   6.226  0.00  0.00    +0.010 A 
ENDBRANCH   7  15
BRANCH   5  21
ATOM     21  O   LIG    1       24.427 -20.012   1.957  0.00  0.00    -0.364 OA
ATOM     22  H   LIG    1       24.520 -20.746   1.327  0.00  0.00    +0.212 HD
ENDBRANCH   5  21
TORSDOF 2
ENDMDL
