REMARK  1 active torsions:
REMARK  status: ('A' for Active; 'I' for Inactive)
REMARK    1  A    between atoms: C3_4  and  C5_6 
ROOT
ATOM      1  C5  MOL d           0.065   0.275   0.383  0.00  0.00    -0.117 C 
ATOM      2  C6  MOL d           1.373  -0.507   0.418  0.00  0.00     0.127 A 
ATOM      3  C7  MOL d           2.333  -0.190   1.389  0.00  0.00    -0.345 A 
ATOM      4  C8  MOL d           3.575  -0.819   1.391  0.00  0.00     0.352 A 
ATOM      5  N2  MOL d           3.918  -1.745   0.467  0.00  0.00    -0.629 NA
ATOM      6  C9  MOL d           2.995  -2.070  -0.453  0.00  0.00     0.273 A 
ATOM      7  C10 MOL d           1.698  -1.515  -0.522  0.00  0.00     0.071 A 
ATOM      8  C11 MOL d           0.798  -2.039  -1.551  0.00  0.00    -0.299 C 
ATOM      9  C12 MOL d          -0.554  -2.063  -1.569  0.00  0.00    -0.156 C 
ATOM     10  C13 MOL d          -1.494  -1.573  -0.573  0.00  0.00     0.036 C 
ATOM     11  C14 MOL d          -2.802  -1.936  -0.682  0.00  0.00     0.073 C 
ATOM     12  O1  MOL d          -3.759  -1.624   0.255  0.00  0.00    -0.354 OA
ATOM     13  C15 MOL d          -3.225  -1.378   1.622  0.00  0.00     0.061 C 
ATOM     14  C16 MOL d          -2.004  -0.510   1.551  0.00  0.00    -0.163 C 
ATOM     15  C17 MOL d          -1.148  -0.635   0.519  0.00  0.00    -0.024 C 
ATOM     16  H1  MOL d          -1.015  -2.573  -2.409  0.00  0.00     0.124 H 
ATOM     17  H2  MOL d           1.302  -2.538  -2.372  0.00  0.00     0.146 H 
ATOM     18  H3  MOL d           0.066   0.913   1.270  0.00  0.00     0.157 H 
ATOM     19  H4  MOL d           3.292  -2.821  -1.174  0.00  0.00     0.045 H 
ATOM     20  H5  MOL d           4.326  -0.582   2.131  0.00  0.00     0.044 H 
ATOM     21  H6  MOL d           2.114   0.563   2.134  0.00  0.00     0.111 H 
ATOM     22  H7  MOL d          -1.850   0.227   2.328  0.00  0.00     0.094 H 
ATOM     23  H8  MOL d          -3.022  -2.363   2.059  0.00  0.00     0.097 H 
ATOM     24  H9  MOL d          -4.046  -0.913   2.159  0.00  0.00     0.097 H 
ATOM     25  H10 MOL d          -3.221  -2.456  -1.531  0.00  0.00     0.131 H 
ENDROOT
BRANCH   1  26
ATOM     26  C3  MOL d          -0.031   1.220  -0.876  0.00  0.00     0.049 C 
ATOM     27  C2  MOL d           1.175   2.192  -0.984  0.00  0.00    -0.040 C 
ATOM     28  C1  MOL d           1.109   3.343   0.042  0.00  0.00     0.045 C 
ATOM     29  H16 MOL d           2.118   1.651  -0.884  0.00  0.00     0.026 H 
ATOM     30  H17 MOL d           1.168   2.625  -1.990  0.00  0.00     0.026 H 
ATOM     31  N1  MOL d          -0.171   4.076   0.020  0.00  0.00    -0.834 N 
ATOM     32  H18 MOL d           1.255   2.956   1.056  0.00  0.00     0.071 H 
ATOM     33  H19 MOL d           1.917   4.054  -0.135  0.00  0.00     0.071 H 
ATOM     34  C18 MOL d          -1.351   3.196   0.121  0.00  0.00     0.045 C 
ATOM     35  H20 MOL d          -0.234   4.701  -0.778  0.00  0.00     0.417 HD
ATOM     36  C4  MOL d          -1.348   2.040  -0.901  0.00  0.00    -0.040 C 
ATOM     37  H11 MOL d          -2.247   3.807  -0.001  0.00  0.00     0.071 H 
ATOM     38  H12 MOL d          -1.386   2.798   1.140  0.00  0.00     0.071 H 
ATOM     39  H13 MOL d          -2.210   1.391  -0.736  0.00  0.00     0.026 H 
ATOM     40  H14 MOL d          -1.461   2.464  -1.905  0.00  0.00     0.026 H 
ATOM     41  H15 MOL d          -0.019   0.579  -1.758  0.00  0.00     0.016 H 
ENDBRANCH   1  26
TORSDOF 1
