MODEL 1
REMARK VINA RESULT:      -8.3      0.000      0.000
REMARK  Name = *****
REMARK                            x       y       z     vdW  Elec       q    Type
REMARK                         _______ _______ _______ _____ _____    ______ ____
ROOT
ATOM      1  C   LIG    1       25.954 -20.539   6.215  0.00  0.00    +0.064 C 
ATOM      2  C   LIG    1       24.882 -20.745   7.322  0.00  0.00    +0.007 C 
ATOM      3  C   LIG    1       25.736 -20.724   8.587  0.00  0.00    +0.009 C 
ATOM      4  C   LIG    1       26.615 -21.888   8.122  0.00  0.00    -0.002 C 
ATOM      5  C   LIG    1       25.567 -22.984   7.851  0.00  0.00    +0.004 C 
ATOM      6  C   LIG    1       24.362 -22.195   7.335  0.00  0.00    +0.005 C 
ATOM      7  C   LIG    1       27.173 -21.373   6.762  0.00  0.00    +0.039 C 
ENDROOT
BRANCH   7   8
ATOM      8  C   LIG    1       28.466 -20.560   6.832  0.00  0.00    -0.043 A 
ATOM      9  C   LIG    1       28.719 -19.442   6.024  0.00  0.00    +0.004 A 
ATOM     10  C   LIG    1       29.914 -18.722   6.133  0.00  0.00    +0.000 A 
ATOM     11  C   LIG    1       30.880 -19.108   7.057  0.00  0.00    +0.000 A 
ATOM     12  C   LIG    1       30.646 -20.203   7.879  0.00  0.00    +0.000 A 
ATOM     13  C   LIG    1       29.448 -20.919   7.774  0.00  0.00    +0.004 A 
ENDBRANCH   7   8
BRANCH   1  14
ATOM     14  N   LIG    1       25.513 -20.959   4.876  0.00  0.00    -0.313 NA
ATOM     15  H   LIG    1       26.201 -21.595   4.475  0.00  0.00    +0.122 HD
BRANCH  14  17
ATOM     16  C   LIG    1       23.846 -19.429   3.935  0.00  0.00    +0.020 C 
ATOM     17  C   LIG    1       25.315 -19.823   3.975  0.00  0.00    +0.077 C 
ENDBRANCH  14  17
ENDBRANCH   1  14
TORSDOF 3
ENDMDL
MODEL 2
REMARK VINA RESULT:      -8.1      1.952      4.875
REMARK  Name = *****
REMARK                            x       y       z     vdW  Elec       q    Type
REMARK                         _______ _______ _______ _____ _____    ______ ____
ROOT
ATOM      1  C   LIG    1       25.133 -22.300   7.029  0.00  0.00    +0.064 C 
ATOM      2  C   LIG    1       25.844 -21.989   8.376  0.00  0.00    +0.007 C 
ATOM      3  C   LIG    1       25.859 -20.463   8.372  0.00  0.00    +0.009 C 
ATOM      4  C   LIG    1       26.623 -20.383   7.047  0.00  0.00    -0.002 C 
ATOM      5  C   LIG    1       27.878 -21.222   7.358  0.00  0.00    +0.004 C 
ATOM      6  C   LIG    1       27.349 -22.304   8.301  0.00  0.00    +0.005 C 
ATOM      7  C   LIG    1       25.706 -21.184   6.076  0.00  0.00    +0.039 C 
ENDROOT
BRANCH   7   8
ATOM      8  C   LIG    1       24.611 -20.382   5.373  0.00  0.00    -0.043 A 
ATOM      9  C   LIG    1       23.309 -20.247   5.878  0.00  0.00    +0.004 A 
ATOM     10  C   LIG    1       22.342 -19.493   5.205  0.00  0.00    +0.000 A 
ATOM     11  C   LIG    1       22.662 -18.855   4.011  0.00  0.00    +0.000 A 
ATOM     12  C   LIG    1       23.949 -18.961   3.498  0.00  0.00    +0.000 A 
ATOM     13  C   LIG    1       24.917 -19.711   4.175  0.00  0.00    +0.004 A 
ENDBRANCH   7   8
BRANCH   1  14
ATOM     14  N   LIG    1       25.367 -23.665   6.535  0.00  0.00    -0.313 NA
ATOM     15  H   LIG    1       25.900 -23.628   5.667  0.00  0.00    +0.122 HD
BRANCH  14  17
ATOM     16  C   LIG    1       22.934 -23.588   6.818  0.00  0.00    +0.020 C 
ATOM     17  C   LIG    1       24.119 -24.396   6.310  0.00  0.00    +0.077 C 
ENDBRANCH  14  17
ENDBRANCH   1  14
TORSDOF 3
ENDMDL
MODEL 3
REMARK VINA RESULT:      -7.9      1.778      2.930
REMARK  Name = *****
REMARK                            x       y       z     vdW  Elec       q    Type
REMARK                         _______ _______ _______ _____ _____    ______ ____
ROOT
ATOM      1  C   LIG    1       24.835 -22.076   5.171  0.00  0.00    +0.064 C 
ATOM      2  C   LIG    1       23.435 -21.402   5.230  0.00  0.00    +0.007 C 
ATOM      3  C   LIG    1       23.718 -20.177   6.095  0.00  0.00    +0.009 C 
ATOM      4  C   LIG    1       24.234 -21.012   7.269  0.00  0.00    -0.002 C 
ATOM      5  C   LIG    1       23.043 -21.953   7.533  0.00  0.00    +0.004 C 
ATOM      6  C   LIG    1       22.471 -22.191   6.134  0.00  0.00    +0.005 C 
ATOM      7  C   LIG    1       25.393 -21.830   6.624  0.00  0.00    +0.039 C 
ENDROOT
BRANCH   7   8
ATOM      8  C   LIG    1       26.768 -21.162   6.628  0.00  0.00    -0.043 A 
ATOM      9  C   LIG    1       27.144 -20.165   5.716  0.00  0.00    +0.004 A 
ATOM     10  C   LIG    1       28.411 -19.575   5.766  0.00  0.00    +0.000 A 
ATOM     11  C   LIG    1       29.328 -19.971   6.735  0.00  0.00    +0.000 A 
ATOM     12  C   LIG    1       28.974 -20.947   7.659  0.00  0.00    +0.000 A 
ATOM     13  C   LIG    1       27.704 -21.533   7.611  0.00  0.00    +0.004 A 
ENDBRANCH   7   8
BRANCH   1  14
ATOM     14  N   LIG    1       24.795 -23.497   4.794  0.00  0.00    -0.313 NA
ATOM     15  H   LIG    1       23.840 -23.760   4.558  0.00  0.00    +0.122 HD
BRANCH  14  17
ATOM     16  C   LIG    1       24.259 -25.431   6.200  0.00  0.00    +0.020 C 
ATOM     17  C   LIG    1       25.292 -24.367   5.860  0.00  0.00    +0.077 C 
ENDBRANCH  14  17
ENDBRANCH   1  14
TORSDOF 3
ENDMDL
MODEL 4
REMARK VINA RESULT:      -7.8      2.463      5.472
REMARK  Name = *****
REMARK                            x       y       z     vdW  Elec       q    Type
REMARK                         _______ _______ _______ _____ _____    ______ ____
ROOT
ATOM      1  C   LIG    1       25.268 -21.897   6.515  0.00  0.00    +0.064 C 
ATOM      2  C   LIG    1       24.195 -21.017   7.217  0.00  0.00    +0.007 C 
ATOM      3  C   LIG    1       23.149 -22.058   7.607  0.00  0.00    +0.009 C 
ATOM      4  C   LIG    1       22.951 -22.533   6.166  0.00  0.00    -0.002 C 
ATOM      5  C   LIG    1       22.582 -21.219   5.451  0.00  0.00    +0.004 C 
ATOM      6  C   LIG    1       23.410 -20.172   6.198  0.00  0.00    +0.005 C 
ATOM      7  C   LIG    1       24.390 -22.953   5.743  0.00  0.00    +0.039 C 
ENDROOT
BRANCH   7   8
ATOM      8  C   LIG    1       24.785 -24.397   6.055  0.00  0.00    -0.043 A 
ATOM      9  C   LIG    1       25.945 -24.743   6.765  0.00  0.00    +0.004 A 
ATOM     10  C   LIG    1       26.259 -26.079   7.036  0.00  0.00    +0.000 A 
ATOM     11  C   LIG    1       25.415 -27.097   6.602  0.00  0.00    +0.000 A 
ATOM     12  C   LIG    1       24.254 -26.779   5.910  0.00  0.00    +0.000 A 
ATOM     13  C   LIG    1       23.937 -25.442   5.644  0.00  0.00    +0.004 A 
ENDBRANCH   7   8
BRANCH   1  14
ATOM     14  N   LIG    1       26.175 -21.141   5.639  0.00  0.00    -0.313 NA
ATOM     15  H   LIG    1       26.616 -21.776   4.975  0.00  0.00    +0.122 HD
BRANCH  14  17
ATOM     16  C   LIG    1       27.966 -21.393   7.294  0.00  0.00    +0.020 C 
ATOM     17  C   LIG    1       27.208 -20.430   6.392  0.00  0.00    +0.077 C 
ENDBRANCH  14  17
ENDBRANCH   1  14
TORSDOF 3
ENDMDL
MODEL 5
REMARK VINA RESULT:      -7.7      1.694      3.226
REMARK  Name = *****
REMARK                            x       y       z     vdW  Elec       q    Type
REMARK                         _______ _______ _______ _____ _____    ______ ____
ROOT
ATOM      1  C   LIG    1       25.094 -22.155   5.493  0.00  0.00    +0.064 C 
ATOM      2  C   LIG    1       23.629 -21.656   5.338  0.00  0.00    +0.007 C 
ATOM      3  C   LIG    1       23.715 -20.254   5.935  0.00  0.00    +0.009 C 
ATOM      4  C   LIG    1       24.229 -20.761   7.285  0.00  0.00    -0.002 C 
ATOM      5  C   LIG    1       23.128 -21.764   7.683  0.00  0.00    +0.004 C 
ATOM      6  C   LIG    1       22.691 -22.352   6.340  0.00  0.00    +0.005 C 
ATOM      7  C   LIG    1       25.512 -21.550   6.887  0.00  0.00    +0.039 C 
ENDROOT
BRANCH   7   8
ATOM      8  C   LIG    1       26.804 -20.735   6.818  0.00  0.00    -0.043 A 
ATOM      9  C   LIG    1       27.670 -20.567   7.909  0.00  0.00    +0.004 A 
ATOM     10  C   LIG    1       28.847 -19.821   7.794  0.00  0.00    +0.000 A 
ATOM     11  C   LIG    1       29.184 -19.230   6.581  0.00  0.00    +0.000 A 
ATOM     12  C   LIG    1       28.351 -19.394   5.481  0.00  0.00    +0.000 A 
ATOM     13  C   LIG    1       27.175 -20.145   5.595  0.00  0.00    +0.004 A 
ENDBRANCH   7   8
BRANCH   1  14
ATOM     14  N   LIG    1       25.234 -23.617   5.427  0.00  0.00    -0.313 NA
ATOM     15  H   LIG    1       24.325 -24.039   5.241  0.00  0.00    +0.122 HD
BRANCH  14  17
ATOM     16  C   LIG    1       25.903 -25.691   6.549  0.00  0.00    +0.020 C 
ATOM     17  C   LIG    1       25.789 -24.177   6.659  0.00  0.00    +0.077 C 
ENDBRANCH  14  17
ENDBRANCH   1  14
TORSDOF 3
ENDMDL
MODEL 6
REMARK VINA RESULT:      -7.6      2.591      4.937
REMARK  Name = *****
REMARK                            x       y       z     vdW  Elec       q    Type
REMARK                         _______ _______ _______ _____ _____    ______ ____
ROOT
ATOM      1  C   LIG    1       24.810 -22.133   5.950  0.00  0.00    +0.064 C 
ATOM      2  C   LIG    1       25.826 -21.065   6.447  0.00  0.00    +0.007 C 
ATOM      3  C   LIG    1       26.996 -21.936   6.894  0.00  0.00    +0.009 C 
ATOM      4  C   LIG    1       26.144 -22.729   7.890  0.00  0.00    -0.002 C 
ATOM      5  C   LIG    1       25.565 -21.605   8.771  0.00  0.00    +0.004 C 
ATOM      6  C   LIG    1       25.381 -20.449   7.786  0.00  0.00    +0.005 C 
ATOM      7  C   LIG    1       25.010 -23.301   6.989  0.00  0.00    +0.039 C 
ENDROOT
BRANCH   7   8
ATOM      8  C   LIG    1       25.297 -24.646   6.323  0.00  0.00    -0.043 A 
ATOM      9  C   LIG    1       25.060 -24.901   4.963  0.00  0.00    +0.004 A 
ATOM     10  C   LIG    1       25.350 -26.146   4.395  0.00  0.00    +0.000 A 
ATOM     11  C   LIG    1       25.887 -27.163   5.179  0.00  0.00    +0.000 A 
ATOM     12  C   LIG    1       26.144 -26.930   6.524  0.00  0.00    +0.000 A 
ATOM     13  C   LIG    1       25.859 -25.683   7.091  0.00  0.00    +0.004 A 
ENDBRANCH   7   8
BRANCH   1  14
ATOM     14  N   LIG    1       23.424 -21.647   5.879  0.00  0.00    -0.313 NA
ATOM     15  H   LIG    1       22.786 -22.440   5.838  0.00  0.00    +0.122 HD
BRANCH  14  17
ATOM     16  C   LIG    1       22.546 -19.476   5.156  0.00  0.00    +0.020 C 
ATOM     17  C   LIG    1       23.199 -20.779   4.722  0.00  0.00    +0.077 C 
ENDBRANCH  14  17
ENDBRANCH   1  14
TORSDOF 3
ENDMDL
MODEL 7
REMARK VINA RESULT:      -7.2      2.188      5.092
REMARK  Name = *****
REMARK                            x       y       z     vdW  Elec       q    Type
REMARK                         _______ _______ _______ _____ _____    ______ ____
ROOT
ATOM      1  C   LIG    1       25.542 -22.372   6.753  0.00  0.00    +0.064 C 
ATOM      2  C   LIG    1       25.816 -23.833   6.296  0.00  0.00    +0.007 C 
ATOM      3  C   LIG    1       25.045 -23.894   4.980  0.00  0.00    +0.009 C 
ATOM      4  C   LIG    1       23.715 -23.517   5.636  0.00  0.00    -0.002 C 
ATOM      5  C   LIG    1       23.583 -24.601   6.723  0.00  0.00    +0.004 C 
ATOM      6  C   LIG    1       25.031 -24.844   7.150  0.00  0.00    +0.005 C 
ATOM      7  C   LIG    1       24.043 -22.155   6.316  0.00  0.00    +0.039 C 
ENDROOT
BRANCH   7   8
ATOM      8  C   LIG    1       23.851 -20.910   5.450  0.00  0.00    -0.043 A 
ATOM      9  C   LIG    1       24.819 -20.438   4.551  0.00  0.00    +0.004 A 
ATOM     10  C   LIG    1       24.593 -19.299   3.771  0.00  0.00    +0.000 A 
ATOM     11  C   LIG    1       23.389 -18.610   3.875  0.00  0.00    +0.000 A 
ATOM     12  C   LIG    1       22.409 -19.065   4.748  0.00  0.00    +0.000 A 
ATOM     13  C   LIG    1       22.634 -20.208   5.524  0.00  0.00    +0.004 A 
ENDBRANCH   7   8
BRANCH   1  14
ATOM     14  N   LIG    1       25.769 -22.146   8.188  0.00  0.00    -0.313 NA
ATOM     15  H   LIG    1       24.919 -22.364   8.707  0.00  0.00    +0.122 HD
BRANCH  14  17
ATOM     16  C   LIG    1       27.261 -20.326   7.506  0.00  0.00    +0.020 C 
ATOM     17  C   LIG    1       26.177 -20.771   8.476  0.00  0.00    +0.077 C 
ENDBRANCH  14  17
ENDBRANCH   1  14
TORSDOF 3
ENDMDL
MODEL 8
REMARK VINA RESULT:      -6.5      1.406      4.731
REMARK  Name = *****
REMARK                            x       y       z     vdW  Elec       q    Type
REMARK                         _______ _______ _______ _____ _____    ______ ____
ROOT
ATOM      1  C   LIG    1       27.244 -20.782   5.688  0.00  0.00    +0.064 C 
ATOM      2  C   LIG    1       28.670 -20.762   6.309  0.00  0.00    +0.007 C 
ATOM      3  C   LIG    1       28.527 -21.771   7.445  0.00  0.00    +0.009 C 
ATOM      4  C   LIG    1       27.376 -21.005   8.103  0.00  0.00    -0.002 C 
ATOM      5  C   LIG    1       28.004 -19.612   8.308  0.00  0.00    +0.004 C 
ATOM      6  C   LIG    1       28.921 -19.461   7.093  0.00  0.00    +0.005 C 
ATOM      7  C   LIG    1       26.322 -20.922   6.958  0.00  0.00    +0.039 C 
ENDROOT
BRANCH   7   8
ATOM      8  C   LIG    1       25.347 -22.095   6.859  0.00  0.00    -0.043 A 
ATOM      9  C   LIG    1       25.756 -23.426   6.683  0.00  0.00    +0.004 A 
ATOM     10  C   LIG    1       24.826 -24.468   6.609  0.00  0.00    +0.000 A 
ATOM     11  C   LIG    1       23.465 -24.198   6.712  0.00  0.00    +0.000 A 
ATOM     12  C   LIG    1       23.036 -22.890   6.902  0.00  0.00    +0.000 A 
ATOM     13  C   LIG    1       23.967 -21.849   6.981  0.00  0.00    +0.004 A 
ENDBRANCH   7   8
BRANCH   1  14
ATOM     14  N   LIG    1       26.935 -19.599   4.871  0.00  0.00    -0.313 NA
ATOM     15  H   LIG    1       26.950 -18.766   5.457  0.00  0.00    +0.122 HD
BRANCH  14  17
ATOM     16  C   LIG    1       25.320 -18.428   3.446  0.00  0.00    +0.020 C 
ATOM     17  C   LIG    1       25.635 -19.707   4.209  0.00  0.00    +0.077 C 
ENDBRANCH  14  17
ENDBRANCH   1  14
TORSDOF 3
ENDMDL
MODEL 9
REMARK VINA RESULT:      -6.3      1.626      3.292
REMARK  Name = *****
REMARK                            x       y       z     vdW  Elec       q    Type
REMARK                         _______ _______ _______ _____ _____    ______ ____
ROOT
ATOM      1  C   LIG    1       25.013 -21.862   5.210  0.00  0.00    +0.064 C 
ATOM      2  C   LIG    1       23.971 -21.170   4.286  0.00  0.00    +0.007 C 
ATOM      3  C   LIG    1       24.390 -19.706   4.390  0.00  0.00    +0.009 C 
ATOM      4  C   LIG    1       24.230 -19.673   5.912  0.00  0.00    -0.002 C 
ATOM      5  C   LIG    1       22.768 -20.129   6.084  0.00  0.00    +0.004 C 
ATOM      6  C   LIG    1       22.579 -21.131   4.943  0.00  0.00    +0.005 C 
ATOM      7  C   LIG    1       25.176 -20.819   6.380  0.00  0.00    +0.039 C 
ENDROOT
BRANCH   7   8
ATOM      8  C   LIG    1       26.632 -20.426   6.628  0.00  0.00    -0.043 A 
ATOM      9  C   LIG    1       27.489 -19.960   5.619  0.00  0.00    +0.004 A 
ATOM     10  C   LIG    1       28.812 -19.602   5.897  0.00  0.00    +0.000 A 
ATOM     11  C   LIG    1       29.305 -19.701   7.195  0.00  0.00    +0.000 A 
ATOM     12  C   LIG    1       28.472 -20.147   8.214  0.00  0.00    +0.000 A 
ATOM     13  C   LIG    1       27.146 -20.499   7.936  0.00  0.00    +0.004 A 
ENDBRANCH   7   8
BRANCH   1  14
ATOM     14  N   LIG    1       24.604 -23.197   5.672  0.00  0.00    -0.313 NA
ATOM     15  H   LIG    1       23.591 -23.283   5.611  0.00  0.00    +0.122 HD
BRANCH  14  17
ATOM     16  C   LIG    1       26.232 -24.405   7.050  0.00  0.00    +0.020 C 
ATOM     17  C   LIG    1       25.036 -23.465   7.044  0.00  0.00    +0.077 C 
ENDBRANCH  14  17
ENDBRANCH   1  14
TORSDOF 3
ENDMDL
