MODEL 1
REMARK VINA RESULT:      -5.4      0.000      0.000
REMARK  Name = *****
REMARK                            x       y       z     vdW  Elec       q    Type
REMARK                         _______ _______ _______ _____ _____    ______ ____
ROOT
ATOM      1  C   LIG    1       25.324 -20.072   5.094  0.00  0.00    +0.081 C 
ENDROOT
BRANCH   1   3
ATOM      2  C   LIG    1       23.160 -20.879   6.366  0.00  0.00    +0.006 C 
ATOM      3  C   LIG    1       24.422 -21.189   5.587  0.00  0.00    +0.010 C 
ATOM      4  C   LIG    1       24.325 -21.519   7.062  0.00  0.00    +0.006 C 
ENDBRANCH   1   3
BRANCH   1   5
ATOM      5  C   LIG    1       24.889 -19.564   3.735  0.00  0.00    +0.010 C 
ATOM      6  C   LIG    1       23.708 -18.626   3.607  0.00  0.00    +0.006 C 
ATOM      7  C   LIG    1       25.094 -18.116   3.345  0.00  0.00    +0.006 C 
ENDBRANCH   1   5
BRANCH   1   8
ATOM      8  N   LIG    1       26.674 -20.571   4.990  0.00  0.00    -0.296 N 
ATOM      9  H   LIG    1       26.872 -21.294   4.318  0.00  0.00    +0.151 HD
BRANCH   8  10
ATOM     10  C   LIG    1       27.715 -20.064   5.692  0.00  0.00    +0.278 C 
ATOM     11  O   LIG    1       28.186 -18.904   5.165  0.00  0.00    -0.464 OA
ATOM     12  C   LIG    1       29.443 -18.731   5.804  0.00  0.00    +0.255 C 
ATOM     13  C   LIG    1       29.318 -19.554   7.062  0.00  0.00    +0.187 C 
ATOM     14  N   LIG    1       28.288 -20.548   6.741  0.00  0.00    -0.234 NA
ENDBRANCH   8  10
ENDBRANCH   1   8
TORSDOF 4
ENDMDL
MODEL 2
REMARK VINA RESULT:      -4.8      2.539      3.829
REMARK  Name = *****
REMARK                            x       y       z     vdW  Elec       q    Type
REMARK                         _______ _______ _______ _____ _____    ______ ____
ROOT
ATOM      1  C   LIG    1       24.950 -18.926   4.338  0.00  0.00    +0.081 C 
ENDROOT
BRANCH   1   3
ATOM      2  C   LIG    1       25.880 -20.629   6.122  0.00  0.00    +0.006 C 
ATOM      3  C   LIG    1       25.758 -20.162   4.686  0.00  0.00    +0.010 C 
ATOM      4  C   LIG    1       27.076 -20.050   5.424  0.00  0.00    +0.006 C 
ENDBRANCH   1   3
BRANCH   1   5
ATOM      5  C   LIG    1       23.564 -19.288   3.843  0.00  0.00    +0.010 C 
ATOM      6  C   LIG    1       22.577 -19.979   4.760  0.00  0.00    +0.006 C 
ATOM      7  C   LIG    1       22.342 -18.554   4.352  0.00  0.00    +0.006 C 
ENDBRANCH   1   5
BRANCH   1   8
ATOM      8  N   LIG    1       25.634 -18.195   3.299  0.00  0.00    -0.296 N 
ATOM      9  H   LIG    1       25.880 -18.677   2.450  0.00  0.00    +0.151 HD
BRANCH   8  10
ATOM     10  C   LIG    1       25.896 -16.868   3.365  0.00  0.00    +0.278 C 
ATOM     11  O   LIG    1       27.227 -16.595   3.337  0.00  0.00    -0.464 OA
ATOM     12  C   LIG    1       27.300 -15.241   3.758  0.00  0.00    +0.255 C 
ATOM     13  C   LIG    1       25.923 -14.701   3.461  0.00  0.00    +0.187 C 
ATOM     14  N   LIG    1       25.063 -15.890   3.464  0.00  0.00    -0.234 NA
ENDBRANCH   8  10
ENDBRANCH   1   8
TORSDOF 4
ENDMDL
MODEL 3
REMARK VINA RESULT:      -4.2      1.102      2.765
REMARK  Name = *****
REMARK                            x       y       z     vdW  Elec       q    Type
REMARK                         _______ _______ _______ _____ _____    ______ ____
ROOT
ATOM      1  C   LIG    1       25.142 -20.742   5.299  0.00  0.00    +0.081 C 
ENDROOT
BRANCH   1   3
ATOM      2  C   LIG    1       24.660 -19.701   2.926  0.00  0.00    +0.006 C 
ATOM      3  C   LIG    1       24.615 -19.610   4.438  0.00  0.00    +0.010 C 
ATOM      4  C   LIG    1       25.557 -18.732   3.641  0.00  0.00    +0.006 C 
ENDBRANCH   1   3
BRANCH   1   5
ATOM      5  C   LIG    1       24.016 -21.572   5.880  0.00  0.00    +0.010 C 
ATOM      6  C   LIG    1       23.109 -20.997   6.947  0.00  0.00    +0.006 C 
ATOM      7  C   LIG    1       22.570 -21.246   5.568  0.00  0.00    +0.006 C 
ENDBRANCH   1   5
BRANCH   1   8
ATOM      8  N   LIG    1       25.914 -20.185   6.384  0.00  0.00    -0.296 N 
ATOM      9  H   LIG    1       25.444 -19.621   7.072  0.00  0.00    +0.151 HD
BRANCH   8  10
ATOM     10  C   LIG    1       27.228 -20.447   6.579  0.00  0.00    +0.278 C 
ATOM     11  O   LIG    1       28.030 -19.425   6.180  0.00  0.00    -0.464 OA
ATOM     12  C   LIG    1       29.323 -20.010   6.138  0.00  0.00    +0.255 C 
ATOM     13  C   LIG    1       29.206 -21.198   7.059  0.00  0.00    +0.187 C 
ATOM     14  N   LIG    1       27.773 -21.511   7.061  0.00  0.00    -0.234 NA
ENDBRANCH   8  10
ENDBRANCH   1   8
TORSDOF 4
ENDMDL
MODEL 4
REMARK VINA RESULT:      -4.1      1.548      1.992
REMARK  Name = *****
REMARK                            x       y       z     vdW  Elec       q    Type
REMARK                         _______ _______ _______ _____ _____    ______ ____
ROOT
ATOM      1  C   LIG    1       24.945 -19.055   4.321  0.00  0.00    +0.081 C 
ENDROOT
BRANCH   1   3
ATOM      2  C   LIG    1       22.320 -18.828   4.418  0.00  0.00    +0.006 C 
ATOM      3  C   LIG    1       23.561 -19.641   4.111  0.00  0.00    +0.010 C 
ATOM      4  C   LIG    1       22.678 -19.998   5.288  0.00  0.00    +0.006 C 
ENDBRANCH   1   3
BRANCH   1   5
ATOM      5  C   LIG    1       25.284 -18.031   3.257  0.00  0.00    +0.010 C 
ATOM      6  C   LIG    1       25.133 -16.551   3.539  0.00  0.00    +0.006 C 
ATOM      7  C   LIG    1       26.504 -17.144   3.393  0.00  0.00    +0.006 C 
ENDBRANCH   1   5
BRANCH   1   8
ATOM      8  N   LIG    1       25.918 -20.118   4.266  0.00  0.00    -0.296 N 
ATOM      9  H   LIG    1       26.039 -20.619   3.401  0.00  0.00    +0.151 HD
BRANCH   8  10
ATOM     10  C   LIG    1       26.744 -20.432   5.292  0.00  0.00    +0.278 C 
ATOM     11  O   LIG    1       27.909 -19.733   5.259  0.00  0.00    -0.464 OA
ATOM     12  C   LIG    1       28.745 -20.431   6.170  0.00  0.00    +0.255 C 
ATOM     13  C   LIG    1       27.770 -21.163   7.058  0.00  0.00    +0.187 C 
ATOM     14  N   LIG    1       26.561 -21.289   6.237  0.00  0.00    -0.234 NA
ENDBRANCH   8  10
ENDBRANCH   1   8
TORSDOF 4
ENDMDL
MODEL 5
REMARK VINA RESULT:      -3.8      3.442      5.447
REMARK  Name = *****
REMARK                            x       y       z     vdW  Elec       q    Type
REMARK                         _______ _______ _______ _____ _____    ______ ____
ROOT
ATOM      1  C   LIG    1       25.872 -15.725   3.789  0.00  0.00    +0.081 C 
ENDROOT
BRANCH   1   3
ATOM      2  C   LIG    1       24.218 -13.823   4.560  0.00  0.00    +0.006 C 
ATOM      3  C   LIG    1       24.659 -14.850   3.537  0.00  0.00    +0.010 C 
ATOM      4  C   LIG    1       23.379 -15.044   4.322  0.00  0.00    +0.006 C 
ENDBRANCH   1   3
BRANCH   1   5
ATOM      5  C   LIG    1       27.152 -15.045   3.350  0.00  0.00    +0.010 C 
ATOM      6  C   LIG    1       27.142 -13.596   2.914  0.00  0.00    +0.006 C 
ATOM      7  C   LIG    1       27.799 -13.978   4.208  0.00  0.00    +0.006 C 
ENDBRANCH   1   5
BRANCH   1   8
ATOM      8  N   LIG    1       25.724 -16.955   3.049  0.00  0.00    -0.296 N 
ATOM      9  H   LIG    1       26.092 -17.003   2.113  0.00  0.00    +0.151 HD
BRANCH   8  10
ATOM     10  C   LIG    1       25.190 -18.084   3.571  0.00  0.00    +0.278 C 
ATOM     11  O   LIG    1       26.131 -18.920   4.084  0.00  0.00    -0.464 OA
ATOM     12  C   LIG    1       25.434 -20.146   4.251  0.00  0.00    +0.255 C 
ATOM     13  C   LIG    1       23.987 -19.727   4.319  0.00  0.00    +0.187 C 
ATOM     14  N   LIG    1       23.952 -18.441   3.615  0.00  0.00    -0.234 NA
ENDBRANCH   8  10
ENDBRANCH   1   8
TORSDOF 4
ENDMDL
MODEL 6
REMARK VINA RESULT:      -3.8      1.814      4.653
REMARK  Name = *****
REMARK                            x       y       z     vdW  Elec       q    Type
REMARK                         _______ _______ _______ _____ _____    ______ ____
ROOT
ATOM      1  C   LIG    1       26.731 -19.623   5.176  0.00  0.00    +0.081 C 
ENDROOT
BRANCH   1   3
ATOM      2  C   LIG    1       26.161 -17.515   3.699  0.00  0.00    +0.006 C 
ATOM      3  C   LIG    1       26.559 -18.972   3.816  0.00  0.00    +0.010 C 
ATOM      4  C   LIG    1       25.188 -18.586   3.303  0.00  0.00    +0.006 C 
ENDBRANCH   1   3
BRANCH   1   5
ATOM      5  C   LIG    1       28.193 -19.818   5.520  0.00  0.00    +0.010 C 
ATOM      6  C   LIG    1       29.111 -18.625   5.676  0.00  0.00    +0.006 C 
ATOM      7  C   LIG    1       28.728 -19.431   6.883  0.00  0.00    +0.006 C 
ENDBRANCH   1   5
BRANCH   1   8
ATOM      8  N   LIG    1       26.083 -20.913   5.163  0.00  0.00    -0.296 N 
ATOM      9  H   LIG    1       26.562 -21.690   4.738  0.00  0.00    +0.151 HD
BRANCH   8  10
ATOM     10  C   LIG    1       24.896 -21.161   5.765  0.00  0.00    +0.278 C 
ATOM     11  O   LIG    1       23.875 -21.282   4.877  0.00  0.00    -0.464 OA
ATOM     12  C   LIG    1       22.713 -21.188   5.689  0.00  0.00    +0.255 C 
ATOM     13  C   LIG    1       23.206 -21.570   7.062  0.00  0.00    +0.187 C 
ATOM     14  N   LIG    1       24.642 -21.272   7.023  0.00  0.00    -0.234 NA
ENDBRANCH   8  10
ENDBRANCH   1   8
TORSDOF 4
ENDMDL
MODEL 7
REMARK VINA RESULT:      -3.6      1.185      2.886
REMARK  Name = *****
REMARK                            x       y       z     vdW  Elec       q    Type
REMARK                         _______ _______ _______ _____ _____    ______ ____
ROOT
ATOM      1  C   LIG    1       24.159 -20.659   4.486  0.00  0.00    +0.081 C 
ENDROOT
BRANCH   1   3
ATOM      2  C   LIG    1       22.672 -18.604   3.769  0.00  0.00    +0.006 C 
ATOM      3  C   LIG    1       23.726 -19.217   4.669  0.00  0.00    +0.010 C 
ATOM      4  C   LIG    1       24.099 -18.156   3.655  0.00  0.00    +0.006 C 
ENDBRANCH   1   3
BRANCH   1   5
ATOM      5  C   LIG    1       23.812 -21.503   5.695  0.00  0.00    +0.010 C 
ATOM      6  C   LIG    1       23.438 -20.849   7.007  0.00  0.00    +0.006 C 
ATOM      7  C   LIG    1       22.390 -21.572   6.212  0.00  0.00    +0.006 C 
ENDBRANCH   1   5
BRANCH   1   8
ATOM      8  N   LIG    1       25.588 -20.698   4.291  0.00  0.00    -0.296 N 
ATOM      9  H   LIG    1       25.946 -20.834   3.359  0.00  0.00    +0.151 HD
BRANCH   8  10
ATOM     10  C   LIG    1       26.486 -20.480   5.281  0.00  0.00    +0.278 C 
ATOM     11  O   LIG    1       27.345 -19.468   4.995  0.00  0.00    -0.464 OA
ATOM     12  C   LIG    1       28.381 -19.626   5.954  0.00  0.00    +0.255 C 
ATOM     13  C   LIG    1       27.723 -20.410   7.062  0.00  0.00    +0.187 C 
ATOM     14  N   LIG    1       26.616 -21.108   6.399  0.00  0.00    -0.234 NA
ENDBRANCH   8  10
ENDBRANCH   1   8
TORSDOF 4
ENDMDL
MODEL 8
REMARK VINA RESULT:      -3.6      5.557      6.663
REMARK  Name = *****
REMARK                            x       y       z     vdW  Elec       q    Type
REMARK                         _______ _______ _______ _____ _____    ______ ____
ROOT
ATOM      1  C   LIG    1       24.672 -13.462   4.297  0.00  0.00    +0.081 C 
ENDROOT
BRANCH   1   3
ATOM      2  C   LIG    1       22.851 -15.278   4.872  0.00  0.00    +0.006 C 
ATOM      3  C   LIG    1       23.665 -14.506   3.854  0.00  0.00    +0.010 C 
ATOM      4  C   LIG    1       23.918 -15.981   4.084  0.00  0.00    +0.006 C 
ENDBRANCH   1   3
BRANCH   1   5
ATOM      5  C   LIG    1       24.994 -12.489   3.182  0.00  0.00    +0.010 C 
ATOM      6  C   LIG    1       24.373 -12.657   1.812  0.00  0.00    +0.006 C 
ATOM      7  C   LIG    1       23.955 -11.508   2.682  0.00  0.00    +0.006 C 
ENDBRANCH   1   5
BRANCH   1   8
ATOM      8  N   LIG    1       25.890 -14.125   4.697  0.00  0.00    -0.296 N 
ATOM      9  H   LIG    1       25.825 -15.017   5.160  0.00  0.00    +0.151 HD
BRANCH   8  10
ATOM     10  C   LIG    1       27.127 -13.655   4.412  0.00  0.00    +0.278 C 
ATOM     11  O   LIG    1       27.638 -12.886   5.409  0.00  0.00    -0.464 OA
ATOM     12  C   LIG    1       28.737 -12.229   4.795  0.00  0.00    +0.255 C 
ATOM     13  C   LIG    1       29.078 -13.119   3.627  0.00  0.00    +0.187 C 
ATOM     14  N   LIG    1       27.829 -13.835   3.345  0.00  0.00    -0.234 NA
ENDBRANCH   8  10
ENDBRANCH   1   8
TORSDOF 4
ENDMDL
MODEL 9
REMARK VINA RESULT:      -3.2      2.661      3.736
REMARK  Name = *****
REMARK                            x       y       z     vdW  Elec       q    Type
REMARK                         _______ _______ _______ _____ _____    ______ ____
ROOT
ATOM      1  C   LIG    1       24.783 -19.711   3.993  0.00  0.00    +0.081 C 
ENDROOT
BRANCH   1   3
ATOM      2  C   LIG    1       22.373 -19.663   5.061  0.00  0.00    +0.006 C 
ATOM      3  C   LIG    1       23.676 -18.969   4.718  0.00  0.00    +0.010 C 
ATOM      4  C   LIG    1       22.392 -18.595   4.007  0.00  0.00    +0.006 C 
ENDBRANCH   1   3
BRANCH   1   5
ATOM      5  C   LIG    1       25.844 -20.206   4.955  0.00  0.00    +0.010 C 
ATOM      6  C   LIG    1       25.543 -20.334   6.432  0.00  0.00    +0.006 C 
ATOM      7  C   LIG    1       25.731 -21.570   5.602  0.00  0.00    +0.006 C 
ENDBRANCH   1   5
BRANCH   1   8
ATOM      8  N   LIG    1       25.401 -18.819   3.042  0.00  0.00    -0.296 N 
ATOM      9  H   LIG    1       25.328 -19.032   2.061  0.00  0.00    +0.151 HD
BRANCH   8  10
ATOM     10  C   LIG    1       26.008 -17.659   3.389  0.00  0.00    +0.278 C 
ATOM     11  O   LIG    1       25.175 -16.589   3.311  0.00  0.00    -0.464 OA
ATOM     12  C   LIG    1       26.055 -15.475   3.365  0.00  0.00    +0.255 C 
ATOM     13  C   LIG    1       27.291 -16.030   4.026  0.00  0.00    +0.187 C 
ATOM     14  N   LIG    1       27.231 -17.470   3.749  0.00  0.00    -0.234 NA
ENDBRANCH   8  10
ENDBRANCH   1   8
TORSDOF 4
ENDMDL
