MODEL 1
REMARK VINA RESULT:      -5.7      0.000      0.000
REMARK  Name = *****
REMARK                            x       y       z     vdW  Elec       q    Type
REMARK                         _______ _______ _______ _____ _____    ______ ____
ROOT
ATOM      1  N   LIG    1       25.843 -23.015   6.673  0.00  0.00    -0.267 N 
ATOM      2  C   LIG    1       24.355 -22.805   6.616  0.00  0.00    +0.118 C 
ATOM      3  C   LIG    1       23.723 -21.876   7.675  0.00  0.00    +0.036 C 
ATOM      4  C   LIG    1       23.195 -20.964   6.557  0.00  0.00    +0.005 C 
ATOM      5  C   LIG    1       23.766 -21.920   5.494  0.00  0.00    +0.036 C 
ATOM      6  C   LIG    1       23.799 -24.269   6.606  0.00  0.00    +0.249 C 
ATOM      7  O   LIG    1       22.610 -24.574   6.659  0.00  0.00    -0.273 OA
ATOM      8  N   LIG    1       24.881 -25.133   6.545  0.00  0.00    -0.218 N 
ATOM      9  C   LIG    1       26.122 -24.429   6.516  0.00  0.00    +0.152 C 
ATOM     10  S   LIG    1       27.630 -25.078   6.141  0.00  0.00    -0.017 S 
ENDROOT
BRANCH   1  15
ATOM     11  C   LIG    1       28.846 -19.973   7.178  0.00  0.00    +0.072 A 
ATOM     12  C   LIG    1       28.888 -21.155   7.905  0.00  0.00    +0.137 A 
ATOM     13  F   LIG    1       29.882 -21.393   8.774  0.00  0.00    -0.205 F 
ATOM     14  C   LIG    1       27.893 -22.130   7.762  0.00  0.00    +0.062 A 
ATOM     15  C   LIG    1       26.828 -21.978   6.859  0.00  0.00    +0.039 A 
ATOM     16  C   LIG    1       26.784 -20.764   6.159  0.00  0.00    +0.024 A 
ATOM     17  C   LIG    1       27.782 -19.783   6.296  0.00  0.00    +0.018 A 
BRANCH  11  21
ATOM     18  C   LIG    1       31.045 -17.391   8.868  0.00  0.00    +0.128 C 
ATOM     19  N   LIG    1       30.111 -18.454   8.597  0.00  0.00    -0.314 N 
ATOM     20  H   LIG    1       29.622 -18.875   9.379  0.00  0.00    +0.149 HD
ATOM     21  C   LIG    1       29.872 -18.907   7.320  0.00  0.00    +0.247 C 
ATOM     22  O   LIG    1       30.418 -18.449   6.323  0.00  0.00    -0.270 OA
ENDBRANCH  11  21
ENDBRANCH   1  15
BRANCH   8  23
ATOM     23  C   LIG    1       24.683 -26.556   6.481  0.00  0.00    +0.062 A 
ATOM     24  C   LIG    1       25.024 -27.420   7.526  0.00  0.00    +0.040 A 
ATOM     25  C   LIG    1       24.838 -28.819   7.445  0.00  0.00    +0.092 A 
ATOM     26  C   LIG    1       24.278 -29.322   6.286  0.00  0.00    +0.152 A 
ATOM     27  N   LIG    1       23.901 -28.525   5.258  0.00  0.00    -0.242 NA
ATOM     28  C   LIG    1       24.101 -27.186   5.379  0.00  0.00    +0.136 A 
BRANCH  25  29
ATOM     29  C   LIG    1       25.242 -29.655   8.619  0.00  0.00    +0.420 C 
ATOM     30  F   LIG    1       24.159 -30.234   9.209  0.00  0.00    -0.166 F 
ATOM     31  F   LIG    1       25.835 -28.911   9.592  0.00  0.00    -0.166 F 
ATOM     32  F   LIG    1       26.099 -30.668   8.349  0.00  0.00    -0.166 F 
ENDBRANCH  25  29
BRANCH  26  33
ATOM     33  C   LIG    1       24.024 -30.725   6.061  0.00  0.00    +0.120 C 
ATOM     34  N   LIG    1       23.818 -31.849   5.895  0.00  0.00    -0.189 NA
ENDBRANCH  26  33
ENDBRANCH   8  23
TORSDOF 5
ENDMDL
MODEL 2
REMARK VINA RESULT:      -5.3      8.573      9.994
REMARK  Name = *****
REMARK                            x       y       z     vdW  Elec       q    Type
REMARK                         _______ _______ _______ _____ _____    ______ ____
ROOT
ATOM      1  N   LIG    1       24.122 -29.346  13.649  0.00  0.00    -0.267 N 
ATOM      2  C   LIG    1       23.311 -28.148  14.059  0.00  0.00    +0.118 C 
ATOM      3  C   LIG    1       23.725 -27.412  15.352  0.00  0.00    +0.036 C 
ATOM      4  C   LIG    1       23.939 -26.122  14.546  0.00  0.00    +0.005 C 
ATOM      5  C   LIG    1       23.466 -26.831  13.265  0.00  0.00    +0.036 C 
ATOM      6  C   LIG    1       21.847 -28.705  14.056  0.00  0.00    +0.249 C 
ATOM      7  O   LIG    1       20.854 -28.083  14.426  0.00  0.00    -0.273 OA
ATOM      8  N   LIG    1       21.890 -30.007  13.584  0.00  0.00    -0.218 N 
ATOM      9  C   LIG    1       23.220 -30.413  13.264  0.00  0.00    +0.152 C 
ATOM     10  S   LIG    1       23.663 -31.783  12.390  0.00  0.00    -0.017 S 
ENDROOT
BRANCH   1  15
ATOM     11  C   LIG    1       28.425 -29.464  13.645  0.00  0.00    +0.072 A 
ATOM     12  C   LIG    1       27.713 -29.092  12.513  0.00  0.00    +0.137 A 
ATOM     13  F   LIG    1       28.350 -28.735  11.387  0.00  0.00    -0.205 F 
ATOM     14  C   LIG    1       26.313 -29.084  12.507  0.00  0.00    +0.062 A 
ATOM     15  C   LIG    1       25.563 -29.419  13.646  0.00  0.00    +0.039 A 
ATOM     16  C   LIG    1       26.298 -29.825  14.769  0.00  0.00    +0.024 A 
ATOM     17  C   LIG    1       27.704 -29.831  14.781  0.00  0.00    +0.018 A 
BRANCH  11  21
ATOM     18  C   LIG    1       31.961 -28.514  14.622  0.00  0.00    +0.128 C 
ATOM     19  N   LIG    1       30.526 -28.610  14.527  0.00  0.00    -0.314 N 
ATOM     20  H   LIG    1       29.964 -27.998  15.106  0.00  0.00    +0.149 HD
ATOM     21  C   LIG    1       29.910 -29.505  13.682  0.00  0.00    +0.247 C 
ATOM     22  O   LIG    1       30.518 -30.277  12.949  0.00  0.00    -0.270 OA
ENDBRANCH  11  21
ENDBRANCH   1  15
BRANCH   8  23
ATOM     23  C   LIG    1       20.682 -30.772  13.427  0.00  0.00    +0.062 A 
ATOM     24  C   LIG    1       19.965 -30.827  12.228  0.00  0.00    +0.040 A 
ATOM     25  C   LIG    1       18.771 -31.570  12.091  0.00  0.00    +0.092 A 
ATOM     26  C   LIG    1       18.329 -32.277  13.192  0.00  0.00    +0.152 A 
ATOM     27  N   LIG    1       19.003 -32.283  14.367  0.00  0.00    -0.242 NA
ATOM     28  C   LIG    1       20.146 -31.552  14.454  0.00  0.00    +0.136 A 
BRANCH  25  29
ATOM     29  C   LIG    1       18.079 -31.557  10.763  0.00  0.00    +0.420 C 
ATOM     30  F   LIG    1       18.783 -30.837   9.845  0.00  0.00    -0.166 F 
ATOM     31  F   LIG    1       16.857 -30.963  10.834  0.00  0.00    -0.166 F 
ATOM     32  F   LIG    1       17.872 -32.770  10.199  0.00  0.00    -0.166 F 
ENDBRANCH  25  29
BRANCH  26  33
ATOM     33  C   LIG    1       17.132 -33.083  13.202  0.00  0.00    +0.120 C 
ATOM     34  N   LIG    1       16.180 -33.735  13.221  0.00  0.00    -0.189 NA
ENDBRANCH  26  33
ENDBRANCH   8  23
TORSDOF 5
ENDMDL
MODEL 3
REMARK VINA RESULT:      -5.2      8.663     10.502
REMARK  Name = *****
REMARK                            x       y       z     vdW  Elec       q    Type
REMARK                         _______ _______ _______ _____ _____    ______ ____
ROOT
ATOM      1  N   LIG    1       24.221 -29.580  13.095  0.00  0.00    -0.267 N 
ATOM      2  C   LIG    1       23.599 -30.291  11.924  0.00  0.00    +0.118 C 
ATOM      3  C   LIG    1       24.249 -30.091  10.538  0.00  0.00    +0.036 C 
ATOM      4  C   LIG    1       24.493 -31.604  10.437  0.00  0.00    +0.005 C 
ATOM      5  C   LIG    1       23.789 -31.818  11.788  0.00  0.00    +0.036 C 
ATOM      6  C   LIG    1       22.096 -29.860  12.018  0.00  0.00    +0.249 C 
ATOM      7  O   LIG    1       21.228 -30.137  11.192  0.00  0.00    -0.273 OA
ATOM      8  N   LIG    1       21.942 -29.108  13.172  0.00  0.00    -0.218 N 
ATOM      9  C   LIG    1       23.170 -28.970  13.884  0.00  0.00    +0.152 C 
ATOM     10  S   LIG    1       23.352 -28.406  15.460  0.00  0.00    -0.017 S 
ENDROOT
BRANCH   1  15
ATOM     11  C   LIG    1       28.453 -29.457  13.873  0.00  0.00    +0.072 A 
ATOM     12  C   LIG    1       27.656 -30.473  14.381  0.00  0.00    +0.137 A 
ATOM     13  F   LIG    1       28.188 -31.463  15.114  0.00  0.00    -0.205 F 
ATOM     14  C   LIG    1       26.274 -30.495  14.152  0.00  0.00    +0.062 A 
ATOM     15  C   LIG    1       25.634 -29.514  13.377  0.00  0.00    +0.039 A 
ATOM     16  C   LIG    1       26.449 -28.478  12.901  0.00  0.00    +0.024 A 
ATOM     17  C   LIG    1       27.837 -28.453  13.125  0.00  0.00    +0.018 A 
BRANCH  11  21
ATOM     18  C   LIG    1       31.786 -28.044  14.992  0.00  0.00    +0.128 C 
ATOM     19  N   LIG    1       30.383 -28.257  14.743  0.00  0.00    -0.314 N 
ATOM     20  H   LIG    1       29.728 -27.546  15.045  0.00  0.00    +0.149 HD
ATOM     21  C   LIG    1       29.918 -29.389  14.113  0.00  0.00    +0.247 C 
ATOM     22  O   LIG    1       30.644 -30.292  13.714  0.00  0.00    -0.270 OA
ENDBRANCH  11  21
ENDBRANCH   1  15
BRANCH   8  23
ATOM     23  C   LIG    1       20.650 -28.602  13.552  0.00  0.00    +0.062 A 
ATOM     24  C   LIG    1       19.532 -29.424  13.728  0.00  0.00    +0.040 A 
ATOM     25  C   LIG    1       18.264 -28.913  14.087  0.00  0.00    +0.092 A 
ATOM     26  C   LIG    1       18.158 -27.550  14.286  0.00  0.00    +0.152 A 
ATOM     27  N   LIG    1       19.217 -26.715  14.161  0.00  0.00    -0.242 NA
ATOM     28  C   LIG    1       20.417 -27.250  13.811  0.00  0.00    +0.136 A 
BRANCH  25  29
ATOM     29  C   LIG    1       17.131 -29.880  14.244  0.00  0.00    +0.420 C 
ATOM     30  F   LIG    1       16.602 -29.821  15.498  0.00  0.00    -0.166 F 
ATOM     31  F   LIG    1       17.536 -31.168  14.077  0.00  0.00    -0.166 F 
ATOM     32  F   LIG    1       16.090 -29.703  13.396  0.00  0.00    -0.166 F 
ENDBRANCH  25  29
BRANCH  26  33
ATOM     33  C   LIG    1       16.932 -26.886  14.660  0.00  0.00    +0.120 C 
ATOM     34  N   LIG    1       15.960 -26.343  14.964  0.00  0.00    -0.189 NA
ENDBRANCH  26  33
ENDBRANCH   8  23
TORSDOF 5
ENDMDL
MODEL 4
REMARK VINA RESULT:      -4.7      7.766     10.527
REMARK  Name = *****
REMARK                            x       y       z     vdW  Elec       q    Type
REMARK                         _______ _______ _______ _____ _____    ______ ____
ROOT
ATOM      1  N   LIG    1       24.787 -31.301   9.415  0.00  0.00    -0.267 N 
ATOM      2  C   LIG    1       25.356 -30.236  10.313  0.00  0.00    +0.118 C 
ATOM      3  C   LIG    1       26.844 -30.355  10.709  0.00  0.00    +0.036 C 
ATOM      4  C   LIG    1       27.120 -28.985  10.070  0.00  0.00    +0.005 C 
ATOM      5  C   LIG    1       25.627 -28.831   9.730  0.00  0.00    +0.036 C 
ATOM      6  C   LIG    1       24.352 -30.225  11.515  0.00  0.00    +0.249 C 
ATOM      7  O   LIG    1       24.485 -29.561  12.540  0.00  0.00    -0.273 OA
ATOM      8  N   LIG    1       23.321 -31.100  11.214  0.00  0.00    -0.218 N 
ATOM      9  C   LIG    1       23.502 -31.717   9.940  0.00  0.00    +0.152 C 
ATOM     10  S   LIG    1       22.348 -32.592   9.081  0.00  0.00    -0.017 S 
ENDROOT
BRANCH   1  15
ATOM     11  C   LIG    1       26.754 -32.787   5.887  0.00  0.00    +0.072 A 
ATOM     12  C   LIG    1       25.980 -31.636   5.850  0.00  0.00    +0.137 A 
ATOM     13  F   LIG    1       25.841 -30.938   4.712  0.00  0.00    -0.205 F 
ATOM     14  C   LIG    1       25.316 -31.171   6.992  0.00  0.00    +0.062 A 
ATOM     15  C   LIG    1       25.423 -31.823   8.231  0.00  0.00    +0.039 A 
ATOM     16  C   LIG    1       26.181 -33.002   8.241  0.00  0.00    +0.024 A 
ATOM     17  C   LIG    1       26.854 -33.471   7.098  0.00  0.00    +0.018 A 
BRANCH  11  21
ATOM     18  C   LIG    1       27.302 -33.820   2.283  0.00  0.00    +0.128 C 
ATOM     19  N   LIG    1       26.756 -33.289   3.506  0.00  0.00    -0.314 N 
ATOM     20  H   LIG    1       25.829 -32.881   3.481  0.00  0.00    +0.149 HD
ATOM     21  C   LIG    1       27.456 -33.322   4.691  0.00  0.00    +0.247 C 
ATOM     22  O   LIG    1       28.578 -33.802   4.805  0.00  0.00    -0.270 OA
ENDBRANCH  11  21
ENDBRANCH   1  15
BRANCH   8  23
ATOM     23  C   LIG    1       22.216 -31.273  12.118  0.00  0.00    +0.062 A 
ATOM     24  C   LIG    1       21.475 -30.203  12.629  0.00  0.00    +0.040 A 
ATOM     25  C   LIG    1       20.402 -30.385  13.529  0.00  0.00    +0.092 A 
ATOM     26  C   LIG    1       20.079 -31.680  13.885  0.00  0.00    +0.152 A 
ATOM     27  N   LIG    1       20.744 -32.753  13.394  0.00  0.00    -0.242 NA
ATOM     28  C   LIG    1       21.772 -32.531  12.532  0.00  0.00    +0.136 A 
BRANCH  25  29
ATOM     29  C   LIG    1       19.677 -29.169  14.021  0.00  0.00    +0.420 C 
ATOM     30  F   LIG    1       20.118 -28.044  13.393  0.00  0.00    -0.166 F 
ATOM     31  F   LIG    1       19.889 -28.955  15.348  0.00  0.00    -0.166 F 
ATOM     32  F   LIG    1       18.334 -29.182  13.854  0.00  0.00    -0.166 F 
ENDBRANCH  25  29
BRANCH  26  33
ATOM     33  C   LIG    1       19.006 -32.022  14.789  0.00  0.00    +0.120 C 
ATOM     34  N   LIG    1       18.141 -32.301  15.500  0.00  0.00    -0.189 NA
ENDBRANCH  26  33
ENDBRANCH   8  23
TORSDOF 5
ENDMDL
MODEL 5
REMARK VINA RESULT:      -4.6      8.458      9.457
REMARK  Name = *****
REMARK                            x       y       z     vdW  Elec       q    Type
REMARK                         _______ _______ _______ _____ _____    ______ ____
ROOT
ATOM      1  N   LIG    1       23.931 -28.751  13.387  0.00  0.00    -0.267 N 
ATOM      2  C   LIG    1       22.849 -27.815  13.853  0.00  0.00    +0.118 C 
ATOM      3  C   LIG    1       22.817 -27.449  15.353  0.00  0.00    +0.036 C 
ATOM      4  C   LIG    1       22.982 -25.965  14.991  0.00  0.00    +0.005 C 
ATOM      5  C   LIG    1       22.950 -26.316  13.493  0.00  0.00    +0.036 C 
ATOM      6  C   LIG    1       21.547 -28.497  13.312  0.00  0.00    +0.249 C 
ATOM      7  O   LIG    1       20.401 -28.117  13.544  0.00  0.00    -0.273 OA
ATOM      8  N   LIG    1       21.926 -29.593  12.554  0.00  0.00    -0.218 N 
ATOM      9  C   LIG    1       23.343 -29.747  12.515  0.00  0.00    +0.152 C 
ATOM     10  S   LIG    1       24.210 -30.750  11.475  0.00  0.00    -0.017 S 
ENDROOT
BRANCH   1  15
ATOM     11  C   LIG    1       28.105 -28.576  14.421  0.00  0.00    +0.072 A 
ATOM     12  C   LIG    1       27.312 -29.647  14.808  0.00  0.00    +0.137 A 
ATOM     13  F   LIG    1       27.831 -30.673  15.499  0.00  0.00    -0.205 F 
ATOM     14  C   LIG    1       25.947 -29.687  14.497  0.00  0.00    +0.062 A 
ATOM     15  C   LIG    1       25.323 -28.670  13.757  0.00  0.00    +0.039 A 
ATOM     16  C   LIG    1       26.132 -27.581  13.405  0.00  0.00    +0.024 A 
ATOM     17  C   LIG    1       27.504 -27.537  13.711  0.00  0.00    +0.018 A 
BRANCH  11  21
ATOM     18  C   LIG    1       31.394 -27.032  15.500  0.00  0.00    +0.128 C 
ATOM     19  N   LIG    1       30.006 -27.265  15.191  0.00  0.00    -0.314 N 
ATOM     20  H   LIG    1       29.353 -26.499  15.306  0.00  0.00    +0.149 HD
ATOM     21  C   LIG    1       29.552 -28.488  14.752  0.00  0.00    +0.247 C 
ATOM     22  O   LIG    1       30.277 -29.462  14.583  0.00  0.00    -0.270 OA
ENDBRANCH  11  21
ENDBRANCH   1  15
BRANCH   8  23
ATOM     23  C   LIG    1       20.940 -30.401  11.886  0.00  0.00    +0.062 A 
ATOM     24  C   LIG    1       19.741 -30.793  12.489  0.00  0.00    +0.040 A 
ATOM     25  C   LIG    1       18.788 -31.599  11.829  0.00  0.00    +0.092 A 
ATOM     26  C   LIG    1       19.066 -31.984  10.531  0.00  0.00    +0.152 A 
ATOM     27  N   LIG    1       20.198 -31.605   9.890  0.00  0.00    -0.242 NA
ATOM     28  C   LIG    1       21.088 -30.831  10.566  0.00  0.00    +0.136 A 
BRANCH  25  29
ATOM     29  C   LIG    1       17.538 -31.967  12.568  0.00  0.00    +0.420 C 
ATOM     30  F   LIG    1       16.431 -31.488  11.935  0.00  0.00    -0.166 F 
ATOM     31  F   LIG    1       17.509 -31.425  13.815  0.00  0.00    -0.166 F 
ATOM     32  F   LIG    1       17.324 -33.293  12.731  0.00  0.00    -0.166 F 
ENDBRANCH  25  29
BRANCH  26  33
ATOM     33  C   LIG    1       18.187 -32.802   9.729  0.00  0.00    +0.120 C 
ATOM     34  N   LIG    1       17.495 -33.456   9.077  0.00  0.00    -0.189 NA
ENDBRANCH  26  33
ENDBRANCH   8  23
TORSDOF 5
ENDMDL
MODEL 6
REMARK VINA RESULT:      -4.4      8.480     10.425
REMARK  Name = *****
REMARK                            x       y       z     vdW  Elec       q    Type
REMARK                         _______ _______ _______ _____ _____    ______ ____
ROOT
ATOM      1  N   LIG    1       24.069 -28.768  14.027  0.00  0.00    -0.267 N 
ATOM      2  C   LIG    1       23.423 -27.452  14.367  0.00  0.00    +0.118 C 
ATOM      3  C   LIG    1       24.056 -26.616  15.500  0.00  0.00    +0.036 C 
ATOM      4  C   LIG    1       24.282 -25.458  14.515  0.00  0.00    +0.005 C 
ATOM      5  C   LIG    1       23.593 -26.262  13.397  0.00  0.00    +0.036 C 
ATOM      6  C   LIG    1       21.927 -27.853  14.599  0.00  0.00    +0.249 C 
ATOM      7  O   LIG    1       21.045 -27.093  14.995  0.00  0.00    -0.273 OA
ATOM      8  N   LIG    1       21.797 -29.199  14.298  0.00  0.00    -0.218 N 
ATOM      9  C   LIG    1       23.036 -29.774  13.887  0.00  0.00    +0.152 C 
ATOM     10  S   LIG    1       23.246 -31.276  13.154  0.00  0.00    -0.017 S 
ENDROOT
BRANCH   1  15
ATOM     11  C   LIG    1       28.312 -29.324  13.566  0.00  0.00    +0.072 A 
ATOM     12  C   LIG    1       27.517 -28.926  12.500  0.00  0.00    +0.137 A 
ATOM     13  F   LIG    1       28.056 -28.681  11.296  0.00  0.00    -0.205 F 
ATOM     14  C   LIG    1       26.133 -28.775  12.645  0.00  0.00    +0.062 A 
ATOM     15  C   LIG    1       25.486 -28.987  13.873  0.00  0.00    +0.039 A 
ATOM     16  C   LIG    1       26.300 -29.422  14.929  0.00  0.00    +0.024 A 
ATOM     17  C   LIG    1       27.691 -29.570  14.790  0.00  0.00    +0.018 A 
BRANCH  11  21
ATOM     18  C   LIG    1       31.997 -28.977  14.378  0.00  0.00    +0.128 C 
ATOM     19  N   LIG    1       30.558 -28.910  14.406  0.00  0.00    -0.314 N 
ATOM     20  H   LIG    1       30.116 -28.400  15.162  0.00  0.00    +0.149 HD
ATOM     21  C   LIG    1       29.781 -29.516  13.445  0.00  0.00    +0.247 C 
ATOM     22  O   LIG    1       30.239 -30.146  12.499  0.00  0.00    -0.270 OA
ENDBRANCH  11  21
ENDBRANCH   1  15
BRANCH   8  23
ATOM     23  C   LIG    1       20.516 -29.850  14.378  0.00  0.00    +0.062 A 
ATOM     24  C   LIG    1       19.304 -29.163  14.260  0.00  0.00    +0.040 A 
ATOM     25  C   LIG    1       18.052 -29.810  14.355  0.00  0.00    +0.092 A 
ATOM     26  C   LIG    1       18.054 -31.178  14.551  0.00  0.00    +0.152 A 
ATOM     27  N   LIG    1       19.200 -31.895  14.640  0.00  0.00    -0.242 NA
ATOM     28  C   LIG    1       20.382 -31.230  14.545  0.00  0.00    +0.136 A 
BRANCH  25  29
ATOM     29  C   LIG    1       16.813 -28.979  14.220  0.00  0.00    +0.420 C 
ATOM     30  F   LIG    1       17.119 -27.674  13.979  0.00  0.00    -0.166 F 
ATOM     31  F   LIG    1       16.076 -28.978  15.363  0.00  0.00    -0.166 F 
ATOM     32  F   LIG    1       15.967 -29.348  13.230  0.00  0.00    -0.166 F 
ENDBRANCH  25  29
BRANCH  26  33
ATOM     33  C   LIG    1       16.856 -31.976  14.663  0.00  0.00    +0.120 C 
ATOM     34  N   LIG    1       15.894 -32.608  14.739  0.00  0.00    -0.189 NA
ENDBRANCH  26  33
ENDBRANCH   8  23
TORSDOF 5
ENDMDL
MODEL 7
REMARK VINA RESULT:      -3.9      8.293      9.925
REMARK  Name = *****
REMARK                            x       y       z     vdW  Elec       q    Type
REMARK                         _______ _______ _______ _____ _____    ______ ____
ROOT
ATOM      1  N   LIG    1       24.762 -30.192  12.251  0.00  0.00    -0.267 N 
ATOM      2  C   LIG    1       24.503 -30.547  10.812  0.00  0.00    +0.118 C 
ATOM      3  C   LIG    1       25.168 -29.670   9.729  0.00  0.00    +0.036 C 
ATOM      4  C   LIG    1       25.895 -30.906   9.178  0.00  0.00    +0.005 C 
ATOM      5  C   LIG    1       25.187 -31.797  10.214  0.00  0.00    +0.036 C 
ATOM      6  C   LIG    1       22.940 -30.605  10.747  0.00  0.00    +0.249 C 
ATOM      7  O   LIG    1       22.280 -30.772   9.724  0.00  0.00    -0.273 OA
ATOM      8  N   LIG    1       22.455 -30.418  12.032  0.00  0.00    -0.218 N 
ATOM      9  C   LIG    1       23.508 -30.234  12.976  0.00  0.00    +0.152 C 
ATOM     10  S   LIG    1       23.366 -30.282  14.654  0.00  0.00    -0.017 S 
ENDROOT
BRANCH   1  15
ATOM     11  C   LIG    1       28.644 -29.271  13.866  0.00  0.00    +0.072 A 
ATOM     12  C   LIG    1       27.954 -30.410  14.255  0.00  0.00    +0.137 A 
ATOM     13  F   LIG    1       28.489 -31.272  15.133  0.00  0.00    -0.205 F 
ATOM     14  C   LIG    1       26.678 -30.692  13.752  0.00  0.00    +0.062 A 
ATOM     15  C   LIG    1       26.049 -29.860  12.811  0.00  0.00    +0.039 A 
ATOM     16  C   LIG    1       26.747 -28.697  12.456  0.00  0.00    +0.024 A 
ATOM     17  C   LIG    1       28.031 -28.412  12.955  0.00  0.00    +0.018 A 
BRANCH  11  21
ATOM     18  C   LIG    1       32.424 -29.053  14.029  0.00  0.00    +0.128 C 
ATOM     19  N   LIG    1       31.065 -29.285  13.611  0.00  0.00    -0.314 N 
ATOM     20  H   LIG    1       30.906 -29.722  12.711  0.00  0.00    +0.149 HD
ATOM     21  C   LIG    1       29.990 -28.928  14.395  0.00  0.00    +0.247 C 
ATOM     22  O   LIG    1       30.097 -28.400  15.495  0.00  0.00    -0.270 OA
ENDBRANCH  11  21
ENDBRANCH   1  15
BRANCH   8  23
ATOM     23  C   LIG    1       21.041 -30.462  12.298  0.00  0.00    +0.062 A 
ATOM     24  C   LIG    1       20.141 -31.185  11.510  0.00  0.00    +0.040 A 
ATOM     25  C   LIG    1       18.752 -31.208  11.772  0.00  0.00    +0.092 A 
ATOM     26  C   LIG    1       18.297 -30.499  12.867  0.00  0.00    +0.152 A 
ATOM     27  N   LIG    1       19.132 -29.809  13.681  0.00  0.00    -0.242 NA
ATOM     28  C   LIG    1       20.460 -29.813  13.389  0.00  0.00    +0.136 A 
BRANCH  25  29
ATOM     29  C   LIG    1       17.874 -32.010  10.862  0.00  0.00    +0.420 C 
ATOM     30  F   LIG    1       18.602 -32.895  10.126  0.00  0.00    -0.166 F 
ATOM     31  F   LIG    1       17.228 -31.225   9.959  0.00  0.00    -0.166 F 
ATOM     32  F   LIG    1       16.914 -32.743  11.473  0.00  0.00    -0.166 F 
ENDBRANCH  25  29
BRANCH  26  33
ATOM     33  C   LIG    1       16.911 -30.433  13.263  0.00  0.00    +0.120 C 
ATOM     34  N   LIG    1       15.805 -30.368  13.586  0.00  0.00    -0.189 NA
ENDBRANCH  26  33
ENDBRANCH   8  23
TORSDOF 5
ENDMDL
MODEL 8
REMARK VINA RESULT:      -3.5      8.451     10.982
REMARK  Name = *****
REMARK                            x       y       z     vdW  Elec       q    Type
REMARK                         _______ _______ _______ _____ _____    ______ ____
ROOT
ATOM      1  N   LIG    1       23.998 -31.801   9.666  0.00  0.00    -0.267 N 
ATOM      2  C   LIG    1       24.323 -30.802  10.743  0.00  0.00    +0.118 C 
ATOM      3  C   LIG    1       25.747 -30.832  11.339  0.00  0.00    +0.036 C 
ATOM      4  C   LIG    1       25.960 -29.377  10.894  0.00  0.00    +0.005 C 
ATOM      5  C   LIG    1       24.520 -29.320  10.356  0.00  0.00    +0.036 C 
ATOM      6  C   LIG    1       23.169 -31.025  11.779  0.00  0.00    +0.249 C 
ATOM      7  O   LIG    1       23.090 -30.477  12.877  0.00  0.00    -0.273 OA
ATOM      8  N   LIG    1       22.287 -31.948  11.240  0.00  0.00    -0.218 N 
ATOM      9  C   LIG    1       22.705 -32.390   9.950  0.00  0.00    +0.152 C 
ATOM     10  S   LIG    1       21.777 -33.259   8.844  0.00  0.00    -0.017 S 
ENDROOT
BRANCH   1  15
ATOM     11  C   LIG    1       26.485 -32.848   6.313  0.00  0.00    +0.072 A 
ATOM     12  C   LIG    1       26.858 -33.161   7.612  0.00  0.00    +0.137 A 
ATOM     13  F   LIG    1       27.999 -33.823   7.860  0.00  0.00    -0.205 F 
ATOM     14  C   LIG    1       26.062 -32.793   8.704  0.00  0.00    +0.062 A 
ATOM     15  C   LIG    1       24.841 -32.120   8.540  0.00  0.00    +0.039 A 
ATOM     16  C   LIG    1       24.497 -31.781   7.223  0.00  0.00    +0.024 A 
ATOM     17  C   LIG    1       25.291 -32.153   6.123  0.00  0.00    +0.018 A 
BRANCH  11  21
ATOM     18  C   LIG    1       27.344 -33.611   2.702  0.00  0.00    +0.128 C 
ATOM     19  N   LIG    1       26.668 -33.235   3.917  0.00  0.00    -0.314 N 
ATOM     20  H   LIG    1       25.687 -32.987   3.865  0.00  0.00    +0.149 HD
ATOM     21  C   LIG    1       27.315 -33.203   5.132  0.00  0.00    +0.247 C 
ATOM     22  O   LIG    1       28.497 -33.491   5.280  0.00  0.00    -0.270 OA
ENDBRANCH  11  21
ENDBRANCH   1  15
BRANCH   8  23
ATOM     23  C   LIG    1       21.094 -32.326  11.950  0.00  0.00    +0.062 A 
ATOM     24  C   LIG    1       19.814 -32.212  11.401  0.00  0.00    +0.040 A 
ATOM     25  C   LIG    1       18.648 -32.573  12.113  0.00  0.00    +0.092 A 
ATOM     26  C   LIG    1       18.810 -33.073  13.391  0.00  0.00    +0.152 A 
ATOM     27  N   LIG    1       20.030 -33.233  13.957  0.00  0.00    -0.242 NA
ATOM     28  C   LIG    1       21.124 -32.871  13.235  0.00  0.00    +0.136 A 
BRANCH  25  29
ATOM     29  C   LIG    1       17.324 -32.406  11.434  0.00  0.00    +0.420 C 
ATOM     30  F   LIG    1       16.650 -33.588  11.369  0.00  0.00    -0.166 F 
ATOM     31  F   LIG    1       17.464 -31.992  10.145  0.00  0.00    -0.166 F 
ATOM     32  F   LIG    1       16.473 -31.529  12.017  0.00  0.00    -0.166 F 
ENDBRANCH  25  29
BRANCH  26  33
ATOM     33  C   LIG    1       17.716 -33.487  14.236  0.00  0.00    +0.120 C 
ATOM     34  N   LIG    1       16.834 -33.824  14.900  0.00  0.00    -0.189 NA
ENDBRANCH  26  33
ENDBRANCH   8  23
TORSDOF 5
ENDMDL
MODEL 9
REMARK VINA RESULT:      -3.1      4.273      7.422
REMARK  Name = *****
REMARK                            x       y       z     vdW  Elec       q    Type
REMARK                         _______ _______ _______ _____ _____    ______ ____
ROOT
ATOM      1  N   LIG    1       25.342 -29.210   7.682  0.00  0.00    -0.267 N 
ATOM      2  C   LIG    1       25.209 -30.583   7.080  0.00  0.00    +0.118 C 
ATOM      3  C   LIG    1       24.016 -30.837   6.134  0.00  0.00    +0.036 C 
ATOM      4  C   LIG    1       24.992 -31.194   5.003  0.00  0.00    +0.005 C 
ATOM      5  C   LIG    1       26.184 -31.006   5.958  0.00  0.00    +0.036 C 
ATOM      6  C   LIG    1       25.267 -31.517   8.336  0.00  0.00    +0.249 C 
ATOM      7  O   LIG    1       25.100 -32.734   8.320  0.00  0.00    -0.273 OA
ATOM      8  N   LIG    1       25.519 -30.723   9.444  0.00  0.00    -0.218 N 
ATOM      9  C   LIG    1       25.638 -29.345   9.094  0.00  0.00    +0.152 C 
ATOM     10  S   LIG    1       26.235 -28.114  10.076  0.00  0.00    -0.017 S 
ENDROOT
BRANCH   1  15
ATOM     11  C   LIG    1       24.977 -25.519   5.498  0.00  0.00    +0.072 A 
ATOM     12  C   LIG    1       25.912 -25.667   6.513  0.00  0.00    +0.137 A 
ATOM     13  F   LIG    1       26.748 -24.665   6.828  0.00  0.00    -0.205 F 
ATOM     14  C   LIG    1       26.009 -26.858   7.243  0.00  0.00    +0.062 A 
ATOM     15  C   LIG    1       25.192 -27.966   6.967  0.00  0.00    +0.039 A 
ATOM     16  C   LIG    1       24.231 -27.787   5.963  0.00  0.00    +0.024 A 
ATOM     17  C   LIG    1       24.133 -26.594   5.224  0.00  0.00    +0.018 A 
BRANCH  11  21
ATOM     18  C   LIG    1       24.456 -21.829   4.810  0.00  0.00    +0.128 C 
ATOM     19  N   LIG    1       24.657 -23.107   5.445  0.00  0.00    -0.314 N 
ATOM     20  H   LIG    1       24.671 -23.144   6.457  0.00  0.00    +0.149 HD
ATOM     21  C   LIG    1       24.831 -24.263   4.717  0.00  0.00    +0.247 C 
ATOM     22  O   LIG    1       24.824 -24.303   3.492  0.00  0.00    -0.270 OA
ENDBRANCH  11  21
ENDBRANCH   1  15
BRANCH   8  23
ATOM     23  C   LIG    1       25.669 -31.309  10.749  0.00  0.00    +0.062 A 
ATOM     24  C   LIG    1       26.149 -30.597  11.853  0.00  0.00    +0.040 A 
ATOM     25  C   LIG    1       26.307 -31.187  13.126  0.00  0.00    +0.092 A 
ATOM     26  C   LIG    1       25.946 -32.514  13.264  0.00  0.00    +0.152 A 
ATOM     27  N   LIG    1       25.446 -33.239  12.235  0.00  0.00    -0.242 NA
ATOM     28  C   LIG    1       25.314 -32.630  11.027  0.00  0.00    +0.136 A 
BRANCH  25  29
ATOM     29  C   LIG    1       26.834 -30.336  14.240  0.00  0.00    +0.420 C 
ATOM     30  F   LIG    1       28.093 -30.715  14.598  0.00  0.00    -0.166 F 
ATOM     31  F   LIG    1       26.082 -30.454  15.368  0.00  0.00    -0.166 F 
ATOM     32  F   LIG    1       26.909 -29.010  13.978  0.00  0.00    -0.166 F 
ENDBRANCH  25  29
BRANCH  26  33
ATOM     33  C   LIG    1       26.046 -33.249  14.502  0.00  0.00    +0.120 C 
ATOM     34  N   LIG    1       26.126 -33.824  15.500  0.00  0.00    -0.189 NA
ENDBRANCH  26  33
ENDBRANCH   8  23
TORSDOF 5
ENDMDL
