MODEL 1
REMARK VINA RESULT:      -5.8      0.000      0.000
REMARK  Name = *****
REMARK                            x       y       z     vdW  Elec       q    Type
REMARK                         _______ _______ _______ _____ _____    ______ ____
ROOT
ATOM      1  C   LIG    1       22.297 -19.061   4.818  0.00  0.00    +0.105 C 
ATOM      2  N   LIG    1       22.976 -19.976   3.898  0.00  0.00    -0.301 NA
ATOM      3  C   LIG    1       24.132 -19.319   3.249  0.00  0.00    +0.116 C 
ATOM      4  C   LIG    1       25.379 -19.337   4.074  0.00  0.00    -0.040 C 
ATOM      5  C   LIG    1       26.612 -18.512   3.759  0.00  0.00    +0.077 C 
ATOM      6  C   LIG    1       27.529 -18.961   4.880  0.00  0.00    -0.029 A 
ATOM      7  C   LIG    1       26.873 -19.912   5.682  0.00  0.00    -0.018 A 
ATOM      8  C   LIG    1       27.508 -20.481   6.771  0.00  0.00    +0.008 A 
ATOM      9  C   LIG    1       28.819 -20.089   7.053  0.00  0.00    +0.001 A 
ATOM     10  C   LIG    1       29.475 -19.141   6.248  0.00  0.00    +0.000 A 
ATOM     11  C   LIG    1       28.831 -18.569   5.150  0.00  0.00    +0.005 A 
ATOM     12  C   LIG    1       25.538 -20.125   5.153  0.00  0.00    -0.037 C 
ATOM     13  C   LIG    1       24.500 -21.070   5.636  0.00  0.00    +0.051 C 
ATOM     14  C   LIG    1       23.384 -21.225   4.577  0.00  0.00    +0.089 C 
ENDROOT
BRANCH   5  15
ATOM     15  C   LIG    1       26.357 -17.018   3.718  0.00  0.00    -0.036 A 
ATOM     16  C   LIG    1       27.443 -16.127   3.723  0.00  0.00    +0.004 A 
ATOM     17  C   LIG    1       27.232 -14.747   3.673  0.00  0.00    +0.000 A 
ATOM     18  C   LIG    1       25.936 -14.239   3.616  0.00  0.00    +0.000 A 
ATOM     19  C   LIG    1       24.849 -15.110   3.607  0.00  0.00    +0.000 A 
ATOM     20  C   LIG    1       25.057 -16.489   3.656  0.00  0.00    +0.004 A 
ENDBRANCH   5  15
TORSDOF 1
ENDMDL
MODEL 2
REMARK VINA RESULT:      -5.3      1.868      5.440
REMARK  Name = *****
REMARK                            x       y       z     vdW  Elec       q    Type
REMARK                         _______ _______ _______ _____ _____    ______ ____
ROOT
ATOM      1  C   LIG    1       26.744 -13.816   5.144  0.00  0.00    +0.105 C 
ATOM      2  N   LIG    1       26.478 -14.015   3.718  0.00  0.00    -0.301 NA
ATOM      3  C   LIG    1       26.842 -15.386   3.295  0.00  0.00    +0.116 C 
ATOM      4  C   LIG    1       25.780 -16.404   3.562  0.00  0.00    -0.040 C 
ATOM      5  C   LIG    1       26.003 -17.900   3.470  0.00  0.00    +0.077 C 
ATOM      6  C   LIG    1       24.610 -18.400   3.798  0.00  0.00    -0.029 A 
ATOM      7  C   LIG    1       23.752 -17.309   4.024  0.00  0.00    -0.018 A 
ATOM      8  C   LIG    1       22.419 -17.507   4.335  0.00  0.00    +0.008 A 
ATOM      9  C   LIG    1       21.945 -18.819   4.417  0.00  0.00    +0.001 A 
ATOM     10  C   LIG    1       22.803 -19.909   4.187  0.00  0.00    +0.000 A 
ATOM     11  C   LIG    1       24.147 -19.705   3.873  0.00  0.00    +0.005 A 
ATOM     12  C   LIG    1       24.511 -16.081   3.869  0.00  0.00    -0.037 C 
ATOM     13  C   LIG    1       24.022 -14.682   3.964  0.00  0.00    +0.051 C 
ATOM     14  C   LIG    1       25.071 -13.709   3.379  0.00  0.00    +0.089 C 
ENDROOT
BRANCH   5  15
ATOM     15  C   LIG    1       27.088 -18.418   4.393  0.00  0.00    -0.036 A 
ATOM     16  C   LIG    1       26.912 -19.646   5.054  0.00  0.00    +0.004 A 
ATOM     17  C   LIG    1       27.904 -20.148   5.899  0.00  0.00    +0.000 A 
ATOM     18  C   LIG    1       29.084 -19.432   6.096  0.00  0.00    +0.000 A 
ATOM     19  C   LIG    1       29.275 -18.215   5.446  0.00  0.00    +0.000 A 
ATOM     20  C   LIG    1       28.285 -17.712   4.600  0.00  0.00    +0.004 A 
ENDBRANCH   5  15
TORSDOF 1
ENDMDL
MODEL 3
REMARK VINA RESULT:      -3.8      0.879      1.498
REMARK  Name = *****
REMARK                            x       y       z     vdW  Elec       q    Type
REMARK                         _______ _______ _______ _____ _____    ______ ____
ROOT
ATOM      1  C   LIG    1       21.385 -18.516   4.443  0.00  0.00    +0.105 C 
ATOM      2  N   LIG    1       21.930 -19.561   3.575  0.00  0.00    -0.301 NA
ATOM      3  C   LIG    1       23.222 -19.144   2.986  0.00  0.00    +0.116 C 
ATOM      4  C   LIG    1       24.398 -19.373   3.881  0.00  0.00    -0.040 C 
ATOM      5  C   LIG    1       25.777 -18.798   3.627  0.00  0.00    +0.077 C 
ATOM      6  C   LIG    1       26.532 -19.382   4.804  0.00  0.00    -0.029 A 
ATOM      7  C   LIG    1       25.669 -20.177   5.579  0.00  0.00    -0.018 A 
ATOM      8  C   LIG    1       26.128 -20.829   6.709  0.00  0.00    +0.008 A 
ATOM      9  C   LIG    1       27.472 -20.679   7.061  0.00  0.00    +0.001 A 
ATOM     10  C   LIG    1       28.335 -19.887   6.284  0.00  0.00    +0.000 A 
ATOM     11  C   LIG    1       27.868 -19.232   5.143  0.00  0.00    +0.005 A 
ATOM     12  C   LIG    1       24.348 -20.152   4.977  0.00  0.00    -0.037 C 
ATOM     13  C   LIG    1       23.128 -20.877   5.412  0.00  0.00    +0.051 C 
ATOM     14  C   LIG    1       22.062 -20.849   4.292  0.00  0.00    +0.089 C 
ENDROOT
BRANCH   5  15
ATOM     15  C   LIG    1       25.807 -17.284   3.552  0.00  0.00    -0.036 A 
ATOM     16  C   LIG    1       24.642 -16.550   3.833  0.00  0.00    +0.004 A 
ATOM     17  C   LIG    1       24.651 -15.154   3.782  0.00  0.00    +0.000 A 
ATOM     18  C   LIG    1       25.820 -14.473   3.452  0.00  0.00    +0.000 A 
ATOM     19  C   LIG    1       26.984 -15.186   3.173  0.00  0.00    +0.000 A 
ATOM     20  C   LIG    1       26.978 -16.581   3.224  0.00  0.00    +0.004 A 
ENDBRANCH   5  15
TORSDOF 1
ENDMDL
MODEL 4
REMARK VINA RESULT:      -2.9      1.626      4.883
REMARK  Name = *****
REMARK                            x       y       z     vdW  Elec       q    Type
REMARK                         _______ _______ _______ _____ _____    ______ ____
ROOT
ATOM      1  C   LIG    1       27.500 -20.111   7.062  0.00  0.00    +0.105 C 
ATOM      2  N   LIG    1       28.173 -20.281   5.773  0.00  0.00    -0.301 NA
ATOM      3  C   LIG    1       27.237 -20.050   4.649  0.00  0.00    +0.116 C 
ATOM      4  C   LIG    1       27.068 -18.609   4.290  0.00  0.00    -0.040 C 
ATOM      5  C   LIG    1       25.982 -18.091   3.367  0.00  0.00    +0.077 C 
ATOM      6  C   LIG    1       26.325 -16.614   3.351  0.00  0.00    -0.029 A 
ATOM      7  C   LIG    1       27.456 -16.378   4.152  0.00  0.00    -0.018 A 
ATOM      8  C   LIG    1       27.973 -15.102   4.292  0.00  0.00    +0.008 A 
ATOM      9  C   LIG    1       27.343 -14.055   3.615  0.00  0.00    +0.001 A 
ATOM     10  C   LIG    1       26.215 -14.293   2.812  0.00  0.00    +0.000 A 
ATOM     11  C   LIG    1       25.697 -15.581   2.673  0.00  0.00    +0.005 A 
ATOM     12  C   LIG    1       27.895 -17.640   4.721  0.00  0.00    -0.037 C 
ATOM     13  C   LIG    1       29.072 -17.894   5.589  0.00  0.00    +0.051 C 
ATOM     14  C   LIG    1       29.364 -19.411   5.662  0.00  0.00    +0.089 C 
ENDROOT
BRANCH   5  15
ATOM     15  C   LIG    1       24.575 -18.402   3.839  0.00  0.00    -0.036 A 
ATOM     16  C   LIG    1       24.206 -19.732   4.099  0.00  0.00    +0.004 A 
ATOM     17  C   LIG    1       22.919 -20.040   4.545  0.00  0.00    +0.000 A 
ATOM     18  C   LIG    1       21.985 -19.025   4.739  0.00  0.00    +0.000 A 
ATOM     19  C   LIG    1       22.335 -17.701   4.489  0.00  0.00    +0.000 A 
ATOM     20  C   LIG    1       23.621 -17.390   4.043  0.00  0.00    +0.004 A 
ENDBRANCH   5  15
TORSDOF 1
ENDMDL
