MODEL 1
REMARK VINA RESULT:      -7.0      0.000      0.000
REMARK  Name = *****
REMARK                            x       y       z     vdW  Elec       q    Type
REMARK                         _______ _______ _______ _____ _____    ______ ____
ROOT
ATOM      1  N   LIG    1       25.782 -21.532   6.613  0.00  0.00    -0.109 NA
ATOM      2  C   LIG    1       26.444 -20.618   5.994  0.00  0.00    +0.400 C 
ENDROOT
BRANCH   1   4
ATOM      3  C   LIG    1       25.364 -23.903   6.323  0.00  0.00    +0.052 C 
ATOM      4  C   LIG    1       24.869 -22.493   5.990  0.00  0.00    +0.191 C 
BRANCH   4   5
ATOM      5  C   LIG    1       23.409 -22.189   6.484  0.00  0.00    -0.001 C 
ATOM      6  C   LIG    1       22.603 -21.349   5.474  0.00  0.00    +0.014 C 
ATOM      7  C   LIG    1       23.425 -21.426   7.826  0.00  0.00    +0.014 C 
ATOM      8  C   LIG    1       22.663 -23.522   6.716  0.00  0.00    +0.014 C 
ENDBRANCH   4   5
ENDBRANCH   1   4
BRANCH   2   9
ATOM      9  N   LIG    1       27.286 -19.760   6.678  0.00  0.00    -0.243 N 
ATOM     10  H   LIG    1       26.955 -18.836   6.922  0.00  0.00    +0.265 HD
BRANCH   9  11
ATOM     11  C   LIG    1       28.626 -19.987   7.074  0.00  0.00    +0.103 A 
ATOM     12  C   LIG    1       29.014 -21.052   7.885  0.00  0.00    +0.062 A 
ATOM     13  C   LIG    1       30.342 -21.168   8.269  0.00  0.00    +0.114 A 
ATOM     14  N   LIG    1       31.307 -20.301   7.904  0.00  0.00    -0.263 NA
ATOM     15  C   LIG    1       30.919 -19.268   7.132  0.00  0.00    +0.114 A 
ATOM     16  C   LIG    1       29.613 -19.068   6.703  0.00  0.00    +0.062 A 
ENDBRANCH   9  11
ENDBRANCH   2   9
BRANCH   2  17
ATOM     17  N   LIG    1       26.403 -20.432   4.632  0.00  0.00    -0.177 N 
ATOM     18  H   LIG    1       26.623 -21.248   4.085  0.00  0.00    +0.278 HD
BRANCH  17  19
ATOM     19  C   LIG    1       25.461 -19.541   4.012  0.00  0.00    +0.255 C 
ATOM     20  N   LIG    1       24.696 -18.838   3.506  0.00  0.00    -0.154 NA
ENDBRANCH  17  19
ENDBRANCH   2  17
TORSDOF 6
ENDMDL
MODEL 2
REMARK VINA RESULT:      -6.8      1.471      2.724
REMARK  Name = *****
REMARK                            x       y       z     vdW  Elec       q    Type
REMARK                         _______ _______ _______ _____ _____    ______ ____
ROOT
ATOM      1  N   LIG    1       26.023 -21.598   5.616  0.00  0.00    -0.109 NA
ATOM      2  C   LIG    1       26.727 -20.741   6.270  0.00  0.00    +0.400 C 
ENDROOT
BRANCH   1   4
ATOM      3  C   LIG    1       23.723 -21.530   4.851  0.00  0.00    +0.052 C 
ATOM      4  C   LIG    1       24.663 -22.022   5.955  0.00  0.00    +0.191 C 
BRANCH   4   5
ATOM      5  C   LIG    1       24.660 -23.580   6.159  0.00  0.00    -0.001 C 
ATOM      6  C   LIG    1       25.749 -24.052   7.142  0.00  0.00    +0.014 C 
ATOM      7  C   LIG    1       24.882 -24.314   4.820  0.00  0.00    +0.014 C 
ATOM      8  C   LIG    1       23.284 -24.018   6.707  0.00  0.00    +0.014 C 
ENDBRANCH   4   5
ENDBRANCH   1   4
BRANCH   2   9
ATOM      9  N   LIG    1       28.005 -20.407   5.861  0.00  0.00    -0.243 N 
ATOM     10  H   LIG    1       28.176 -20.215   4.884  0.00  0.00    +0.265 HD
BRANCH   9  11
ATOM     11  C   LIG    1       29.178 -20.330   6.650  0.00  0.00    +0.103 A 
ATOM     12  C   LIG    1       29.460 -21.213   7.691  0.00  0.00    +0.062 A 
ATOM     13  C   LIG    1       30.608 -21.031   8.448  0.00  0.00    +0.114 A 
ATOM     14  N   LIG    1       31.491 -20.034   8.243  0.00  0.00    -0.263 NA
ATOM     15  C   LIG    1       31.203 -19.178   7.243  0.00  0.00    +0.114 A 
ATOM     16  C   LIG    1       30.076 -19.279   6.437  0.00  0.00    +0.062 A 
ENDBRANCH   9  11
ENDBRANCH   2   9
BRANCH   2  17
ATOM     17  N   LIG    1       26.277 -20.074   7.385  0.00  0.00    -0.177 N 
ATOM     18  H   LIG    1       25.702 -19.269   7.195  0.00  0.00    +0.278 HD
BRANCH  17  19
ATOM     19  C   LIG    1       25.951 -20.760   8.605  0.00  0.00    +0.255 C 
ATOM     20  N   LIG    1       25.679 -21.298   9.591  0.00  0.00    -0.154 NA
ENDBRANCH  17  19
ENDBRANCH   2  17
TORSDOF 6
ENDMDL
MODEL 3
REMARK VINA RESULT:      -6.8      2.916      5.738
REMARK  Name = *****
REMARK                            x       y       z     vdW  Elec       q    Type
REMARK                         _______ _______ _______ _____ _____    ______ ____
ROOT
ATOM      1  N   LIG    1       24.313 -21.744   5.631  0.00  0.00    -0.109 NA
ATOM      2  C   LIG    1       24.167 -22.339   6.763  0.00  0.00    +0.400 C 
ENDROOT
BRANCH   1   4
ATOM      3  C   LIG    1       26.260 -20.333   5.320  0.00  0.00    +0.052 C 
ATOM      4  C   LIG    1       24.735 -20.353   5.447  0.00  0.00    +0.191 C 
BRANCH   4   5
ATOM      5  C   LIG    1       23.976 -19.760   4.206  0.00  0.00    -0.001 C 
ATOM      6  C   LIG    1       22.594 -19.184   4.574  0.00  0.00    +0.014 C 
ATOM      7  C   LIG    1       23.764 -20.836   3.119  0.00  0.00    +0.014 C 
ATOM      8  C   LIG    1       24.826 -18.631   3.583  0.00  0.00    +0.014 C 
ENDBRANCH   4   5
ENDBRANCH   1   4
BRANCH   2   9
ATOM      9  N   LIG    1       23.766 -23.662   6.827  0.00  0.00    -0.243 N 
ATOM     10  H   LIG    1       22.853 -23.882   7.201  0.00  0.00    +0.265 HD
BRANCH   9  11
ATOM     11  C   LIG    1       24.503 -24.813   6.460  0.00  0.00    +0.103 A 
ATOM     12  C   LIG    1       25.879 -24.934   6.650  0.00  0.00    +0.062 A 
ATOM     13  C   LIG    1       26.530 -26.077   6.211  0.00  0.00    +0.114 A 
ATOM     14  N   LIG    1       25.910 -27.104   5.597  0.00  0.00    -0.263 NA
ATOM     15  C   LIG    1       24.583 -26.972   5.406  0.00  0.00    +0.114 A 
ATOM     16  C   LIG    1       23.849 -25.863   5.807  0.00  0.00    +0.062 A 
ENDBRANCH   9  11
ENDBRANCH   2   9
BRANCH   2  17
ATOM     17  N   LIG    1       24.417 -21.746   7.978  0.00  0.00    -0.177 N 
ATOM     18  H   LIG    1       23.707 -21.894   8.677  0.00  0.00    +0.278 HD
BRANCH  17  19
ATOM     19  C   LIG    1       25.748 -21.617   8.505  0.00  0.00    +0.255 C 
ATOM     20  N   LIG    1       26.823 -21.505   8.914  0.00  0.00    -0.154 NA
ENDBRANCH  17  19
ENDBRANCH   2  17
TORSDOF 6
ENDMDL
MODEL 4
REMARK VINA RESULT:      -6.8      2.919      5.629
REMARK  Name = *****
REMARK                            x       y       z     vdW  Elec       q    Type
REMARK                         _______ _______ _______ _____ _____    ______ ____
ROOT
ATOM      1  N   LIG    1       24.315 -21.748   5.614  0.00  0.00    -0.109 NA
ATOM      2  C   LIG    1       24.159 -22.352   6.741  0.00  0.00    +0.400 C 
ENDROOT
BRANCH   1   4
ATOM      3  C   LIG    1       26.267 -20.341   5.317  0.00  0.00    +0.052 C 
ATOM      4  C   LIG    1       24.741 -20.358   5.444  0.00  0.00    +0.191 C 
BRANCH   4   5
ATOM      5  C   LIG    1       23.985 -19.750   4.208  0.00  0.00    -0.001 C 
ATOM      6  C   LIG    1       24.754 -18.583   3.557  0.00  0.00    +0.014 C 
ATOM      7  C   LIG    1       22.590 -19.228   4.613  0.00  0.00    +0.014 C 
ATOM      8  C   LIG    1       23.779 -20.852   3.146  0.00  0.00    +0.014 C 
ENDBRANCH   4   5
ENDBRANCH   1   4
BRANCH   2   9
ATOM      9  N   LIG    1       23.754 -23.673   6.792  0.00  0.00    -0.243 N 
ATOM     10  H   LIG    1       22.854 -23.898   7.195  0.00  0.00    +0.265 HD
BRANCH   9  11
ATOM     11  C   LIG    1       24.471 -24.820   6.375  0.00  0.00    +0.103 A 
ATOM     12  C   LIG    1       23.866 -25.921   5.769  0.00  0.00    +0.062 A 
ATOM     13  C   LIG    1       24.638 -27.026   5.441  0.00  0.00    +0.114 A 
ATOM     14  N   LIG    1       25.962 -27.113   5.672  0.00  0.00    -0.263 NA
ATOM     15  C   LIG    1       26.534 -26.049   6.270  0.00  0.00    +0.114 A 
ATOM     16  C   LIG    1       25.842 -24.902   6.638  0.00  0.00    +0.062 A 
ENDBRANCH   9  11
ENDBRANCH   2   9
BRANCH   2  17
ATOM     17  N   LIG    1       24.401 -21.767   7.962  0.00  0.00    -0.177 N 
ATOM     18  H   LIG    1       23.694 -21.933   8.660  0.00  0.00    +0.278 HD
BRANCH  17  19
ATOM     19  C   LIG    1       25.730 -21.624   8.489  0.00  0.00    +0.255 C 
ATOM     20  N   LIG    1       26.805 -21.514   8.898  0.00  0.00    -0.154 NA
ENDBRANCH  17  19
ENDBRANCH   2  17
TORSDOF 6
ENDMDL
MODEL 5
REMARK VINA RESULT:      -6.8      1.427      3.132
REMARK  Name = *****
REMARK                            x       y       z     vdW  Elec       q    Type
REMARK                         _______ _______ _______ _____ _____    ______ ____
ROOT
ATOM      1  N   LIG    1       26.563 -20.507   5.320  0.00  0.00    -0.109 NA
ATOM      2  C   LIG    1       27.230 -20.518   6.421  0.00  0.00    +0.400 C 
ENDROOT
BRANCH   1   4
ATOM      3  C   LIG    1       25.156 -19.293   3.761  0.00  0.00    +0.052 C 
ATOM      4  C   LIG    1       25.219 -19.950   5.143  0.00  0.00    +0.191 C 
BRANCH   4   5
ATOM      5  C   LIG    1       24.169 -21.099   5.360  0.00  0.00    -0.001 C 
ATOM      6  C   LIG    1       24.829 -22.483   5.520  0.00  0.00    +0.014 C 
ATOM      7  C   LIG    1       23.183 -21.180   4.175  0.00  0.00    +0.014 C 
ATOM      8  C   LIG    1       23.345 -20.800   6.632  0.00  0.00    +0.014 C 
ENDBRANCH   4   5
ENDBRANCH   1   4
BRANCH   2   9
ATOM      9  N   LIG    1       28.497 -21.068   6.480  0.00  0.00    -0.243 N 
ATOM     10  H   LIG    1       28.702 -21.896   5.938  0.00  0.00    +0.265 HD
BRANCH   9  11
ATOM     11  C   LIG    1       29.597 -20.638   7.262  0.00  0.00    +0.103 A 
ATOM     12  C   LIG    1       30.304 -19.464   7.005  0.00  0.00    +0.062 A 
ATOM     13  C   LIG    1       31.404 -19.146   7.789  0.00  0.00    +0.114 A 
ATOM     14  N   LIG    1       31.847 -19.912   8.805  0.00  0.00    -0.263 NA
ATOM     15  C   LIG    1       31.165 -21.050   9.036  0.00  0.00    +0.114 A 
ATOM     16  C   LIG    1       30.057 -21.452   8.301  0.00  0.00    +0.062 A 
ENDBRANCH   9  11
ENDBRANCH   2   9
BRANCH   2  17
ATOM     17  N   LIG    1       26.772 -19.976   7.599  0.00  0.00    -0.177 N 
ATOM     18  H   LIG    1       26.398 -19.045   7.520  0.00  0.00    +0.278 HD
BRANCH  17  19
ATOM     19  C   LIG    1       26.155 -20.778   8.619  0.00  0.00    +0.255 C 
ATOM     20  N   LIG    1       25.643 -21.418   9.433  0.00  0.00    -0.154 NA
ENDBRANCH  17  19
ENDBRANCH   2  17
TORSDOF 6
ENDMDL
MODEL 6
REMARK VINA RESULT:      -6.7      2.232      4.397
REMARK  Name = *****
REMARK                            x       y       z     vdW  Elec       q    Type
REMARK                         _______ _______ _______ _____ _____    ______ ____
ROOT
ATOM      1  N   LIG    1       27.761 -20.136   7.535  0.00  0.00    -0.109 NA
ATOM      2  C   LIG    1       29.007 -20.369   7.759  0.00  0.00    +0.400 C 
ENDROOT
BRANCH   1   4
ATOM      3  C   LIG    1       25.944 -20.589   9.076  0.00  0.00    +0.052 C 
ATOM      4  C   LIG    1       26.659 -21.061   7.807  0.00  0.00    +0.191 C 
BRANCH   4   5
ATOM      5  C   LIG    1       25.737 -21.128   6.535  0.00  0.00    -0.001 C 
ATOM      6  C   LIG    1       26.280 -20.285   5.364  0.00  0.00    +0.014 C 
ATOM      7  C   LIG    1       24.313 -20.629   6.856  0.00  0.00    +0.014 C 
ATOM      8  C   LIG    1       25.622 -22.596   6.068  0.00  0.00    +0.014 C 
ENDBRANCH   4   5
ENDBRANCH   1   4
BRANCH   2   9
ATOM      9  N   LIG    1       29.973 -19.422   7.469  0.00  0.00    -0.243 N 
ATOM     10  H   LIG    1       30.363 -19.385   6.536  0.00  0.00    +0.265 HD
BRANCH   9  11
ATOM     11  C   LIG    1       30.553 -18.473   8.345  0.00  0.00    +0.103 A 
ATOM     12  C   LIG    1       31.878 -18.050   8.245  0.00  0.00    +0.062 A 
ATOM     13  C   LIG    1       32.379 -17.156   9.180  0.00  0.00    +0.114 A 
ATOM     14  N   LIG    1       31.658 -16.656  10.203  0.00  0.00    -0.263 NA
ATOM     15  C   LIG    1       30.383 -17.082  10.297  0.00  0.00    +0.114 A 
ATOM     16  C   LIG    1       29.797 -17.977   9.412  0.00  0.00    +0.062 A 
ENDBRANCH   9  11
ENDBRANCH   2   9
BRANCH   2  17
ATOM     17  N   LIG    1       29.480 -21.533   8.319  0.00  0.00    -0.177 N 
ATOM     18  H   LIG    1       29.140 -22.378   7.890  0.00  0.00    +0.278 HD
BRANCH  17  19
ATOM     19  C   LIG    1       30.808 -21.636   8.859  0.00  0.00    +0.255 C 
ATOM     20  N   LIG    1       31.874 -21.735   9.292  0.00  0.00    -0.154 NA
ENDBRANCH  17  19
ENDBRANCH   2  17
TORSDOF 6
ENDMDL
MODEL 7
REMARK VINA RESULT:      -6.6      1.746      3.320
REMARK  Name = *****
REMARK                            x       y       z     vdW  Elec       q    Type
REMARK                         _______ _______ _______ _____ _____    ______ ____
ROOT
ATOM      1  N   LIG    1       25.725 -21.033   6.242  0.00  0.00    -0.109 NA
ATOM      2  C   LIG    1       26.423 -21.946   6.824  0.00  0.00    +0.400 C 
ENDROOT
BRANCH   1   4
ATOM      3  C   LIG    1       23.518 -20.569   7.130  0.00  0.00    +0.052 C 
ATOM      4  C   LIG    1       24.296 -21.120   5.933  0.00  0.00    +0.191 C 
BRANCH   4   5
ATOM      5  C   LIG    1       24.029 -20.359   4.585  0.00  0.00    -0.001 C 
ATOM      6  C   LIG    1       25.212 -19.464   4.164  0.00  0.00    +0.014 C 
ATOM      7  C   LIG    1       22.776 -19.465   4.691  0.00  0.00    +0.014 C 
ATOM      8  C   LIG    1       23.772 -21.388   3.462  0.00  0.00    +0.014 C 
ENDBRANCH   4   5
ENDBRANCH   1   4
BRANCH   2   9
ATOM      9  N   LIG    1       27.771 -21.763   7.073  0.00  0.00    -0.243 N 
ATOM     10  H   LIG    1       28.317 -22.538   7.425  0.00  0.00    +0.265 HD
BRANCH   9  11
ATOM     11  C   LIG    1       28.528 -20.575   6.935  0.00  0.00    +0.103 A 
ATOM     12  C   LIG    1       28.532 -19.802   5.774  0.00  0.00    +0.062 A 
ATOM     13  C   LIG    1       29.346 -18.681   5.706  0.00  0.00    +0.114 A 
ATOM     14  N   LIG    1       30.154 -18.277   6.706  0.00  0.00    -0.263 NA
ATOM     15  C   LIG    1       30.152 -19.039   7.818  0.00  0.00    +0.114 A 
ATOM     16  C   LIG    1       29.375 -20.179   7.975  0.00  0.00    +0.062 A 
ENDBRANCH   9  11
ENDBRANCH   2   9
BRANCH   2  17
ATOM     17  N   LIG    1       25.904 -23.141   7.266  0.00  0.00    -0.177 N 
ATOM     18  H   LIG    1       25.079 -23.060   7.837  0.00  0.00    +0.278 HD
BRANCH  17  19
ATOM     19  C   LIG    1       25.959 -24.337   6.471  0.00  0.00    +0.255 C 
ATOM     20  N   LIG    1       26.014 -25.291   5.822  0.00  0.00    -0.154 NA
ENDBRANCH  17  19
ENDBRANCH   2  17
TORSDOF 6
ENDMDL
MODEL 8
REMARK VINA RESULT:      -6.6      2.902      5.327
REMARK  Name = *****
REMARK                            x       y       z     vdW  Elec       q    Type
REMARK                         _______ _______ _______ _____ _____    ______ ____
ROOT
ATOM      1  N   LIG    1       24.954 -23.401   5.877  0.00  0.00    -0.109 NA
ATOM      2  C   LIG    1       25.697 -22.462   6.349  0.00  0.00    +0.400 C 
ENDROOT
BRANCH   1   4
ATOM      3  C   LIG    1       23.071 -24.661   6.742  0.00  0.00    +0.052 C 
ATOM      4  C   LIG    1       24.593 -24.636   6.577  0.00  0.00    +0.191 C 
BRANCH   4   5
ATOM      5  C   LIG    1       25.174 -25.855   5.774  0.00  0.00    -0.001 C 
ATOM      6  C   LIG    1       26.617 -26.205   6.190  0.00  0.00    +0.014 C 
ATOM      7  C   LIG    1       25.176 -25.570   4.258  0.00  0.00    +0.014 C 
ATOM      8  C   LIG    1       24.283 -27.094   6.014  0.00  0.00    +0.014 C 
ENDBRANCH   4   5
ENDBRANCH   1   4
BRANCH   2   9
ATOM      9  N   LIG    1       25.976 -21.331   5.604  0.00  0.00    -0.243 N 
ATOM     10  H   LIG    1       26.938 -21.046   5.481  0.00  0.00    +0.265 HD
BRANCH   9  11
ATOM     11  C   LIG    1       25.057 -20.446   4.989  0.00  0.00    +0.103 A 
ATOM     12  C   LIG    1       25.410 -19.572   3.961  0.00  0.00    +0.062 A 
ATOM     13  C   LIG    1       24.458 -18.701   3.452  0.00  0.00    +0.114 A 
ATOM     14  N   LIG    1       23.186 -18.637   3.893  0.00  0.00    -0.263 NA
ATOM     15  C   LIG    1       22.860 -19.477   4.895  0.00  0.00    +0.114 A 
ATOM     16  C   LIG    1       23.746 -20.379   5.469  0.00  0.00    +0.062 A 
ENDBRANCH   9  11
ENDBRANCH   2   9
BRANCH   2  17
ATOM     17  N   LIG    1       26.244 -22.479   7.611  0.00  0.00    -0.177 N 
ATOM     18  H   LIG    1       27.142 -22.929   7.679  0.00  0.00    +0.278 HD
BRANCH  17  19
ATOM     19  C   LIG    1       26.051 -21.400   8.541  0.00  0.00    +0.255 C 
ATOM     20  N   LIG    1       25.883 -20.542   9.296  0.00  0.00    -0.154 NA
ENDBRANCH  17  19
ENDBRANCH   2  17
TORSDOF 6
ENDMDL
MODEL 9
REMARK VINA RESULT:      -6.5      1.713      6.311
REMARK  Name = *****
REMARK                            x       y       z     vdW  Elec       q    Type
REMARK                         _______ _______ _______ _____ _____    ______ ____
ROOT
ATOM      1  N   LIG    1       27.950 -20.220   6.515  0.00  0.00    -0.109 NA
ATOM      2  C   LIG    1       26.886 -20.943   6.468  0.00  0.00    +0.400 C 
ENDROOT
BRANCH   1   4
ATOM      3  C   LIG    1       29.479 -21.455   7.935  0.00  0.00    +0.052 C 
ATOM      4  C   LIG    1       28.841 -20.089   7.670  0.00  0.00    +0.191 C 
BRANCH   4   5
ATOM      5  C   LIG    1       29.873 -18.941   7.379  0.00  0.00    -0.001 C 
ATOM      6  C   LIG    1       29.881 -17.858   8.476  0.00  0.00    +0.014 C 
ATOM      7  C   LIG    1       29.567 -18.248   6.034  0.00  0.00    +0.014 C 
ATOM      8  C   LIG    1       31.291 -19.545   7.279  0.00  0.00    +0.014 C 
ENDBRANCH   4   5
ENDBRANCH   1   4
BRANCH   2   9
ATOM      9  N   LIG    1       26.113 -21.000   5.322  0.00  0.00    -0.243 N 
ATOM     10  H   LIG    1       26.429 -21.559   4.542  0.00  0.00    +0.265 HD
BRANCH   9  11
ATOM     11  C   LIG    1       24.899 -20.321   5.057  0.00  0.00    +0.103 A 
ATOM     12  C   LIG    1       23.749 -20.480   5.829  0.00  0.00    +0.062 A 
ATOM     13  C   LIG    1       22.587 -19.817   5.465  0.00  0.00    +0.114 A 
ATOM     14  N   LIG    1       22.488 -19.012   4.389  0.00  0.00    -0.263 NA
ATOM     15  C   LIG    1       23.600 -18.876   3.642  0.00  0.00    +0.114 A 
ATOM     16  C   LIG    1       24.807 -19.503   3.926  0.00  0.00    +0.062 A 
ENDBRANCH   9  11
ENDBRANCH   2   9
BRANCH   2  17
ATOM     17  N   LIG    1       26.445 -21.726   7.509  0.00  0.00    -0.177 N 
ATOM     18  H   LIG    1       25.904 -21.241   8.206  0.00  0.00    +0.278 HD
BRANCH  17  19
ATOM     19  C   LIG    1       26.075 -23.103   7.325  0.00  0.00    +0.255 C 
ATOM     20  N   LIG    1       25.762 -24.206   7.185  0.00  0.00    -0.154 NA
ENDBRANCH  17  19
ENDBRANCH   2  17
TORSDOF 6
ENDMDL
