MODEL 1
REMARK VINA RESULT:      -2.9      0.000      0.000
REMARK  Name = *****
REMARK                            x       y       z     vdW  Elec       q    Type
REMARK                         _______ _______ _______ _____ _____    ______ ____
ROOT
ATOM      1  C   LIG    1       26.427 -18.590   3.768  0.00  0.00    +0.170 C 
ENDROOT
BRANCH   1   2
ATOM      2  C   LIG    1       25.108 -19.308   4.035  0.00  0.00    +0.001 A 
ATOM      3  C   LIG    1       23.890 -18.624   4.212  0.00  0.00    +0.048 A 
ATOM      4 CL   LIG    1       23.779 -16.905   4.097  0.00  0.00    -0.083 Cl
ATOM      5  C   LIG    1       22.711 -19.323   4.495  0.00  0.00    +0.040 A 
ATOM      6  C   LIG    1       22.734 -20.711   4.602  0.00  0.00    +0.042 A 
ATOM      7 CL   LIG    1       21.285 -21.571   4.941  0.00  0.00    -0.084 Cl
ATOM      8  C   LIG    1       23.925 -21.408   4.429  0.00  0.00    +0.020 A 
ATOM      9  C   LIG    1       25.100 -20.713   4.142  0.00  0.00    +0.009 A 
ENDBRANCH   1   2
BRANCH   1  10
ATOM     10  O   LIG    1       26.210 -17.372   3.017  0.00  0.00    -0.365 OA
BRANCH  10  11
ATOM     11  C   LIG    1       27.020 -16.243   3.394  0.00  0.00    +0.197 C 
BRANCH  11  17
ATOM     12 CL   LIG    1       23.454 -11.449   4.108  0.00  0.00    -0.084 Cl
ATOM     13  C   LIG    1       24.540 -12.763   3.874  0.00  0.00    +0.042 A 
ATOM     14  C   LIG    1       25.550 -12.997   4.804  0.00  0.00    +0.040 A 
ATOM     15  C   LIG    1       26.402 -14.092   4.640  0.00  0.00    +0.048 A 
ATOM     16 CL   LIG    1       27.634 -14.322   5.828  0.00  0.00    -0.083 Cl
ATOM     17  C   LIG    1       26.233 -14.968   3.553  0.00  0.00    -0.004 A 
ATOM     18  C   LIG    1       25.246 -14.676   2.596  0.00  0.00    +0.009 A 
ATOM     19  C   LIG    1       24.396 -13.586   2.762  0.00  0.00    +0.020 A 
ENDBRANCH  11  17
ENDBRANCH  10  11
ENDBRANCH   1  10
BRANCH   1  20
ATOM     20  C   LIG    1       27.139 -18.234   5.096  0.00  0.00    +0.159 C 
BRANCH  20  21
ATOM     21  N   LIG    1       27.784 -19.384   5.713  0.00  0.00    -0.334 N 
ATOM     22  C   LIG    1       29.127 -19.616   5.792  0.00  0.00    +0.199 A 
ATOM     23  N   LIG    1       29.396 -20.665   6.527  0.00  0.00    -0.244 NA
ATOM     24  C   LIG    1       28.176 -21.178   6.879  0.00  0.00    +0.130 A 
ATOM     25  C   LIG    1       27.163 -20.440   6.322  0.00  0.00    +0.107 A 
ENDBRANCH  20  21
ENDBRANCH   1  20
TORSDOF 6
ENDMDL
MODEL 2
REMARK VINA RESULT:      -2.9      1.558      2.281
REMARK  Name = *****
REMARK                            x       y       z     vdW  Elec       q    Type
REMARK                         _______ _______ _______ _____ _____    ______ ____
ROOT
ATOM      1  C   LIG    1       26.061 -19.758   4.192  0.00  0.00    +0.170 C 
ENDROOT
BRANCH   1   2
ATOM      2  C   LIG    1       24.606 -20.189   4.332  0.00  0.00    +0.001 A 
ATOM      3  C   LIG    1       24.023 -20.514   5.572  0.00  0.00    +0.048 A 
ATOM      4 CL   LIG    1       24.904 -20.409   7.054  0.00  0.00    -0.083 Cl
ATOM      5  C   LIG    1       22.694 -20.944   5.648  0.00  0.00    +0.040 A 
ATOM      6  C   LIG    1       21.931 -21.051   4.489  0.00  0.00    +0.042 A 
ATOM      7 CL   LIG    1       20.294 -21.571   4.581  0.00  0.00    -0.084 Cl
ATOM      8  C   LIG    1       22.483 -20.733   3.253  0.00  0.00    +0.020 A 
ATOM      9  C   LIG    1       23.807 -20.301   3.176  0.00  0.00    +0.009 A 
ENDBRANCH   1   2
BRANCH   1  10
ATOM     10  O   LIG    1       26.197 -18.327   4.364  0.00  0.00    -0.365 OA
BRANCH  10  11
ATOM     11  C   LIG    1       25.857 -17.517   3.224  0.00  0.00    +0.197 C 
BRANCH  11  17
ATOM     12 CL   LIG    1       24.099 -11.843   4.182  0.00  0.00    -0.084 Cl
ATOM     13  C   LIG    1       24.608 -13.476   4.000  0.00  0.00    +0.042 A 
ATOM     14  C   LIG    1       23.700 -14.510   4.218  0.00  0.00    +0.040 A 
ATOM     15  C   LIG    1       24.100 -15.834   4.024  0.00  0.00    +0.048 A 
ATOM     16 CL   LIG    1       22.925 -17.067   4.316  0.00  0.00    -0.083 Cl
ATOM     17  C   LIG    1       25.405 -16.128   3.591  0.00  0.00    -0.004 A 
ATOM     18  C   LIG    1       26.319 -15.072   3.436  0.00  0.00    +0.009 A 
ATOM     19  C   LIG    1       25.919 -13.752   3.627  0.00  0.00    +0.020 A 
ENDBRANCH  11  17
ENDBRANCH  10  11
ENDBRANCH   1  10
BRANCH   1  20
ATOM     20  C   LIG    1       26.950 -20.470   5.240  0.00  0.00    +0.159 C 
BRANCH  20  21
ATOM     21  N   LIG    1       28.028 -19.624   5.730  0.00  0.00    -0.334 N 
ATOM     22  C   LIG    1       28.618 -18.591   5.061  0.00  0.00    +0.199 A 
ATOM     23  N   LIG    1       29.462 -17.939   5.821  0.00  0.00    -0.244 NA
ATOM     24  C   LIG    1       29.475 -18.620   7.008  0.00  0.00    +0.130 A 
ATOM     25  C   LIG    1       28.648 -19.713   6.947  0.00  0.00    +0.107 A 
ENDBRANCH  20  21
ENDBRANCH   1  20
TORSDOF 6
ENDMDL
MODEL 3
REMARK VINA RESULT:      -2.7      1.600      1.934
REMARK  Name = *****
REMARK                            x       y       z     vdW  Elec       q    Type
REMARK                         _______ _______ _______ _____ _____    ______ ____
ROOT
ATOM      1  C   LIG    1       25.885 -19.240   4.079  0.00  0.00    +0.170 C 
ENDROOT
BRANCH   1   2
ATOM      2  C   LIG    1       24.371 -19.410   4.145  0.00  0.00    +0.001 A 
ATOM      3  C   LIG    1       23.745 -20.329   5.008  0.00  0.00    +0.048 A 
ATOM      4 CL   LIG    1       24.643 -21.317   6.104  0.00  0.00    -0.083 Cl
ATOM      5  C   LIG    1       22.354 -20.481   5.006  0.00  0.00    +0.040 A 
ATOM      6  C   LIG    1       21.573 -19.715   4.145  0.00  0.00    +0.042 A 
ATOM      7 CL   LIG    1       19.863 -19.893   4.146  0.00  0.00    -0.084 Cl
ATOM      8  C   LIG    1       22.168 -18.799   3.285  0.00  0.00    +0.020 A 
ATOM      9  C   LIG    1       23.555 -18.644   3.289  0.00  0.00    +0.009 A 
ENDBRANCH   1   2
BRANCH   1  10
ATOM     10  O   LIG    1       26.268 -17.883   4.406  0.00  0.00    -0.365 OA
BRANCH  10  11
ATOM     11  C   LIG    1       26.340 -16.962   3.303  0.00  0.00    +0.197 C 
BRANCH  11  17
ATOM     12 CL   LIG    1       23.779 -11.778   4.971  0.00  0.00    -0.084 Cl
ATOM     13  C   LIG    1       24.528 -13.222   4.411  0.00  0.00    +0.042 A 
ATOM     14  C   LIG    1       25.917 -13.299   4.346  0.00  0.00    +0.040 A 
ATOM     15  C   LIG    1       26.527 -14.487   3.937  0.00  0.00    +0.048 A 
ATOM     16 CL   LIG    1       28.253 -14.511   3.876  0.00  0.00    -0.083 Cl
ATOM     17  C   LIG    1       25.748 -15.611   3.611  0.00  0.00    -0.004 A 
ATOM     18  C   LIG    1       24.347 -15.491   3.626  0.00  0.00    +0.009 A 
ATOM     19  C   LIG    1       23.741 -14.306   4.036  0.00  0.00    +0.020 A 
ENDBRANCH  11  17
ENDBRANCH  10  11
ENDBRANCH   1  10
BRANCH   1  20
ATOM     20  C   LIG    1       26.591 -20.205   5.062  0.00  0.00    +0.159 C 
BRANCH  20  21
ATOM     21  N   LIG    1       27.806 -19.639   5.630  0.00  0.00    -0.334 N 
ATOM     22  C   LIG    1       28.500 -18.564   5.155  0.00  0.00    +0.199 A 
ATOM     23  N   LIG    1       29.470 -18.216   5.963  0.00  0.00    -0.244 NA
ATOM     24  C   LIG    1       29.452 -19.149   6.964  0.00  0.00    +0.130 A 
ATOM     25  C   LIG    1       28.475 -20.084   6.738  0.00  0.00    +0.107 A 
ENDBRANCH  20  21
ENDBRANCH   1  20
TORSDOF 6
ENDMDL
MODEL 4
REMARK VINA RESULT:      -2.3      1.602      2.762
REMARK  Name = *****
REMARK                            x       y       z     vdW  Elec       q    Type
REMARK                         _______ _______ _______ _____ _____    ______ ____
ROOT
ATOM      1  C   LIG    1       25.324 -19.879   4.533  0.00  0.00    +0.170 C 
ENDROOT
BRANCH   1   2
ATOM      2  C   LIG    1       23.825 -19.695   4.324  0.00  0.00    +0.001 A 
ATOM      3  C   LIG    1       22.860 -20.426   5.042  0.00  0.00    +0.048 A 
ATOM      4 CL   LIG    1       23.297 -21.571   6.259  0.00  0.00    -0.083 Cl
ATOM      5  C   LIG    1       21.495 -20.254   4.789  0.00  0.00    +0.040 A 
ATOM      6  C   LIG    1       21.078 -19.346   3.819  0.00  0.00    +0.042 A 
ATOM      7 CL   LIG    1       19.401 -19.126   3.512  0.00  0.00    -0.084 Cl
ATOM      8  C   LIG    1       22.012 -18.610   3.098  0.00  0.00    +0.020 A 
ATOM      9  C   LIG    1       23.373 -18.779   3.353  0.00  0.00    +0.009 A 
ENDBRANCH   1   2
BRANCH   1  10
ATOM     10  O   LIG    1       26.074 -18.854   3.838  0.00  0.00    -0.365 OA
BRANCH  10  11
ATOM     11  C   LIG    1       25.323 -17.708   3.399  0.00  0.00    +0.197 C 
BRANCH  11  17
ATOM     12 CL   LIG    1       28.184 -12.472   4.176  0.00  0.00    -0.084 Cl
ATOM     13  C   LIG    1       27.351 -13.971   4.046  0.00  0.00    +0.042 A 
ATOM     14  C   LIG    1       25.960 -13.994   4.099  0.00  0.00    +0.040 A 
ATOM     15  C   LIG    1       25.281 -15.205   3.945  0.00  0.00    +0.048 A 
ATOM     16 CL   LIG    1       23.556 -15.162   4.026  0.00  0.00    -0.083 Cl
ATOM     17  C   LIG    1       25.993 -16.396   3.716  0.00  0.00    -0.004 A 
ATOM     18  C   LIG    1       27.398 -16.357   3.727  0.00  0.00    +0.009 A 
ATOM     19  C   LIG    1       28.073 -15.148   3.878  0.00  0.00    +0.020 A 
ENDBRANCH  11  17
ENDBRANCH  10  11
ENDBRANCH   1  10
BRANCH   1  20
ATOM     20  C   LIG    1       25.682 -19.820   6.038  0.00  0.00    +0.159 C 
BRANCH  20  21
ATOM     21  N   LIG    1       27.046 -20.250   6.309  0.00  0.00    -0.334 N 
ATOM     22  C   LIG    1       27.423 -21.357   7.012  0.00  0.00    +0.199 A 
ATOM     23  N   LIG    1       28.718 -21.545   6.964  0.00  0.00    -0.244 NA
ATOM     24  C   LIG    1       29.209 -20.476   6.264  0.00  0.00    +0.130 A 
ATOM     25  C   LIG    1       28.195 -19.622   5.912  0.00  0.00    +0.107 A 
ENDBRANCH  20  21
ENDBRANCH   1  20
TORSDOF 6
ENDMDL
MODEL 5
REMARK VINA RESULT:      -2.3      2.756      4.697
REMARK  Name = *****
REMARK                            x       y       z     vdW  Elec       q    Type
REMARK                         _______ _______ _______ _____ _____    ______ ____
ROOT
ATOM      1  C   LIG    1       25.043 -18.632   4.103  0.00  0.00    +0.170 C 
ENDROOT
BRANCH   1   2
ATOM      2  C   LIG    1       26.129 -19.398   4.852  0.00  0.00    +0.001 A 
ATOM      3  C   LIG    1       25.848 -20.262   5.928  0.00  0.00    +0.048 A 
ATOM      4 CL   LIG    1       24.235 -20.561   6.466  0.00  0.00    -0.083 Cl
ATOM      5  C   LIG    1       26.881 -20.913   6.612  0.00  0.00    +0.040 A 
ATOM      6  C   LIG    1       28.203 -20.712   6.227  0.00  0.00    +0.042 A 
ATOM      7 CL   LIG    1       29.473 -21.518   7.061  0.00  0.00    -0.084 Cl
ATOM      8  C   LIG    1       28.505 -19.866   5.166  0.00  0.00    +0.020 A 
ATOM      9  C   LIG    1       27.476 -19.219   4.481  0.00  0.00    +0.009 A 
ENDBRANCH   1   2
BRANCH   1  10
ATOM     10  O   LIG    1       25.620 -17.613   3.253  0.00  0.00    -0.365 OA
BRANCH  10  11
ATOM     11  C   LIG    1       24.988 -16.321   3.294  0.00  0.00    +0.197 C 
BRANCH  11  17
ATOM     12 CL   LIG    1       28.960 -11.949   4.441  0.00  0.00    -0.084 Cl
ATOM     13  C   LIG    1       27.798 -13.195   4.202  0.00  0.00    +0.042 A 
ATOM     14  C   LIG    1       26.451 -12.867   4.077  0.00  0.00    +0.040 A 
ATOM     15  C   LIG    1       25.513 -13.873   3.835  0.00  0.00    +0.048 A 
ATOM     16 CL   LIG    1       23.858 -13.396   3.695  0.00  0.00    -0.083 Cl
ATOM     17  C   LIG    1       25.923 -15.211   3.697  0.00  0.00    -0.004 A 
ATOM     18  C   LIG    1       27.280 -15.524   3.887  0.00  0.00    +0.009 A 
ATOM     19  C   LIG    1       28.215 -14.520   4.126  0.00  0.00    +0.020 A 
ENDBRANCH  11  17
ENDBRANCH  10  11
ENDBRANCH   1  10
BRANCH   1  20
ATOM     20  C   LIG    1       24.199 -19.589   3.227  0.00  0.00    +0.159 C 
BRANCH  20  21
ATOM     21  N   LIG    1       22.858 -19.797   3.754  0.00  0.00    -0.334 N 
ATOM     22  C   LIG    1       21.887 -18.849   3.899  0.00  0.00    +0.199 A 
ATOM     23  N   LIG    1       20.746 -19.375   4.271  0.00  0.00    -0.244 NA
ATOM     24  C   LIG    1       21.006 -20.707   4.444  0.00  0.00    +0.130 A 
ATOM     25  C   LIG    1       22.329 -20.978   4.200  0.00  0.00    +0.107 A 
ENDBRANCH  20  21
ENDBRANCH   1  20
TORSDOF 6
ENDMDL
MODEL 6
REMARK VINA RESULT:      -1.7      2.757      4.555
REMARK  Name = *****
REMARK                            x       y       z     vdW  Elec       q    Type
REMARK                         _______ _______ _______ _____ _____    ______ ____
ROOT
ATOM      1  C   LIG    1       24.700 -18.678   4.136  0.00  0.00    +0.170 C 
ENDROOT
BRANCH   1   2
ATOM      2  C   LIG    1       25.846 -19.359   4.876  0.00  0.00    +0.001 A 
ATOM      3  C   LIG    1       25.639 -20.274   5.925  0.00  0.00    +0.048 A 
ATOM      4 CL   LIG    1       24.056 -20.737   6.439  0.00  0.00    -0.083 Cl
ATOM      5  C   LIG    1       26.722 -20.845   6.603  0.00  0.00    +0.040 A 
ATOM      6  C   LIG    1       28.023 -20.512   6.237  0.00  0.00    +0.042 A 
ATOM      7 CL   LIG    1       29.356 -21.219   7.062  0.00  0.00    -0.084 Cl
ATOM      8  C   LIG    1       28.253 -19.613   5.202  0.00  0.00    +0.020 A 
ATOM      9  C   LIG    1       27.174 -19.046   4.524  0.00  0.00    +0.009 A 
ENDBRANCH   1   2
BRANCH   1  10
ATOM     10  O   LIG    1       25.198 -17.848   3.061  0.00  0.00    -0.365 OA
BRANCH  10  11
ATOM     11  C   LIG    1       26.187 -16.868   3.423  0.00  0.00    +0.197 C 
BRANCH  11  17
ATOM     12 CL   LIG    1       23.659 -11.628   4.962  0.00  0.00    -0.084 Cl
ATOM     13  C   LIG    1       24.402 -13.090   4.439  0.00  0.00    +0.042 A 
ATOM     14  C   LIG    1       25.791 -13.186   4.410  0.00  0.00    +0.040 A 
ATOM     15  C   LIG    1       26.393 -14.388   4.032  0.00  0.00    +0.048 A 
ATOM     16 CL   LIG    1       28.120 -14.437   4.015  0.00  0.00    -0.083 Cl
ATOM     17  C   LIG    1       25.607 -15.505   3.699  0.00  0.00    -0.004 A 
ATOM     18  C   LIG    1       24.209 -15.365   3.677  0.00  0.00    +0.009 A 
ATOM     19  C   LIG    1       23.609 -14.167   4.057  0.00  0.00    +0.020 A 
ENDBRANCH  11  17
ENDBRANCH  10  11
ENDBRANCH   1  10
BRANCH   1  20
ATOM     20  C   LIG    1       23.726 -19.725   3.545  0.00  0.00    +0.159 C 
BRANCH  20  21
ATOM     21  N   LIG    1       22.329 -19.374   3.752  0.00  0.00    -0.334 N 
ATOM     22  C   LIG    1       21.799 -18.116   3.751  0.00  0.00    +0.199 A 
ATOM     23  N   LIG    1       20.492 -18.139   3.828  0.00  0.00    -0.244 NA
ATOM     24  C   LIG    1       20.165 -19.462   3.959  0.00  0.00    +0.130 A 
ATOM     25  C   LIG    1       21.295 -20.239   3.989  0.00  0.00    +0.107 A 
ENDBRANCH  20  21
ENDBRANCH   1  20
TORSDOF 6
ENDMDL
MODEL 7
REMARK VINA RESULT:      -0.7      2.633      6.060
REMARK  Name = *****
REMARK                            x       y       z     vdW  Elec       q    Type
REMARK                         _______ _______ _______ _____ _____    ______ ____
ROOT
ATOM      1  C   LIG    1       23.250 -17.754   3.591  0.00  0.00    +0.170 C 
ENDROOT
BRANCH   1   2
ATOM      2  C   LIG    1       23.848 -16.384   3.892  0.00  0.00    +0.001 A 
ATOM      3  C   LIG    1       23.214 -15.443   4.726  0.00  0.00    +0.048 A 
ATOM      4 CL   LIG    1       21.717 -15.781   5.518  0.00  0.00    -0.083 Cl
ATOM      5  C   LIG    1       23.780 -14.181   4.941  0.00  0.00    +0.040 A 
ATOM      6  C   LIG    1       24.985 -13.847   4.330  0.00  0.00    +0.042 A 
ATOM      7 CL   LIG    1       25.686 -12.300   4.600  0.00  0.00    -0.084 Cl
ATOM      8  C   LIG    1       25.631 -14.760   3.504  0.00  0.00    +0.020 A 
ATOM      9  C   LIG    1       25.069 -16.020   3.292  0.00  0.00    +0.009 A 
ENDBRANCH   1   2
BRANCH   1  10
ATOM     10  O   LIG    1       24.282 -18.768   3.534  0.00  0.00    -0.365 OA
BRANCH  10  11
ATOM     11  C   LIG    1       25.638 -18.288   3.476  0.00  0.00    +0.197 C 
BRANCH  11  17
ATOM     12 CL   LIG    1       29.367 -21.360   7.062  0.00  0.00    -0.084 Cl
ATOM     13  C   LIG    1       28.279 -20.428   6.109  0.00  0.00    +0.042 A 
ATOM     14  C   LIG    1       28.663 -19.169   5.656  0.00  0.00    +0.040 A 
ATOM     15  C   LIG    1       27.799 -18.433   4.843  0.00  0.00    +0.048 A 
ATOM     16 CL   LIG    1       28.337 -16.876   4.320  0.00  0.00    -0.083 Cl
ATOM     17  C   LIG    1       26.554 -18.963   4.463  0.00  0.00    -0.004 A 
ATOM     18  C   LIG    1       26.164 -20.210   4.982  0.00  0.00    +0.009 A 
ATOM     19  C   LIG    1       27.027 -20.945   5.791  0.00  0.00    +0.020 A 
ENDBRANCH  11  17
ENDBRANCH  10  11
ENDBRANCH   1  10
BRANCH   1  20
ATOM     20  C   LIG    1       22.221 -18.156   4.675  0.00  0.00    +0.159 C 
BRANCH  20  21
ATOM     21  N   LIG    1       22.511 -19.450   5.274  0.00  0.00    -0.334 N 
ATOM     22  C   LIG    1       23.180 -19.672   6.443  0.00  0.00    +0.199 A 
ATOM     23  N   LIG    1       23.159 -20.937   6.782  0.00  0.00    -0.244 NA
ATOM     24  C   LIG    1       22.515 -21.572   5.755  0.00  0.00    +0.130 A 
ATOM     25  C   LIG    1       22.170 -20.678   4.774  0.00  0.00    +0.107 A 
ENDBRANCH  20  21
ENDBRANCH   1  20
TORSDOF 6
ENDMDL
MODEL 8
REMARK VINA RESULT:      -0.7      2.770      6.887
REMARK  Name = *****
REMARK                            x       y       z     vdW  Elec       q    Type
REMARK                         _______ _______ _______ _____ _____    ______ ____
ROOT
ATOM      1  C   LIG    1       24.383 -16.578   3.436  0.00  0.00    +0.170 C 
ENDROOT
BRANCH   1   2
ATOM      2  C   LIG    1       25.443 -15.524   3.736  0.00  0.00    +0.001 A 
ATOM      3  C   LIG    1       25.123 -14.187   4.040  0.00  0.00    +0.048 A 
ATOM      4 CL   LIG    1       23.490 -13.635   4.141  0.00  0.00    -0.083 Cl
ATOM      5  C   LIG    1       26.131 -13.244   4.269  0.00  0.00    +0.040 A 
ATOM      6  C   LIG    1       27.468 -13.625   4.202  0.00  0.00    +0.042 A 
ATOM      7 CL   LIG    1       28.708 -12.470   4.492  0.00  0.00    -0.084 Cl
ATOM      8  C   LIG    1       27.809 -14.940   3.906  0.00  0.00    +0.020 A 
ATOM      9  C   LIG    1       26.804 -15.882   3.681  0.00  0.00    +0.009 A 
ENDBRANCH   1   2
BRANCH   1  10
ATOM     10  O   LIG    1       24.994 -17.837   3.067  0.00  0.00    -0.365 OA
BRANCH  10  11
ATOM     11  C   LIG    1       24.674 -18.965   3.901  0.00  0.00    +0.197 C 
BRANCH  11  17
ATOM     12 CL   LIG    1       29.475 -20.744   7.062  0.00  0.00    -0.084 Cl
ATOM     13  C   LIG    1       28.110 -20.313   6.107  0.00  0.00    +0.042 A 
ATOM     14  C   LIG    1       26.886 -20.936   6.332  0.00  0.00    +0.040 A 
ATOM     15  C   LIG    1       25.767 -20.551   5.589  0.00  0.00    +0.048 A 
ATOM     16 CL   LIG    1       24.280 -21.368   5.917  0.00  0.00    -0.083 Cl
ATOM     17  C   LIG    1       25.866 -19.527   4.632  0.00  0.00    -0.004 A 
ATOM     18  C   LIG    1       27.125 -18.955   4.380  0.00  0.00    +0.009 A 
ATOM     19  C   LIG    1       28.239 -19.337   5.123  0.00  0.00    +0.020 A 
ENDBRANCH  11  17
ENDBRANCH  10  11
ENDBRANCH   1  10
BRANCH   1  20
ATOM     20  C   LIG    1       23.473 -16.811   4.666  0.00  0.00    +0.159 C 
BRANCH  20  21
ATOM     21  N   LIG    1       22.397 -17.753   4.399  0.00  0.00    -0.334 N 
ATOM     22  C   LIG    1       21.412 -17.616   3.464  0.00  0.00    +0.199 A 
ATOM     23  N   LIG    1       20.675 -18.695   3.374  0.00  0.00    -0.244 NA
ATOM     24  C   LIG    1       21.153 -19.537   4.341  0.00  0.00    +0.130 A 
ATOM     25  C   LIG    1       22.174 -18.943   5.038  0.00  0.00    +0.107 A 
ENDBRANCH  20  21
ENDBRANCH   1  20
TORSDOF 6
ENDMDL
