MODEL 1
REMARK VINA RESULT:      -5.7      0.000      0.000
REMARK  Name = *****
REMARK                            x       y       z     vdW  Elec       q    Type
REMARK                         _______ _______ _______ _____ _____    ______ ____
ROOT
ATOM      1  C   LIG    1       25.152 -18.554   3.289  0.00  0.00    +0.317 C 
ATOM      2  O   LIG    1       25.945 -18.629   2.361  0.00  0.00    -0.250 OA
ENDROOT
BRANCH   1   3
ATOM      3  O   LIG    1       24.620 -17.396   3.776  0.00  0.00    -0.461 OA
BRANCH   3  11
ATOM      4  C   LIG    1       27.214 -13.128   5.668  0.00  0.00    +0.105 C 
ATOM      5  N   LIG    1       26.531 -14.211   4.966  0.00  0.00    -0.294 NA
ATOM      6  C   LIG    1       25.359 -13.740   4.188  0.00  0.00    +0.091 C 
ATOM      7  C   LIG    1       25.979 -13.180   2.931  0.00  0.00    +0.166 C 
ATOM      8  C   LIG    1       27.282 -13.892   2.764  0.00  0.00    +0.166 C 
ATOM      9  O   LIG    1       26.223 -14.040   1.819  0.00  0.00    -0.365 OA
ATOM     10  C   LIG    1       24.489 -14.985   3.965  0.00  0.00    +0.066 C 
ATOM     11  C   LIG    1       25.245 -16.169   3.326  0.00  0.00    +0.180 C 
ATOM     12  C   LIG    1       26.754 -16.219   3.662  0.00  0.00    +0.066 C 
ATOM     13  C   LIG    1       27.381 -14.845   3.928  0.00  0.00    +0.091 C 
ENDBRANCH   3  11
ENDBRANCH   1   3
BRANCH   1  14
ATOM     14  C   LIG    1       24.643 -19.744   4.083  0.00  0.00    +0.153 C 
BRANCH  14  15
ATOM     15  C   LIG    1       25.643 -20.205   5.132  0.00  0.00    -0.032 A 
ATOM     16  C   LIG    1       26.951 -19.690   5.142  0.00  0.00    +0.004 A 
ATOM     17  C   LIG    1       27.877 -20.114   6.099  0.00  0.00    +0.000 A 
ATOM     18  C   LIG    1       27.510 -21.055   7.058  0.00  0.00    +0.000 A 
ATOM     19  C   LIG    1       26.217 -21.572   7.062  0.00  0.00    +0.000 A 
ATOM     20  C   LIG    1       25.290 -21.149   6.108  0.00  0.00    +0.004 A 
ENDBRANCH  14  15
BRANCH  14  21
ATOM     21  C   LIG    1       23.277 -19.353   4.674  0.00  0.00    +0.175 C 
BRANCH  21  22
ATOM     22  O   LIG    1       22.383 -18.884   3.664  0.00  0.00    -0.394 OA
ATOM     23  H   LIG    1       21.627 -18.473   4.121  0.00  0.00    +0.209 HD
ENDBRANCH  21  22
ENDBRANCH  14  21
ENDBRANCH   1  14
TORSDOF 6
ENDMDL
MODEL 2
REMARK VINA RESULT:      -5.2      1.467      2.402
REMARK  Name = *****
REMARK                            x       y       z     vdW  Elec       q    Type
REMARK                         _______ _______ _______ _____ _____    ______ ____
ROOT
ATOM      1  C   LIG    1       24.586 -18.237   3.686  0.00  0.00    +0.317 C 
ATOM      2  O   LIG    1       23.509 -17.871   4.134  0.00  0.00    -0.250 OA
ENDROOT
BRANCH   1   3
ATOM      3  O   LIG    1       25.498 -17.429   3.074  0.00  0.00    -0.461 OA
BRANCH   3  11
ATOM      4  C   LIG    1       25.176 -12.205   2.008  0.00  0.00    +0.105 C 
ATOM      5  N   LIG    1       25.327 -13.577   2.486  0.00  0.00    -0.294 NA
ATOM      6  C   LIG    1       26.709 -13.879   2.931  0.00  0.00    +0.091 C 
ATOM      7  C   LIG    1       26.766 -13.283   4.317  0.00  0.00    +0.166 C 
ATOM      8  C   LIG    1       25.356 -13.264   4.813  0.00  0.00    +0.166 C 
ATOM      9  O   LIG    1       26.358 -14.063   5.439  0.00  0.00    -0.365 OA
ATOM     10  C   LIG    1       26.824 -15.410   2.895  0.00  0.00    +0.066 C 
ATOM     11  C   LIG    1       25.722 -16.139   3.693  0.00  0.00    +0.180 C 
ATOM     12  C   LIG    1       24.379 -15.376   3.770  0.00  0.00    +0.066 C 
ATOM     13  C   LIG    1       24.522 -13.850   3.701  0.00  0.00    +0.091 C 
ENDBRANCH   3  11
ENDBRANCH   1   3
BRANCH   1  14
ATOM     14  C   LIG    1       25.082 -19.672   3.706  0.00  0.00    +0.153 C 
BRANCH  14  15
ATOM     15  C   LIG    1       26.029 -19.936   4.868  0.00  0.00    -0.032 A 
ATOM     16  C   LIG    1       25.594 -20.662   5.989  0.00  0.00    +0.004 A 
ATOM     17  C   LIG    1       26.457 -20.902   7.062  0.00  0.00    +0.000 A 
ATOM     18  C   LIG    1       27.764 -20.422   7.028  0.00  0.00    +0.000 A 
ATOM     19  C   LIG    1       28.209 -19.704   5.922  0.00  0.00    +0.000 A 
ATOM     20  C   LIG    1       27.351 -19.463   4.849  0.00  0.00    +0.004 A 
ENDBRANCH  14  15
BRANCH  14  21
ATOM     21  C   LIG    1       23.845 -20.588   3.709  0.00  0.00    +0.175 C 
BRANCH  21  22
ATOM     22  O   LIG    1       23.911 -21.562   2.668  0.00  0.00    -0.394 OA
ATOM     23  H   LIG    1       24.680 -22.130   2.857  0.00  0.00    +0.209 HD
ENDBRANCH  21  22
ENDBRANCH  14  21
ENDBRANCH   1  14
TORSDOF 6
ENDMDL
MODEL 3
REMARK VINA RESULT:      -4.9      2.121      6.940
REMARK  Name = *****
REMARK                            x       y       z     vdW  Elec       q    Type
REMARK                         _______ _______ _______ _____ _____    ______ ____
ROOT
ATOM      1  C   LIG    1       25.365 -16.349   3.519  0.00  0.00    +0.317 C 
ATOM      2  O   LIG    1       24.224 -16.324   3.958  0.00  0.00    -0.250 OA
ENDROOT
BRANCH   1   3
ATOM      3  O   LIG    1       26.102 -17.478   3.308  0.00  0.00    -0.461 OA
BRANCH   3  11
ATOM      4  C   LIG    1       23.437 -20.445   6.861  0.00  0.00    +0.105 C 
ATOM      5  N   LIG    1       24.122 -19.781   5.755  0.00  0.00    -0.294 NA
ATOM      6  C   LIG    1       25.212 -20.607   5.180  0.00  0.00    +0.091 C 
ATOM      7  C   LIG    1       24.480 -21.572   4.280  0.00  0.00    +0.166 C 
ATOM      8  C   LIG    1       23.206 -20.891   3.899  0.00  0.00    +0.166 C 
ATOM      9  O   LIG    1       24.202 -21.207   2.929  0.00  0.00    -0.365 OA
ATOM     10  C   LIG    1       26.126 -19.619   4.440  0.00  0.00    +0.066 C 
ATOM     11  C   LIG    1       25.387 -18.733   3.414  0.00  0.00    +0.180 C 
ATOM     12  C   LIG    1       23.909 -18.444   3.768  0.00  0.00    +0.066 C 
ATOM     13  C   LIG    1       23.235 -19.550   4.589  0.00  0.00    +0.091 C 
ENDBRANCH   3  11
ENDBRANCH   1   3
BRANCH   1  14
ATOM     14  C   LIG    1       26.175 -15.115   3.159  0.00  0.00    +0.153 C 
BRANCH  14  15
ATOM     15  C   LIG    1       25.354 -13.838   3.264  0.00  0.00    -0.032 A 
ATOM     16  C   LIG    1       24.940 -13.361   4.519  0.00  0.00    +0.004 A 
ATOM     17  C   LIG    1       24.180 -12.193   4.622  0.00  0.00    +0.000 A 
ATOM     18  C   LIG    1       23.825 -11.486   3.475  0.00  0.00    +0.000 A 
ATOM     19  C   LIG    1       24.231 -11.946   2.225  0.00  0.00    +0.000 A 
ATOM     20  C   LIG    1       24.991 -13.112   2.119  0.00  0.00    +0.004 A 
ENDBRANCH  14  15
BRANCH  14  21
ATOM     21  C   LIG    1       27.427 -15.109   4.052  0.00  0.00    +0.175 C 
BRANCH  21  22
ATOM     22  O   LIG    1       28.316 -14.048   3.703  0.00  0.00    -0.394 OA
ATOM     23  H   LIG    1       28.142 -13.315   4.322  0.00  0.00    +0.209 HD
ENDBRANCH  21  22
ENDBRANCH  14  21
ENDBRANCH   1  14
TORSDOF 6
ENDMDL
MODEL 4
REMARK VINA RESULT:      -4.8      2.129      6.915
REMARK  Name = *****
REMARK                            x       y       z     vdW  Elec       q    Type
REMARK                         _______ _______ _______ _____ _____    ______ ____
ROOT
ATOM      1  C   LIG    1       25.374 -16.350   3.543  0.00  0.00    +0.317 C 
ATOM      2  O   LIG    1       24.250 -16.326   4.025  0.00  0.00    -0.250 OA
ENDROOT
BRANCH   1   3
ATOM      3  O   LIG    1       26.092 -17.479   3.279  0.00  0.00    -0.461 OA
BRANCH   3  11
ATOM      4  C   LIG    1       23.409 -20.450   6.815  0.00  0.00    +0.105 C 
ATOM      5  N   LIG    1       24.098 -19.785   5.713  0.00  0.00    -0.294 NA
ATOM      6  C   LIG    1       25.183 -20.613   5.132  0.00  0.00    +0.091 C 
ATOM      7  C   LIG    1       24.445 -21.569   4.227  0.00  0.00    +0.166 C 
ATOM      8  C   LIG    1       23.174 -20.877   3.851  0.00  0.00    +0.166 C 
ATOM      9  O   LIG    1       24.169 -21.195   2.879  0.00  0.00    -0.365 OA
ATOM     10  C   LIG    1       26.103 -19.627   4.398  0.00  0.00    +0.066 C 
ATOM     11  C   LIG    1       25.369 -18.730   3.378  0.00  0.00    +0.180 C 
ATOM     12  C   LIG    1       23.894 -18.434   3.733  0.00  0.00    +0.066 C 
ATOM     13  C   LIG    1       23.212 -19.541   4.548  0.00  0.00    +0.091 C 
ENDBRANCH   3  11
ENDBRANCH   1   3
BRANCH   1  14
ATOM     14  C   LIG    1       26.180 -15.115   3.182  0.00  0.00    +0.153 C 
BRANCH  14  15
ATOM     15  C   LIG    1       25.343 -13.845   3.237  0.00  0.00    -0.032 A 
ATOM     16  C   LIG    1       25.003 -13.167   2.055  0.00  0.00    +0.004 A 
ATOM     17  C   LIG    1       24.240 -11.996   2.099  0.00  0.00    +0.000 A 
ATOM     18  C   LIG    1       23.806 -11.490   3.322  0.00  0.00    +0.000 A 
ATOM     19  C   LIG    1       24.134 -12.154   4.501  0.00  0.00    +0.000 A 
ATOM     20  C   LIG    1       24.894 -13.324   4.460  0.00  0.00    +0.004 A 
ENDBRANCH  14  15
BRANCH  14  21
ATOM     21  C   LIG    1       27.406 -15.077   4.111  0.00  0.00    +0.175 C 
BRANCH  21  22
ATOM     22  O   LIG    1       28.321 -14.049   3.730  0.00  0.00    -0.394 OA
ATOM     23  H   LIG    1       28.036 -13.233   4.181  0.00  0.00    +0.209 HD
ENDBRANCH  21  22
ENDBRANCH  14  21
ENDBRANCH   1  14
TORSDOF 6
ENDMDL
MODEL 5
REMARK VINA RESULT:      -4.7      1.252      2.482
REMARK  Name = *****
REMARK                            x       y       z     vdW  Elec       q    Type
REMARK                         _______ _______ _______ _____ _____    ______ ____
ROOT
ATOM      1  C   LIG    1       25.347 -18.524   3.519  0.00  0.00    +0.317 C 
ATOM      2  O   LIG    1       25.621 -18.929   2.398  0.00  0.00    -0.250 OA
ENDROOT
BRANCH   1   3
ATOM      3  O   LIG    1       24.713 -17.349   3.797  0.00  0.00    -0.461 OA
BRANCH   3  11
ATOM      4  C   LIG    1       27.249 -13.039   5.674  0.00  0.00    +0.105 C 
ATOM      5  N   LIG    1       26.593 -14.141   4.974  0.00  0.00    -0.294 NA
ATOM      6  C   LIG    1       25.469 -13.687   4.119  0.00  0.00    +0.091 C 
ATOM      7  C   LIG    1       26.161 -13.178   2.878  0.00  0.00    +0.166 C 
ATOM      8  C   LIG    1       27.463 -13.908   2.806  0.00  0.00    +0.166 C 
ATOM      9  O   LIG    1       26.455 -14.079   1.812  0.00  0.00    -0.365 OA
ATOM     10  C   LIG    1       24.599 -14.931   3.893  0.00  0.00    +0.066 C 
ATOM     11  C   LIG    1       25.375 -16.145   3.338  0.00  0.00    +0.180 C 
ATOM     12  C   LIG    1       26.863 -16.196   3.756  0.00  0.00    +0.066 C 
ATOM     13  C   LIG    1       27.490 -14.819   4.007  0.00  0.00    +0.091 C 
ENDBRANCH   3  11
ENDBRANCH   1   3
BRANCH   1  14
ATOM     14  C   LIG    1       25.697 -19.253   4.805  0.00  0.00    +0.153 C 
BRANCH  14  15
ATOM     15  C   LIG    1       24.529 -20.071   5.337  0.00  0.00    -0.032 A 
ATOM     16  C   LIG    1       23.339 -20.173   4.599  0.00  0.00    +0.004 A 
ATOM     17  C   LIG    1       22.260 -20.918   5.085  0.00  0.00    +0.000 A 
ATOM     18  C   LIG    1       22.357 -21.570   6.312  0.00  0.00    +0.000 A 
ATOM     19  C   LIG    1       23.532 -21.479   7.053  0.00  0.00    +0.000 A 
ATOM     20  C   LIG    1       24.612 -20.738   6.570  0.00  0.00    +0.004 A 
ENDBRANCH  14  15
BRANCH  14  21
ATOM     21  C   LIG    1       26.955 -20.094   4.531  0.00  0.00    +0.175 C 
BRANCH  21  22
ATOM     22  O   LIG    1       28.105 -19.542   5.172  0.00  0.00    -0.394 OA
ATOM     23  H   LIG    1       28.716 -19.258   4.468  0.00  0.00    +0.209 HD
ENDBRANCH  21  22
ENDBRANCH  14  21
ENDBRANCH   1  14
TORSDOF 6
ENDMDL
MODEL 6
REMARK VINA RESULT:      -4.6      1.625      2.532
REMARK  Name = *****
REMARK                            x       y       z     vdW  Elec       q    Type
REMARK                         _______ _______ _______ _____ _____    ______ ____
ROOT
ATOM      1  C   LIG    1       25.241 -17.898   3.567  0.00  0.00    +0.317 C 
ATOM      2  O   LIG    1       26.423 -17.970   3.872  0.00  0.00    -0.250 OA
ENDROOT
BRANCH   1   3
ATOM      3  O   LIG    1       24.579 -16.746   3.253  0.00  0.00    -0.461 OA
BRANCH   3  11
ATOM      4  C   LIG    1       24.780 -11.511   2.214  0.00  0.00    +0.105 C 
ATOM      5  N   LIG    1       24.845 -12.901   2.659  0.00  0.00    -0.294 NA
ATOM      6  C   LIG    1       26.233 -13.421   2.714  0.00  0.00    +0.091 C 
ATOM      7  C   LIG    1       26.758 -12.873   4.018  0.00  0.00    +0.166 C 
ATOM      8  C   LIG    1       25.559 -12.651   4.882  0.00  0.00    +0.166 C 
ATOM      9  O   LIG    1       26.560 -13.608   5.225  0.00  0.00    -0.365 OA
ATOM     10  C   LIG    1       26.098 -14.950   2.678  0.00  0.00    +0.066 C 
ATOM     11  C   LIG    1       25.159 -15.521   3.762  0.00  0.00    +0.180 C 
ATOM     12  C   LIG    1       24.022 -14.564   4.190  0.00  0.00    +0.066 C 
ATOM     13  C   LIG    1       24.373 -13.076   4.055  0.00  0.00    +0.091 C 
ENDBRANCH   3  11
ENDBRANCH   1   3
BRANCH   1  14
ATOM     14  C   LIG    1       24.293 -19.083   3.514  0.00  0.00    +0.153 C 
BRANCH  14  15
ATOM     15  C   LIG    1       24.401 -19.961   4.751  0.00  0.00    -0.032 A 
ATOM     16  C   LIG    1       23.308 -20.097   5.624  0.00  0.00    +0.004 A 
ATOM     17  C   LIG    1       23.403 -20.897   6.766  0.00  0.00    +0.000 A 
ATOM     18  C   LIG    1       24.588 -21.571   7.051  0.00  0.00    +0.000 A 
ATOM     19  C   LIG    1       25.677 -21.448   6.193  0.00  0.00    +0.000 A 
ATOM     20  C   LIG    1       25.586 -20.651   5.051  0.00  0.00    +0.004 A 
ENDBRANCH  14  15
BRANCH  14  21
ATOM     21  C   LIG    1       22.876 -18.529   3.281  0.00  0.00    +0.175 C 
BRANCH  21  22
ATOM     22  O   LIG    1       22.409 -17.792   4.411  0.00  0.00    -0.394 OA
ATOM     23  H   LIG    1       21.805 -17.105   4.074  0.00  0.00    +0.209 HD
ENDBRANCH  21  22
ENDBRANCH  14  21
ENDBRANCH   1  14
TORSDOF 6
ENDMDL
MODEL 7
REMARK VINA RESULT:      -4.4      1.386      1.937
REMARK  Name = *****
REMARK                            x       y       z     vdW  Elec       q    Type
REMARK                         _______ _______ _______ _____ _____    ______ ____
ROOT
ATOM      1  C   LIG    1       23.217 -17.388   4.138  0.00  0.00    +0.317 C 
ATOM      2  O   LIG    1       22.453 -16.469   4.400  0.00  0.00    -0.250 OA
ENDROOT
BRANCH   1   3
ATOM      3  O   LIG    1       24.561 -17.261   3.943  0.00  0.00    -0.461 OA
BRANCH   3  11
ATOM      4  C   LIG    1       27.482 -12.995   5.283  0.00  0.00    +0.105 C 
ATOM      5  N   LIG    1       26.655 -14.068   4.737  0.00  0.00    -0.294 NA
ATOM      6  C   LIG    1       25.304 -13.604   4.341  0.00  0.00    +0.091 C 
ATOM      7  C   LIG    1       25.537 -12.962   2.995  0.00  0.00    +0.166 C 
ATOM      8  C   LIG    1       26.758 -13.616   2.435  0.00  0.00    +0.166 C 
ATOM      9  O   LIG    1       25.482 -13.757   1.813  0.00  0.00    -0.365 OA
ATOM     10  C   LIG    1       24.434 -14.868   4.297  0.00  0.00    +0.066 C 
ATOM     11  C   LIG    1       25.009 -15.992   3.408  0.00  0.00    +0.180 C 
ATOM     12  C   LIG    1       26.552 -16.002   3.311  0.00  0.00    +0.066 C 
ATOM     13  C   LIG    1       27.198 -14.619   3.471  0.00  0.00    +0.091 C 
ENDBRANCH   3  11
ENDBRANCH   1   3
BRANCH   1  14
ATOM     14  C   LIG    1       22.791 -18.834   3.954  0.00  0.00    +0.153 C 
BRANCH  14  15
ATOM     15  C   LIG    1       23.490 -19.767   4.931  0.00  0.00    -0.032 A 
ATOM     16  C   LIG    1       24.728 -20.343   4.601  0.00  0.00    +0.004 A 
ATOM     17  C   LIG    1       25.373 -21.207   5.491  0.00  0.00    +0.000 A 
ATOM     18  C   LIG    1       24.791 -21.506   6.721  0.00  0.00    +0.000 A 
ATOM     19  C   LIG    1       23.565 -20.940   7.062  0.00  0.00    +0.000 A 
ATOM     20  C   LIG    1       22.920 -20.076   6.176  0.00  0.00    +0.004 A 
ENDBRANCH  14  15
BRANCH  14  21
ATOM     21  C   LIG    1       21.256 -18.879   4.060  0.00  0.00    +0.175 C 
BRANCH  21  22
ATOM     22  O   LIG    1       20.635 -18.199   2.970  0.00  0.00    -0.394 OA
ATOM     23  H   LIG    1       20.522 -17.270   3.240  0.00  0.00    +0.209 HD
ENDBRANCH  21  22
ENDBRANCH  14  21
ENDBRANCH   1  14
TORSDOF 6
ENDMDL
MODEL 8
REMARK VINA RESULT:      -4.0      2.216      6.504
REMARK  Name = *****
REMARK                            x       y       z     vdW  Elec       q    Type
REMARK                         _______ _______ _______ _____ _____    ______ ____
ROOT
ATOM      1  C   LIG    1       24.846 -16.269   3.654  0.00  0.00    +0.317 C 
ATOM      2  O   LIG    1       25.775 -16.742   3.015  0.00  0.00    -0.250 OA
ENDROOT
BRANCH   1   3
ATOM      3  O   LIG    1       23.707 -16.937   3.996  0.00  0.00    -0.461 OA
BRANCH   3  11
ATOM      4  C   LIG    1       23.963 -21.312   7.048  0.00  0.00    +0.105 C 
ATOM      5  N   LIG    1       23.891 -20.244   6.055  0.00  0.00    -0.294 NA
ATOM      6  C   LIG    1       25.031 -20.268   5.105  0.00  0.00    +0.091 C 
ATOM      7  C   LIG    1       24.642 -21.346   4.123  0.00  0.00    +0.166 C 
ATOM      8  C   LIG    1       23.150 -21.414   4.159  0.00  0.00    +0.166 C 
ATOM      9  O   LIG    1       23.852 -21.013   2.984  0.00  0.00    -0.365 OA
ATOM     10  C   LIG    1       25.093 -18.856   4.505  0.00  0.00    +0.066 C 
ATOM     11  C   LIG    1       23.759 -18.380   3.890  0.00  0.00    +0.180 C 
ATOM     12  C   LIG    1       22.499 -18.981   4.554  0.00  0.00    +0.066 C 
ATOM     13  C   LIG    1       22.715 -20.374   5.160  0.00  0.00    +0.091 C 
ENDBRANCH   3  11
ENDBRANCH   1   3
BRANCH   1  14
ATOM     14  C   LIG    1       24.789 -14.836   4.154  0.00  0.00    +0.153 C 
BRANCH  14  15
ATOM     15  C   LIG    1       26.150 -14.158   4.113  0.00  0.00    -0.032 A 
ATOM     16  C   LIG    1       26.725 -13.647   5.288  0.00  0.00    +0.004 A 
ATOM     17  C   LIG    1       27.972 -13.016   5.256  0.00  0.00    +0.000 A 
ATOM     18  C   LIG    1       28.661 -12.890   4.052  0.00  0.00    +0.000 A 
ATOM     19  C   LIG    1       28.104 -13.394   2.880  0.00  0.00    +0.000 A 
ATOM     20  C   LIG    1       26.860 -14.025   2.909  0.00  0.00    +0.004 A 
ENDBRANCH  14  15
BRANCH  14  21
ATOM     21  C   LIG    1       23.718 -14.103   3.328  0.00  0.00    +0.175 C 
BRANCH  21  22
ATOM     22  O   LIG    1       23.803 -12.688   3.497  0.00  0.00    -0.394 OA
ATOM     23  H   LIG    1       22.914 -12.377   3.750  0.00  0.00    +0.209 HD
ENDBRANCH  21  22
ENDBRANCH  14  21
ENDBRANCH   1  14
TORSDOF 6
ENDMDL
MODEL 9
REMARK VINA RESULT:      -3.6      1.297      1.952
REMARK  Name = *****
REMARK                            x       y       z     vdW  Elec       q    Type
REMARK                         _______ _______ _______ _____ _____    ______ ____
ROOT
ATOM      1  C   LIG    1       25.964 -18.257   3.759  0.00  0.00    +0.317 C 
ATOM      2  O   LIG    1       27.109 -17.953   4.062  0.00  0.00    -0.250 OA
ENDROOT
BRANCH   1   3
ATOM      3  O   LIG    1       24.939 -17.375   3.578  0.00  0.00    -0.461 OA
BRANCH   3  11
ATOM      4  C   LIG    1       27.175 -12.954   5.573  0.00  0.00    +0.105 C 
ATOM      5  N   LIG    1       26.550 -14.059   4.852  0.00  0.00    -0.294 NA
ATOM      6  C   LIG    1       25.223 -13.702   4.295  0.00  0.00    +0.091 C 
ATOM      7  C   LIG    1       25.566 -12.942   3.037  0.00  0.00    +0.166 C 
ATOM      8  C   LIG    1       26.915 -13.431   2.619  0.00  0.00    +0.166 C 
ATOM      9  O   LIG    1       25.759 -13.650   1.814  0.00  0.00    -0.365 OA
ATOM     10  C   LIG    1       24.508 -15.039   4.052  0.00  0.00    +0.066 C 
ATOM     11  C   LIG    1       25.316 -16.032   3.189  0.00  0.00    +0.180 C 
ATOM     12  C   LIG    1       26.850 -15.883   3.313  0.00  0.00    +0.066 C 
ATOM     13  C   LIG    1       27.316 -14.460   3.646  0.00  0.00    +0.091 C 
ENDBRANCH   3  11
ENDBRANCH   1   3
BRANCH   1  14
ATOM     14  C   LIG    1       25.475 -19.681   3.562  0.00  0.00    +0.153 C 
BRANCH  14  15
ATOM     15  C   LIG    1       24.755 -20.217   4.790  0.00  0.00    -0.032 A 
ATOM     16  C   LIG    1       23.392 -19.941   4.991  0.00  0.00    +0.004 A 
ATOM     17  C   LIG    1       22.726 -20.424   6.121  0.00  0.00    +0.000 A 
ATOM     18  C   LIG    1       23.410 -21.190   7.062  0.00  0.00    +0.000 A 
ATOM     19  C   LIG    1       24.760 -21.474   6.873  0.00  0.00    +0.000 A 
ATOM     20  C   LIG    1       25.428 -20.994   5.746  0.00  0.00    +0.004 A 
ENDBRANCH  14  15
BRANCH  14  21
ATOM     21  C   LIG    1       24.609 -19.699   2.291  0.00  0.00    +0.175 C 
BRANCH  21  22
ATOM     22  O   LIG    1       23.853 -20.906   2.188  0.00  0.00    -0.394 OA
ATOM     23  H   LIG    1       22.953 -20.707   2.505  0.00  0.00    +0.209 HD
ENDBRANCH  21  22
ENDBRANCH  14  21
ENDBRANCH   1  14
TORSDOF 6
ENDMDL
