MODEL 1
REMARK VINA RESULT:      -9.5      0.000      0.000
REMARK  Name = *****
REMARK                            x       y       z     vdW  Elec       q    Type
REMARK                         _______ _______ _______ _____ _____    ______ ____
ROOT
ATOM      1  C   LIG    1       26.592 -21.802   7.405  0.00  0.00    -0.017 C 
ATOM      2  C   LIG    1       25.680 -22.198   6.489  0.00  0.00    -0.013 C 
ATOM      3  C   LIG    1       25.335 -23.647   6.425  0.00  0.00    -0.004 A 
ATOM      4  C   LIG    1       24.021 -24.157   6.502  0.00  0.00    +0.016 A 
ATOM      5  C   LIG    1       23.835 -25.554   6.420  0.00  0.00    +0.015 A 
ATOM      6  C   LIG    1       24.909 -26.431   6.264  0.00  0.00    +0.001 A 
ATOM      7  C   LIG    1       26.197 -25.928   6.170  0.00  0.00    +0.001 A 
ATOM      8  S   LIG    1       22.468 -23.259   6.683  0.00  0.00    -0.120 S 
ATOM      9  C   LIG    1       22.958 -21.571   7.143  0.00  0.00    +0.110 C 
ATOM     10  C   LIG    1       23.644 -20.852   6.014  0.00  0.00    -0.029 A 
ATOM     11  C   LIG    1       22.974 -19.871   5.267  0.00  0.00    +0.005 A 
ATOM     12  C   LIG    1       23.618 -19.222   4.213  0.00  0.00    +0.000 A 
ATOM     13  C   LIG    1       24.931 -19.556   3.885  0.00  0.00    +0.001 A 
ATOM     14  C   LIG    1       25.604 -20.535   4.614  0.00  0.00    +0.009 A 
ATOM     15  C   LIG    1       26.406 -24.552   6.242  0.00  0.00    +0.009 A 
ATOM     16  C   LIG    1       24.969 -21.180   5.684  0.00  0.00    -0.014 A 
ENDROOT
BRANCH   1  17
ATOM     17  C   LIG    1       27.013 -20.390   7.740  0.00  0.00    +0.043 C 
BRANCH  17  18
ATOM     18  C   LIG    1       28.444 -20.080   7.262  0.00  0.00    +0.088 C 
BRANCH  18  20
ATOM     19  C   LIG    1       30.417 -20.930   8.355  0.00  0.00    +0.104 C 
ATOM     20  N   LIG    1       29.405 -19.869   8.364  0.00  0.00    -0.308 NA
ATOM     21  C   LIG    1       30.066 -18.564   8.274  0.00  0.00    +0.104 C 
ENDBRANCH  18  20
ENDBRANCH  17  18
ENDBRANCH   1  17
TORSDOF 3
ENDMDL
MODEL 2
REMARK VINA RESULT:      -7.2      2.360      5.562
REMARK  Name = *****
REMARK                            x       y       z     vdW  Elec       q    Type
REMARK                         _______ _______ _______ _____ _____    ______ ____
ROOT
ATOM      1  C   LIG    1       25.754 -20.218   4.487  0.00  0.00    -0.017 C 
ATOM      2  C   LIG    1       26.052 -20.970   5.569  0.00  0.00    -0.013 C 
ATOM      3  C   LIG    1       27.184 -20.534   6.435  0.00  0.00    -0.004 A 
ATOM      4  C   LIG    1       27.089 -20.333   7.829  0.00  0.00    +0.016 A 
ATOM      5  C   LIG    1       28.244 -19.925   8.531  0.00  0.00    +0.015 A 
ATOM      6  C   LIG    1       29.463 -19.721   7.885  0.00  0.00    +0.001 A 
ATOM      7  C   LIG    1       29.560 -19.935   6.520  0.00  0.00    +0.001 A 
ATOM      8  S   LIG    1       25.658 -20.541   8.907  0.00  0.00    -0.120 S 
ATOM      9  C   LIG    1       24.242 -20.685   7.777  0.00  0.00    +0.110 C 
ATOM     10  C   LIG    1       24.273 -21.968   6.991  0.00  0.00    -0.029 A 
ATOM     11  C   LIG    1       23.425 -23.037   7.319  0.00  0.00    +0.005 A 
ATOM     12  C   LIG    1       23.474 -24.226   6.590  0.00  0.00    +0.000 A 
ATOM     13  C   LIG    1       24.378 -24.365   5.538  0.00  0.00    +0.001 A 
ATOM     14  C   LIG    1       25.231 -23.312   5.209  0.00  0.00    +0.009 A 
ATOM     15  C   LIG    1       28.435 -20.345   5.804  0.00  0.00    +0.009 A 
ATOM     16  C   LIG    1       25.177 -22.109   5.926  0.00  0.00    -0.014 A 
ENDROOT
BRANCH   1  17
ATOM     17  C   LIG    1       24.591 -20.385   3.536  0.00  0.00    +0.043 C 
BRANCH  17  18
ATOM     18  C   LIG    1       23.668 -19.153   3.520  0.00  0.00    +0.088 C 
BRANCH  18  20
ATOM     19  C   LIG    1       21.934 -17.869   4.595  0.00  0.00    +0.104 C 
ATOM     20  N   LIG    1       22.789 -19.055   4.704  0.00  0.00    -0.308 NA
ATOM     21  C   LIG    1       21.953 -20.246   4.867  0.00  0.00    +0.104 C 
ENDBRANCH  18  20
ENDBRANCH  17  18
ENDBRANCH   1  17
TORSDOF 3
ENDMDL
MODEL 3
REMARK VINA RESULT:      -7.2      2.448      5.529
REMARK  Name = *****
REMARK                            x       y       z     vdW  Elec       q    Type
REMARK                         _______ _______ _______ _____ _____    ______ ____
ROOT
ATOM      1  C   LIG    1       26.743 -22.820   7.020  0.00  0.00    -0.017 C 
ATOM      2  C   LIG    1       26.561 -21.488   6.891  0.00  0.00    -0.013 C 
ATOM      3  C   LIG    1       27.769 -20.615   6.867  0.00  0.00    -0.004 A 
ATOM      4  C   LIG    1       28.053 -19.676   5.852  0.00  0.00    +0.016 A 
ATOM      5  C   LIG    1       29.232 -18.907   5.957  0.00  0.00    +0.015 A 
ATOM      6  C   LIG    1       30.111 -19.051   7.031  0.00  0.00    +0.001 A 
ATOM      7  C   LIG    1       29.822 -19.959   8.037  0.00  0.00    +0.001 A 
ATOM      8  S   LIG    1       27.092 -19.277   4.379  0.00  0.00    -0.120 S 
ATOM      9  C   LIG    1       25.864 -20.610   4.250  0.00  0.00    +0.110 C 
ATOM     10  C   LIG    1       24.845 -20.550   5.355  0.00  0.00    -0.029 A 
ATOM     11  C   LIG    1       23.548 -20.071   5.117  0.00  0.00    +0.005 A 
ATOM     12  C   LIG    1       22.617 -20.007   6.155  0.00  0.00    +0.000 A 
ATOM     13  C   LIG    1       22.975 -20.409   7.441  0.00  0.00    +0.001 A 
ATOM     14  C   LIG    1       24.264 -20.879   7.691  0.00  0.00    +0.009 A 
ATOM     15  C   LIG    1       28.660 -20.726   7.959  0.00  0.00    +0.009 A 
ATOM     16  C   LIG    1       25.200 -20.960   6.650  0.00  0.00    -0.014 A 
ENDROOT
BRANCH   1  17
ATOM     17  C   LIG    1       25.696 -23.908   6.951  0.00  0.00    +0.043 C 
BRANCH  17  18
ATOM     18  C   LIG    1       25.389 -24.331   5.503  0.00  0.00    +0.088 C 
BRANCH  18  20
ATOM     19  C   LIG    1       26.554 -26.399   5.926  0.00  0.00    +0.104 C 
ATOM     20  N   LIG    1       25.371 -25.796   5.304  0.00  0.00    -0.308 NA
ATOM     21  C   LIG    1       24.162 -26.410   5.857  0.00  0.00    +0.104 C 
ENDBRANCH  18  20
ENDBRANCH  17  18
ENDBRANCH   1  17
TORSDOF 3
ENDMDL
