MODEL 1
REMARK VINA RESULT:      21.9      0.000      0.000
REMARK  Name = *****
REMARK                            x       y       z     vdW  Elec       q    Type
REMARK                         _______ _______ _______ _____ _____    ______ ____
ROOT
ATOM      1  C   LIG    1       22.414 -19.430   2.289  0.00  0.00    +0.129 C 
ENDROOT
BRANCH   1   2
ATOM      2  O   LIG    1       21.395 -20.315   2.736  0.00  0.00    -0.391 OA
ATOM      3  H   LIG    1       20.646 -19.771   3.027  0.00  0.00    +0.210 HD
ENDBRANCH   1   2
BRANCH   1   4
ATOM      4  C   LIG    1       23.711 -19.500   3.169  0.00  0.00    +0.116 C 
BRANCH   4   6
ATOM      5  C   LIG    1       26.150 -18.913   3.018  0.00  0.00    +0.157 C 
ATOM      6  N   LIG    1       24.730 -18.472   2.901  0.00  0.00    -0.287 NA
ATOM      7  C   LIG    1       24.495 -17.233   3.670  0.00  0.00    +0.100 C 
ATOM      8  C   LIG    1       25.439 -16.101   3.222  0.00  0.00    +0.100 C 
ATOM      9  N   LIG    1       26.856 -16.425   3.453  0.00  0.00    -0.295 NA
ATOM     10  C   LIG    1       27.174 -17.741   2.841  0.00  0.00    +0.113 C 
BRANCH   5  13
ATOM     11  N   LIG    1       27.586 -19.323   5.014  0.00  0.00    -0.309 N 
ATOM     12  H   LIG    1       28.172 -18.719   4.465  0.00  0.00    +0.149 HD
ATOM     13  C   LIG    1       26.488 -19.814   4.283  0.00  0.00    +0.232 C 
ATOM     14  O   LIG    1       25.889 -20.810   4.582  0.00  0.00    -0.274 OA
BRANCH  11  16
ATOM     15  C   LIG    1       29.475 -20.730   5.737  0.00  0.00    +0.031 C 
ATOM     16  C   LIG    1       28.249 -19.892   6.205  0.00  0.00    +0.026 C 
ATOM     17  C   LIG    1       28.756 -18.741   7.062  0.00  0.00    +0.031 C 
ATOM     18  C   LIG    1       27.373 -20.835   7.050  0.00  0.00    +0.031 C 
ENDBRANCH  11  16
ENDBRANCH   5  13
BRANCH   9  19
ATOM     19  C   LIG    1       27.690 -15.325   2.930  0.00  0.00    +0.121 C 
BRANCH  19  20
ATOM     20  C   LIG    1       27.856 -14.162   3.871  0.00  0.00    -0.015 A 
ATOM     21  C   LIG    1       28.970 -13.332   3.815  0.00  0.00    +0.115 A 
ATOM     22  N   LIG    1       29.163 -12.264   4.628  0.00  0.00    -0.263 NA
ATOM     23  C   LIG    1       28.201 -12.016   5.541  0.00  0.00    +0.111 A 
ATOM     24  C   LIG    1       27.068 -12.795   5.698  0.00  0.00    +0.020 A 
ATOM     25  C   LIG    1       26.889 -13.874   4.841  0.00  0.00    +0.008 A 
ENDBRANCH  19  20
ENDBRANCH   9  19
ENDBRANCH   4   6
ENDBRANCH   1   4
BRANCH   1  26
ATOM     26  C   LIG    1       21.821 -18.023   2.355  0.00  0.00    +0.045 C 
BRANCH  26  27
ATOM     27  C   LIG    1       20.817 -17.746   3.504  0.00  0.00    +0.082 C 
BRANCH  27  28
ATOM     28  C   LIG    1       21.390 -16.606   4.395  0.00  0.00    +0.217 C 
ATOM     29  N   LIG    1       22.749 -16.655   4.663  0.00  0.00    -0.306 N 
ATOM     30  H   LIG    1       23.312 -17.040   3.919  0.00  0.00    +0.149 HD
ATOM     31  O   LIG    1       20.657 -15.773   4.933  0.00  0.00    -0.276 OA
BRANCH  29  32
ATOM     32  C   LIG    1       23.447 -15.595   5.441  0.00  0.00    +0.132 C 
ATOM     33  C   LIG    1       22.578 -15.082   6.650  0.00  0.00    +0.143 C 
ATOM     34  C   LIG    1       22.589 -13.539   6.657  0.00  0.00    +0.069 C 
ATOM     35  C   LIG    1       23.006 -13.221   5.260  0.00  0.00    -0.040 A 
ATOM     36  C   LIG    1       22.947 -11.973   4.654  0.00  0.00    +0.004 A 
ATOM     37  C   LIG    1       23.562 -11.809   3.416  0.00  0.00    +0.000 A 
ATOM     38  C   LIG    1       24.280 -12.868   2.844  0.00  0.00    +0.000 A 
ATOM     39  C   LIG    1       24.307 -14.132   3.451  0.00  0.00    +0.006 A 
ATOM     40  C   LIG    1       23.605 -14.322   4.634  0.00  0.00    -0.021 A 
BRANCH  33  41
ATOM     41  O   LIG    1       21.209 -15.506   6.505  0.00  0.00    -0.389 OA
ATOM     42  H   LIG    1       21.037 -16.141   7.222  0.00  0.00    +0.210 HD
ENDBRANCH  33  41
ENDBRANCH  29  32
ENDBRANCH  27  28
BRANCH  27  43
ATOM     43  C   LIG    1       20.631 -19.054   4.335  0.00  0.00    +0.048 C 
BRANCH  43  44
ATOM     44  C   LIG    1       21.787 -19.676   5.124  0.00  0.00    -0.047 A 
ATOM     45  C   LIG    1       22.205 -21.010   5.039  0.00  0.00    +0.003 A 
ATOM     46  C   LIG    1       23.285 -21.492   5.793  0.00  0.00    +0.000 A 
ATOM     47  C   LIG    1       23.945 -20.659   6.688  0.00  0.00    +0.000 A 
ATOM     48  C   LIG    1       23.547 -19.332   6.800  0.00  0.00    +0.000 A 
ATOM     49  C   LIG    1       22.493 -18.844   6.016  0.00  0.00    +0.003 A 
ENDBRANCH  43  44
ENDBRANCH  27  43
ENDBRANCH  26  27
ENDBRANCH   1  26
TORSDOF 14
ENDMDL
