MODEL 1
REMARK VINA RESULT:       6.7      0.000      0.000
REMARK  Name = *****
REMARK                            x       y       z     vdW  Elec       q    Type
REMARK                         _______ _______ _______ _____ _____    ______ ____
ROOT
ATOM      1  C   LIG    1       24.591 -15.872   4.211  0.00  0.00    +0.008 C 
ATOM      2  C   LIG    1       24.752 -17.189   3.992  0.00  0.00    +0.012 C 
ENDROOT
BRANCH   1   6
ATOM      3  C   LIG    1       27.769 -13.000   4.176  0.00  0.00    +0.065 A 
ATOM      4  C   LIG    1       27.729 -13.999   3.200  0.00  0.00    +0.016 A 
ATOM      5  C   LIG    1       26.691 -14.936   3.194  0.00  0.00    +0.009 A 
ATOM      6  C   LIG    1       25.675 -14.880   4.158  0.00  0.00    -0.025 A 
ATOM      7  C   LIG    1       25.725 -13.875   5.134  0.00  0.00    +0.009 A 
ATOM      8  C   LIG    1       26.759 -12.931   5.139  0.00  0.00    +0.016 A 
BRANCH   3  11
ATOM      9  N   LIG    1       29.389 -11.594   3.081  0.00  0.00    -0.099 NA
ATOM     10  H   LIG    1       30.175 -10.975   3.278  0.00  0.00    +0.363 HD
ATOM     11  C   LIG    1       28.894 -12.021   4.195  0.00  0.00    +0.308 C 
BRANCH  11  12
ATOM     12  N   LIG    1       29.379 -11.572   5.390  0.00  0.00    -0.247 N 
ATOM     13  H   LIG    1       29.796 -10.647   5.371  0.00  0.00    +0.288 HD
ATOM     14  H   LIG    1       29.957 -12.228   5.900  0.00  0.00    +0.288 HD
ENDBRANCH  11  12
ENDBRANCH   3  11
ENDBRANCH   1   6
BRANCH   2  15
ATOM     15  C   LIG    1       23.665 -18.185   4.034  0.00  0.00    +0.017 A 
ATOM     16  C   LIG    1       23.935 -19.554   3.858  0.00  0.00    +0.125 A 
ATOM     17  C   LIG    1       22.908 -20.503   3.860  0.00  0.00    +0.061 A 
ATOM     18  C   LIG    1       21.583 -20.087   4.033  0.00  0.00    +0.068 A 
ATOM     19  C   LIG    1       21.295 -18.731   4.202  0.00  0.00    +0.017 A 
ATOM     20  C   LIG    1       22.328 -17.789   4.189  0.00  0.00    +0.012 A 
BRANCH  18  21
ATOM     21  C   LIG    1       20.487 -21.092   4.036  0.00  0.00    +0.308 C 
ATOM     22  N   LIG    1       19.954 -21.560   2.953  0.00  0.00    -0.099 NA
ATOM     23  H   LIG    1       20.415 -21.191   2.116  0.00  0.00    +0.363 HD
BRANCH  21  24
ATOM     24  N   LIG    1       19.984 -21.564   5.212  0.00  0.00    -0.247 N 
ATOM     25  H   LIG    1       20.151 -22.565   5.284  0.00  0.00    +0.288 HD
ATOM     26  H   LIG    1       19.017 -21.327   5.398  0.00  0.00    +0.288 HD
ENDBRANCH  21  24
ENDBRANCH  18  21
BRANCH  16  27
ATOM     27  O   LIG    1       25.231 -19.966   3.684  0.00  0.00    -0.506 OA
ATOM     28  H   LIG    1       25.293 -20.501   2.877  0.00  0.00    +0.292 HD
ENDBRANCH  16  27
ENDBRANCH   2  15
TORSDOF 7
ENDMDL
MODEL 2
REMARK VINA RESULT:       7.4      1.046      1.640
REMARK  Name = *****
REMARK                            x       y       z     vdW  Elec       q    Type
REMARK                         _______ _______ _______ _____ _____    ______ ____
ROOT
ATOM      1  C   LIG    1       24.617 -15.870   4.206  0.00  0.00    +0.008 C 
ATOM      2  C   LIG    1       24.777 -17.187   3.983  0.00  0.00    +0.012 C 
ENDROOT
BRANCH   1   6
ATOM      3  C   LIG    1       27.797 -13.001   4.184  0.00  0.00    +0.065 A 
ATOM      4  C   LIG    1       27.752 -13.991   3.199  0.00  0.00    +0.016 A 
ATOM      5  C   LIG    1       26.713 -14.926   3.189  0.00  0.00    +0.009 A 
ATOM      6  C   LIG    1       25.701 -14.879   4.157  0.00  0.00    -0.025 A 
ATOM      7  C   LIG    1       25.757 -13.883   5.143  0.00  0.00    +0.009 A 
ATOM      8  C   LIG    1       26.791 -12.940   5.152  0.00  0.00    +0.016 A 
BRANCH   3  11
ATOM      9  N   LIG    1       29.408 -11.580   3.096  0.00  0.00    -0.099 NA
ATOM     10  H   LIG    1       30.197 -10.965   3.295  0.00  0.00    +0.363 HD
ATOM     11  C   LIG    1       28.923 -12.024   4.208  0.00  0.00    +0.308 C 
BRANCH  11  12
ATOM     12  N   LIG    1       29.420 -11.593   5.405  0.00  0.00    -0.247 N 
ATOM     13  H   LIG    1       30.333 -11.959   5.655  0.00  0.00    +0.288 HD
ATOM     14  H   LIG    1       28.777 -11.638   6.185  0.00  0.00    +0.288 HD
ENDBRANCH  11  12
ENDBRANCH   3  11
ENDBRANCH   1   6
BRANCH   2  15
ATOM     15  C   LIG    1       23.689 -18.182   4.020  0.00  0.00    +0.017 A 
ATOM     16  C   LIG    1       22.364 -17.793   4.284  0.00  0.00    +0.125 A 
ATOM     17  C   LIG    1       21.332 -18.733   4.356  0.00  0.00    +0.061 A 
ATOM     18  C   LIG    1       21.618 -20.090   4.171  0.00  0.00    +0.068 A 
ATOM     19  C   LIG    1       22.930 -20.496   3.914  0.00  0.00    +0.017 A 
ATOM     20  C   LIG    1       23.957 -19.550   3.853  0.00  0.00    +0.012 A 
BRANCH  18  21
ATOM     21  C   LIG    1       20.525 -21.094   4.246  0.00  0.00    +0.308 C 
ATOM     22  N   LIG    1       20.076 -21.569   5.365  0.00  0.00    -0.099 NA
ATOM     23  H   LIG    1       20.532 -21.129   6.170  0.00  0.00    +0.363 HD
BRANCH  21  24
ATOM     24  N   LIG    1       19.943 -21.571   3.109  0.00  0.00    -0.247 N 
ATOM     25  H   LIG    1       18.930 -21.517   3.188  0.00  0.00    +0.288 HD
ATOM     26  H   LIG    1       20.250 -22.491   2.817  0.00  0.00    +0.288 HD
ENDBRANCH  21  24
ENDBRANCH  18  21
BRANCH  16  27
ATOM     27  O   LIG    1       22.079 -16.465   4.471  0.00  0.00    -0.506 OA
ATOM     28  H   LIG    1       21.193 -16.274   4.123  0.00  0.00    +0.292 HD
ENDBRANCH  16  27
ENDBRANCH   2  15
TORSDOF 7
ENDMDL
MODEL 3
REMARK VINA RESULT:       7.6      0.929      8.911
REMARK  Name = *****
REMARK                            x       y       z     vdW  Elec       q    Type
REMARK                         _______ _______ _______ _____ _____    ______ ____
ROOT
ATOM      1  C   LIG    1       24.842 -17.276   4.208  0.00  0.00    +0.008 C 
ATOM      2  C   LIG    1       24.640 -15.946   4.201  0.00  0.00    +0.012 C 
ENDROOT
BRANCH   1   6
ATOM      3  C   LIG    1       21.663 -20.146   4.168  0.00  0.00    +0.065 A 
ATOM      4  C   LIG    1       22.990 -20.584   4.199  0.00  0.00    +0.016 A 
ATOM      5  C   LIG    1       24.036 -19.657   4.223  0.00  0.00    +0.009 A 
ATOM      6  C   LIG    1       23.769 -18.281   4.226  0.00  0.00    -0.025 A 
ATOM      7  C   LIG    1       22.434 -17.852   4.193  0.00  0.00    +0.009 A 
ATOM      8  C   LIG    1       21.384 -18.777   4.176  0.00  0.00    +0.016 A 
BRANCH   3  11
ATOM      9  N   LIG    1       20.025 -21.571   5.210  0.00  0.00    -0.099 NA
ATOM     10  H   LIG    1       19.320 -22.275   4.991  0.00  0.00    +0.363 HD
ATOM     11  C   LIG    1       20.552 -21.139   4.113  0.00  0.00    +0.308 C 
BRANCH  11  12
ATOM     12  N   LIG    1       20.090 -21.570   2.902  0.00  0.00    -0.247 N 
ATOM     13  H   LIG    1       19.736 -22.522   2.884  0.00  0.00    +0.288 HD
ATOM     14  H   LIG    1       20.695 -21.386   2.113  0.00  0.00    +0.288 HD
ENDBRANCH  11  12
ENDBRANCH   3  11
ENDBRANCH   1   6
BRANCH   2  15
ATOM     15  C   LIG    1       25.713 -14.935   4.172  0.00  0.00    +0.017 A 
ATOM     16  C   LIG    1       26.994 -15.256   3.687  0.00  0.00    +0.125 A 
ATOM     17  C   LIG    1       28.028 -14.315   3.687  0.00  0.00    +0.061 A 
ATOM     18  C   LIG    1       27.792 -13.029   4.186  0.00  0.00    +0.068 A 
ATOM     19  C   LIG    1       26.528 -12.694   4.678  0.00  0.00    +0.017 A 
ATOM     20  C   LIG    1       25.504 -13.645   4.682  0.00  0.00    +0.012 A 
BRANCH  18  21
ATOM     21  C   LIG    1       28.888 -12.024   4.189  0.00  0.00    +0.308 C 
ATOM     22  N   LIG    1       29.437 -11.574   3.106  0.00  0.00    -0.099 NA
ATOM     23  H   LIG    1       28.989 -11.957   2.269  0.00  0.00    +0.363 HD
BRANCH  21  24
ATOM     24  N   LIG    1       29.372 -11.532   5.365  0.00  0.00    -0.247 N 
ATOM     25  H   LIG    1       30.373 -11.702   5.425  0.00  0.00    +0.288 HD
ATOM     26  H   LIG    1       28.886 -11.840   6.199  0.00  0.00    +0.288 HD
ENDBRANCH  21  24
ENDBRANCH  18  21
BRANCH  16  27
ATOM     27  O   LIG    1       27.231 -16.516   3.201  0.00  0.00    -0.506 OA
ATOM     28  H   LIG    1       28.128 -16.792   3.447  0.00  0.00    +0.292 HD
ENDBRANCH  16  27
ENDBRANCH   2  15
TORSDOF 7
ENDMDL
MODEL 4
REMARK VINA RESULT:       8.2      1.528      9.054
REMARK  Name = *****
REMARK                            x       y       z     vdW  Elec       q    Type
REMARK                         _______ _______ _______ _____ _____    ______ ____
ROOT
ATOM      1  C   LIG    1       24.844 -17.288   4.212  0.00  0.00    +0.008 C 
ATOM      2  C   LIG    1       24.652 -15.958   4.216  0.00  0.00    +0.012 C 
ENDROOT
BRANCH   1   6
ATOM      3  C   LIG    1       21.645 -20.136   4.155  0.00  0.00    +0.065 A 
ATOM      4  C   LIG    1       22.969 -20.583   4.172  0.00  0.00    +0.016 A 
ATOM      5  C   LIG    1       24.021 -19.664   4.202  0.00  0.00    +0.009 A 
ATOM      6  C   LIG    1       23.765 -18.286   4.224  0.00  0.00    -0.025 A 
ATOM      7  C   LIG    1       22.432 -17.848   4.205  0.00  0.00    +0.009 A 
ATOM      8  C   LIG    1       21.376 -18.765   4.182  0.00  0.00    +0.016 A 
BRANCH   3  11
ATOM      9  N   LIG    1       20.008 -21.569   5.189  0.00  0.00    -0.099 NA
ATOM     10  H   LIG    1       19.296 -22.264   4.964  0.00  0.00    +0.363 HD
ATOM     11  C   LIG    1       20.527 -21.121   4.094  0.00  0.00    +0.308 C 
BRANCH  11  12
ATOM     12  N   LIG    1       20.049 -21.527   2.881  0.00  0.00    -0.247 N 
ATOM     13  H   LIG    1       19.038 -21.528   2.789  0.00  0.00    +0.288 HD
ATOM     14  H   LIG    1       20.455 -22.379   2.515  0.00  0.00    +0.288 HD
ENDBRANCH  11  12
ENDBRANCH   3  11
ENDBRANCH   1   6
BRANCH   2  15
ATOM     15  C   LIG    1       25.732 -14.953   4.193  0.00  0.00    +0.017 A 
ATOM     16  C   LIG    1       25.523 -13.659   4.702  0.00  0.00    +0.125 A 
ATOM     17  C   LIG    1       26.528 -12.689   4.653  0.00  0.00    +0.061 A 
ATOM     18  C   LIG    1       27.766 -13.004   4.081  0.00  0.00    +0.068 A 
ATOM     19  C   LIG    1       27.989 -14.283   3.564  0.00  0.00    +0.017 A 
ATOM     20  C   LIG    1       26.975 -15.243   3.610  0.00  0.00    +0.012 A 
BRANCH  18  21
ATOM     21  C   LIG    1       28.839 -11.976   4.026  0.00  0.00    +0.308 C 
ATOM     22  N   LIG    1       29.309 -11.504   2.915  0.00  0.00    -0.099 NA
ATOM     23  H   LIG    1       28.817 -11.888   2.104  0.00  0.00    +0.363 HD
BRANCH  21  24
ATOM     24  N   LIG    1       29.387 -11.486   5.173  0.00  0.00    -0.247 N 
ATOM     25  H   LIG    1       29.949 -10.664   4.966  0.00  0.00    +0.288 HD
ATOM     26  H   LIG    1       29.895 -12.159   5.735  0.00  0.00    +0.288 HD
ENDBRANCH  21  24
ENDBRANCH  18  21
BRANCH  16  27
ATOM     27  O   LIG    1       24.311 -13.344   5.260  0.00  0.00    -0.506 OA
ATOM     28  H   LIG    1       24.454 -12.830   6.071  0.00  0.00    +0.292 HD
ENDBRANCH  16  27
ENDBRANCH   2  15
TORSDOF 7
ENDMDL
MODEL 5
REMARK VINA RESULT:       9.5      1.525      9.013
REMARK  Name = *****
REMARK                            x       y       z     vdW  Elec       q    Type
REMARK                         _______ _______ _______ _____ _____    ______ ____
ROOT
ATOM      1  C   LIG    1       24.690 -17.124   4.362  0.00  0.00    +0.008 C 
ATOM      2  C   LIG    1       24.537 -15.817   4.091  0.00  0.00    +0.012 C 
ENDROOT
BRANCH   1   6
ATOM      3  C   LIG    1       21.572 -20.060   4.248  0.00  0.00    +0.065 A 
ATOM      4  C   LIG    1       21.348 -18.791   3.707  0.00  0.00    +0.016 A 
ATOM      5  C   LIG    1       22.361 -17.828   3.728  0.00  0.00    +0.009 A 
ATOM      6  C   LIG    1       23.614 -18.123   4.282  0.00  0.00    -0.025 A 
ATOM      7  C   LIG    1       23.829 -19.399   4.825  0.00  0.00    +0.009 A 
ATOM      8  C   LIG    1       22.820 -20.368   4.799  0.00  0.00    +0.016 A 
BRANCH   3  11
ATOM      9  N   LIG    1       19.991 -21.489   3.128  0.00  0.00    -0.099 NA
ATOM     10  H   LIG    1       19.225 -22.137   3.313  0.00  0.00    +0.363 HD
ATOM     11  C   LIG    1       20.479 -21.074   4.249  0.00  0.00    +0.308 C 
BRANCH  11  12
ATOM     12  N   LIG    1       20.016 -21.568   5.435  0.00  0.00    -0.247 N 
ATOM     13  H   LIG    1       19.413 -20.943   5.961  0.00  0.00    +0.288 HD
ATOM     14  H   LIG    1       20.712 -21.999   6.030  0.00  0.00    +0.288 HD
ENDBRANCH  11  12
ENDBRANCH   3  11
ENDBRANCH   1   6
BRANCH   2  15
ATOM     15  C   LIG    1       25.616 -14.813   4.159  0.00  0.00    +0.017 A 
ATOM     16  C   LIG    1       25.817 -13.899   3.110  0.00  0.00    +0.125 A 
ATOM     17  C   LIG    1       26.859 -12.967   3.149  0.00  0.00    +0.061 A 
ATOM     18  C   LIG    1       27.726 -12.945   4.247  0.00  0.00    +0.068 A 
ATOM     19  C   LIG    1       27.546 -13.851   5.295  0.00  0.00    +0.017 A 
ATOM     20  C   LIG    1       26.507 -14.784   5.243  0.00  0.00    +0.012 A 
BRANCH  18  21
ATOM     21  C   LIG    1       28.836 -11.956   4.294  0.00  0.00    +0.308 C 
ATOM     22  N   LIG    1       29.384 -11.458   3.231  0.00  0.00    -0.099 NA
ATOM     23  H   LIG    1       28.925 -11.791   2.379  0.00  0.00    +0.363 HD
BRANCH  21  24
ATOM     24  N   LIG    1       29.335 -11.533   5.489  0.00  0.00    -0.247 N 
ATOM     25  H   LIG    1       29.990 -10.769   5.341  0.00  0.00    +0.288 HD
ATOM     26  H   LIG    1       29.729 -12.258   6.078  0.00  0.00    +0.288 HD
ENDBRANCH  21  24
ENDBRANCH  18  21
BRANCH  16  27
ATOM     27  O   LIG    1       24.972 -13.919   2.030  0.00  0.00    -0.506 OA
ATOM     28  H   LIG    1       25.307 -13.314   1.349  0.00  0.00    +0.292 HD
ENDBRANCH  16  27
ENDBRANCH   2  15
TORSDOF 7
ENDMDL
