MODEL 1
REMARK VINA RESULT:      -3.5      0.000      0.000
REMARK  Name = *****
REMARK                            x       y       z     vdW  Elec       q    Type
REMARK                         _______ _______ _______ _____ _____    ______ ____
ROOT
ATOM      1  C   UNK A  0       22.265 -18.689   4.316  0.00  0.00    +0.028 A 
ATOM      2  C   UNK A  0       21.837 -17.671   5.181  0.00  0.00    +0.024 A 
ATOM      3  C   UNK A  0       22.395 -16.385   5.131  0.00  0.00    +0.015 A 
ATOM      4  C   UNK A  0       23.378 -16.091   4.184  0.00  0.00    +0.037 A 
ATOM      5  C   UNK A  0       23.843 -17.104   3.345  0.00  0.00    +0.015 A 
ATOM      6  C   UNK A  0       23.278 -18.378   3.402  0.00  0.00    +0.024 A 
ENDROOT
BRANCH   4   7
ATOM      7  C   UNK A  0       23.855 -14.709   3.927  0.00  0.00    +0.245 C 
ATOM      8  N   GLU A  1       24.807 -14.184   4.773  0.00  0.00    -0.298 N 
ATOM      9  H   GLU A  1       25.248 -14.778   5.468  0.00  0.00    +0.150 HD
ATOM     10  O   UNK A  0       23.422 -14.077   2.969  0.00  0.00    -0.270 OA
BRANCH   8  11
ATOM     11  CA  GLU A  1       25.222 -12.777   4.674  0.00  0.00    +0.182 C 
BRANCH  11  12
ATOM     12  C   GLU A  1       24.009 -11.814   4.719  0.00  0.00    +0.325 C 
ATOM     13  O   GLU A  1       23.415 -11.490   5.736  0.00  0.00    -0.249 OA
BRANCH  12  14
ATOM     14  OXT GLU A  1       23.559 -11.447   3.491  0.00  0.00    -0.479 OA
ATOM     15  HXT GLU A  1       22.581 -11.425   3.456  0.00  0.00    +0.295 HD
ENDBRANCH  12  14
ENDBRANCH  11  12
BRANCH  11  16
ATOM     16  CB  GLU A  1       26.109 -12.516   3.446  0.00  0.00    +0.045 C 
BRANCH  16  17
ATOM     17  CG  GLU A  1       26.615 -13.751   2.691  0.00  0.00    +0.123 C 
BRANCH  17  18
ATOM     18  CD  GLU A  1       27.540 -14.647   3.461  0.00  0.00    +0.305 C 
ATOM     19  OE1 GLU A  1       27.391 -15.858   3.665  0.00  0.00    -0.251 OA
BRANCH  18  20
ATOM     20  OE2 GLU A  1       28.596 -13.988   3.962  0.00  0.00    -0.481 OA
ATOM     21  HE2 GLU A  1       28.396 -13.856   4.914  0.00  0.00    +0.295 HD
ENDBRANCH  18  20
ENDBRANCH  17  18
ENDBRANCH  16  17
ENDBRANCH  11  16
ENDBRANCH   8  11
ENDBRANCH   4   7
BRANCH   1  22
ATOM     22  N   UNK A  0       21.556 -19.892   4.274  0.00  0.00    -0.338 N 
ATOM     23  H   UNK A  0       20.544 -19.761   4.254  0.00  0.00    +0.146 HD
BRANCH  22  24
ATOM     24  C   UNK A  0       21.917 -20.993   5.168  0.00  0.00    +0.158 C 
BRANCH  24  30
ATOM     25  C   UNK A  0       28.144 -20.180   5.981  0.00  0.00    +0.218 A 
ATOM     26  N   UNK A  0       27.269 -20.881   6.692  0.00  0.00    -0.193 NA
ATOM     27  C   UNK A  0       25.997 -20.874   6.307  0.00  0.00    +0.187 A 
ATOM     28  C   UNK A  0       25.534 -20.182   5.182  0.00  0.00    +0.170 A 
ATOM     29  N   UNK A  0       24.220 -20.200   4.790  0.00  0.00    -0.240 NA
ATOM     30  C   UNK A  0       23.369 -20.911   5.565  0.00  0.00    +0.077 A 
ATOM     31  C   UNK A  0       23.833 -21.570   6.688  0.00  0.00    +0.138 A 
ATOM     32  C   UNK A  0       26.548 -19.478   4.561  0.00  0.00    +0.245 A 
ATOM     33  N   UNK A  0       25.133 -21.560   7.061  0.00  0.00    -0.232 NA
ATOM     34  N   UNK A  0       27.838 -19.435   4.925  0.00  0.00    -0.178 NA
BRANCH  25  35
ATOM     35  N   UNK A  0       29.453 -20.195   6.405  0.00  0.00    -0.327 N 
ATOM     36  H   UNK A  0       29.750 -19.259   6.648  0.00  0.00    +0.145 HD
ATOM     37  H   UNK A  0       30.040 -20.712   5.766  0.00  0.00    +0.145 HD
ENDBRANCH  25  35
BRANCH  32  38
ATOM     38  O   UNK A  0       26.287 -18.693   3.472  0.00  0.00    -0.491 OA
ATOM     39  H   UNK A  0       26.955 -19.016   2.843  0.00  0.00    +0.294 HD
ENDBRANCH  32  38
ENDBRANCH  24  30
ENDBRANCH  22  24
ENDBRANCH   1  22
TORSDOF 13
ENDMDL
MODEL 2
REMARK VINA RESULT:      -2.9      1.173      1.528
REMARK  Name = *****
REMARK                            x       y       z     vdW  Elec       q    Type
REMARK                         _______ _______ _______ _____ _____    ______ ____
ROOT
ATOM      1  C   UNK A  0       22.197 -18.317   4.762  0.00  0.00    +0.028 A 
ATOM      2  C   UNK A  0       21.834 -17.206   5.538  0.00  0.00    +0.024 A 
ATOM      3  C   UNK A  0       22.385 -15.937   5.304  0.00  0.00    +0.015 A 
ATOM      4  C   UNK A  0       23.295 -15.757   4.260  0.00  0.00    +0.037 A 
ATOM      5  C   UNK A  0       23.697 -16.861   3.507  0.00  0.00    +0.015 A 
ATOM      6  C   UNK A  0       23.139 -18.116   3.747  0.00  0.00    +0.024 A 
ENDROOT
BRANCH   4   7
ATOM      7  C   UNK A  0       23.751 -14.416   3.818  0.00  0.00    +0.245 C 
ATOM      8  N   GLU A  1       24.802 -13.833   4.491  0.00  0.00    -0.298 N 
ATOM      9  H   GLU A  1       25.316 -14.368   5.183  0.00  0.00    +0.150 HD
ATOM     10  O   UNK A  0       23.212 -13.868   2.860  0.00  0.00    -0.270 OA
BRANCH   8  11
ATOM     11  CA  GLU A  1       25.214 -12.451   4.209  0.00  0.00    +0.182 C 
BRANCH  11  12
ATOM     12  C   GLU A  1       25.488 -12.226   2.701  0.00  0.00    +0.325 C 
ATOM     13  O   GLU A  1       26.528 -12.521   2.131  0.00  0.00    -0.249 OA
BRANCH  12  14
ATOM     14  OXT GLU A  1       24.507 -11.536   2.066  0.00  0.00    -0.479 OA
ATOM     15  HXT GLU A  1       23.785 -12.125   1.765  0.00  0.00    +0.295 HD
ENDBRANCH  12  14
ENDBRANCH  11  12
BRANCH  11  16
ATOM     16  CB  GLU A  1       26.406 -12.009   5.074  0.00  0.00    +0.045 C 
BRANCH  16  17
ATOM     17  CG  GLU A  1       27.557 -13.012   5.216  0.00  0.00    +0.123 C 
BRANCH  17  18
ATOM     18  CD  GLU A  1       28.839 -12.627   4.539  0.00  0.00    +0.305 C 
ATOM     19  OE1 GLU A  1       29.331 -13.157   3.536  0.00  0.00    -0.251 OA
BRANCH  18  20
ATOM     20  OE2 GLU A  1       29.464 -11.613   5.159  0.00  0.00    -0.481 OA
ATOM     21  HE2 GLU A  1       28.942 -11.441   5.973  0.00  0.00    +0.295 HD
ENDBRANCH  18  20
ENDBRANCH  17  18
ENDBRANCH  16  17
ENDBRANCH  11  16
ENDBRANCH   8  11
ENDBRANCH   4   7
BRANCH   1  22
ATOM     22  N   UNK A  0       21.488 -19.511   4.906  0.00  0.00    -0.338 N 
ATOM     23  H   UNK A  0       20.915 -19.539   5.751  0.00  0.00    +0.146 HD
BRANCH  22  24
ATOM     24  C   UNK A  0       22.154 -20.796   4.692  0.00  0.00    +0.158 C 
BRANCH  24  30
ATOM     25  C   UNK A  0       28.219 -20.314   6.448  0.00  0.00    +0.218 A 
ATOM     26  N   UNK A  0       27.217 -20.990   6.998  0.00  0.00    -0.193 NA
ATOM     27  C   UNK A  0       26.019 -20.909   6.428  0.00  0.00    +0.187 A 
ATOM     28  C   UNK A  0       25.761 -20.166   5.271  0.00  0.00    +0.170 A 
ATOM     29  N   UNK A  0       24.522 -20.108   4.687  0.00  0.00    -0.240 NA
ATOM     30  C   UNK A  0       23.533 -20.797   5.303  0.00  0.00    +0.077 A 
ATOM     31  C   UNK A  0       23.793 -21.508   6.459  0.00  0.00    +0.138 A 
ATOM     32  C   UNK A  0       26.887 -19.496   4.831  0.00  0.00    +0.245 A 
ATOM     33  N   UNK A  0       25.021 -21.571   7.022  0.00  0.00    -0.232 NA
ATOM     34  N   UNK A  0       28.108 -19.527   5.384  0.00  0.00    -0.178 NA
BRANCH  25  35
ATOM     35  N   UNK A  0       29.448 -20.405   7.061  0.00  0.00    -0.327 N 
ATOM     36  H   UNK A  0       29.831 -19.480   7.209  0.00  0.00    +0.145 HD
ATOM     37  H   UNK A  0       30.040 -21.079   6.598  0.00  0.00    +0.145 HD
ENDBRANCH  25  35
BRANCH  32  38
ATOM     38  O   UNK A  0       26.828 -18.671   3.743  0.00  0.00    -0.491 OA
ATOM     39  H   UNK A  0       26.258 -19.186   3.146  0.00  0.00    +0.294 HD
ENDBRANCH  32  38
ENDBRANCH  24  30
ENDBRANCH  22  24
ENDBRANCH   1  22
TORSDOF 13
ENDMDL
