MODEL 1
REMARK VINA RESULT:      -7.8      0.000      0.000
REMARK  Name = *****
REMARK                            x       y       z     vdW  Elec       q    Type
REMARK                         _______ _______ _______ _____ _____    ______ ____
ROOT
ATOM      1  N   LIG    1       27.051 -20.454   5.223  0.00  0.00    -0.284 N 
ATOM      2  H   LIG    1       27.214 -21.073   4.442  0.00  0.00    +0.155 HD
ATOM      3  C   LIG    1       25.765 -20.524   5.755  0.00  0.00    +0.234 C 
ATOM      4  O   LIG    1       25.494 -20.275   6.931  0.00  0.00    -0.274 OA
ENDROOT
BRANCH   1   7
ATOM      5  C   LIG    1       28.185 -22.042   7.551  0.00  0.00    +0.045 C 
ATOM      6  C   LIG    1       28.785 -20.785   6.976  0.00  0.00    -0.029 A 
ATOM      7  C   LIG    1       28.201 -20.028   5.936  0.00  0.00    +0.039 A 
ATOM      8  C   LIG    1       28.751 -18.767   5.603  0.00  0.00    -0.029 A 
ATOM      9  C   LIG    1       28.141 -17.867   4.560  0.00  0.00    +0.045 C 
ATOM     10  C   LIG    1       29.931 -18.335   6.233  0.00  0.00    +0.005 A 
ATOM     11  C   LIG    1       30.554 -19.125   7.193  0.00  0.00    +0.001 A 
ATOM     12  C   LIG    1       29.979 -20.334   7.566  0.00  0.00    +0.005 A 
ENDBRANCH   1   7
BRANCH   3  13
ATOM     13  C   LIG    1       24.718 -21.038   4.721  0.00  0.00    +0.143 C 
ATOM     14  N   LIG    1       23.340 -21.205   5.247  0.00  0.00    -0.295 NA
ATOM     15  C   LIG    1       23.250 -22.179   6.332  0.00  0.00    +0.105 C 
ATOM     16  C   LIG    1       22.708 -19.932   5.613  0.00  0.00    +0.085 C 
ATOM     17  C   LIG    1       22.644 -18.989   4.411  0.00  0.00    +0.015 C 
ATOM     18  C   LIG    1       24.011 -18.791   3.768  0.00  0.00    +0.003 C 
ATOM     19  C   LIG    1       24.670 -20.136   3.475  0.00  0.00    +0.028 C 
ENDBRANCH   3  13
TORSDOF 2
ENDMDL
MODEL 2
REMARK VINA RESULT:      -7.8      1.628      5.913
REMARK  Name = *****
REMARK                            x       y       z     vdW  Elec       q    Type
REMARK                         _______ _______ _______ _____ _____    ______ ____
ROOT
ATOM      1  N   LIG    1       27.153 -20.957   6.192  0.00  0.00    -0.284 N 
ATOM      2  H   LIG    1       27.544 -20.905   5.262  0.00  0.00    +0.155 HD
ATOM      3  C   LIG    1       27.969 -20.429   7.190  0.00  0.00    +0.234 C 
ATOM      4  O   LIG    1       27.545 -19.942   8.239  0.00  0.00    -0.274 OA
ENDROOT
BRANCH   1   7
ATOM      5  C   LIG    1       25.787 -22.825   8.160  0.00  0.00    +0.045 C 
ATOM      6  C   LIG    1       25.085 -21.874   7.226  0.00  0.00    -0.029 A 
ATOM      7  C   LIG    1       25.741 -21.064   6.273  0.00  0.00    +0.039 A 
ATOM      8  C   LIG    1       24.972 -20.351   5.322  0.00  0.00    -0.029 A 
ATOM      9  C   LIG    1       25.600 -19.527   4.228  0.00  0.00    +0.045 C 
ATOM     10  C   LIG    1       23.569 -20.370   5.407  0.00  0.00    +0.005 A 
ATOM     11  C   LIG    1       22.928 -21.096   6.404  0.00  0.00    +0.001 A 
ATOM     12  C   LIG    1       23.680 -21.848   7.298  0.00  0.00    +0.005 A 
ENDBRANCH   1   7
BRANCH   3  13
ATOM     13  C   LIG    1       29.478 -20.441   6.796  0.00  0.00    +0.143 C 
ATOM     14  N   LIG    1       30.080 -19.104   6.564  0.00  0.00    -0.295 NA
ATOM     15  C   LIG    1       29.451 -18.369   5.470  0.00  0.00    +0.105 C 
ATOM     16  C   LIG    1       30.158 -18.291   7.784  0.00  0.00    +0.085 C 
ATOM     17  C   LIG    1       30.981 -18.999   8.860  0.00  0.00    +0.015 C 
ATOM     18  C   LIG    1       30.467 -20.407   9.136  0.00  0.00    +0.003 C 
ATOM     19  C   LIG    1       30.324 -21.195   7.837  0.00  0.00    +0.028 C 
ENDBRANCH   3  13
TORSDOF 2
ENDMDL
MODEL 3
REMARK VINA RESULT:      -7.5      0.306      2.069
REMARK  Name = *****
REMARK                            x       y       z     vdW  Elec       q    Type
REMARK                         _______ _______ _______ _____ _____    ______ ____
ROOT
ATOM      1  N   LIG    1       27.039 -20.459   5.307  0.00  0.00    -0.284 N 
ATOM      2  H   LIG    1       27.221 -21.075   4.528  0.00  0.00    +0.155 HD
ATOM      3  C   LIG    1       25.730 -20.499   5.781  0.00  0.00    +0.234 C 
ATOM      4  O   LIG    1       25.412 -20.255   6.946  0.00  0.00    -0.274 OA
ENDROOT
BRANCH   1   7
ATOM      5  C   LIG    1       28.602 -17.921   4.717  0.00  0.00    +0.045 C 
ATOM      6  C   LIG    1       28.865 -18.863   5.863  0.00  0.00    -0.029 A 
ATOM      7  C   LIG    1       28.167 -20.072   6.076  0.00  0.00    +0.039 A 
ATOM      8  C   LIG    1       28.622 -20.969   7.073  0.00  0.00    -0.029 A 
ATOM      9  C   LIG    1       27.978 -22.311   7.309  0.00  0.00    +0.045 C 
ATOM     10  C   LIG    1       29.691 -20.598   7.907  0.00  0.00    +0.005 A 
ATOM     11  C   LIG    1       30.318 -19.367   7.752  0.00  0.00    +0.001 A 
ATOM     12  C   LIG    1       29.913 -18.513   6.733  0.00  0.00    +0.005 A 
ENDBRANCH   1   7
BRANCH   3  13
ATOM     13  C   LIG    1       24.717 -20.975   4.695  0.00  0.00    +0.143 C 
ATOM     14  N   LIG    1       23.316 -21.129   5.162  0.00  0.00    -0.295 NA
ATOM     15  C   LIG    1       23.166 -22.122   6.222  0.00  0.00    +0.105 C 
ATOM     16  C   LIG    1       22.691 -19.852   5.529  0.00  0.00    +0.085 C 
ATOM     17  C   LIG    1       22.691 -18.885   4.345  0.00  0.00    +0.015 C 
ATOM     18  C   LIG    1       24.086 -18.698   3.761  0.00  0.00    +0.003 C 
ATOM     19  C   LIG    1       24.734 -20.049   3.467  0.00  0.00    +0.028 C 
ENDBRANCH   3  13
TORSDOF 2
ENDMDL
MODEL 4
REMARK VINA RESULT:      -7.1      1.548      6.232
REMARK  Name = *****
REMARK                            x       y       z     vdW  Elec       q    Type
REMARK                         _______ _______ _______ _____ _____    ______ ____
ROOT
ATOM      1  N   LIG    1       27.056 -21.066   6.117  0.00  0.00    -0.284 N 
ATOM      2  H   LIG    1       27.470 -21.082   5.195  0.00  0.00    +0.155 HD
ATOM      3  C   LIG    1       27.846 -20.461   7.092  0.00  0.00    +0.234 C 
ATOM      4  O   LIG    1       27.394 -19.900   8.092  0.00  0.00    -0.274 OA
ENDROOT
BRANCH   1   7
ATOM      5  C   LIG    1       25.241 -19.456   4.288  0.00  0.00    +0.045 C 
ATOM      6  C   LIG    1       24.784 -20.488   5.286  0.00  0.00    -0.029 A 
ATOM      7  C   LIG    1       25.643 -21.174   6.172  0.00  0.00    +0.039 A 
ATOM      8  C   LIG    1       25.085 -21.981   7.193  0.00  0.00    -0.029 A 
ATOM      9  C   LIG    1       25.932 -22.683   8.223  0.00  0.00    +0.045 C 
ATOM     10  C   LIG    1       23.694 -22.176   7.244  0.00  0.00    +0.005 A 
ATOM     11  C   LIG    1       22.859 -21.570   6.313  0.00  0.00    +0.001 A 
ATOM     12  C   LIG    1       23.399 -20.727   5.349  0.00  0.00    +0.005 A 
ENDBRANCH   1   7
BRANCH   3  13
ATOM     13  C   LIG    1       29.364 -20.494   6.737  0.00  0.00    +0.143 C 
ATOM     14  N   LIG    1       29.989 -19.167   6.511  0.00  0.00    -0.295 NA
ATOM     15  C   LIG    1       29.397 -18.431   5.397  0.00  0.00    +0.105 C 
ATOM     16  C   LIG    1       30.046 -18.347   7.727  0.00  0.00    +0.085 C 
ATOM     17  C   LIG    1       30.833 -19.058   8.829  0.00  0.00    +0.015 C 
ATOM     18  C   LIG    1       30.294 -20.458   9.101  0.00  0.00    +0.003 C 
ATOM     19  C   LIG    1       30.174 -21.252   7.803  0.00  0.00    +0.028 C 
ENDBRANCH   3  13
TORSDOF 2
ENDMDL
MODEL 5
REMARK VINA RESULT:      -6.5      2.530      4.985
REMARK  Name = *****
REMARK                            x       y       z     vdW  Elec       q    Type
REMARK                         _______ _______ _______ _____ _____    ______ ____
ROOT
ATOM      1  N   LIG    1       24.929 -21.317   6.065  0.00  0.00    -0.284 N 
ATOM      2  H   LIG    1       24.454 -21.110   6.933  0.00  0.00    +0.155 HD
ATOM      3  C   LIG    1       24.907 -22.662   5.703  0.00  0.00    +0.234 C 
ATOM      4  O   LIG    1       24.957 -23.060   4.538  0.00  0.00    -0.274 OA
ENDROOT
BRANCH   1   7
ATOM      5  C   LIG    1       27.623 -20.024   5.515  0.00  0.00    +0.045 C 
ATOM      6  C   LIG    1       26.326 -19.666   4.836  0.00  0.00    -0.029 A 
ATOM      7  C   LIG    1       25.075 -20.236   5.158  0.00  0.00    +0.039 A 
ATOM      8  C   LIG    1       23.898 -19.691   4.590  0.00  0.00    -0.029 A 
ATOM      9  C   LIG    1       22.522 -20.194   4.942  0.00  0.00    +0.045 C 
ATOM     10  C   LIG    1       23.998 -18.667   3.633  0.00  0.00    +0.005 A 
ATOM     11  C   LIG    1       25.239 -18.170   3.251  0.00  0.00    +0.001 A 
ATOM     12  C   LIG    1       26.391 -18.660   3.855  0.00  0.00    +0.005 A 
ENDBRANCH   1   7
BRANCH   3  13
ATOM     13  C   LIG    1       24.723 -23.607   6.928  0.00  0.00    +0.143 C 
ATOM     14  N   LIG    1       23.541 -24.504   6.862  0.00  0.00    -0.295 NA
ATOM     15  C   LIG    1       22.272 -23.783   6.799  0.00  0.00    +0.105 C 
ATOM     16  C   LIG    1       23.643 -25.509   5.798  0.00  0.00    +0.085 C 
ATOM     17  C   LIG    1       24.885 -26.380   5.986  0.00  0.00    +0.015 C 
ATOM     18  C   LIG    1       26.153 -25.543   6.114  0.00  0.00    +0.003 C 
ATOM     19  C   LIG    1       25.981 -24.459   7.174  0.00  0.00    +0.028 C 
ENDBRANCH   3  13
TORSDOF 2
ENDMDL
MODEL 6
REMARK VINA RESULT:      -6.4      2.340      6.317
REMARK  Name = *****
REMARK                            x       y       z     vdW  Elec       q    Type
REMARK                         _______ _______ _______ _____ _____    ______ ____
ROOT
ATOM      1  N   LIG    1       26.690 -22.247   6.439  0.00  0.00    -0.284 N 
ATOM      2  H   LIG    1       26.921 -21.911   5.515  0.00  0.00    +0.155 HD
ATOM      3  C   LIG    1       27.529 -21.780   7.448  0.00  0.00    +0.234 C 
ATOM      4  O   LIG    1       27.180 -21.637   8.622  0.00  0.00    -0.274 OA
ENDROOT
BRANCH   1   7
ATOM      5  C   LIG    1       24.475 -20.329   7.245  0.00  0.00    +0.045 C 
ATOM      6  C   LIG    1       24.296 -21.794   6.940  0.00  0.00    -0.029 A 
ATOM      7  C   LIG    1       25.353 -22.679   6.633  0.00  0.00    +0.039 A 
ATOM      8  C   LIG    1       25.092 -24.068   6.549  0.00  0.00    -0.029 A 
ATOM      9  C   LIG    1       26.179 -25.082   6.301  0.00  0.00    +0.045 C 
ATOM     10  C   LIG    1       23.772 -24.536   6.663  0.00  0.00    +0.005 A 
ATOM     11  C   LIG    1       22.721 -23.651   6.876  0.00  0.00    +0.001 A 
ATOM     12  C   LIG    1       22.984 -22.294   7.021  0.00  0.00    +0.005 A 
ENDBRANCH   1   7
BRANCH   3  13
ATOM     13  C   LIG    1       28.936 -21.373   6.914  0.00  0.00    +0.143 C 
ATOM     14  N   LIG    1       29.089 -19.937   6.569  0.00  0.00    -0.295 NA
ATOM     15  C   LIG    1       28.186 -19.499   5.509  0.00  0.00    +0.105 C 
ATOM     16  C   LIG    1       29.013 -19.055   7.739  0.00  0.00    +0.085 C 
ATOM     17  C   LIG    1       30.092 -19.411   8.763  0.00  0.00    +0.015 C 
ATOM     18  C   LIG    1       30.048 -20.886   9.147  0.00  0.00    +0.003 C 
ATOM     19  C   LIG    1       30.048 -21.769   7.902  0.00  0.00    +0.028 C 
ENDBRANCH   3  13
TORSDOF 2
ENDMDL
MODEL 7
REMARK VINA RESULT:      -6.2      1.922      2.980
REMARK  Name = *****
REMARK                            x       y       z     vdW  Elec       q    Type
REMARK                         _______ _______ _______ _____ _____    ______ ____
ROOT
ATOM      1  N   LIG    1       27.222 -21.557   7.074  0.00  0.00    -0.284 N 
ATOM      2  H   LIG    1       27.368 -22.526   6.831  0.00  0.00    +0.155 HD
ATOM      3  C   LIG    1       26.228 -21.344   8.027  0.00  0.00    +0.234 C 
ATOM      4  O   LIG    1       26.215 -20.389   8.806  0.00  0.00    -0.274 OA
ENDROOT
BRANCH   1   7
ATOM      5  C   LIG    1       29.727 -21.568   8.794  0.00  0.00    +0.045 C 
ATOM      6  C   LIG    1       29.509 -20.715   7.572  0.00  0.00    -0.029 A 
ATOM      7  C   LIG    1       28.309 -20.679   6.829  0.00  0.00    +0.039 A 
ATOM      8  C   LIG    1       28.151 -19.704   5.814  0.00  0.00    -0.029 A 
ATOM      9  C   LIG    1       26.873 -19.553   5.030  0.00  0.00    +0.045 C 
ATOM     10  C   LIG    1       29.225 -18.860   5.487  0.00  0.00    +0.005 A 
ATOM     11  C   LIG    1       30.437 -18.959   6.161  0.00  0.00    +0.001 A 
ATOM     12  C   LIG    1       30.573 -19.872   7.200  0.00  0.00    +0.005 A 
ENDBRANCH   1   7
BRANCH   3  13
ATOM     13  C   LIG    1       25.178 -22.496   8.060  0.00  0.00    +0.143 C 
ATOM     14  N   LIG    1       24.003 -22.306   7.172  0.00  0.00    -0.295 NA
ATOM     15  C   LIG    1       23.216 -21.121   7.501  0.00  0.00    +0.105 C 
ATOM     16  C   LIG    1       24.351 -22.341   5.746  0.00  0.00    +0.085 C 
ATOM     17  C   LIG    1       25.011 -23.670   5.378  0.00  0.00    +0.015 C 
ATOM     18  C   LIG    1       26.206 -23.980   6.272  0.00  0.00    +0.003 C 
ATOM     19  C   LIG    1       25.826 -23.856   7.745  0.00  0.00    +0.028 C 
ENDBRANCH   3  13
TORSDOF 2
ENDMDL
MODEL 8
REMARK VINA RESULT:      -6.1      1.900      3.454
REMARK  Name = *****
REMARK                            x       y       z     vdW  Elec       q    Type
REMARK                         _______ _______ _______ _____ _____    ______ ____
ROOT
ATOM      1  N   LIG    1       27.141 -21.382   6.982  0.00  0.00    -0.284 N 
ATOM      2  H   LIG    1       27.259 -22.348   6.713  0.00  0.00    +0.155 HD
ATOM      3  C   LIG    1       26.212 -21.177   8.000  0.00  0.00    +0.234 C 
ATOM      4  O   LIG    1       26.260 -20.237   8.796  0.00  0.00    -0.274 OA
ENDROOT
BRANCH   1   7
ATOM      5  C   LIG    1       27.023 -19.388   4.693  0.00  0.00    +0.045 C 
ATOM      6  C   LIG    1       28.161 -19.531   5.670  0.00  0.00    -0.029 A 
ATOM      7  C   LIG    1       28.221 -20.511   6.684  0.00  0.00    +0.039 A 
ATOM      8  C   LIG    1       29.419 -20.674   7.422  0.00  0.00    -0.029 A 
ATOM      9  C   LIG    1       29.586 -21.747   8.467  0.00  0.00    +0.045 C 
ATOM     10  C   LIG    1       30.490 -19.790   7.212  0.00  0.00    +0.005 A 
ATOM     11  C   LIG    1       30.394 -18.768   6.274  0.00  0.00    +0.001 A 
ATOM     12  C   LIG    1       29.243 -18.647   5.504  0.00  0.00    +0.005 A 
ENDBRANCH   1   7
BRANCH   3  13
ATOM     13  C   LIG    1       25.152 -22.317   8.079  0.00  0.00    +0.143 C 
ATOM     14  N   LIG    1       23.992 -22.166   7.164  0.00  0.00    -0.295 NA
ATOM     15  C   LIG    1       23.210 -20.960   7.417  0.00  0.00    +0.105 C 
ATOM     16  C   LIG    1       24.361 -22.281   5.748  0.00  0.00    +0.085 C 
ATOM     17  C   LIG    1       25.016 -23.632   5.462  0.00  0.00    +0.015 C 
ATOM     18  C   LIG    1       26.195 -23.903   6.389  0.00  0.00    +0.003 C 
ATOM     19  C   LIG    1       25.793 -23.696   7.847  0.00  0.00    +0.028 C 
ENDBRANCH   3  13
TORSDOF 2
ENDMDL
MODEL 9
REMARK VINA RESULT:      -6.0      2.462      4.943
REMARK  Name = *****
REMARK                            x       y       z     vdW  Elec       q    Type
REMARK                         _______ _______ _______ _____ _____    ______ ____
ROOT
ATOM      1  N   LIG    1       24.931 -21.177   6.025  0.00  0.00    -0.284 N 
ATOM      2  H   LIG    1       24.487 -20.933   6.899  0.00  0.00    +0.155 HD
ATOM      3  C   LIG    1       24.857 -22.529   5.699  0.00  0.00    +0.234 C 
ATOM      4  O   LIG    1       24.863 -22.959   4.545  0.00  0.00    -0.274 OA
ENDROOT
BRANCH   1   7
ATOM      5  C   LIG    1       22.601 -20.116   4.388  0.00  0.00    +0.045 C 
ATOM      6  C   LIG    1       24.006 -19.571   4.366  0.00  0.00    -0.029 A 
ATOM      7  C   LIG    1       25.086 -20.125   5.087  0.00  0.00    +0.039 A 
ATOM      8  C   LIG    1       26.398 -19.648   4.846  0.00  0.00    -0.029 A 
ATOM      9  C   LIG    1       27.610 -20.239   5.517  0.00  0.00    +0.045 C 
ATOM     10  C   LIG    1       26.593 -18.560   3.978  0.00  0.00    +0.005 A 
ATOM     11  C   LIG    1       25.515 -17.959   3.339  0.00  0.00    +0.001 A 
ATOM     12  C   LIG    1       24.235 -18.467   3.526  0.00  0.00    +0.005 A 
ENDBRANCH   1   7
BRANCH   3  13
ATOM     13  C   LIG    1       24.677 -23.437   6.954  0.00  0.00    +0.143 C 
ATOM     14  N   LIG    1       23.519 -24.365   6.901  0.00  0.00    -0.295 NA
ATOM     15  C   LIG    1       22.234 -23.680   6.792  0.00  0.00    +0.105 C 
ATOM     16  C   LIG    1       23.664 -25.404   5.874  0.00  0.00    +0.085 C 
ATOM     17  C   LIG    1       24.925 -26.235   6.112  0.00  0.00    +0.015 C 
ATOM     18  C   LIG    1       26.169 -25.362   6.231  0.00  0.00    +0.003 C 
ATOM     19  C   LIG    1       25.952 -24.246   7.249  0.00  0.00    +0.028 C 
ENDBRANCH   3  13
TORSDOF 2
ENDMDL
