MODEL 1
REMARK VINA RESULT:      -5.6      0.000      0.000
REMARK  Name = *****
REMARK                            x       y       z     vdW  Elec       q    Type
REMARK                         _______ _______ _______ _____ _____    ______ ____
ROOT
ATOM      1  C   LIG    1       25.109 -20.442   4.842  0.00  0.00    +0.042 A 
ATOM      2  N   LIG    1       24.515 -21.176   5.812  0.00  0.00    -0.260 NA
ATOM      3  C   LIG    1       25.254 -21.504   6.894  0.00  0.00    +0.112 A 
ATOM      4  C   LIG    1       26.576 -21.141   7.062  0.00  0.00    +0.030 A 
ATOM      5  C   LIG    1       27.183 -20.384   6.059  0.00  0.00    +0.006 A 
ATOM      6  C   LIG    1       26.431 -20.017   4.936  0.00  0.00    +0.033 A 
ENDROOT
BRANCH   5   7
ATOM      7  C   LIG    1       28.607 -19.964   6.168  0.00  0.00    +0.077 C 
ATOM      8  S   LIG    1       29.239 -18.522   5.604  0.00  0.00    -0.035 S 
BRANCH   7   9
ATOM      9  N   LIG    1       29.462 -20.835   6.796  0.00  0.00    -0.352 N 
ATOM     10  H   LIG    1       30.110 -20.464   7.481  0.00  0.00    +0.143 HD
ATOM     11  H   LIG    1       29.388 -21.843   6.729  0.00  0.00    +0.143 HD
ENDBRANCH   7   9
ENDBRANCH   5   7
BRANCH   1  12
ATOM     12  C   LIG    1       24.272 -20.097   3.636  0.00  0.00    +0.055 C 
BRANCH  12  14
ATOM     13  C   LIG    1       22.320 -18.725   4.444  0.00  0.00    +0.004 C 
ATOM     14  C   LIG    1       23.664 -18.697   3.729  0.00  0.00    +0.003 C 
ENDBRANCH  12  14
ENDBRANCH   1  12
TORSDOF 4
ENDMDL
MODEL 2
REMARK VINA RESULT:      -4.2      5.600      6.916
REMARK  Name = *****
REMARK                            x       y       z     vdW  Elec       q    Type
REMARK                         _______ _______ _______ _____ _____    ______ ____
ROOT
ATOM      1  C   LIG    1       26.301 -16.024   3.505  0.00  0.00    +0.042 A 
ATOM      2  N   LIG    1       27.558 -15.629   3.812  0.00  0.00    -0.260 NA
ATOM      3  C   LIG    1       27.770 -14.310   4.016  0.00  0.00    +0.112 A 
ATOM      4  C   LIG    1       26.784 -13.348   3.920  0.00  0.00    +0.030 A 
ATOM      5  C   LIG    1       25.490 -13.762   3.602  0.00  0.00    +0.006 A 
ATOM      6  C   LIG    1       25.243 -15.126   3.404  0.00  0.00    +0.033 A 
ENDROOT
BRANCH   5   7
ATOM      7  C   LIG    1       24.378 -12.779   3.473  0.00  0.00    +0.077 C 
ATOM      8  S   LIG    1       23.839 -11.760   4.685  0.00  0.00    -0.035 S 
BRANCH   7   9
ATOM      9  N   LIG    1       23.758 -12.705   2.252  0.00  0.00    -0.352 N 
ATOM     10  H   LIG    1       23.895 -11.871   1.692  0.00  0.00    +0.143 HD
ATOM     11  H   LIG    1       23.294 -13.487   1.807  0.00  0.00    +0.143 HD
ENDBRANCH   7   9
ENDBRANCH   5   7
BRANCH   1  12
ATOM     12  C   LIG    1       26.085 -17.498   3.268  0.00  0.00    +0.055 C 
BRANCH  12  14
ATOM     13  C   LIG    1       24.574 -19.472   3.676  0.00  0.00    +0.004 C 
ATOM     14  C   LIG    1       24.680 -17.953   3.663  0.00  0.00    +0.003 C 
ENDBRANCH  12  14
ENDBRANCH   1  12
TORSDOF 4
ENDMDL
MODEL 3
REMARK VINA RESULT:      -3.9      5.205      6.441
REMARK  Name = *****
REMARK                            x       y       z     vdW  Elec       q    Type
REMARK                         _______ _______ _______ _____ _____    ______ ____
ROOT
ATOM      1  C   LIG    1       23.875 -14.675   3.960  0.00  0.00    +0.042 A 
ATOM      2  N   LIG    1       23.399 -13.611   3.273  0.00  0.00    -0.260 NA
ATOM      3  C   LIG    1       24.296 -12.738   2.765  0.00  0.00    +0.112 A 
ATOM      4  C   LIG    1       25.663 -12.865   2.914  0.00  0.00    +0.030 A 
ATOM      5  C   LIG    1       26.148 -13.964   3.625  0.00  0.00    +0.006 A 
ATOM      6  C   LIG    1       25.237 -14.892   4.145  0.00  0.00    +0.033 A 
ENDROOT
BRANCH   5   7
ATOM      7  C   LIG    1       27.609 -14.161   3.832  0.00  0.00    +0.077 C 
ATOM      8  S   LIG    1       28.766 -12.954   3.794  0.00  0.00    -0.035 S 
BRANCH   7   9
ATOM      9  N   LIG    1       28.030 -15.442   4.085  0.00  0.00    -0.352 N 
ATOM     10  H   LIG    1       28.859 -15.780   3.609  0.00  0.00    +0.143 HD
ATOM     11  H   LIG    1       27.654 -16.023   4.825  0.00  0.00    +0.143 HD
ENDBRANCH   7   9
ENDBRANCH   5   7
BRANCH   1  12
ATOM     12  C   LIG    1       22.859 -15.632   4.531  0.00  0.00    +0.055 C 
BRANCH  12  14
ATOM     13  C   LIG    1       22.034 -18.012   4.595  0.00  0.00    +0.004 C 
ATOM     14  C   LIG    1       23.180 -17.090   4.199  0.00  0.00    +0.003 C 
ENDBRANCH  12  14
ENDBRANCH   1  12
TORSDOF 4
ENDMDL
MODEL 4
REMARK VINA RESULT:      -3.4      5.447      6.781
REMARK  Name = *****
REMARK                            x       y       z     vdW  Elec       q    Type
REMARK                         _______ _______ _______ _____ _____    ______ ____
ROOT
ATOM      1  C   LIG    1       26.003 -14.041   3.372  0.00  0.00    +0.042 A 
ATOM      2  N   LIG    1       24.918 -13.379   3.836  0.00  0.00    -0.260 NA
ATOM      3  C   LIG    1       23.853 -14.113   4.228  0.00  0.00    +0.112 A 
ATOM      4  C   LIG    1       23.809 -15.492   4.175  0.00  0.00    +0.030 A 
ATOM      5  C   LIG    1       24.930 -16.169   3.696  0.00  0.00    +0.006 A 
ATOM      6  C   LIG    1       26.052 -15.430   3.301  0.00  0.00    +0.033 A 
ENDROOT
BRANCH   5   7
ATOM      7  C   LIG    1       24.949 -17.655   3.603  0.00  0.00    +0.077 C 
ATOM      8  S   LIG    1       23.629 -18.658   3.819  0.00  0.00    -0.035 S 
BRANCH   7   9
ATOM      9  N   LIG    1       26.155 -18.239   3.305  0.00  0.00    -0.352 N 
ATOM     10  H   LIG    1       26.392 -19.114   3.759  0.00  0.00    +0.143 HD
ATOM     11  H   LIG    1       26.758 -17.933   2.551  0.00  0.00    +0.143 HD
ENDBRANCH   7   9
ENDBRANCH   5   7
BRANCH   1  12
ATOM     12  C   LIG    1       27.177 -13.205   2.927  0.00  0.00    +0.055 C 
BRANCH  12  14
ATOM     13  C   LIG    1       28.730 -12.281   4.681  0.00  0.00    +0.004 C 
ATOM     14  C   LIG    1       28.428 -13.461   3.768  0.00  0.00    +0.003 C 
ENDBRANCH  12  14
ENDBRANCH   1  12
TORSDOF 4
ENDMDL
MODEL 5
REMARK VINA RESULT:      -3.3      5.230      6.762
REMARK  Name = *****
REMARK                            x       y       z     vdW  Elec       q    Type
REMARK                         _______ _______ _______ _____ _____    ______ ____
ROOT
ATOM      1  C   LIG    1       23.604 -16.114   4.150  0.00  0.00    +0.042 A 
ATOM      2  N   LIG    1       24.801 -16.624   3.781  0.00  0.00    -0.260 NA
ATOM      3  C   LIG    1       25.764 -15.756   3.400  0.00  0.00    +0.112 A 
ATOM      4  C   LIG    1       25.593 -14.386   3.360  0.00  0.00    +0.030 A 
ATOM      5  C   LIG    1       24.356 -13.866   3.741  0.00  0.00    +0.006 A 
ATOM      6  C   LIG    1       23.348 -14.746   4.156  0.00  0.00    +0.033 A 
ENDROOT
BRANCH   5   7
ATOM      7  C   LIG    1       24.097 -12.400   3.714  0.00  0.00    +0.077 C 
ATOM      8  S   LIG    1       24.055 -11.447   2.340  0.00  0.00    -0.035 S 
BRANCH   7   9
ATOM      9  N   LIG    1       23.864 -11.792   4.922  0.00  0.00    -0.352 N 
ATOM     10  H   LIG    1       24.623 -11.746   5.592  0.00  0.00    +0.143 HD
ATOM     11  H   LIG    1       23.030 -11.256   5.131  0.00  0.00    +0.143 HD
ENDBRANCH   7   9
ENDBRANCH   5   7
BRANCH   1  12
ATOM     12  C   LIG    1       22.537 -17.098   4.559  0.00  0.00    +0.055 C 
BRANCH  12  14
ATOM     13  C   LIG    1       22.505 -19.519   5.256  0.00  0.00    +0.004 C 
ATOM     14  C   LIG    1       22.883 -18.533   4.159  0.00  0.00    +0.003 C 
ENDBRANCH  12  14
ENDBRANCH   1  12
TORSDOF 4
ENDMDL
MODEL 6
REMARK VINA RESULT:      -3.3      4.731      5.893
REMARK  Name = *****
REMARK                            x       y       z     vdW  Elec       q    Type
REMARK                         _______ _______ _______ _____ _____    ______ ____
ROOT
ATOM      1  C   LIG    1       25.150 -16.782   3.565  0.00  0.00    +0.042 A 
ATOM      2  N   LIG    1       23.926 -16.468   4.051  0.00  0.00    -0.260 NA
ATOM      3  C   LIG    1       23.643 -15.162   4.249  0.00  0.00    +0.112 A 
ATOM      4  C   LIG    1       24.531 -14.136   3.991  0.00  0.00    +0.030 A 
ATOM      5  C   LIG    1       25.791 -14.465   3.491  0.00  0.00    +0.006 A 
ATOM      6  C   LIG    1       26.099 -15.811   3.261  0.00  0.00    +0.033 A 
ENDROOT
BRANCH   5   7
ATOM      7  C   LIG    1       26.801 -13.411   3.198  0.00  0.00    +0.077 C 
ATOM      8  S   LIG    1       28.334 -13.324   3.862  0.00  0.00    -0.035 S 
BRANCH   7   9
ATOM      9  N   LIG    1       26.437 -12.440   2.299  0.00  0.00    -0.352 N 
ATOM     10  H   LIG    1       26.574 -12.623   1.311  0.00  0.00    +0.143 HD
ATOM     11  H   LIG    1       25.905 -11.614   2.546  0.00  0.00    +0.143 HD
ENDBRANCH   7   9
ENDBRANCH   5   7
BRANCH   1  12
ATOM     12  C   LIG    1       25.452 -18.245   3.364  0.00  0.00    +0.055 C 
BRANCH  12  14
ATOM     13  C   LIG    1       24.703 -20.337   4.551  0.00  0.00    +0.004 C 
ATOM     14  C   LIG    1       24.264 -19.141   3.719  0.00  0.00    +0.003 C 
ENDBRANCH  12  14
ENDBRANCH   1  12
TORSDOF 4
ENDMDL
MODEL 7
REMARK VINA RESULT:      -3.3      3.664      5.046
REMARK  Name = *****
REMARK                            x       y       z     vdW  Elec       q    Type
REMARK                         _______ _______ _______ _____ _____    ______ ____
ROOT
ATOM      1  C   LIG    1       23.597 -17.383   4.103  0.00  0.00    +0.042 A 
ATOM      2  N   LIG    1       24.778 -17.561   3.468  0.00  0.00    -0.260 NA
ATOM      3  C   LIG    1       25.294 -18.810   3.438  0.00  0.00    +0.112 A 
ATOM      4  C   LIG    1       24.691 -19.905   4.024  0.00  0.00    +0.030 A 
ATOM      5  C   LIG    1       23.473 -19.715   4.678  0.00  0.00    +0.006 A 
ATOM      6  C   LIG    1       22.910 -18.433   4.705  0.00  0.00    +0.033 A 
ENDROOT
BRANCH   5   7
ATOM      7  C   LIG    1       22.770 -20.849   5.339  0.00  0.00    +0.077 C 
ATOM      8  S   LIG    1       23.228 -21.569   6.777  0.00  0.00    -0.035 S 
BRANCH   7   9
ATOM      9  N   LIG    1       21.647 -21.329   4.712  0.00  0.00    -0.352 N 
ATOM     10  H   LIG    1       21.767 -21.935   3.908  0.00  0.00    +0.143 HD
ATOM     11  H   LIG    1       20.711 -21.239   5.087  0.00  0.00    +0.143 HD
ENDBRANCH   7   9
ENDBRANCH   5   7
BRANCH   1  12
ATOM     12  C   LIG    1       23.043 -15.981   4.137  0.00  0.00    +0.055 C 
BRANCH  12  14
ATOM     13  C   LIG    1       23.731 -13.653   3.464  0.00  0.00    +0.004 C 
ATOM     14  C   LIG    1       24.142 -14.920   4.200  0.00  0.00    +0.003 C 
ENDBRANCH  12  14
ENDBRANCH   1  12
TORSDOF 4
ENDMDL
MODEL 8
REMARK VINA RESULT:      -3.2      3.537      4.958
REMARK  Name = *****
REMARK                            x       y       z     vdW  Elec       q    Type
REMARK                         _______ _______ _______ _____ _____    ______ ____
ROOT
ATOM      1  C   LIG    1       23.595 -18.183   4.075  0.00  0.00    +0.042 A 
ATOM      2  N   LIG    1       24.574 -19.038   3.698  0.00  0.00    -0.260 NA
ATOM      3  C   LIG    1       25.750 -18.509   3.296  0.00  0.00    +0.112 A 
ATOM      4  C   LIG    1       26.005 -17.153   3.241  0.00  0.00    +0.030 A 
ATOM      5  C   LIG    1       24.991 -16.277   3.631  0.00  0.00    +0.006 A 
ATOM      6  C   LIG    1       23.770 -16.803   4.069  0.00  0.00    +0.033 A 
ENDROOT
BRANCH   5   7
ATOM      7  C   LIG    1       25.193 -14.802   3.590  0.00  0.00    +0.077 C 
ATOM      8  S   LIG    1       26.469 -14.017   2.848  0.00  0.00    -0.035 S 
BRANCH   7   9
ATOM      9  N   LIG    1       24.239 -14.032   4.207  0.00  0.00    -0.352 N 
ATOM     10  H   LIG    1       24.471 -13.072   4.438  0.00  0.00    +0.143 HD
ATOM     11  H   LIG    1       23.272 -14.311   4.314  0.00  0.00    +0.143 HD
ENDBRANCH   7   9
ENDBRANCH   5   7
BRANCH   1  12
ATOM     12  C   LIG    1       22.285 -18.792   4.509  0.00  0.00    +0.055 C 
BRANCH  12  14
ATOM     13  C   LIG    1       23.010 -20.415   6.293  0.00  0.00    +0.004 C 
ATOM     14  C   LIG    1       22.425 -20.264   4.896  0.00  0.00    +0.003 C 
ENDBRANCH  12  14
ENDBRANCH   1  12
TORSDOF 4
ENDMDL
MODEL 9
REMARK VINA RESULT:      -3.2      4.025      5.133
REMARK  Name = *****
REMARK                            x       y       z     vdW  Elec       q    Type
REMARK                         _______ _______ _______ _____ _____    ______ ____
ROOT
ATOM      1  C   LIG    1       23.802 -17.521   3.951  0.00  0.00    +0.042 A 
ATOM      2  N   LIG    1       22.751 -16.813   4.424  0.00  0.00    -0.260 NA
ATOM      3  C   LIG    1       22.897 -15.475   4.544  0.00  0.00    +0.112 A 
ATOM      4  C   LIG    1       24.055 -14.796   4.219  0.00  0.00    +0.030 A 
ATOM      5  C   LIG    1       25.135 -15.532   3.732  0.00  0.00    +0.006 A 
ATOM      6  C   LIG    1       25.000 -16.917   3.582  0.00  0.00    +0.033 A 
ENDROOT
BRANCH   5   7
ATOM      7  C   LIG    1       26.417 -14.867   3.370  0.00  0.00    +0.077 C 
ATOM      8  S   LIG    1       26.562 -13.445   2.502  0.00  0.00    -0.035 S 
BRANCH   7   9
ATOM      9  N   LIG    1       27.570 -15.475   3.797  0.00  0.00    -0.352 N 
ATOM     10  H   LIG    1       27.492 -16.276   4.415  0.00  0.00    +0.143 HD
ATOM     11  H   LIG    1       28.488 -15.272   3.421  0.00  0.00    +0.143 HD
ENDBRANCH   7   9
ENDBRANCH   5   7
BRANCH   1  12
ATOM     12  C   LIG    1       23.624 -19.015   3.836  0.00  0.00    +0.055 C 
BRANCH  12  14
ATOM     13  C   LIG    1       23.010 -20.284   5.923  0.00  0.00    +0.004 C 
ATOM     14  C   LIG    1       22.481 -19.535   4.708  0.00  0.00    +0.003 C 
ENDBRANCH  12  14
ENDBRANCH   1  12
TORSDOF 4
ENDMDL
