MODEL 1
REMARK VINA RESULT:      -5.9      0.000      0.000
REMARK  Name = *****
REMARK                            x       y       z     vdW  Elec       q    Type
REMARK                         _______ _______ _______ _____ _____    ______ ____
ROOT
ATOM      1  C   LIG    1       31.213 -17.707   8.779  0.00  0.00    +0.342 C 
ENDROOT
BRANCH   1   3
ATOM      2  O   LIG    1       30.880 -16.579  11.942  0.00  0.00    -0.256 OA
ATOM      3  P   LIG    1       31.032 -17.096  10.494  0.00  0.00    +0.368 P 
BRANCH   3   4
ATOM      4  O   LIG    1       30.418 -18.568  10.938  0.00  0.00    -0.322 OA
ATOM      5  H   LIG    1       31.050 -19.245  10.608  0.00  0.00    +0.220 HD
ENDBRANCH   3   4
BRANCH   3   6
ATOM      6  O   LIG    1       32.598 -17.526  10.776  0.00  0.00    -0.322 OA
ATOM      7  H   LIG    1       33.120 -17.299   9.979  0.00  0.00    +0.220 HD
ENDBRANCH   3   6
ENDBRANCH   1   3
BRANCH   1   8
ATOM      8  P   LIG    1       31.018 -19.460   8.469  0.00  0.00    +0.368 P 
ATOM      9  O   LIG    1       29.683 -20.109   8.676  0.00  0.00    -0.256 OA
BRANCH   8  10
ATOM     10  O   LIG    1       32.120 -20.188   9.382  0.00  0.00    -0.322 OA
ATOM     11  H   LIG    1       31.962 -20.030  10.334  0.00  0.00    +0.220 HD
ENDBRANCH   8  10
BRANCH   8  12
ATOM     12  O   LIG    1       31.601 -19.783   7.013  0.00  0.00    -0.322 OA
ATOM     13  H   LIG    1       31.711 -20.743   6.866  0.00  0.00    +0.220 HD
ENDBRANCH   8  12
ENDBRANCH   1   8
BRANCH   1  14
ATOM     14  O   LIG    1       32.460 -17.249   8.185  0.00  0.00    -0.370 OA
ATOM     15  H   LIG    1       32.170 -16.593   7.513  0.00  0.00    +0.211 HD
ENDBRANCH   1  14
TORSDOF 7
ENDMDL
MODEL 2
REMARK VINA RESULT:      -5.8      0.139      1.387
REMARK  Name = *****
REMARK                            x       y       z     vdW  Elec       q    Type
REMARK                         _______ _______ _______ _____ _____    ______ ____
ROOT
ATOM      1  C   LIG    1       31.288 -17.787   8.821  0.00  0.00    +0.342 C 
ENDROOT
BRANCH   1   3
ATOM      2  O   LIG    1       30.893 -16.613  11.961  0.00  0.00    -0.256 OA
ATOM      3  P   LIG    1       31.074 -17.150  10.524  0.00  0.00    +0.368 P 
BRANCH   3   4
ATOM      4  O   LIG    1       30.479 -18.626  10.984  0.00  0.00    -0.322 OA
ATOM      5  H   LIG    1       31.206 -19.273  10.852  0.00  0.00    +0.220 HD
ENDBRANCH   3   4
BRANCH   3   6
ATOM      6  O   LIG    1       32.643 -17.549  10.833  0.00  0.00    -0.322 OA
ATOM      7  H   LIG    1       32.660 -18.476  11.147  0.00  0.00    +0.220 HD
ENDBRANCH   3   6
ENDBRANCH   1   3
BRANCH   1   8
ATOM      8  P   LIG    1       31.265 -19.558   8.559  0.00  0.00    +0.368 P 
ATOM      9  O   LIG    1       32.170 -20.442   9.363  0.00  0.00    -0.256 OA
BRANCH   8  10
ATOM     10  O   LIG    1       31.554 -19.769   6.993  0.00  0.00    -0.322 OA
ATOM     11  H   LIG    1       30.824 -19.423   6.442  0.00  0.00    +0.220 HD
ENDBRANCH   8  10
BRANCH   8  12
ATOM     12  O   LIG    1       29.746 -20.060   8.634  0.00  0.00    -0.322 OA
ATOM     13  H   LIG    1       29.569 -20.576   9.444  0.00  0.00    +0.220 HD
ENDBRANCH   8  12
ENDBRANCH   1   8
BRANCH   1  14
ATOM     14  O   LIG    1       32.472 -17.222   8.194  0.00  0.00    -0.370 OA
ATOM     15  H   LIG    1       32.525 -16.315   8.570  0.00  0.00    +0.211 HD
ENDBRANCH   1  14
TORSDOF 7
ENDMDL
MODEL 3
REMARK VINA RESULT:      -5.6      1.480      3.983
REMARK  Name = *****
REMARK                            x       y       z     vdW  Elec       q    Type
REMARK                         _______ _______ _______ _____ _____    ______ ____
ROOT
ATOM      1  C   LIG    1       30.995 -19.311   9.156  0.00  0.00    +0.342 C 
ENDROOT
BRANCH   1   3
ATOM      2  O   LIG    1       29.487 -20.002   6.217  0.00  0.00    -0.256 OA
ATOM      3  P   LIG    1       30.177 -19.686   7.562  0.00  0.00    +0.368 P 
BRANCH   3   4
ATOM      4  O   LIG    1       30.023 -18.061   7.277  0.00  0.00    -0.322 OA
ATOM      5  H   LIG    1       30.656 -17.843   6.558  0.00  0.00    +0.220 HD
ENDBRANCH   3   4
BRANCH   3   6
ATOM      6  O   LIG    1       31.666 -19.792   6.862  0.00  0.00    -0.322 OA
ATOM      7  H   LIG    1       31.572 -19.545   5.919  0.00  0.00    +0.220 HD
ENDBRANCH   3   6
ENDBRANCH   1   3
BRANCH   1   8
ATOM      8  P   LIG    1       31.397 -17.608   9.534  0.00  0.00    +0.368 P 
ATOM      9  O   LIG    1       30.297 -16.615   9.758  0.00  0.00    -0.256 OA
BRANCH   8  10
ATOM     10  O   LIG    1       32.340 -17.107   8.334  0.00  0.00    -0.322 OA
ATOM     11  H   LIG    1       32.518 -16.147   8.392  0.00  0.00    +0.220 HD
ENDBRANCH   8  10
BRANCH   8  12
ATOM     12  O   LIG    1       32.448 -17.593  10.741  0.00  0.00    -0.322 OA
ATOM     13  H   LIG    1       32.901 -18.451  10.844  0.00  0.00    +0.220 HD
ENDBRANCH   8  12
ENDBRANCH   1   8
BRANCH   1  14
ATOM     14  O   LIG    1       32.176 -20.139   9.348  0.00  0.00    -0.370 OA
ATOM     15  H   LIG    1       32.617 -19.736  10.129  0.00  0.00    +0.211 HD
ENDBRANCH   1  14
TORSDOF 7
ENDMDL
MODEL 4
REMARK VINA RESULT:      -5.5      1.589      2.372
REMARK  Name = *****
REMARK                            x       y       z     vdW  Elec       q    Type
REMARK                         _______ _______ _______ _____ _____    ______ ____
ROOT
ATOM      1  C   LIG    1       30.688 -19.179   7.526  0.00  0.00    +0.342 C 
ENDROOT
BRANCH   1   3
ATOM      2  O   LIG    1       32.207 -17.942  10.274  0.00  0.00    -0.256 OA
ATOM      3  P   LIG    1       31.511 -18.508   9.016  0.00  0.00    +0.368 P 
BRANCH   3   4
ATOM      4  O   LIG    1       30.121 -18.762   9.880  0.00  0.00    -0.322 OA
ATOM      5  H   LIG    1       29.421 -18.977   9.225  0.00  0.00    +0.220 HD
ENDBRANCH   3   4
BRANCH   3   6
ATOM      6  O   LIG    1       32.118 -20.011   9.315  0.00  0.00    -0.322 OA
ATOM      7  H   LIG    1       33.094 -19.959   9.249  0.00  0.00    +0.220 HD
ENDBRANCH   3   6
ENDBRANCH   1   3
BRANCH   1   8
ATOM      8  P   LIG    1       29.347 -20.347   7.740  0.00  0.00    +0.368 P 
ATOM      9  O   LIG    1       28.030 -19.878   8.278  0.00  0.00    -0.256 OA
BRANCH   8  10
ATOM     10  O   LIG    1       29.931 -21.511   8.680  0.00  0.00    -0.322 OA
ATOM     11  H   LIG    1       30.743 -21.907   8.302  0.00  0.00    +0.220 HD
ENDBRANCH   8  10
BRANCH   8  12
ATOM     12  O   LIG    1       29.161 -21.158   6.372  0.00  0.00    -0.322 OA
ATOM     13  H   LIG    1       28.441 -20.791   5.823  0.00  0.00    +0.220 HD
ENDBRANCH   8  12
ENDBRANCH   1   8
BRANCH   1  14
ATOM     14  O   LIG    1       31.658 -19.725   6.589  0.00  0.00    -0.370 OA
ATOM     15  H   LIG    1       31.840 -18.975   5.980  0.00  0.00    +0.211 HD
ENDBRANCH   1  14
TORSDOF 7
ENDMDL
MODEL 5
REMARK VINA RESULT:      -5.5      1.059      4.101
REMARK  Name = *****
REMARK                            x       y       z     vdW  Elec       q    Type
REMARK                         _______ _______ _______ _____ _____    ______ ____
ROOT
ATOM      1  C   LIG    1       30.680 -17.541   9.632  0.00  0.00    +0.342 C 
ENDROOT
BRANCH   1   3
ATOM      2  O   LIG    1       31.683 -19.616   7.167  0.00  0.00    -0.256 OA
ATOM      3  P   LIG    1       31.223 -18.666   8.296  0.00  0.00    +0.368 P 
BRANCH   3   4
ATOM      4  O   LIG    1       32.510 -17.665   7.997  0.00  0.00    -0.322 OA
ATOM      5  H   LIG    1       32.183 -16.747   8.120  0.00  0.00    +0.220 HD
ENDBRANCH   3   4
BRANCH   3   6
ATOM      6  O   LIG    1       32.025 -19.562   9.423  0.00  0.00    -0.322 OA
ATOM      7  H   LIG    1       32.848 -19.085   9.656  0.00  0.00    +0.220 HD
ENDBRANCH   3   6
ENDBRANCH   1   3
BRANCH   1   8
ATOM      8  P   LIG    1       31.889 -16.454  10.383  0.00  0.00    +0.368 P 
ATOM      9  O   LIG    1       32.531 -15.375   9.564  0.00  0.00    -0.256 OA
BRANCH   8  10
ATOM     10  O   LIG    1       33.021 -17.418  10.990  0.00  0.00    -0.322 OA
ATOM     11  H   LIG    1       32.659 -18.013  11.677  0.00  0.00    +0.220 HD
ENDBRANCH   8  10
BRANCH   8  12
ATOM     12  O   LIG    1       31.268 -15.865  11.735  0.00  0.00    -0.322 OA
ATOM     13  H   LIG    1       30.821 -16.553  12.265  0.00  0.00    +0.220 HD
ENDBRANCH   8  12
ENDBRANCH   1   8
BRANCH   1  14
ATOM     14  O   LIG    1       29.971 -18.266  10.675  0.00  0.00    -0.370 OA
ATOM     15  H   LIG    1       30.420 -19.140  10.697  0.00  0.00    +0.211 HD
ENDBRANCH   1  14
TORSDOF 7
ENDMDL
MODEL 6
REMARK VINA RESULT:      -5.5      1.395      3.583
REMARK  Name = *****
REMARK                            x       y       z     vdW  Elec       q    Type
REMARK                         _______ _______ _______ _____ _____    ______ ____
ROOT
ATOM      1  C   LIG    1       31.550 -18.657   8.141  0.00  0.00    +0.342 C 
ENDROOT
BRANCH   1   3
ATOM      2  O   LIG    1       30.323 -21.623   9.185  0.00  0.00    -0.256 OA
ATOM      3  P   LIG    1       30.885 -20.265   8.707  0.00  0.00    +0.368 P 
BRANCH   3   4
ATOM      4  O   LIG    1       32.371 -20.643   9.333  0.00  0.00    -0.322 OA
ATOM      5  H   LIG    1       33.005 -19.992   8.959  0.00  0.00    +0.220 HD
ENDBRANCH   3   4
BRANCH   3   6
ATOM      6  O   LIG    1       30.358 -19.525  10.082  0.00  0.00    -0.322 OA
ATOM      7  H   LIG    1       31.130 -19.099  10.508  0.00  0.00    +0.220 HD
ENDBRANCH   3   6
ENDBRANCH   1   3
BRANCH   1   8
ATOM      8  P   LIG    1       31.838 -17.374   9.356  0.00  0.00    +0.368 P 
ATOM      9  O   LIG    1       32.445 -17.724  10.681  0.00  0.00    -0.256 OA
BRANCH   8  10
ATOM     10  O   LIG    1       30.414 -16.665   9.585  0.00  0.00    -0.322 OA
ATOM     11  H   LIG    1       30.352 -15.816   9.103  0.00  0.00    +0.220 HD
ENDBRANCH   8  10
BRANCH   8  12
ATOM     12  O   LIG    1       32.635 -16.179   8.649  0.00  0.00    -0.322 OA
ATOM     13  H   LIG    1       33.586 -16.191   8.869  0.00  0.00    +0.220 HD
ENDBRANCH   8  12
ENDBRANCH   1   8
BRANCH   1  14
ATOM     14  O   LIG    1       30.760 -18.116   7.047  0.00  0.00    -0.370 OA
ATOM     15  H   LIG    1       31.080 -17.191   6.964  0.00  0.00    +0.211 HD
ENDBRANCH   1  14
TORSDOF 7
ENDMDL
MODEL 7
REMARK VINA RESULT:      -5.4      2.349      3.567
REMARK  Name = *****
REMARK                            x       y       z     vdW  Elec       q    Type
REMARK                         _______ _______ _______ _____ _____    ______ ____
ROOT
ATOM      1  C   LIG    1       29.618 -18.743   6.883  0.00  0.00    +0.342 C 
ENDROOT
BRANCH   1   3
ATOM      2  O   LIG    1       32.037 -19.253   9.181  0.00  0.00    -0.256 OA
ATOM      3  P   LIG    1       30.929 -19.019   8.129  0.00  0.00    +0.368 P 
BRANCH   3   4
ATOM      4  O   LIG    1       30.029 -20.247   8.783  0.00  0.00    -0.322 OA
ATOM      5  H   LIG    1       29.626 -20.729   8.027  0.00  0.00    +0.220 HD
ENDBRANCH   3   4
BRANCH   3   6
ATOM      6  O   LIG    1       31.702 -19.995   7.049  0.00  0.00    -0.322 OA
ATOM      7  H   LIG    1       31.340 -19.805   6.160  0.00  0.00    +0.220 HD
ENDBRANCH   3   6
ENDBRANCH   1   3
BRANCH   1   8
ATOM      8  P   LIG    1       28.421 -20.043   6.597  0.00  0.00    +0.368 P 
ATOM      9  O   LIG    1       27.304 -20.256   7.573  0.00  0.00    -0.256 OA
BRANCH   8  10
ATOM     10  O   LIG    1       29.275 -21.395   6.449  0.00  0.00    -0.322 OA
ATOM     11  H   LIG    1       29.866 -21.534   7.216  0.00  0.00    +0.220 HD
ENDBRANCH   8  10
BRANCH   8  12
ATOM     12  O   LIG    1       27.866 -19.897   5.102  0.00  0.00    -0.322 OA
ATOM     13  H   LIG    1       27.930 -20.734   4.603  0.00  0.00    +0.220 HD
ENDBRANCH   8  12
ENDBRANCH   1   8
BRANCH   1  14
ATOM     14  O   LIG    1       30.182 -18.318   5.612  0.00  0.00    -0.370 OA
ATOM     15  H   LIG    1       30.601 -19.134   5.259  0.00  0.00    +0.211 HD
ENDBRANCH   1  14
TORSDOF 7
ENDMDL
MODEL 8
REMARK VINA RESULT:      -5.4      1.192      3.722
REMARK  Name = *****
REMARK                            x       y       z     vdW  Elec       q    Type
REMARK                         _______ _______ _______ _____ _____    ______ ____
ROOT
ATOM      1  C   LIG    1       32.271 -17.377   9.431  0.00  0.00    +0.342 C 
ENDROOT
BRANCH   1   3
ATOM      2  O   LIG    1       30.976 -19.551   7.197  0.00  0.00    -0.256 OA
ATOM      3  P   LIG    1       31.569 -18.556   8.219  0.00  0.00    +0.368 P 
BRANCH   3   4
ATOM      4  O   LIG    1       31.925 -19.803   9.250  0.00  0.00    -0.322 OA
ATOM      5  H   LIG    1       31.114 -20.354   9.310  0.00  0.00    +0.220 HD
ENDBRANCH   3   4
BRANCH   3   6
ATOM      6  O   LIG    1       30.079 -18.282   8.868  0.00  0.00    -0.322 OA
ATOM      7  H   LIG    1       29.447 -18.893   8.437  0.00  0.00    +0.220 HD
ENDBRANCH   3   6
ENDBRANCH   1   3
BRANCH   1   8
ATOM      8  P   LIG    1       31.418 -17.139  10.987  0.00  0.00    +0.368 P 
ATOM      9  O   LIG    1       32.163 -16.593  12.168  0.00  0.00    -0.256 OA
BRANCH   8  10
ATOM     10  O   LIG    1       30.787 -18.568  11.360  0.00  0.00    -0.322 OA
ATOM     11  H   LIG    1       31.090 -18.879  12.237  0.00  0.00    +0.220 HD
ENDBRANCH   8  10
BRANCH   8  12
ATOM     12  O   LIG    1       30.081 -16.305  10.708  0.00  0.00    -0.322 OA
ATOM     13  H   LIG    1       29.499 -16.270  11.492  0.00  0.00    +0.220 HD
ENDBRANCH   8  12
ENDBRANCH   1   8
BRANCH   1  14
ATOM     14  O   LIG    1       32.526 -16.083   8.818  0.00  0.00    -0.370 OA
ATOM     15  H   LIG    1       32.104 -16.157   7.933  0.00  0.00    +0.211 HD
ENDBRANCH   1  14
TORSDOF 7
ENDMDL
MODEL 9
REMARK VINA RESULT:      -5.2      2.193      3.461
REMARK  Name = *****
REMARK                            x       y       z     vdW  Elec       q    Type
REMARK                         _______ _______ _______ _____ _____    ______ ____
ROOT
ATOM      1  C   LIG    1       29.691 -18.708   7.089  0.00  0.00    +0.342 C 
ENDROOT
BRANCH   1   3
ATOM      2  O   LIG    1       32.258 -19.157   9.233  0.00  0.00    -0.256 OA
ATOM      3  P   LIG    1       31.083 -18.951   8.251  0.00  0.00    +0.368 P 
BRANCH   3   4
ATOM      4  O   LIG    1       30.167 -20.044   9.095  0.00  0.00    -0.322 OA
ATOM      5  H   LIG    1       30.782 -20.748   9.397  0.00  0.00    +0.220 HD
ENDBRANCH   3   4
BRANCH   3   6
ATOM      6  O   LIG    1       31.701 -20.080   7.221  0.00  0.00    -0.322 OA
ATOM      7  H   LIG    1       32.313 -20.649   7.732  0.00  0.00    +0.220 HD
ENDBRANCH   3   6
ENDBRANCH   1   3
BRANCH   1   8
ATOM      8  P   LIG    1       28.563 -20.069   6.805  0.00  0.00    +0.368 P 
ATOM      9  O   LIG    1       27.681 -20.066   5.593  0.00  0.00    -0.256 OA
BRANCH   8  10
ATOM     10  O   LIG    1       27.660 -20.169   8.129  0.00  0.00    -0.322 OA
ATOM     11  H   LIG    1       27.697 -21.064   8.525  0.00  0.00    +0.220 HD
ENDBRANCH   8  10
BRANCH   8  12
ATOM     12  O   LIG    1       29.385 -21.438   6.922  0.00  0.00    -0.322 OA
ATOM     13  H   LIG    1       29.404 -21.929   6.077  0.00  0.00    +0.220 HD
ENDBRANCH   8  12
ENDBRANCH   1   8
BRANCH   1  14
ATOM     14  O   LIG    1       30.157 -18.193   5.811  0.00  0.00    -0.370 OA
ATOM     15  H   LIG    1       29.710 -18.769   5.151  0.00  0.00    +0.211 HD
ENDBRANCH   1  14
TORSDOF 7
ENDMDL
