MODEL 1
REMARK VINA RESULT:      -3.7      0.000      0.000
REMARK  Name = *****
REMARK                            x       y       z     vdW  Elec       q    Type
REMARK                         _______ _______ _______ _____ _____    ______ ____
ROOT
ATOM      1  C   LIG    1       22.607 -18.694   4.331  0.00  0.00    +0.028 A 
ATOM      2  C   LIG    1       22.405 -19.614   5.359  0.00  0.00    +0.046 A 
ATOM      3  C   LIG    1       23.426 -20.489   5.749  0.00  0.00    +0.086 A 
ATOM      4 CL   LIG    1       23.093 -21.571   7.060  0.00  0.00    -0.080 Cl
ATOM      5  C   LIG    1       24.664 -20.505   5.083  0.00  0.00    +0.178 A 
ATOM      6  C   LIG    1       24.837 -19.609   4.014  0.00  0.00    +0.086 A 
ATOM      7 CL   LIG    1       26.317 -19.552   3.115  0.00  0.00    -0.080 Cl
ATOM      8  C   LIG    1       23.812 -18.735   3.628  0.00  0.00    +0.046 A 
ENDROOT
BRANCH   5   9
ATOM      9  N   LIG    1       25.708 -21.365   5.487  0.00  0.00    -0.074 NA
ATOM     10  C   LIG    1       26.792 -20.832   5.930  0.00  0.00    +0.370 C 
ATOM     11  N   LIG    1       27.152 -19.515   6.072  0.00  0.00    -0.235 N 
ATOM     12  H   LIG    1       26.749 -18.848   5.427  0.00  0.00    +0.244 HD
ATOM     13  C   LIG    1       28.546 -19.371   6.458  0.00  0.00    +0.219 C 
ATOM     14  C   LIG    1       28.851 -20.758   7.043  0.00  0.00    +0.219 C 
ATOM     15  N   LIG    1       27.854 -21.571   6.379  0.00  0.00    -0.235 N 
ATOM     16  H   LIG    1       27.645 -22.509   6.694  0.00  0.00    +0.244 HD
ENDBRANCH   5   9
BRANCH   1  17
ATOM     17  N   LIG    1       21.544 -17.914   3.864  0.00  0.00    -0.358 N 
ATOM     18  H   LIG    1       20.690 -18.005   4.409  0.00  0.00    +0.142 HD
ATOM     19  H   LIG    1       21.782 -16.940   3.697  0.00  0.00    +0.142 HD
ENDBRANCH   1  17
TORSDOF 2
ENDMDL
MODEL 2
REMARK VINA RESULT:      -3.4      0.207      2.359
REMARK  Name = *****
REMARK                            x       y       z     vdW  Elec       q    Type
REMARK                         _______ _______ _______ _____ _____    ______ ____
ROOT
ATOM      1  C   LIG    1       22.424 -18.852   4.194  0.00  0.00    +0.028 A 
ATOM      2  C   LIG    1       23.616 -18.800   3.471  0.00  0.00    +0.046 A 
ATOM      3  C   LIG    1       24.695 -19.625   3.810  0.00  0.00    +0.086 A 
ATOM      4 CL   LIG    1       26.122 -19.516   2.833  0.00  0.00    -0.080 Cl
ATOM      5  C   LIG    1       24.631 -20.489   4.918  0.00  0.00    +0.178 A 
ATOM      6  C   LIG    1       23.443 -20.493   5.668  0.00  0.00    +0.086 A 
ATOM      7 CL   LIG    1       23.260 -21.509   7.061  0.00  0.00    -0.080 Cl
ATOM      8  C   LIG    1       22.365 -19.666   5.325  0.00  0.00    +0.046 A 
ENDROOT
BRANCH   5   9
ATOM      9  N   LIG    1       25.705 -21.343   5.249  0.00  0.00    -0.074 NA
ATOM     10  C   LIG    1       26.733 -20.825   5.824  0.00  0.00    +0.370 C 
ATOM     11  N   LIG    1       27.005 -19.525   6.176  0.00  0.00    -0.235 N 
ATOM     12  H   LIG    1       26.593 -18.793   5.615  0.00  0.00    +0.244 HD
ATOM     13  C   LIG    1       28.368 -19.367   6.655  0.00  0.00    +0.219 C 
ATOM     14  C   LIG    1       28.730 -20.807   7.048  0.00  0.00    +0.219 C 
ATOM     15  N   LIG    1       27.816 -21.564   6.218  0.00  0.00    -0.235 N 
ATOM     16  H   LIG    1       27.650 -22.548   6.381  0.00  0.00    +0.244 HD
ENDBRANCH   5   9
BRANCH   1  17
ATOM     17  N   LIG    1       21.399 -17.937   3.928  0.00  0.00    -0.358 N 
ATOM     18  H   LIG    1       21.302 -17.694   2.946  0.00  0.00    +0.142 HD
ATOM     19  H   LIG    1       20.505 -18.178   4.348  0.00  0.00    +0.142 HD
ENDBRANCH   1  17
TORSDOF 2
ENDMDL
MODEL 3
REMARK VINA RESULT:      -2.4      5.407      6.532
REMARK  Name = *****
REMARK                            x       y       z     vdW  Elec       q    Type
REMARK                         _______ _______ _______ _____ _____    ______ ____
ROOT
ATOM      1  C   LIG    1       23.069 -15.845   4.336  0.00  0.00    +0.028 A 
ATOM      2  C   LIG    1       23.085 -14.471   4.100  0.00  0.00    +0.046 A 
ATOM      3  C   LIG    1       24.213 -13.852   3.548  0.00  0.00    +0.086 A 
ATOM      4 CL   LIG    1       24.125 -12.146   3.257  0.00  0.00    -0.080 Cl
ATOM      5  C   LIG    1       25.379 -14.583   3.265  0.00  0.00    +0.178 A 
ATOM      6  C   LIG    1       25.369 -15.958   3.556  0.00  0.00    +0.086 A 
ATOM      7 CL   LIG    1       26.756 -16.954   3.261  0.00  0.00    -0.080 Cl
ATOM      8  C   LIG    1       24.237 -16.573   4.109  0.00  0.00    +0.046 A 
ENDROOT
BRANCH   5   9
ATOM      9  N   LIG    1       26.510 -13.971   2.684  0.00  0.00    -0.074 NA
ATOM     10  C   LIG    1       27.364 -13.413   3.467  0.00  0.00    +0.370 C 
ATOM     11  N   LIG    1       27.373 -13.275   4.834  0.00  0.00    -0.235 N 
ATOM     12  H   LIG    1       26.480 -13.226   5.304  0.00  0.00    +0.244 HD
ATOM     13  C   LIG    1       28.458 -12.420   5.286  0.00  0.00    +0.219 C 
ATOM     14  C   LIG    1       29.420 -12.477   4.089  0.00  0.00    +0.219 C 
ATOM     15  N   LIG    1       28.512 -12.819   3.014  0.00  0.00    -0.235 N 
ATOM     16  H   LIG    1       28.855 -13.135   2.117  0.00  0.00    +0.244 HD
ENDBRANCH   5   9
BRANCH   1  17
ATOM     17  N   LIG    1       21.989 -16.433   5.003  0.00  0.00    -0.358 N 
ATOM     18  H   LIG    1       21.235 -15.788   5.225  0.00  0.00    +0.142 HD
ATOM     19  H   LIG    1       21.642 -17.284   4.568  0.00  0.00    +0.142 HD
ENDBRANCH   1  17
TORSDOF 2
ENDMDL
MODEL 4
REMARK VINA RESULT:      -2.3      5.385      6.477
REMARK  Name = *****
REMARK                            x       y       z     vdW  Elec       q    Type
REMARK                         _______ _______ _______ _____ _____    ______ ____
ROOT
ATOM      1  C   LIG    1       23.116 -15.760   4.426  0.00  0.00    +0.028 A 
ATOM      2  C   LIG    1       24.223 -16.559   4.142  0.00  0.00    +0.046 A 
ATOM      3  C   LIG    1       25.369 -16.011   3.552  0.00  0.00    +0.086 A 
ATOM      4 CL   LIG    1       26.707 -17.074   3.269  0.00  0.00    -0.080 Cl
ATOM      5  C   LIG    1       25.418 -14.656   3.179  0.00  0.00    +0.178 A 
ATOM      6  C   LIG    1       24.277 -13.874   3.424  0.00  0.00    +0.086 A 
ATOM      7 CL   LIG    1       24.223 -12.197   2.993  0.00  0.00    -0.080 Cl
ATOM      8  C   LIG    1       23.133 -14.427   4.015  0.00  0.00    +0.046 A 
ENDROOT
BRANCH   5   9
ATOM      9  N   LIG    1       26.579 -14.091   2.608  0.00  0.00    -0.074 NA
ATOM     10  C   LIG    1       27.410 -13.499   3.392  0.00  0.00    +0.370 C 
ATOM     11  N   LIG    1       27.369 -13.284   4.747  0.00  0.00    -0.235 N 
ATOM     12  H   LIG    1       26.459 -13.198   5.179  0.00  0.00    +0.244 HD
ATOM     13  C   LIG    1       28.447 -12.417   5.193  0.00  0.00    +0.219 C 
ATOM     14  C   LIG    1       29.453 -12.553   4.039  0.00  0.00    +0.219 C 
ATOM     15  N   LIG    1       28.582 -12.945   2.950  0.00  0.00    -0.235 N 
ATOM     16  H   LIG    1       28.955 -13.316   2.087  0.00  0.00    +0.244 HD
ENDBRANCH   5   9
BRANCH   1  17
ATOM     17  N   LIG    1       21.933 -16.339   4.898  0.00  0.00    -0.358 N 
ATOM     18  H   LIG    1       22.042 -17.288   5.243  0.00  0.00    +0.142 HD
ATOM     19  H   LIG    1       21.415 -15.757   5.552  0.00  0.00    +0.142 HD
ENDBRANCH   1  17
TORSDOF 2
ENDMDL
MODEL 5
REMARK VINA RESULT:      -2.2      4.528      6.881
REMARK  Name = *****
REMARK                            x       y       z     vdW  Elec       q    Type
REMARK                         _______ _______ _______ _____ _____    ______ ____
ROOT
ATOM      1  C   LIG    1       25.306 -18.468   3.342  0.00  0.00    +0.028 A 
ATOM      2  C   LIG    1       26.215 -17.414   3.256  0.00  0.00    +0.046 A 
ATOM      3  C   LIG    1       25.855 -16.124   3.666  0.00  0.00    +0.086 A 
ATOM      4 CL   LIG    1       27.062 -14.886   3.556  0.00  0.00    -0.080 Cl
ATOM      5  C   LIG    1       24.557 -15.841   4.124  0.00  0.00    +0.178 A 
ATOM      6  C   LIG    1       23.636 -16.902   4.156  0.00  0.00    +0.086 A 
ATOM      7 CL   LIG    1       22.004 -16.664   4.690  0.00  0.00    -0.080 Cl
ATOM      8  C   LIG    1       24.000 -18.191   3.745  0.00  0.00    +0.046 A 
ENDROOT
BRANCH   5   9
ATOM      9  N   LIG    1       24.195 -14.550   4.564  0.00  0.00    -0.074 NA
ATOM     10  C   LIG    1       24.229 -13.589   3.709  0.00  0.00    +0.370 C 
ATOM     11  N   LIG    1       24.588 -13.579   2.384  0.00  0.00    -0.235 N 
ATOM     12  H   LIG    1       25.277 -14.254   2.081  0.00  0.00    +0.244 HD
ATOM     13  C   LIG    1       24.636 -12.230   1.844  0.00  0.00    +0.219 C 
ATOM     14  C   LIG    1       23.760 -11.462   2.846  0.00  0.00    +0.219 C 
ATOM     15  N   LIG    1       23.868 -12.305   4.019  0.00  0.00    -0.235 N 
ATOM     16  H   LIG    1       23.242 -12.194   4.805  0.00  0.00    +0.244 HD
ENDBRANCH   5   9
BRANCH   1  17
ATOM     17  N   LIG    1       25.631 -19.722   2.813  0.00  0.00    -0.358 N 
ATOM     18  H   LIG    1       26.338 -19.696   2.083  0.00  0.00    +0.142 HD
ATOM     19  H   LIG    1       25.839 -20.430   3.513  0.00  0.00    +0.142 HD
ENDBRANCH   1  17
TORSDOF 2
ENDMDL
MODEL 6
REMARK VINA RESULT:      -2.2      2.921      4.635
REMARK  Name = *****
REMARK                            x       y       z     vdW  Elec       q    Type
REMARK                         _______ _______ _______ _____ _____    ______ ____
ROOT
ATOM      1  C   LIG    1       25.774 -15.715   3.484  0.00  0.00    +0.028 A 
ATOM      2  C   LIG    1       26.112 -17.034   3.182  0.00  0.00    +0.046 A 
ATOM      3  C   LIG    1       25.186 -18.070   3.360  0.00  0.00    +0.086 A 
ATOM      4 CL   LIG    1       25.685 -19.671   2.925  0.00  0.00    -0.080 Cl
ATOM      5  C   LIG    1       23.910 -17.820   3.896  0.00  0.00    +0.178 A 
ATOM      6  C   LIG    1       23.601 -16.494   4.243  0.00  0.00    +0.086 A 
ATOM      7 CL   LIG    1       22.063 -16.076   4.924  0.00  0.00    -0.080 Cl
ATOM      8  C   LIG    1       24.531 -15.462   4.064  0.00  0.00    +0.046 A 
ENDROOT
BRANCH   5   9
ATOM      9  N   LIG    1       22.962 -18.855   4.052  0.00  0.00    -0.074 NA
ATOM     10  C   LIG    1       23.210 -19.775   4.916  0.00  0.00    +0.370 C 
ATOM     11  N   LIG    1       24.290 -19.962   5.744  0.00  0.00    -0.235 N 
ATOM     12  H   LIG    1       25.186 -19.620   5.427  0.00  0.00    +0.244 HD
ATOM     13  C   LIG    1       24.226 -21.237   6.440  0.00  0.00    +0.219 C 
ATOM     14  C   LIG    1       22.729 -21.572   6.340  0.00  0.00    +0.219 C 
ATOM     15  N   LIG    1       22.346 -20.806   5.172  0.00  0.00    -0.235 N 
ATOM     16  H   LIG    1       21.374 -20.641   4.948  0.00  0.00    +0.244 HD
ENDBRANCH   5   9
BRANCH   1  17
ATOM     17  N   LIG    1       26.744 -14.709   3.424  0.00  0.00    -0.358 N 
ATOM     18  H   LIG    1       27.699 -15.044   3.518  0.00  0.00    +0.142 HD
ATOM     19  H   LIG    1       26.642 -14.077   2.633  0.00  0.00    +0.142 HD
ENDBRANCH   1  17
TORSDOF 2
ENDMDL
MODEL 7
REMARK VINA RESULT:      -2.2      4.521      6.501
REMARK  Name = *****
REMARK                            x       y       z     vdW  Elec       q    Type
REMARK                         _______ _______ _______ _____ _____    ______ ____
ROOT
ATOM      1  C   LIG    1       25.069 -18.464   3.268  0.00  0.00    +0.028 A 
ATOM      2  C   LIG    1       23.822 -18.118   3.787  0.00  0.00    +0.046 A 
ATOM      3  C   LIG    1       23.569 -16.815   4.235  0.00  0.00    +0.086 A 
ATOM      4 CL   LIG    1       21.979 -16.470   4.830  0.00  0.00    -0.080 Cl
ATOM      5  C   LIG    1       24.576 -15.835   4.226  0.00  0.00    +0.178 A 
ATOM      6  C   LIG    1       25.844 -16.211   3.749  0.00  0.00    +0.086 A 
ATOM      7 CL   LIG    1       27.162 -15.087   3.705  0.00  0.00    -0.080 Cl
ATOM      8  C   LIG    1       26.092 -17.516   3.301  0.00  0.00    +0.046 A 
ENDROOT
BRANCH   5   9
ATOM      9  N   LIG    1       24.322 -14.513   4.651  0.00  0.00    -0.074 NA
ATOM     10  C   LIG    1       24.309 -13.585   3.760  0.00  0.00    +0.370 C 
ATOM     11  N   LIG    1       24.529 -13.637   2.406  0.00  0.00    -0.235 N 
ATOM     12  H   LIG    1       25.151 -14.355   2.060  0.00  0.00    +0.244 HD
ATOM     13  C   LIG    1       24.582 -12.311   1.812  0.00  0.00    +0.219 C 
ATOM     14  C   LIG    1       23.850 -11.468   2.868  0.00  0.00    +0.219 C 
ATOM     15  N   LIG    1       24.041 -12.275   4.056  0.00  0.00    -0.235 N 
ATOM     16  H   LIG    1       23.506 -12.107   4.897  0.00  0.00    +0.244 HD
ENDBRANCH   5   9
BRANCH   1  17
ATOM     17  N   LIG    1       25.351 -19.796   2.942  0.00  0.00    -0.358 N 
ATOM     18  H   LIG    1       25.321 -19.996   1.946  0.00  0.00    +0.142 HD
ATOM     19  H   LIG    1       26.196 -20.161   3.374  0.00  0.00    +0.142 HD
ENDBRANCH   1  17
TORSDOF 2
ENDMDL
MODEL 8
REMARK VINA RESULT:      -1.9      2.915      4.300
REMARK  Name = *****
REMARK                            x       y       z     vdW  Elec       q    Type
REMARK                         _______ _______ _______ _____ _____    ______ ____
ROOT
ATOM      1  C   LIG    1       25.774 -15.780   3.612  0.00  0.00    +0.028 A 
ATOM      2  C   LIG    1       24.485 -15.535   4.085  0.00  0.00    +0.046 A 
ATOM      3  C   LIG    1       23.572 -16.584   4.252  0.00  0.00    +0.086 A 
ATOM      4 CL   LIG    1       22.007 -16.188   4.880  0.00  0.00    -0.080 Cl
ATOM      5  C   LIG    1       23.907 -17.903   3.898  0.00  0.00    +0.178 A 
ATOM      6  C   LIG    1       25.191 -18.127   3.373  0.00  0.00    +0.086 A 
ATOM      7 CL   LIG    1       25.704 -19.711   2.891  0.00  0.00    -0.080 Cl
ATOM      8  C   LIG    1       26.101 -17.075   3.208  0.00  0.00    +0.046 A 
ENDROOT
BRANCH   5   9
ATOM      9  N   LIG    1       23.001 -18.969   4.088  0.00  0.00    -0.074 NA
ATOM     10  C   LIG    1       23.268 -19.831   5.005  0.00  0.00    +0.370 C 
ATOM     11  N   LIG    1       24.335 -19.926   5.865  0.00  0.00    -0.235 N 
ATOM     12  H   LIG    1       25.222 -19.560   5.550  0.00  0.00    +0.244 HD
ATOM     13  C   LIG    1       24.310 -21.164   6.626  0.00  0.00    +0.219 C 
ATOM     14  C   LIG    1       22.832 -21.571   6.512  0.00  0.00    +0.219 C 
ATOM     15  N   LIG    1       22.444 -20.885   5.297  0.00  0.00    -0.235 N 
ATOM     16  H   LIG    1       21.472 -20.776   5.043  0.00  0.00    +0.244 HD
ENDBRANCH   5   9
BRANCH   1  17
ATOM     17  N   LIG    1       26.634 -14.714   3.329  0.00  0.00    -0.358 N 
ATOM     18  H   LIG    1       27.587 -14.993   3.111  0.00  0.00    +0.142 HD
ATOM     19  H   LIG    1       26.270 -14.053   2.647  0.00  0.00    +0.142 HD
ENDBRANCH   1  17
TORSDOF 2
ENDMDL
MODEL 9
REMARK VINA RESULT:      -1.4      2.951      4.545
REMARK  Name = *****
REMARK                            x       y       z     vdW  Elec       q    Type
REMARK                         _______ _______ _______ _____ _____    ______ ____
ROOT
ATOM      1  C   LIG    1       23.722 -20.656   6.143  0.00  0.00    +0.028 A 
ATOM      2  C   LIG    1       25.113 -20.577   6.091  0.00  0.00    +0.046 A 
ATOM      3  C   LIG    1       25.750 -19.757   5.151  0.00  0.00    +0.086 A 
ATOM      4 CL   LIG    1       27.481 -19.697   5.186  0.00  0.00    -0.080 Cl
ATOM      5  C   LIG    1       25.011 -19.033   4.200  0.00  0.00    +0.178 A 
ATOM      6  C   LIG    1       23.612 -19.162   4.230  0.00  0.00    +0.086 A 
ATOM      7 CL   LIG    1       22.605 -18.324   3.095  0.00  0.00    -0.080 Cl
ATOM      8  C   LIG    1       22.980 -19.983   5.173  0.00  0.00    +0.046 A 
ENDROOT
BRANCH   5   9
ATOM      9  N   LIG    1       25.644 -18.184   3.266  0.00  0.00    -0.074 NA
ATOM     10  C   LIG    1       25.493 -16.914   3.406  0.00  0.00    +0.370 C 
ATOM     11  N   LIG    1       24.778 -16.191   4.329  0.00  0.00    -0.235 N 
ATOM     12  H   LIG    1       23.952 -16.621   4.721  0.00  0.00    +0.244 HD
ATOM     13  C   LIG    1       24.752 -14.774   4.007  0.00  0.00    +0.219 C 
ATOM     14  C   LIG    1       25.966 -14.644   3.075  0.00  0.00    +0.219 C 
ATOM     15  N   LIG    1       26.088 -15.999   2.579  0.00  0.00    -0.235 N 
ATOM     16  H   LIG    1       26.919 -16.309   2.094  0.00  0.00    +0.244 HD
ENDBRANCH   5   9
BRANCH   1  17
ATOM     17  N   LIG    1       23.100 -21.572   6.999  0.00  0.00    -0.358 N 
ATOM     18  H   LIG    1       22.267 -22.006   6.610  0.00  0.00    +0.142 HD
ATOM     19  H   LIG    1       23.730 -22.259   7.404  0.00  0.00    +0.142 HD
ENDBRANCH   1  17
TORSDOF 2
ENDMDL
