MODEL 1
REMARK VINA RESULT:      -4.0      0.000      0.000
REMARK  Name = *****
REMARK                            x       y       z     vdW  Elec       q    Type
REMARK                         _______ _______ _______ _____ _____    ______ ____
ROOT
ATOM      1  C   LIG    1       31.247 -18.956   8.482  0.00  0.00    +0.135 C 
ATOM      2  C   LIG    1       31.146 -19.307   6.991  0.00  0.00    +0.049 C 
ATOM      3  C   LIG    1       29.868 -18.596   9.054  0.00  0.00    +0.049 C 
ENDROOT
BRANCH   1   4
ATOM      4  O   LIG    1       31.840 -20.045   9.221  0.00  0.00    -0.370 OA
ATOM      5  C   LIG    1       31.277 -21.338   9.046  0.00  0.00    +0.195 C 
ENDBRANCH   1   4
BRANCH   1   6
ATOM      6  C   LIG    1       32.222 -17.774   8.681  0.00  0.00    +0.489 C 
BRANCH   6   8
ATOM      7  C   LIG    1       32.438 -17.013  11.163  0.00  0.00    -0.237 C 
ATOM      8  N   LIG    1       32.340 -17.367  10.051  0.00  0.00    -0.310 NA
ENDBRANCH   6   8
ENDBRANCH   1   6
TORSDOF 3
ENDMDL
MODEL 2
REMARK VINA RESULT:      -4.0      8.534      9.706
REMARK  Name = *****
REMARK                            x       y       z     vdW  Elec       q    Type
REMARK                         _______ _______ _______ _____ _____    ______ ____
ROOT
ATOM      1  C   LIG    1       24.206 -22.652   6.653  0.00  0.00    +0.135 C 
ATOM      2  C   LIG    1       25.429 -22.934   7.539  0.00  0.00    +0.049 C 
ATOM      3  C   LIG    1       23.526 -21.337   7.062  0.00  0.00    +0.049 C 
ENDROOT
BRANCH   1   4
ATOM      4  O   LIG    1       24.584 -22.623   5.260  0.00  0.00    -0.370 OA
ATOM      5  C   LIG    1       24.328 -21.426   4.538  0.00  0.00    +0.195 C 
ENDBRANCH   1   4
BRANCH   1   6
ATOM      6  C   LIG    1       23.199 -23.818   6.759  0.00  0.00    +0.489 C 
BRANCH   6   8
ATOM      7  C   LIG    1       24.211 -26.090   5.983  0.00  0.00    -0.237 C 
ATOM      8  N   LIG    1       23.745 -25.074   6.333  0.00  0.00    -0.310 NA
ENDBRANCH   6   8
ENDBRANCH   1   6
TORSDOF 3
ENDMDL
MODEL 3
REMARK VINA RESULT:      -3.8      7.731      8.717
REMARK  Name = *****
REMARK                            x       y       z     vdW  Elec       q    Type
REMARK                         _______ _______ _______ _____ _____    ______ ____
ROOT
ATOM      1  C   LIG    1       24.363 -22.676   6.908  0.00  0.00    +0.135 C 
ATOM      2  C   LIG    1       25.499 -23.706   6.984  0.00  0.00    +0.049 C 
ATOM      3  C   LIG    1       22.996 -23.372   6.838  0.00  0.00    +0.049 C 
ENDROOT
BRANCH   1   4
ATOM      4  O   LIG    1       24.421 -21.772   8.032  0.00  0.00    -0.370 OA
ATOM      5  C   LIG    1       25.707 -21.352   8.468  0.00  0.00    +0.195 C 
ENDBRANCH   1   4
BRANCH   1   6
ATOM      6  C   LIG    1       24.553 -21.771   5.671  0.00  0.00    +0.489 C 
BRANCH   6   8
ATOM      7  C   LIG    1       22.754 -19.899   5.460  0.00  0.00    -0.237 C 
ATOM      8  N   LIG    1       23.557 -20.745   5.565  0.00  0.00    -0.310 NA
ENDBRANCH   6   8
ENDBRANCH   1   6
TORSDOF 3
ENDMDL
MODEL 4
REMARK VINA RESULT:      -3.8      1.790      3.427
REMARK  Name = *****
REMARK                            x       y       z     vdW  Elec       q    Type
REMARK                         _______ _______ _______ _____ _____    ______ ____
ROOT
ATOM      1  C   LIG    1       31.726 -17.211   9.691  0.00  0.00    +0.135 C 
ATOM      2  C   LIG    1       30.198 -17.052   9.693  0.00  0.00    +0.049 C 
ATOM      3  C   LIG    1       32.416 -15.865   9.428  0.00  0.00    +0.049 C 
ENDROOT
BRANCH   1   4
ATOM      4  O   LIG    1       32.178 -17.785  10.937  0.00  0.00    -0.370 OA
ATOM      5  C   LIG    1       31.921 -17.051  12.126  0.00  0.00    +0.195 C 
ENDBRANCH   1   4
BRANCH   1   6
ATOM      6  C   LIG    1       32.148 -18.236   8.615  0.00  0.00    +0.489 C 
BRANCH   6   8
ATOM      7  C   LIG    1       31.366 -20.667   9.133  0.00  0.00    -0.237 C 
ATOM      8  N   LIG    1       31.720 -19.572   8.912  0.00  0.00    -0.310 NA
ENDBRANCH   6   8
ENDBRANCH   1   6
TORSDOF 3
ENDMDL
MODEL 5
REMARK VINA RESULT:      -3.8      7.664      8.766
REMARK  Name = *****
REMARK                            x       y       z     vdW  Elec       q    Type
REMARK                         _______ _______ _______ _____ _____    ______ ____
ROOT
ATOM      1  C   LIG    1       23.808 -21.971   6.763  0.00  0.00    +0.135 C 
ATOM      2  C   LIG    1       22.735 -23.062   6.891  0.00  0.00    +0.049 C 
ATOM      3  C   LIG    1       23.204 -20.672   6.210  0.00  0.00    +0.049 C 
ENDROOT
BRANCH   1   4
ATOM      4  O   LIG    1       24.450 -21.737   8.035  0.00  0.00    -0.370 OA
ATOM      5  C   LIG    1       25.466 -20.745   8.083  0.00  0.00    +0.195 C 
ENDBRANCH   1   4
BRANCH   1   6
ATOM      6  C   LIG    1       24.945 -22.455   5.836  0.00  0.00    +0.489 C 
BRANCH   6   8
ATOM      7  C   LIG    1       25.852 -24.805   6.500  0.00  0.00    -0.237 C 
ATOM      8  N   LIG    1       25.456 -23.745   6.199  0.00  0.00    -0.310 NA
ENDBRANCH   6   8
ENDBRANCH   1   6
TORSDOF 3
ENDMDL
MODEL 6
REMARK VINA RESULT:      -3.8      2.235      3.175
REMARK  Name = *****
REMARK                            x       y       z     vdW  Elec       q    Type
REMARK                         _______ _______ _______ _____ _____    ______ ____
ROOT
ATOM      1  C   LIG    1       30.578 -19.778   8.341  0.00  0.00    +0.135 C 
ATOM      2  C   LIG    1       29.341 -20.652   8.089  0.00  0.00    +0.049 C 
ATOM      3  C   LIG    1       30.223 -18.565   9.212  0.00  0.00    +0.049 C 
ENDROOT
BRANCH   1   4
ATOM      4  O   LIG    1       31.633 -20.555   8.948  0.00  0.00    -0.370 OA
ATOM      5  C   LIG    1       31.403 -21.945   9.127  0.00  0.00    +0.195 C 
ENDBRANCH   1   4
BRANCH   1   6
ATOM      6  C   LIG    1       31.170 -19.302   6.996  0.00  0.00    +0.489 C 
BRANCH   6   8
ATOM      7  C   LIG    1       29.394 -18.268   5.395  0.00  0.00    -0.237 C 
ATOM      8  N   LIG    1       30.191 -18.724   6.123  0.00  0.00    -0.310 NA
ENDBRANCH   6   8
ENDBRANCH   1   6
TORSDOF 3
ENDMDL
MODEL 7
REMARK VINA RESULT:      -3.8      8.229      9.044
REMARK  Name = *****
REMARK                            x       y       z     vdW  Elec       q    Type
REMARK                         _______ _______ _______ _____ _____    ______ ____
ROOT
ATOM      1  C   LIG    1       24.189 -22.500   6.579  0.00  0.00    +0.135 C 
ATOM      2  C   LIG    1       23.927 -21.092   7.134  0.00  0.00    +0.049 C 
ATOM      3  C   LIG    1       22.964 -23.404   6.778  0.00  0.00    +0.049 C 
ENDROOT
BRANCH   1   4
ATOM      4  O   LIG    1       24.558 -22.437   5.185  0.00  0.00    -0.370 OA
ATOM      5  C   LIG    1       24.550 -21.159   4.564  0.00  0.00    +0.195 C 
ENDBRANCH   1   4
BRANCH   1   6
ATOM      6  C   LIG    1       25.418 -23.122   7.279  0.00  0.00    +0.489 C 
BRANCH   6   8
ATOM      7  C   LIG    1       26.028 -25.478   6.350  0.00  0.00    -0.237 C 
ATOM      8  N   LIG    1       25.752 -24.424   6.779  0.00  0.00    -0.310 NA
ENDBRANCH   6   8
ENDBRANCH   1   6
TORSDOF 3
ENDMDL
MODEL 8
REMARK VINA RESULT:      -3.8      8.294      9.076
REMARK  Name = *****
REMARK                            x       y       z     vdW  Elec       q    Type
REMARK                         _______ _______ _______ _____ _____    ______ ____
ROOT
ATOM      1  C   LIG    1       24.879 -23.905   6.038  0.00  0.00    +0.135 C 
ATOM      2  C   LIG    1       23.555 -24.475   6.567  0.00  0.00    +0.049 C 
ATOM      3  C   LIG    1       25.898 -23.740   7.174  0.00  0.00    +0.049 C 
ENDROOT
BRANCH   1   4
ATOM      4  O   LIG    1       25.410 -24.745   4.990  0.00  0.00    -0.370 OA
ATOM      5  C   LIG    1       25.634 -26.114   5.299  0.00  0.00    +0.195 C 
ENDBRANCH   1   4
BRANCH   1   6
ATOM      6  C   LIG    1       24.631 -22.541   5.355  0.00  0.00    +0.489 C 
BRANCH   6   8
ATOM      7  C   LIG    1       23.440 -20.809   6.893  0.00  0.00    -0.237 C 
ATOM      8  N   LIG    1       23.970 -21.597   6.208  0.00  0.00    -0.310 NA
ENDBRANCH   6   8
ENDBRANCH   1   6
TORSDOF 3
ENDMDL
MODEL 9
REMARK VINA RESULT:      -3.8      2.253      3.029
REMARK  Name = *****
REMARK                            x       y       z     vdW  Elec       q    Type
REMARK                         _______ _______ _______ _____ _____    ______ ____
ROOT
ATOM      1  C   LIG    1       30.332 -18.920   8.297  0.00  0.00    +0.135 C 
ATOM      2  C   LIG    1       30.605 -19.064   6.793  0.00  0.00    +0.049 C 
ATOM      3  C   LIG    1       30.178 -17.443   8.687  0.00  0.00    +0.049 C 
ENDROOT
BRANCH   1   4
ATOM      4  O   LIG    1       29.160 -19.674   8.675  0.00  0.00    -0.370 OA
ATOM      5  C   LIG    1       28.304 -20.120   7.631  0.00  0.00    +0.195 C 
ENDBRANCH   1   4
BRANCH   1   6
ATOM      6  C   LIG    1       31.483 -19.559   9.106  0.00  0.00    +0.489 C 
BRANCH   6   8
ATOM      7  C   LIG    1       31.411 -22.163   9.098  0.00  0.00    -0.237 C 
ATOM      8  N   LIG    1       31.451 -20.992   9.093  0.00  0.00    -0.310 NA
ENDBRANCH   6   8
ENDBRANCH   1   6
TORSDOF 3
ENDMDL
