MODEL 1
REMARK VINA RESULT:      -4.9      0.000      0.000
REMARK  Name = *****
REMARK                            x       y       z     vdW  Elec       q    Type
REMARK                         _______ _______ _______ _____ _____    ______ ____
ROOT
ATOM      1  O   LIG    1       28.713 -17.396   4.538  0.00  0.00    -0.270 OA
ATOM      2  C   LIG    1       27.547 -17.766   4.434  0.00  0.00    +0.247 C 
ATOM      3  N   LIG    1       26.556 -17.017   3.788  0.00  0.00    -0.292 N 
ATOM      4  C   LIG    1       25.168 -17.483   3.787  0.00  0.00    +0.116 C 
ATOM      5  C   LIG    1       25.079 -19.001   3.606  0.00  0.00    +0.037 C 
ATOM      6  C   LIG    1       23.623 -19.479   3.632  0.00  0.00    +0.010 C 
ATOM      7  C   LIG    1       23.578 -21.004   3.629  0.00  0.00    +0.005 C 
ATOM      8  C   LIG    1       24.239 -21.568   4.886  0.00  0.00    +0.035 C 
ATOM      9  C   LIG    1       25.559 -20.914   5.215  0.00  0.00    -0.043 A 
ATOM     10  C   LIG    1       26.408 -21.519   6.153  0.00  0.00    +0.004 A 
ATOM     11  C   LIG    1       27.617 -20.922   6.510  0.00  0.00    +0.001 A 
ATOM     12  C   LIG    1       27.986 -19.703   5.944  0.00  0.00    +0.013 A 
ATOM     13  C   LIG    1       25.927 -19.677   4.654  0.00  0.00    -0.028 A 
ATOM     14  C   LIG    1       27.142 -19.076   5.022  0.00  0.00    +0.041 A 
ENDROOT
BRANCH   3  15
ATOM     15  C   LIG    1       26.922 -15.693   3.252  0.00  0.00    +0.093 C 
ATOM     16  C   LIG    1       25.676 -14.803   3.001  0.00  0.00    +0.013 C 
ATOM     17  C   LIG    1       26.144 -13.598   2.162  0.00  0.00    +0.021 C 
ATOM     18  C   LIG    1       27.270 -12.862   2.908  0.00  0.00    +0.085 C 
ATOM     19  N   LIG    1       27.536 -13.455   4.240  0.00  0.00    -0.300 NA
ATOM     20  C   LIG    1       26.284 -13.441   5.025  0.00  0.00    +0.085 C 
ATOM     21  C   LIG    1       25.160 -14.231   4.331  0.00  0.00    +0.021 C 
ATOM     22  C   LIG    1       27.964 -14.866   4.057  0.00  0.00    +0.107 C 
ENDBRANCH   3  15
TORSDOF 1
ENDMDL
MODEL 2
REMARK VINA RESULT:      -4.7      1.183      1.482
REMARK  Name = *****
REMARK                            x       y       z     vdW  Elec       q    Type
REMARK                         _______ _______ _______ _____ _____    ______ ____
ROOT
ATOM      1  O   LIG    1       27.389 -17.864   3.686  0.00  0.00    -0.270 OA
ATOM      2  C   LIG    1       26.187 -17.947   3.918  0.00  0.00    +0.247 C 
ATOM      3  N   LIG    1       25.273 -16.927   3.625  0.00  0.00    -0.292 N 
ATOM      4  C   LIG    1       23.870 -17.064   4.017  0.00  0.00    +0.116 C 
ATOM      5  C   LIG    1       23.360 -18.493   3.811  0.00  0.00    +0.037 C 
ATOM      6  C   LIG    1       21.897 -18.630   4.249  0.00  0.00    +0.010 C 
ATOM      7  C   LIG    1       21.475 -20.095   4.200  0.00  0.00    +0.005 C 
ATOM      8  C   LIG    1       22.299 -20.929   5.182  0.00  0.00    +0.035 C 
ATOM      9  C   LIG    1       23.778 -20.630   5.130  0.00  0.00    -0.043 A 
ATOM     10  C   LIG    1       24.676 -21.511   5.750  0.00  0.00    +0.004 A 
ATOM     11  C   LIG    1       26.045 -21.245   5.756  0.00  0.00    +0.001 A 
ATOM     12  C   LIG    1       26.533 -20.086   5.153  0.00  0.00    +0.013 A 
ATOM     13  C   LIG    1       24.270 -19.455   4.534  0.00  0.00    -0.028 A 
ATOM     14  C   LIG    1       25.649 -19.188   4.548  0.00  0.00    +0.041 A 
ENDROOT
BRANCH   3  15
ATOM     15  C   LIG    1       25.792 -15.669   3.056  0.00  0.00    +0.093 C 
ATOM     16  C   LIG    1       24.790 -14.497   3.226  0.00  0.00    +0.013 C 
ATOM     17  C   LIG    1       25.289 -13.344   2.333  0.00  0.00    +0.021 C 
ATOM     18  C   LIG    1       26.726 -12.971   2.736  0.00  0.00    +0.085 C 
ATOM     19  N   LIG    1       27.199 -13.754   3.901  0.00  0.00    -0.300 NA
ATOM     20  C   LIG    1       26.263 -13.544   5.026  0.00  0.00    +0.085 C 
ATOM     21  C   LIG    1       24.829 -13.975   4.671  0.00  0.00    +0.021 C 
ATOM     22  C   LIG    1       27.191 -15.196   3.543  0.00  0.00    +0.107 C 
ENDBRANCH   3  15
TORSDOF 1
ENDMDL
MODEL 3
REMARK VINA RESULT:      -3.0      1.731      3.080
REMARK  Name = *****
REMARK                            x       y       z     vdW  Elec       q    Type
REMARK                         _______ _______ _______ _____ _____    ______ ____
ROOT
ATOM      1  O   LIG    1       23.050 -15.826   3.838  0.00  0.00    -0.270 OA
ATOM      2  C   LIG    1       23.824 -16.779   3.845  0.00  0.00    +0.247 C 
ATOM      3  N   LIG    1       25.177 -16.674   3.501  0.00  0.00    -0.292 N 
ATOM      4  C   LIG    1       26.014 -17.874   3.444  0.00  0.00    +0.116 C 
ATOM      5  C   LIG    1       25.690 -18.846   4.582  0.00  0.00    +0.037 C 
ATOM      6  C   LIG    1       26.556 -20.109   4.497  0.00  0.00    +0.010 C 
ATOM      7  C   LIG    1       26.088 -21.129   5.530  0.00  0.00    +0.005 C 
ATOM      8  C   LIG    1       24.652 -21.570   5.245  0.00  0.00    +0.035 C 
ATOM      9  C   LIG    1       23.723 -20.422   4.932  0.00  0.00    -0.043 A 
ATOM     10  C   LIG    1       22.337 -20.642   4.942  0.00  0.00    +0.004 A 
ATOM     11  C   LIG    1       21.451 -19.614   4.619  0.00  0.00    +0.001 A 
ATOM     12  C   LIG    1       21.939 -18.357   4.268  0.00  0.00    +0.013 A 
ATOM     13  C   LIG    1       24.215 -19.157   4.565  0.00  0.00    -0.028 A 
ATOM     14  C   LIG    1       23.318 -18.127   4.234  0.00  0.00    +0.041 A 
ENDROOT
BRANCH   3  15
ATOM     15  C   LIG    1       25.684 -15.362   3.057  0.00  0.00    +0.093 C 
ATOM     16  C   LIG    1       24.874 -14.189   3.669  0.00  0.00    +0.013 C 
ATOM     17  C   LIG    1       25.278 -12.915   2.902  0.00  0.00    +0.021 C 
ATOM     18  C   LIG    1       26.799 -12.715   3.007  0.00  0.00    +0.085 C 
ATOM     19  N   LIG    1       27.437 -13.739   3.867  0.00  0.00    -0.300 NA
ATOM     20  C   LIG    1       26.804 -13.699   5.202  0.00  0.00    +0.085 C 
ATOM     21  C   LIG    1       25.291 -13.965   5.131  0.00  0.00    +0.021 C 
ATOM     22  C   LIG    1       27.199 -15.079   3.270  0.00  0.00    +0.107 C 
ENDBRANCH   3  15
TORSDOF 1
ENDMDL
MODEL 4
REMARK VINA RESULT:      -2.7      1.435      2.926
REMARK  Name = *****
REMARK                            x       y       z     vdW  Elec       q    Type
REMARK                         _______ _______ _______ _____ _____    ______ ____
ROOT
ATOM      1  O   LIG    1       24.008 -17.507   3.509  0.00  0.00    -0.270 OA
ATOM      2  C   LIG    1       25.174 -17.758   3.797  0.00  0.00    +0.247 C 
ATOM      3  N   LIG    1       26.230 -16.862   3.584  0.00  0.00    -0.292 N 
ATOM      4  C   LIG    1       27.607 -17.270   3.867  0.00  0.00    +0.116 C 
ATOM      5  C   LIG    1       27.698 -18.116   5.140  0.00  0.00    +0.037 C 
ATOM      6  C   LIG    1       29.140 -18.558   5.412  0.00  0.00    +0.010 C 
ATOM      7  C   LIG    1       29.171 -19.541   6.579  0.00  0.00    +0.005 C 
ATOM      8  C   LIG    1       28.388 -20.809   6.239  0.00  0.00    +0.035 C 
ATOM      9  C   LIG    1       27.049 -20.534   5.598  0.00  0.00    -0.043 A 
ATOM     10  C   LIG    1       26.109 -21.572   5.505  0.00  0.00    +0.004 A 
ATOM     11  C   LIG    1       24.877 -21.364   4.884  0.00  0.00    +0.001 A 
ATOM     12  C   LIG    1       24.575 -20.119   4.334  0.00  0.00    +0.013 A 
ATOM     13  C   LIG    1       26.748 -19.283   5.031  0.00  0.00    -0.028 A 
ATOM     14  C   LIG    1       25.509 -19.080   4.400  0.00  0.00    +0.041 A 
ENDROOT
BRANCH   3  15
ATOM     15  C   LIG    1       25.929 -15.572   2.935  0.00  0.00    +0.093 C 
ATOM     16  C   LIG    1       24.957 -14.709   3.780  0.00  0.00    +0.013 C 
ATOM     17  C   LIG    1       24.475 -13.557   2.877  0.00  0.00    +0.021 C 
ATOM     18  C   LIG    1       25.691 -12.767   2.363  0.00  0.00    +0.085 C 
ATOM     19  N   LIG    1       26.963 -13.272   2.931  0.00  0.00    -0.300 NA
ATOM     20  C   LIG    1       26.879 -13.216   4.406  0.00  0.00    +0.085 C 
ATOM     21  C   LIG    1       25.710 -14.056   4.950  0.00  0.00    +0.021 C 
ATOM     22  C   LIG    1       27.140 -14.689   2.521  0.00  0.00    +0.107 C 
ENDBRANCH   3  15
TORSDOF 1
ENDMDL
MODEL 5
REMARK VINA RESULT:      -2.2      2.347      6.818
REMARK  Name = *****
REMARK                            x       y       z     vdW  Elec       q    Type
REMARK                         _______ _______ _______ _____ _____    ______ ____
ROOT
ATOM      1  O   LIG    1       21.973 -16.562   4.529  0.00  0.00    -0.270 OA
ATOM      2  C   LIG    1       23.169 -16.381   4.323  0.00  0.00    +0.247 C 
ATOM      3  N   LIG    1       24.059 -17.411   3.994  0.00  0.00    -0.292 N 
ATOM      4  C   LIG    1       25.488 -17.129   3.856  0.00  0.00    +0.116 C 
ATOM      5  C   LIG    1       25.738 -15.788   3.162  0.00  0.00    +0.037 C 
ATOM      6  C   LIG    1       27.238 -15.493   3.045  0.00  0.00    +0.010 C 
ATOM      7  C   LIG    1       27.449 -14.078   2.515  0.00  0.00    +0.005 C 
ATOM      8  C   LIG    1       26.881 -13.045   3.488  0.00  0.00    +0.035 C 
ATOM      9  C   LIG    1       25.505 -13.396   4.000  0.00  0.00    -0.043 A 
ATOM     10  C   LIG    1       24.747 -12.414   4.656  0.00  0.00    +0.004 A 
ATOM     11  C   LIG    1       23.489 -12.714   5.177  0.00  0.00    +0.001 A 
ATOM     12  C   LIG    1       22.977 -14.006   5.062  0.00  0.00    +0.013 A 
ATOM     13  C   LIG    1       24.993 -14.702   3.896  0.00  0.00    -0.028 A 
ATOM     14  C   LIG    1       23.727 -15.001   4.429  0.00  0.00    +0.041 A 
ENDROOT
BRANCH   3  15
ATOM     15  C   LIG    1       23.539 -18.790   3.943  0.00  0.00    +0.093 C 
ATOM     16  C   LIG    1       24.659 -19.823   3.646  0.00  0.00    +0.013 C 
ATOM     17  C   LIG    1       23.964 -21.156   3.306  0.00  0.00    +0.021 C 
ATOM     18  C   LIG    1       23.056 -21.572   4.475  0.00  0.00    +0.085 C 
ATOM     19  N   LIG    1       23.157 -20.636   5.620  0.00  0.00    -0.300 NA
ATOM     20  C   LIG    1       24.570 -20.560   6.047  0.00  0.00    +0.085 C 
ATOM     21  C   LIG    1       25.491 -20.078   4.913  0.00  0.00    +0.021 C 
ATOM     22  C   LIG    1       22.725 -19.286   5.172  0.00  0.00    +0.107 C 
ENDBRANCH   3  15
TORSDOF 1
ENDMDL
