MODEL 1
REMARK VINA RESULT:      -2.8      0.000      0.000
REMARK  Name = *****
REMARK                            x       y       z     vdW  Elec       q    Type
REMARK                         _______ _______ _______ _____ _____    ______ ____
ROOT
ATOM      1  O   LIG    1       23.180 -15.467   3.967  0.00  0.00    -0.461 OA
ENDROOT
BRANCH   1  10
ATOM      2  C   LIG    1       27.619 -14.248   4.748  0.00  0.00    +0.193 C 
ATOM      3  N   LIG    1       26.778 -13.482   3.740  0.00  0.00    +0.247 N 
ATOM      4  C   LIG    1       27.695 -12.385   3.174  0.00  0.00    +0.193 C 
ATOM      5  C   LIG    1       26.148 -14.308   2.587  0.00  0.00    +0.102 C 
ATOM      6  C   LIG    1       25.137 -13.372   1.942  0.00  0.00    +0.201 C 
ATOM      7  C   LIG    1       24.699 -12.430   3.035  0.00  0.00    +0.201 C 
ATOM      8  O   LIG    1       23.799 -13.352   2.429  0.00  0.00    -0.357 OA
ATOM      9  C   LIG    1       25.462 -15.552   3.176  0.00  0.00    +0.102 C 
ATOM     10  C   LIG    1       24.547 -15.282   4.401  0.00  0.00    +0.187 C 
ATOM     11  C   LIG    1       24.709 -13.896   5.086  0.00  0.00    +0.102 C 
ATOM     12  C   LIG    1       25.474 -12.848   4.275  0.00  0.00    +0.102 C 
ENDBRANCH   1  10
BRANCH   1  13
ATOM     13  C   LIG    1       22.414 -16.330   4.703  0.00  0.00    +0.317 C 
ATOM     14  O   LIG    1       21.956 -16.069   5.803  0.00  0.00    -0.250 OA
BRANCH  13  15
ATOM     15  C   LIG    1       22.167 -17.610   3.925  0.00  0.00    +0.153 C 
BRANCH  15  16
ATOM     16  C   LIG    1       23.064 -18.752   4.362  0.00  0.00    -0.032 A 
ATOM     17  C   LIG    1       22.700 -19.641   5.385  0.00  0.00    +0.004 A 
ATOM     18  C   LIG    1       23.562 -20.672   5.767  0.00  0.00    +0.000 A 
ATOM     19  C   LIG    1       24.782 -20.841   5.118  0.00  0.00    +0.000 A 
ATOM     20  C   LIG    1       25.144 -19.983   4.083  0.00  0.00    +0.000 A 
ATOM     21  C   LIG    1       24.291 -18.947   3.706  0.00  0.00    +0.004 A 
ENDBRANCH  15  16
BRANCH  15  22
ATOM     22  C   LIG    1       20.674 -17.950   4.016  0.00  0.00    +0.175 C 
BRANCH  22  23
ATOM     23  O   LIG    1       20.181 -18.471   2.783  0.00  0.00    -0.394 OA
ATOM     24  H   LIG    1       19.794 -17.721   2.291  0.00  0.00    +0.209 HD
ENDBRANCH  22  23
ENDBRANCH  15  22
ENDBRANCH  13  15
ENDBRANCH   1  13
TORSDOF 6
ENDMDL
MODEL 2
REMARK VINA RESULT:      -2.2      2.324      3.787
REMARK  Name = *****
REMARK                            x       y       z     vdW  Elec       q    Type
REMARK                         _______ _______ _______ _____ _____    ______ ____
ROOT
ATOM      1  O   LIG    1       26.408 -16.759   3.508  0.00  0.00    -0.461 OA
ENDROOT
BRANCH   1  10
ATOM      2  C   LIG    1       23.879 -13.058   2.203  0.00  0.00    +0.193 C 
ATOM      3  N   LIG    1       24.939 -12.922   3.284  0.00  0.00    +0.247 N 
ATOM      4  C   LIG    1       24.909 -11.447   3.720  0.00  0.00    +0.193 C 
ATOM      5  C   LIG    1       24.800 -13.853   4.518  0.00  0.00    +0.102 C 
ATOM      6  C   LIG    1       26.124 -13.729   5.254  0.00  0.00    +0.201 C 
ATOM      7  C   LIG    1       27.147 -13.387   4.199  0.00  0.00    +0.201 C 
ATOM      8  O   LIG    1       27.190 -14.613   4.922  0.00  0.00    -0.357 OA
ATOM      9  C   LIG    1       24.561 -15.294   4.036  0.00  0.00    +0.102 C 
ATOM     10  C   LIG    1       25.521 -15.782   2.918  0.00  0.00    +0.187 C 
ATOM     11  C   LIG    1       26.343 -14.682   2.191  0.00  0.00    +0.102 C 
ATOM     12  C   LIG    1       26.379 -13.320   2.888  0.00  0.00    +0.102 C 
ENDBRANCH   1  10
BRANCH   1  13
ATOM     13  C   LIG    1       26.071 -18.075   3.338  0.00  0.00    +0.317 C 
ATOM     14  O   LIG    1       25.938 -18.611   2.250  0.00  0.00    -0.250 OA
BRANCH  13  15
ATOM     15  C   LIG    1       25.960 -18.769   4.684  0.00  0.00    +0.153 C 
BRANCH  15  16
ATOM     16  C   LIG    1       24.662 -19.535   4.851  0.00  0.00    -0.032 A 
ATOM     17  C   LIG    1       23.442 -19.061   4.347  0.00  0.00    +0.004 A 
ATOM     18  C   LIG    1       22.266 -19.792   4.535  0.00  0.00    +0.000 A 
ATOM     19  C   LIG    1       22.299 -21.012   5.205  0.00  0.00    +0.000 A 
ATOM     20  C   LIG    1       23.508 -21.508   5.686  0.00  0.00    +0.000 A 
ATOM     21  C   LIG    1       24.682 -20.776   5.510  0.00  0.00    +0.004 A 
ENDBRANCH  15  16
BRANCH  15  22
ATOM     22  C   LIG    1       27.204 -19.646   4.879  0.00  0.00    +0.175 C 
BRANCH  22  23
ATOM     23  O   LIG    1       28.396 -18.863   4.899  0.00  0.00    -0.394 OA
ATOM     24  H   LIG    1       28.769 -18.889   3.997  0.00  0.00    +0.209 HD
ENDBRANCH  22  23
ENDBRANCH  15  22
ENDBRANCH  13  15
ENDBRANCH   1  13
TORSDOF 6
ENDMDL
MODEL 3
REMARK VINA RESULT:      -1.8      2.077      2.761
REMARK  Name = *****
REMARK                            x       y       z     vdW  Elec       q    Type
REMARK                         _______ _______ _______ _____ _____    ______ ____
ROOT
ATOM      1  O   LIG    1       25.442 -16.866   3.236  0.00  0.00    -0.461 OA
ENDROOT
BRANCH   1  10
ATOM      2  C   LIG    1       27.207 -13.657   6.131  0.00  0.00    +0.193 C 
ATOM      3  N   LIG    1       27.152 -13.395   4.635  0.00  0.00    +0.247 N 
ATOM      4  C   LIG    1       27.753 -11.994   4.431  0.00  0.00    +0.193 C 
ATOM      5  C   LIG    1       27.864 -14.427   3.720  0.00  0.00    +0.102 C 
ATOM      6  C   LIG    1       27.389 -14.097   2.314  0.00  0.00    +0.201 C 
ATOM      7  C   LIG    1       26.024 -13.477   2.480  0.00  0.00    +0.201 C 
ATOM      8  O   LIG    1       26.211 -14.722   1.813  0.00  0.00    -0.357 OA
ATOM      9  C   LIG    1       27.439 -15.845   4.135  0.00  0.00    +0.102 C 
ATOM     10  C   LIG    1       25.911 -16.044   4.329  0.00  0.00    +0.187 C 
ATOM     11  C   LIG    1       25.057 -14.749   4.430  0.00  0.00    +0.102 C 
ATOM     12  C   LIG    1       25.756 -13.465   3.977  0.00  0.00    +0.102 C 
ENDBRANCH   1  10
BRANCH   1  13
ATOM     13  C   LIG    1       24.667 -17.945   3.569  0.00  0.00    +0.317 C 
ATOM     14  O   LIG    1       23.491 -17.871   3.884  0.00  0.00    -0.250 OA
BRANCH  13  15
ATOM     15  C   LIG    1       25.462 -19.230   3.419  0.00  0.00    +0.153 C 
BRANCH  15  16
ATOM     16  C   LIG    1       26.137 -19.664   4.705  0.00  0.00    -0.032 A 
ATOM     17  C   LIG    1       25.441 -20.313   5.735  0.00  0.00    +0.004 A 
ATOM     18  C   LIG    1       26.099 -20.683   6.911  0.00  0.00    +0.000 A 
ATOM     19  C   LIG    1       27.460 -20.431   7.061  0.00  0.00    +0.000 A 
ATOM     20  C   LIG    1       28.170 -19.811   6.035  0.00  0.00    +0.000 A 
ATOM     21  C   LIG    1       27.514 -19.431   4.865  0.00  0.00    +0.004 A 
ENDBRANCH  15  16
BRANCH  15  22
ATOM     22  C   LIG    1       24.535 -20.305   2.835  0.00  0.00    +0.175 C 
BRANCH  22  23
ATOM     23  O   LIG    1       23.445 -20.586   3.711  0.00  0.00    -0.394 OA
ATOM     24  H   LIG    1       22.842 -21.185   3.230  0.00  0.00    +0.209 HD
ENDBRANCH  22  23
ENDBRANCH  15  22
ENDBRANCH  13  15
ENDBRANCH   1  13
TORSDOF 6
ENDMDL
MODEL 4
REMARK VINA RESULT:      -1.4      1.010      2.062
REMARK  Name = *****
REMARK                            x       y       z     vdW  Elec       q    Type
REMARK                         _______ _______ _______ _____ _____    ______ ____
ROOT
ATOM      1  O   LIG    1       23.730 -16.117   4.102  0.00  0.00    -0.461 OA
ENDROOT
BRANCH   1  10
ATOM      2  C   LIG    1       24.776 -11.584   3.705  0.00  0.00    +0.193 C 
ATOM      3  N   LIG    1       25.816 -12.644   3.382  0.00  0.00    +0.247 N 
ATOM      4  C   LIG    1       27.082 -11.877   2.962  0.00  0.00    +0.193 C 
ATOM      5  C   LIG    1       26.149 -13.660   4.507  0.00  0.00    +0.102 C 
ATOM      6  C   LIG    1       26.952 -14.754   3.823  0.00  0.00    +0.201 C 
ATOM      7  C   LIG    1       26.490 -14.761   2.387  0.00  0.00    +0.201 C 
ATOM      8  O   LIG    1       26.268 -15.867   3.256  0.00  0.00    -0.357 OA
ATOM      9  C   LIG    1       24.837 -14.211   5.091  0.00  0.00    +0.102 C 
ATOM     10  C   LIG    1       23.792 -14.673   4.040  0.00  0.00    +0.187 C 
ATOM     11  C   LIG    1       24.038 -14.210   2.577  0.00  0.00    +0.102 C 
ATOM     12  C   LIG    1       25.439 -13.667   2.287  0.00  0.00    +0.102 C 
ENDBRANCH   1  10
BRANCH   1  13
ATOM     13  C   LIG    1       22.573 -16.661   4.590  0.00  0.00    +0.317 C 
ATOM     14  O   LIG    1       21.854 -16.115   5.411  0.00  0.00    -0.250 OA
BRANCH  13  15
ATOM     15  C   LIG    1       22.290 -17.991   3.915  0.00  0.00    +0.153 C 
BRANCH  15  16
ATOM     16  C   LIG    1       23.171 -19.115   4.425  0.00  0.00    -0.032 A 
ATOM     17  C   LIG    1       24.409 -19.422   3.839  0.00  0.00    +0.004 A 
ATOM     18  C   LIG    1       25.183 -20.474   4.331  0.00  0.00    +0.000 A 
ATOM     19  C   LIG    1       24.744 -21.216   5.425  0.00  0.00    +0.000 A 
ATOM     20  C   LIG    1       23.531 -20.905   6.034  0.00  0.00    +0.000 A 
ATOM     21  C   LIG    1       22.750 -19.861   5.538  0.00  0.00    +0.004 A 
ENDBRANCH  15  16
BRANCH  15  22
ATOM     22  C   LIG    1       20.792 -18.293   4.052  0.00  0.00    +0.175 C 
BRANCH  22  23
ATOM     23  O   LIG    1       20.142 -18.302   2.782  0.00  0.00    -0.394 OA
ATOM     24  H   LIG    1       20.735 -17.842   2.157  0.00  0.00    +0.209 HD
ENDBRANCH  22  23
ENDBRANCH  15  22
ENDBRANCH  13  15
ENDBRANCH   1  13
TORSDOF 6
ENDMDL
MODEL 5
REMARK VINA RESULT:      -1.3      2.215      3.526
REMARK  Name = *****
REMARK                            x       y       z     vdW  Elec       q    Type
REMARK                         _______ _______ _______ _____ _____    ______ ____
ROOT
ATOM      1  O   LIG    1       26.479 -16.523   3.457  0.00  0.00    -0.461 OA
ENDROOT
BRANCH   1  10
ATOM      2  C   LIG    1       23.984 -13.092   5.407  0.00  0.00    +0.193 C 
ATOM      3  N   LIG    1       24.642 -12.890   4.051  0.00  0.00    +0.247 N 
ATOM      4  C   LIG    1       24.282 -11.458   3.618  0.00  0.00    +0.193 C 
ATOM      5  C   LIG    1       26.177 -13.105   3.982  0.00  0.00    +0.102 C 
ATOM      6  C   LIG    1       26.501 -13.148   2.497  0.00  0.00    +0.201 C 
ATOM      7  C   LIG    1       25.251 -13.657   1.822  0.00  0.00    +0.201 C 
ATOM      8  O   LIG    1       26.467 -14.398   1.815  0.00  0.00    -0.357 OA
ATOM      9  C   LIG    1       26.530 -14.434   4.671  0.00  0.00    +0.102 C 
ATOM     10  C   LIG    1       25.651 -15.645   4.254  0.00  0.00    +0.187 C 
ATOM     11  C   LIG    1       24.338 -15.310   3.493  0.00  0.00    +0.102 C 
ATOM     12  C   LIG    1       24.245 -13.887   2.939  0.00  0.00    +0.102 C 
ENDBRANCH   1  10
BRANCH   1  13
ATOM     13  C   LIG    1       26.008 -17.793   3.255  0.00  0.00    +0.317 C 
ATOM     14  O   LIG    1       25.763 -18.264   2.156  0.00  0.00    -0.250 OA
BRANCH  13  15
ATOM     15  C   LIG    1       25.908 -18.534   4.576  0.00  0.00    +0.153 C 
BRANCH  15  16
ATOM     16  C   LIG    1       24.612 -19.309   4.724  0.00  0.00    -0.032 A 
ATOM     17  C   LIG    1       23.376 -18.786   4.318  0.00  0.00    +0.004 A 
ATOM     18  C   LIG    1       22.204 -19.528   4.486  0.00  0.00    +0.000 A 
ATOM     19  C   LIG    1       22.256 -20.805   5.036  0.00  0.00    +0.000 A 
ATOM     20  C   LIG    1       23.480 -21.348   5.418  0.00  0.00    +0.000 A 
ATOM     21  C   LIG    1       24.651 -20.606   5.263  0.00  0.00    +0.004 A 
ENDBRANCH  15  16
BRANCH  15  22
ATOM     22  C   LIG    1       27.155 -19.414   4.733  0.00  0.00    +0.175 C 
BRANCH  22  23
ATOM     23  O   LIG    1       28.345 -18.629   4.780  0.00  0.00    -0.394 OA
ATOM     24  H   LIG    1       28.493 -18.283   3.878  0.00  0.00    +0.209 HD
ENDBRANCH  22  23
ENDBRANCH  15  22
ENDBRANCH  13  15
ENDBRANCH   1  13
TORSDOF 6
ENDMDL
MODEL 6
REMARK VINA RESULT:      -1.3      1.595      2.410
REMARK  Name = *****
REMARK                            x       y       z     vdW  Elec       q    Type
REMARK                         _______ _______ _______ _____ _____    ______ ____
ROOT
ATOM      1  O   LIG    1       25.281 -16.577   3.408  0.00  0.00    -0.461 OA
ENDROOT
BRANCH   1  10
ATOM      2  C   LIG    1       28.893 -13.625   3.223  0.00  0.00    +0.193 C 
ATOM      3  N   LIG    1       27.606 -13.221   3.922  0.00  0.00    +0.247 N 
ATOM      4  C   LIG    1       27.842 -11.795   4.447  0.00  0.00    +0.193 C 
ATOM      5  C   LIG    1       26.306 -13.277   3.076  0.00  0.00    +0.102 C 
ATOM      6  C   LIG    1       25.176 -13.135   4.083  0.00  0.00    +0.201 C 
ATOM      7  C   LIG    1       25.712 -13.691   5.378  0.00  0.00    +0.201 C 
ATOM      8  O   LIG    1       24.630 -14.305   4.685  0.00  0.00    -0.357 OA
ATOM      9  C   LIG    1       26.238 -14.629   2.346  0.00  0.00    +0.102 C 
ATOM     10  C   LIG    1       26.530 -15.870   3.232  0.00  0.00    +0.187 C 
ATOM     11  C   LIG    1       27.185 -15.589   4.613  0.00  0.00    +0.102 C 
ATOM     12  C   LIG    1       27.137 -14.132   5.079  0.00  0.00    +0.102 C 
ENDBRANCH   1  10
BRANCH   1  13
ATOM     13  C   LIG    1       25.333 -17.943   3.335  0.00  0.00    +0.317 C 
ATOM     14  O   LIG    1       26.333 -18.573   3.031  0.00  0.00    -0.250 OA
BRANCH  13  15
ATOM     15  C   LIG    1       24.003 -18.544   3.753  0.00  0.00    +0.153 C 
BRANCH  15  16
ATOM     16  C   LIG    1       24.143 -19.604   4.829  0.00  0.00    -0.032 A 
ATOM     17  C   LIG    1       23.054 -20.042   5.596  0.00  0.00    +0.004 A 
ATOM     18  C   LIG    1       23.229 -21.011   6.587  0.00  0.00    +0.000 A 
ATOM     19  C   LIG    1       24.486 -21.568   6.807  0.00  0.00    +0.000 A 
ATOM     20  C   LIG    1       25.571 -21.162   6.035  0.00  0.00    +0.000 A 
ATOM     21  C   LIG    1       25.402 -20.187   5.052  0.00  0.00    +0.004 A 
ENDBRANCH  15  16
BRANCH  15  22
ATOM     22  C   LIG    1       23.061 -17.402   4.154  0.00  0.00    +0.175 C 
BRANCH  22  23
ATOM     23  O   LIG    1       21.695 -17.808   4.100  0.00  0.00    -0.394 OA
ATOM     24  H   LIG    1       21.270 -17.487   4.918  0.00  0.00    +0.209 HD
ENDBRANCH  22  23
ENDBRANCH  15  22
ENDBRANCH  13  15
ENDBRANCH   1  13
TORSDOF 6
ENDMDL
MODEL 7
REMARK VINA RESULT:      -1.0      2.217      3.389
REMARK  Name = *****
REMARK                            x       y       z     vdW  Elec       q    Type
REMARK                         _______ _______ _______ _____ _____    ______ ____
ROOT
ATOM      1  O   LIG    1       25.855 -16.652   3.053  0.00  0.00    -0.461 OA
ENDROOT
BRANCH   1  10
ATOM      2  C   LIG    1       26.546 -12.038   3.217  0.00  0.00    +0.193 C 
ATOM      3  N   LIG    1       25.231 -12.636   3.688  0.00  0.00    +0.247 N 
ATOM      4  C   LIG    1       24.370 -11.447   4.149  0.00  0.00    +0.193 C 
ATOM      5  C   LIG    1       24.451 -13.501   2.663  0.00  0.00    +0.102 C 
ATOM      6  C   LIG    1       23.378 -14.204   3.479  0.00  0.00    +0.201 C 
ATOM      7  C   LIG    1       23.940 -14.326   4.873  0.00  0.00    +0.201 C 
ATOM      8  O   LIG    1       23.668 -15.468   4.068  0.00  0.00    -0.357 OA
ATOM      9  C   LIG    1       25.417 -14.512   2.021  0.00  0.00    +0.102 C 
ATOM     10  C   LIG    1       26.321 -15.284   3.020  0.00  0.00    +0.187 C 
ATOM     11  C   LIG    1       26.397 -14.709   4.462  0.00  0.00    +0.102 C 
ATOM     12  C   LIG    1       25.318 -13.685   4.819  0.00  0.00    +0.102 C 
ENDBRANCH   1  10
BRANCH   1  13
ATOM     13  C   LIG    1       26.677 -17.566   3.656  0.00  0.00    +0.317 C 
ATOM     14  O   LIG    1       27.779 -17.300   4.107  0.00  0.00    -0.250 OA
BRANCH  13  15
ATOM     15  C   LIG    1       25.991 -18.918   3.740  0.00  0.00    +0.153 C 
BRANCH  15  16
ATOM     16  C   LIG    1       26.478 -19.759   4.904  0.00  0.00    -0.032 A 
ATOM     17  C   LIG    1       27.784 -19.658   5.407  0.00  0.00    +0.004 A 
ATOM     18  C   LIG    1       28.196 -20.461   6.473  0.00  0.00    +0.000 A 
ATOM     19  C   LIG    1       27.306 -21.355   7.062  0.00  0.00    +0.000 A 
ATOM     20  C   LIG    1       25.998 -21.446   6.591  0.00  0.00    +0.000 A 
ATOM     21  C   LIG    1       25.587 -20.653   5.520  0.00  0.00    +0.004 A 
ENDBRANCH  15  16
BRANCH  15  22
ATOM     22  C   LIG    1       24.474 -18.689   3.757  0.00  0.00    +0.175 C 
BRANCH  22  23
ATOM     23  O   LIG    1       23.776 -19.775   3.151  0.00  0.00    -0.394 OA
ATOM     24  H   LIG    1       23.544 -19.494   2.245  0.00  0.00    +0.209 HD
ENDBRANCH  22  23
ENDBRANCH  15  22
ENDBRANCH  13  15
ENDBRANCH   1  13
TORSDOF 6
ENDMDL
MODEL 8
REMARK VINA RESULT:      -0.9      2.059      3.399
REMARK  Name = *****
REMARK                            x       y       z     vdW  Elec       q    Type
REMARK                         _______ _______ _______ _____ _____    ______ ____
ROOT
ATOM      1  O   LIG    1       25.640 -16.638   3.406  0.00  0.00    -0.461 OA
ENDROOT
BRANCH   1  10
ATOM      2  C   LIG    1       29.098 -13.504   3.284  0.00  0.00    +0.193 C 
ATOM      3  N   LIG    1       27.763 -13.151   3.919  0.00  0.00    +0.247 N 
ATOM      4  C   LIG    1       27.902 -11.701   4.414  0.00  0.00    +0.193 C 
ATOM      5  C   LIG    1       26.504 -13.298   3.024  0.00  0.00    +0.102 C 
ATOM      6  C   LIG    1       25.327 -13.191   3.981  0.00  0.00    +0.201 C 
ATOM      7  C   LIG    1       25.838 -13.684   5.312  0.00  0.00    +0.201 C 
ATOM      8  O   LIG    1       24.819 -14.372   4.593  0.00  0.00    -0.357 OA
ATOM      9  C   LIG    1       26.537 -14.670   2.330  0.00  0.00    +0.102 C 
ATOM     10  C   LIG    1       26.857 -15.870   3.261  0.00  0.00    +0.187 C 
ATOM     11  C   LIG    1       27.438 -15.520   4.659  0.00  0.00    +0.102 C 
ATOM     12  C   LIG    1       27.295 -14.056   5.082  0.00  0.00    +0.102 C 
ENDBRANCH   1  10
BRANCH   1  13
ATOM     13  C   LIG    1       25.742 -17.990   3.220  0.00  0.00    +0.317 C 
ATOM     14  O   LIG    1       26.001 -18.515   2.149  0.00  0.00    -0.250 OA
BRANCH  13  15
ATOM     15  C   LIG    1       25.557 -18.720   4.539  0.00  0.00    +0.153 C 
BRANCH  15  16
ATOM     16  C   LIG    1       24.211 -19.411   4.651  0.00  0.00    -0.032 A 
ATOM     17  C   LIG    1       23.039 -18.861   4.111  0.00  0.00    +0.004 A 
ATOM     18  C   LIG    1       21.817 -19.524   4.249  0.00  0.00    +0.000 A 
ATOM     19  C   LIG    1       21.756 -20.751   4.904  0.00  0.00    +0.000 A 
ATOM     20  C   LIG    1       22.917 -21.322   5.420  0.00  0.00    +0.000 A 
ATOM     21  C   LIG    1       24.136 -20.657   5.294  0.00  0.00    +0.004 A 
ENDBRANCH  15  16
BRANCH  15  22
ATOM     22  C   LIG    1       26.741 -19.675   4.732  0.00  0.00    +0.175 C 
BRANCH  22  23
ATOM     23  O   LIG    1       27.979 -18.969   4.784  0.00  0.00    -0.394 OA
ATOM     24  H   LIG    1       28.228 -18.900   5.726  0.00  0.00    +0.209 HD
ENDBRANCH  22  23
ENDBRANCH  15  22
ENDBRANCH  13  15
ENDBRANCH   1  13
TORSDOF 6
ENDMDL
MODEL 9
REMARK VINA RESULT:       0.2      2.534      6.640
REMARK  Name = *****
REMARK                            x       y       z     vdW  Elec       q    Type
REMARK                         _______ _______ _______ _____ _____    ______ ____
ROOT
ATOM      1  O   LIG    1       25.640 -17.178   3.315  0.00  0.00    -0.461 OA
ENDROOT
BRANCH   1  10
ATOM      2  C   LIG    1       24.232 -21.571   4.033  0.00  0.00    +0.193 C 
ATOM      3  N   LIG    1       23.299 -20.408   4.323  0.00  0.00    +0.247 N 
ATOM      4  C   LIG    1       21.990 -21.035   4.832  0.00  0.00    +0.193 C 
ATOM      5  C   LIG    1       23.808 -19.337   5.324  0.00  0.00    +0.102 C 
ATOM      6  C   LIG    1       22.840 -18.174   5.181  0.00  0.00    +0.201 C 
ATOM      7  C   LIG    1       22.317 -18.250   3.768  0.00  0.00    +0.201 C 
ATOM      8  O   LIG    1       23.111 -17.157   4.220  0.00  0.00    -0.357 OA
ATOM      9  C   LIG    1       25.238 -18.925   4.935  0.00  0.00    +0.102 C 
ATOM     10  C   LIG    1       25.444 -18.606   3.429  0.00  0.00    +0.187 C 
ATOM     11  C   LIG    1       24.315 -19.071   2.468  0.00  0.00    +0.102 C 
ATOM     12  C   LIG    1       22.997 -19.458   3.142  0.00  0.00    +0.102 C 
ENDBRANCH   1  10
BRANCH   1  13
ATOM     13  C   LIG    1       26.856 -16.692   3.712  0.00  0.00    +0.317 C 
ATOM     14  O   LIG    1       27.676 -17.336   4.347  0.00  0.00    -0.250 OA
BRANCH  13  15
ATOM     15  C   LIG    1       27.056 -15.280   3.190  0.00  0.00    +0.153 C 
BRANCH  15  16
ATOM     16  C   LIG    1       25.800 -14.434   3.273  0.00  0.00    -0.032 A 
ATOM     17  C   LIG    1       24.975 -14.426   4.407  0.00  0.00    +0.004 A 
ATOM     18  C   LIG    1       23.819 -13.642   4.437  0.00  0.00    +0.000 A 
ATOM     19  C   LIG    1       23.488 -12.841   3.348  0.00  0.00    +0.000 A 
ATOM     20  C   LIG    1       24.313 -12.818   2.226  0.00  0.00    +0.000 A 
ATOM     21  C   LIG    1       25.461 -13.607   2.188  0.00  0.00    +0.004 A 
ENDBRANCH  15  16
BRANCH  15  22
ATOM     22  C   LIG    1       28.250 -14.657   3.925  0.00  0.00    +0.175 C 
BRANCH  22  23
ATOM     23  O   LIG    1       28.612 -13.399   3.359  0.00  0.00    -0.394 OA
ATOM     24  H   LIG    1       28.385 -13.438   2.410  0.00  0.00    +0.209 HD
ENDBRANCH  22  23
ENDBRANCH  15  22
ENDBRANCH  13  15
ENDBRANCH   1  13
TORSDOF 6
ENDMDL
