MODEL 1
REMARK VINA RESULT:      -2.9      0.000      0.000
REMARK  Name = *****
REMARK                            x       y       z     vdW  Elec       q    Type
REMARK                         _______ _______ _______ _____ _____    ______ ____
ROOT
ATOM      1  C   LIG    1       24.372 -18.250   3.191  0.00  0.00    +0.092 C 
ENDROOT
BRANCH   1   4
ATOM      2  O   LIG    1       22.220 -17.458   4.702  0.00  0.00    -0.245 OA
ATOM      3  C   LIG    1       23.009 -16.549   4.447  0.00  0.00    +0.344 C 
ATOM      4  C   LIG    1       24.250 -16.828   3.681  0.00  0.00    +0.084 C 
ATOM      5  C   LIG    1       25.125 -15.839   3.431  0.00  0.00    +0.138 C 
ATOM      6  C   LIG    1       24.876 -14.484   3.927  0.00  0.00    +0.059 A 
ATOM      7  C   LIG    1       23.709 -14.236   4.642  0.00  0.00    +0.143 A 
ATOM      8  C   LIG    1       23.415 -12.981   5.171  0.00  0.00    +0.047 A 
ATOM      9  C   LIG    1       24.318 -11.936   4.987  0.00  0.00    +0.004 A 
ATOM     10  C   LIG    1       25.495 -12.158   4.271  0.00  0.00    +0.001 A 
ATOM     11  C   LIG    1       25.771 -13.423   3.742  0.00  0.00    +0.015 A 
ATOM     12  O   LIG    1       22.775 -15.256   4.877  0.00  0.00    -0.422 OA
BRANCH   5  13
ATOM     13  O   LIG    1       26.303 -15.992   2.730  0.00  0.00    -0.505 OA
ATOM     14  H   LIG    1       27.061 -16.146   3.334  0.00  0.00    +0.292 HD
ENDBRANCH   5  13
ENDBRANCH   1   4
BRANCH   1  15
ATOM     15  C   LIG    1       25.280 -19.091   4.057  0.00  0.00    +0.084 C 
ATOM     16  C   LIG    1       24.617 -20.269   4.669  0.00  0.00    +0.344 C 
ATOM     17  O   LIG    1       23.494 -20.608   4.303  0.00  0.00    -0.245 OA
ATOM     18  O   LIG    1       25.285 -20.950   5.671  0.00  0.00    -0.422 OA
ATOM     19  C   LIG    1       26.643 -20.701   5.918  0.00  0.00    +0.143 A 
ATOM     20  C   LIG    1       27.321 -19.691   5.245  0.00  0.00    +0.059 A 
ATOM     21  C   LIG    1       28.695 -19.552   5.475  0.00  0.00    +0.015 A 
ATOM     22  C   LIG    1       29.355 -20.399   6.373  0.00  0.00    +0.001 A 
ATOM     23  C   LIG    1       28.645 -21.383   7.062  0.00  0.00    +0.004 A 
ATOM     24  C   LIG    1       27.280 -21.538   6.835  0.00  0.00    +0.047 A 
ATOM     25  C   LIG    1       26.569 -18.825   4.336  0.00  0.00    +0.138 C 
BRANCH  25  26
ATOM     26  O   LIG    1       27.281 -17.756   3.837  0.00  0.00    -0.505 OA
ATOM     27  H   LIG    1       27.113 -16.936   4.350  0.00  0.00    +0.292 HD
ENDBRANCH  25  26
ENDBRANCH   1  15
TORSDOF 4
ENDMDL
MODEL 2
REMARK VINA RESULT:      -0.8      2.420      4.252
REMARK  Name = *****
REMARK                            x       y       z     vdW  Elec       q    Type
REMARK                         _______ _______ _______ _____ _____    ______ ____
ROOT
ATOM      1  C   LIG    1       27.562 -19.273   4.299  0.00  0.00    +0.092 C 
ENDROOT
BRANCH   1   4
ATOM      2  O   LIG    1       29.475 -17.801   5.609  0.00  0.00    -0.245 OA
ATOM      3  C   LIG    1       28.681 -17.119   4.963  0.00  0.00    +0.344 C 
ATOM      4  C   LIG    1       27.617 -17.771   4.158  0.00  0.00    +0.084 C 
ATOM      5  C   LIG    1       26.770 -17.025   3.428  0.00  0.00    +0.138 C 
ATOM      6  C   LIG    1       26.899 -15.567   3.402  0.00  0.00    +0.059 A 
ATOM      7  C   LIG    1       27.898 -14.969   4.162  0.00  0.00    +0.143 A 
ATOM      8  C   LIG    1       28.103 -13.590   4.166  0.00  0.00    +0.047 A 
ATOM      9  C   LIG    1       27.287 -12.779   3.383  0.00  0.00    +0.004 A 
ATOM     10  C   LIG    1       26.274 -13.353   2.614  0.00  0.00    +0.001 A 
ATOM     11  C   LIG    1       26.079 -14.738   2.625  0.00  0.00    +0.015 A 
ATOM     12  O   LIG    1       28.764 -15.740   4.952  0.00  0.00    -0.422 OA
BRANCH   5  13
ATOM     13  O   LIG    1       25.750 -17.531   2.650  0.00  0.00    -0.505 OA
ATOM     14  H   LIG    1       24.967 -16.939   2.659  0.00  0.00    +0.292 HD
ENDBRANCH   5  13
ENDBRANCH   1   4
BRANCH   1  15
ATOM     15  C   LIG    1       26.273 -19.755   4.923  0.00  0.00    +0.084 C 
ATOM     16  C   LIG    1       26.397 -20.148   6.349  0.00  0.00    +0.344 C 
ATOM     17  O   LIG    1       27.419 -19.883   6.978  0.00  0.00    -0.245 OA
ATOM     18  O   LIG    1       25.350 -20.836   6.932  0.00  0.00    -0.422 OA
ATOM     19  C   LIG    1       24.109 -20.929   6.284  0.00  0.00    +0.143 A 
ATOM     20  C   LIG    1       23.935 -20.434   4.996  0.00  0.00    +0.059 A 
ATOM     21  C   LIG    1       22.650 -20.481   4.440  0.00  0.00    +0.015 A 
ATOM     22  C   LIG    1       21.584 -21.030   5.160  0.00  0.00    +0.001 A 
ATOM     23  C   LIG    1       21.792 -21.552   6.437  0.00  0.00    +0.004 A 
ATOM     24  C   LIG    1       23.062 -21.502   7.006  0.00  0.00    +0.047 A 
ATOM     25  C   LIG    1       25.096 -19.894   4.288  0.00  0.00    +0.138 C 
BRANCH  25  26
ATOM     26  O   LIG    1       24.868 -19.575   2.966  0.00  0.00    -0.505 OA
ATOM     27  H   LIG    1       23.954 -19.249   2.823  0.00  0.00    +0.292 HD
ENDBRANCH  25  26
ENDBRANCH   1  15
TORSDOF 4
ENDMDL
MODEL 3
REMARK VINA RESULT:      -0.5      1.173      2.356
REMARK  Name = *****
REMARK                            x       y       z     vdW  Elec       q    Type
REMARK                         _______ _______ _______ _____ _____    ______ ____
ROOT
ATOM      1  C   LIG    1       25.578 -16.972   2.656  0.00  0.00    +0.092 C 
ENDROOT
BRANCH   1   4
ATOM      2  O   LIG    1       27.581 -15.095   2.748  0.00  0.00    -0.245 OA
ATOM      3  C   LIG    1       26.564 -14.766   3.357  0.00  0.00    +0.344 C 
ATOM      4  C   LIG    1       25.373 -15.652   3.359  0.00  0.00    +0.084 C 
ATOM      5  C   LIG    1       24.252 -15.275   3.998  0.00  0.00    +0.138 C 
ATOM      6  C   LIG    1       24.186 -13.982   4.682  0.00  0.00    +0.059 A 
ATOM      7  C   LIG    1       25.310 -13.163   4.674  0.00  0.00    +0.143 A 
ATOM      8  C   LIG    1       25.316 -11.906   5.277  0.00  0.00    +0.047 A 
ATOM      9  C   LIG    1       24.161 -11.447   5.905  0.00  0.00    +0.004 A 
ATOM     10  C   LIG    1       23.021 -12.251   5.930  0.00  0.00    +0.001 A 
ATOM     11  C   LIG    1       23.034 -13.512   5.324  0.00  0.00    +0.015 A 
ATOM     12  O   LIG    1       26.493 -13.565   4.037  0.00  0.00    -0.422 OA
BRANCH   5  13
ATOM     13  O   LIG    1       23.095 -16.024   4.060  0.00  0.00    -0.505 OA
ATOM     14  H   LIG    1       23.265 -16.911   4.443  0.00  0.00    +0.292 HD
ENDBRANCH   5  13
ENDBRANCH   1   4
BRANCH   1  15
ATOM     15  C   LIG    1       25.878 -18.103   3.611  0.00  0.00    +0.084 C 
ATOM     16  C   LIG    1       24.724 -18.999   3.874  0.00  0.00    +0.344 C 
ATOM     17  O   LIG    1       23.707 -18.916   3.190  0.00  0.00    -0.245 OA
ATOM     18  O   LIG    1       24.820 -19.900   4.918  0.00  0.00    -0.422 OA
ATOM     19  C   LIG    1       26.054 -20.145   5.538  0.00  0.00    +0.143 A 
ATOM     20  C   LIG    1       27.185 -19.410   5.198  0.00  0.00    +0.059 A 
ATOM     21  C   LIG    1       28.403 -19.762   5.791  0.00  0.00    +0.015 A 
ATOM     22  C   LIG    1       28.468 -20.813   6.712  0.00  0.00    +0.001 A 
ATOM     23  C   LIG    1       27.313 -21.514   7.062  0.00  0.00    +0.004 A 
ATOM     24  C   LIG    1       26.097 -21.180   6.472  0.00  0.00    +0.047 A 
ATOM     25  C   LIG    1       27.046 -18.308   4.245  0.00  0.00    +0.138 C 
BRANCH  25  26
ATOM     26  O   LIG    1       28.176 -17.534   4.089  0.00  0.00    -0.505 OA
ATOM     27  H   LIG    1       28.393 -17.394   3.142  0.00  0.00    +0.292 HD
ENDBRANCH  25  26
ENDBRANCH   1  15
TORSDOF 4
ENDMDL
MODEL 4
REMARK VINA RESULT:      -0.5      2.212      3.473
REMARK  Name = *****
REMARK                            x       y       z     vdW  Elec       q    Type
REMARK                         _______ _______ _______ _____ _____    ______ ____
ROOT
ATOM      1  C   LIG    1       23.638 -15.469   3.265  0.00  0.00    +0.092 C 
ENDROOT
BRANCH   1   4
ATOM      2  O   LIG    1       23.463 -14.109   5.644  0.00  0.00    -0.245 OA
ATOM      3  C   LIG    1       24.543 -13.967   5.069  0.00  0.00    +0.344 C 
ATOM      4  C   LIG    1       24.811 -14.680   3.795  0.00  0.00    +0.084 C 
ATOM      5  C   LIG    1       26.002 -14.548   3.186  0.00  0.00    +0.138 C 
ATOM      6  C   LIG    1       27.052 -13.719   3.779  0.00  0.00    +0.059 A 
ATOM      7  C   LIG    1       26.786 -13.055   4.973  0.00  0.00    +0.143 A 
ATOM      8  C   LIG    1       27.744 -12.271   5.615  0.00  0.00    +0.047 A 
ATOM      9  C   LIG    1       29.011 -12.147   5.051  0.00  0.00    +0.004 A 
ATOM     10  C   LIG    1       29.302 -12.801   3.853  0.00  0.00    +0.001 A 
ATOM     11  C   LIG    1       28.328 -13.579   3.220  0.00  0.00    +0.015 A 
ATOM     12  O   LIG    1       25.534 -13.162   5.596  0.00  0.00    -0.422 OA
BRANCH   5  13
ATOM     13  O   LIG    1       26.350 -15.165   2.002  0.00  0.00    -0.505 OA
ATOM     14  H   LIG    1       26.964 -14.608   1.477  0.00  0.00    +0.292 HD
ENDBRANCH   5  13
ENDBRANCH   1   4
BRANCH   1  15
ATOM     15  C   LIG    1       23.587 -16.877   3.809  0.00  0.00    +0.084 C 
ATOM     16  C   LIG    1       22.354 -17.189   4.574  0.00  0.00    +0.344 C 
ATOM     17  O   LIG    1       21.400 -16.414   4.554  0.00  0.00    -0.245 OA
ATOM     18  O   LIG    1       22.323 -18.351   5.322  0.00  0.00    -0.422 OA
ATOM     19  C   LIG    1       23.314 -19.331   5.158  0.00  0.00    +0.143 A 
ATOM     20  C   LIG    1       24.407 -19.112   4.327  0.00  0.00    +0.059 A 
ATOM     21  C   LIG    1       25.314 -20.163   4.140  0.00  0.00    +0.015 A 
ATOM     22  C   LIG    1       25.126 -21.388   4.789  0.00  0.00    +0.001 A 
ATOM     23  C   LIG    1       24.039 -21.571   5.644  0.00  0.00    +0.004 A 
ATOM     24  C   LIG    1       23.125 -20.538   5.831  0.00  0.00    +0.047 A 
ATOM     25  C   LIG    1       24.558 -17.801   3.696  0.00  0.00    +0.138 C 
BRANCH  25  26
ATOM     26  O   LIG    1       25.747 -17.618   3.022  0.00  0.00    -0.505 OA
ATOM     27  H   LIG    1       26.522 -17.811   3.593  0.00  0.00    +0.292 HD
ENDBRANCH  25  26
ENDBRANCH   1  15
TORSDOF 4
ENDMDL
MODEL 5
REMARK VINA RESULT:      -0.3      2.319      6.127
REMARK  Name = *****
REMARK                            x       y       z     vdW  Elec       q    Type
REMARK                         _______ _______ _______ _____ _____    ______ ____
ROOT
ATOM      1  C   LIG    1       23.651 -15.318   3.344  0.00  0.00    +0.092 C 
ENDROOT
BRANCH   1   4
ATOM      2  O   LIG    1       21.451 -16.163   4.753  0.00  0.00    -0.245 OA
ATOM      3  C   LIG    1       22.320 -17.025   4.625  0.00  0.00    +0.344 C 
ATOM      4  C   LIG    1       23.549 -16.738   3.844  0.00  0.00    +0.084 C 
ATOM      5  C   LIG    1       24.482 -17.692   3.680  0.00  0.00    +0.138 C 
ATOM      6  C   LIG    1       24.288 -19.026   4.249  0.00  0.00    +0.059 A 
ATOM      7  C   LIG    1       23.133 -19.281   4.980  0.00  0.00    +0.143 A 
ATOM      8  C   LIG    1       22.862 -20.534   5.528  0.00  0.00    +0.047 A 
ATOM      9  C   LIG    1       23.772 -21.571   5.338  0.00  0.00    +0.004 A 
ATOM     10  C   LIG    1       24.941 -21.340   4.612  0.00  0.00    +0.001 A 
ATOM     11  C   LIG    1       25.199 -20.075   4.073  0.00  0.00    +0.015 A 
ATOM     12  O   LIG    1       22.171 -18.280   5.183  0.00  0.00    -0.422 OA
BRANCH   5  13
ATOM     13  O   LIG    1       25.657 -17.527   2.976  0.00  0.00    -0.505 OA
ATOM     14  H   LIG    1       26.293 -16.965   3.470  0.00  0.00    +0.292 HD
ENDBRANCH   5  13
ENDBRANCH   1   4
BRANCH   1  15
ATOM     15  C   LIG    1       24.880 -14.604   3.855  0.00  0.00    +0.084 C 
ATOM     16  C   LIG    1       24.730 -14.034   5.217  0.00  0.00    +0.344 C 
ATOM     17  O   LIG    1       23.757 -14.328   5.908  0.00  0.00    -0.245 OA
ATOM     18  O   LIG    1       25.694 -13.152   5.669  0.00  0.00    -0.422 OA
ATOM     19  C   LIG    1       26.905 -13.003   4.975  0.00  0.00    +0.143 A 
ATOM     20  C   LIG    1       27.120 -13.648   3.762  0.00  0.00    +0.059 A 
ATOM     21  C   LIG    1       28.380 -13.527   3.165  0.00  0.00    +0.015 A 
ATOM     22  C   LIG    1       29.382 -12.761   3.770  0.00  0.00    +0.001 A 
ATOM     23  C   LIG    1       29.131 -12.095   4.970  0.00  0.00    +0.004 A 
ATOM     24  C   LIG    1       27.885 -12.215   5.579  0.00  0.00    +0.047 A 
ATOM     25  C   LIG    1       26.023 -14.416   3.171  0.00  0.00    +0.138 C 
BRANCH  25  26
ATOM     26  O   LIG    1       26.268 -14.886   1.899  0.00  0.00    -0.505 OA
ATOM     27  H   LIG    1       26.477 -14.158   1.275  0.00  0.00    +0.292 HD
ENDBRANCH  25  26
ENDBRANCH   1  15
TORSDOF 4
ENDMDL
MODEL 6
REMARK VINA RESULT:      -0.0      2.475      4.051
REMARK  Name = *****
REMARK                            x       y       z     vdW  Elec       q    Type
REMARK                         _______ _______ _______ _____ _____    ______ ____
ROOT
ATOM      1  C   LIG    1       24.131 -15.369   3.064  0.00  0.00    +0.092 C 
ENDROOT
BRANCH   1   4
ATOM      2  O   LIG    1       23.907 -14.468   5.649  0.00  0.00    -0.245 OA
ATOM      3  C   LIG    1       24.937 -14.102   5.083  0.00  0.00    +0.344 C 
ATOM      4  C   LIG    1       25.228 -14.548   3.698  0.00  0.00    +0.084 C 
ATOM      5  C   LIG    1       26.369 -14.171   3.094  0.00  0.00    +0.138 C 
ATOM      6  C   LIG    1       27.342 -13.337   3.799  0.00  0.00    +0.059 A 
ATOM      7  C   LIG    1       27.056 -12.925   5.096  0.00  0.00    +0.143 A 
ATOM      8  C   LIG    1       27.945 -12.154   5.844  0.00  0.00    +0.047 A 
ATOM      9  C   LIG    1       29.164 -11.785   5.282  0.00  0.00    +0.004 A 
ATOM     10  C   LIG    1       29.475 -12.183   3.981  0.00  0.00    +0.001 A 
ATOM     11  C   LIG    1       28.569 -12.952   3.243  0.00  0.00    +0.015 A 
ATOM     12  O   LIG    1       25.852 -13.286   5.720  0.00  0.00    -0.422 OA
BRANCH   5  13
ATOM     13  O   LIG    1       26.732 -14.530   1.812  0.00  0.00    -0.505 OA
ATOM     14  H   LIG    1       25.964 -14.869   1.305  0.00  0.00    +0.292 HD
ENDBRANCH   5  13
ENDBRANCH   1   4
BRANCH   1  15
ATOM     15  C   LIG    1       24.115 -16.798   3.551  0.00  0.00    +0.084 C 
ATOM     16  C   LIG    1       25.371 -17.545   3.288  0.00  0.00    +0.344 C 
ATOM     17  O   LIG    1       26.376 -16.951   2.905  0.00  0.00    -0.245 OA
ATOM     18  O   LIG    1       25.366 -18.917   3.461  0.00  0.00    -0.422 OA
ATOM     19  C   LIG    1       24.297 -19.549   4.113  0.00  0.00    +0.143 A 
ATOM     20  C   LIG    1       23.169 -18.834   4.498  0.00  0.00    +0.059 A 
ATOM     21  C   LIG    1       22.176 -19.507   5.221  0.00  0.00    +0.015 A 
ATOM     22  C   LIG    1       22.316 -20.866   5.525  0.00  0.00    +0.001 A 
ATOM     23  C   LIG    1       23.442 -21.569   5.097  0.00  0.00    +0.004 A 
ATOM     24  C   LIG    1       24.441 -20.909   4.387  0.00  0.00    +0.047 A 
ATOM     25  C   LIG    1       23.073 -17.421   4.129  0.00  0.00    +0.138 C 
BRANCH  25  26
ATOM     26  O   LIG    1       21.857 -16.833   4.409  0.00  0.00    -0.505 OA
ATOM     27  H   LIG    1       21.654 -16.104   3.784  0.00  0.00    +0.292 HD
ENDBRANCH  25  26
ENDBRANCH   1  15
TORSDOF 4
ENDMDL
