MODEL 1
REMARK VINA RESULT:      -5.6      0.000      0.000
REMARK  Name = *****
REMARK                            x       y       z     vdW  Elec       q    Type
REMARK                         _______ _______ _______ _____ _____    ______ ____
ROOT
ATOM      1  C   LIG    1       21.500 -20.862   4.307  0.00  0.00    +0.027 C 
ATOM      2  C   LIG    1       22.772 -20.110   4.732  0.00  0.00    +0.083 C 
ENDROOT
BRANCH   2   3
ATOM      3  N   LIG    1       22.435 -18.716   5.159  0.00  0.00    -0.310 NA
ATOM      4  H   LIG    1       21.427 -18.685   5.334  0.00  0.00    +0.122 HD
BRANCH   3   5
ATOM      5  C   LIG    1       22.779 -17.704   4.155  0.00  0.00    +0.086 C 
BRANCH   5   6
ATOM      6  C   LIG    1       22.712 -16.252   4.662  0.00  0.00    +0.050 C 
BRANCH   6   7
ATOM      7  C   LIG    1       23.904 -15.459   4.149  0.00  0.00    -0.046 A 
ATOM      8  C   LIG    1       23.839 -14.064   4.030  0.00  0.00    +0.007 A 
ATOM      9  C   LIG    1       24.921 -13.349   3.507  0.00  0.00    +0.045 A 
ATOM     10  C   LIG    1       26.067 -14.023   3.102  0.00  0.00    +0.117 A 
ATOM     11  C   LIG    1       26.158 -15.403   3.221  0.00  0.00    +0.045 A 
ATOM     12  C   LIG    1       25.082 -16.116   3.755  0.00  0.00    +0.007 A 
BRANCH  10  13
ATOM     13  O   LIG    1       27.091 -13.286   2.581  0.00  0.00    -0.507 OA
ATOM     14  H   LIG    1       26.788 -12.372   2.472  0.00  0.00    +0.292 HD
ENDBRANCH  10  13
ENDBRANCH   6   7
ENDBRANCH   5   6
ENDBRANCH   3   5
ENDBRANCH   2   3
BRANCH   2  15
ATOM     15  C   LIG    1       23.625 -20.939   5.758  0.00  0.00    +0.161 C 
BRANCH  15  16
ATOM     16  C   LIG    1       25.088 -20.524   5.834  0.00  0.00    -0.018 A 
ATOM     17  C   LIG    1       25.742 -19.934   4.737  0.00  0.00    +0.010 A 
ATOM     18  C   LIG    1       27.114 -19.664   4.797  0.00  0.00    +0.046 A 
ATOM     19  C   LIG    1       27.831 -19.959   5.944  0.00  0.00    +0.117 A 
ATOM     20  C   LIG    1       27.199 -20.497   7.061  0.00  0.00    +0.046 A 
ATOM     21  C   LIG    1       25.829 -20.775   7.000  0.00  0.00    +0.010 A 
BRANCH  19  22
ATOM     22  O   LIG    1       29.175 -19.716   5.942  0.00  0.00    -0.507 OA
ATOM     23  H   LIG    1       29.558 -20.062   6.761  0.00  0.00    +0.292 HD
ENDBRANCH  19  22
ENDBRANCH  15  16
BRANCH  15  24
ATOM     24  O   LIG    1       23.037 -20.847   7.062  0.00  0.00    -0.386 OA
ATOM     25  H   LIG    1       22.079 -20.733   6.933  0.00  0.00    +0.210 HD
ENDBRANCH  15  24
ENDBRANCH   2  15
TORSDOF 9
ENDMDL
MODEL 2
REMARK VINA RESULT:      -5.5      0.257      1.510
REMARK  Name = *****
REMARK                            x       y       z     vdW  Elec       q    Type
REMARK                         _______ _______ _______ _____ _____    ______ ____
ROOT
ATOM      1  C   LIG    1       21.481 -20.596   4.148  0.00  0.00    +0.027 C 
ATOM      2  C   LIG    1       22.743 -19.897   4.675  0.00  0.00    +0.083 C 
ENDROOT
BRANCH   2   3
ATOM      3  N   LIG    1       22.432 -18.485   5.066  0.00  0.00    -0.310 NA
ATOM      4  H   LIG    1       21.419 -18.421   5.197  0.00  0.00    +0.122 HD
BRANCH   3   5
ATOM      5  C   LIG    1       22.850 -17.501   4.062  0.00  0.00    +0.086 C 
BRANCH   5   6
ATOM      6  C   LIG    1       22.796 -16.039   4.540  0.00  0.00    +0.050 C 
BRANCH   6   7
ATOM      7  C   LIG    1       24.020 -15.280   4.054  0.00  0.00    -0.046 A 
ATOM      8  C   LIG    1       25.182 -15.963   3.672  0.00  0.00    +0.007 A 
ATOM      9  C   LIG    1       26.321 -15.254   3.276  0.00  0.00    +0.045 A 
ATOM     10  C   LIG    1       26.301 -13.865   3.261  0.00  0.00    +0.117 A 
ATOM     11  C   LIG    1       25.158 -13.166   3.623  0.00  0.00    +0.045 A 
ATOM     12  C   LIG    1       24.017 -13.875   4.006  0.00  0.00    +0.007 A 
BRANCH  10  13
ATOM     13  O   LIG    1       27.441 -13.214   2.884  0.00  0.00    -0.507 OA
ATOM     14  H   LIG    1       27.595 -12.481   3.501  0.00  0.00    +0.292 HD
ENDBRANCH  10  13
ENDBRANCH   6   7
ENDBRANCH   5   6
ENDBRANCH   3   5
ENDBRANCH   2   3
BRANCH   2  15
ATOM     15  C   LIG    1       23.471 -20.753   5.773  0.00  0.00    +0.161 C 
BRANCH  15  16
ATOM     16  C   LIG    1       24.981 -20.564   5.814  0.00  0.00    -0.018 A 
ATOM     17  C   LIG    1       25.743 -20.978   6.922  0.00  0.00    +0.010 A 
ATOM     18  C   LIG    1       27.111 -20.693   6.981  0.00  0.00    +0.046 A 
ATOM     19  C   LIG    1       27.727 -20.017   5.941  0.00  0.00    +0.117 A 
ATOM     20  C   LIG    1       27.006 -19.641   4.811  0.00  0.00    +0.046 A 
ATOM     21  C   LIG    1       25.637 -19.918   4.754  0.00  0.00    +0.010 A 
BRANCH  19  22
ATOM     22  O   LIG    1       29.056 -19.725   6.061  0.00  0.00    -0.507 OA
ATOM     23  H   LIG    1       29.325 -19.862   6.982  0.00  0.00    +0.292 HD
ENDBRANCH  19  22
ENDBRANCH  15  16
BRANCH  15  24
ATOM     24  O   LIG    1       22.919 -20.456   7.062  0.00  0.00    -0.386 OA
ATOM     25  H   LIG    1       23.479 -19.764   7.458  0.00  0.00    +0.210 HD
ENDBRANCH  15  24
ENDBRANCH   2  15
TORSDOF 9
ENDMDL
MODEL 3
REMARK VINA RESULT:      -5.1      2.116      6.346
REMARK  Name = *****
REMARK                            x       y       z     vdW  Elec       q    Type
REMARK                         _______ _______ _______ _____ _____    ______ ____
ROOT
ATOM      1  C   LIG    1       23.142 -14.290   3.485  0.00  0.00    +0.027 C 
ATOM      2  C   LIG    1       24.226 -15.173   4.122  0.00  0.00    +0.083 C 
ENDROOT
BRANCH   2   3
ATOM      3  N   LIG    1       23.678 -16.532   4.428  0.00  0.00    -0.310 NA
ATOM      4  H   LIG    1       24.209 -17.208   3.871  0.00  0.00    +0.122 HD
BRANCH   3   5
ATOM      5  C   LIG    1       22.252 -16.666   4.113  0.00  0.00    +0.086 C 
BRANCH   5   6
ATOM      6  C   LIG    1       21.743 -18.118   4.060  0.00  0.00    +0.050 C 
BRANCH   6   7
ATOM      7  C   LIG    1       22.842 -19.077   4.490  0.00  0.00    -0.046 A 
ATOM      8  C   LIG    1       22.777 -19.734   5.726  0.00  0.00    +0.007 A 
ATOM      9  C   LIG    1       23.818 -20.573   6.136  0.00  0.00    +0.045 A 
ATOM     10  C   LIG    1       24.923 -20.758   5.314  0.00  0.00    +0.117 A 
ATOM     11  C   LIG    1       25.004 -20.127   4.080  0.00  0.00    +0.045 A 
ATOM     12  C   LIG    1       23.959 -19.298   3.666  0.00  0.00    +0.007 A 
BRANCH  10  13
ATOM     13  O   LIG    1       25.924 -21.572   5.762  0.00  0.00    -0.507 OA
ATOM     14  H   LIG    1       26.509 -21.777   5.017  0.00  0.00    +0.292 HD
ENDBRANCH  10  13
ENDBRANCH   6   7
ENDBRANCH   5   6
ENDBRANCH   3   5
ENDBRANCH   2   3
BRANCH   2  15
ATOM     15  C   LIG    1       25.557 -15.158   3.288  0.00  0.00    +0.161 C 
BRANCH  15  16
ATOM     16  C   LIG    1       26.648 -14.267   3.866  0.00  0.00    -0.018 A 
ATOM     17  C   LIG    1       26.599 -13.816   5.198  0.00  0.00    +0.010 A 
ATOM     18  C   LIG    1       27.554 -12.910   5.670  0.00  0.00    +0.046 A 
ATOM     19  C   LIG    1       28.566 -12.466   4.835  0.00  0.00    +0.117 A 
ATOM     20  C   LIG    1       28.667 -12.936   3.528  0.00  0.00    +0.046 A 
ATOM     21  C   LIG    1       27.707 -13.835   3.052  0.00  0.00    +0.010 A 
BRANCH  19  22
ATOM     22  O   LIG    1       29.452 -11.551   5.328  0.00  0.00    -0.507 OA
ATOM     23  H   LIG    1       29.577 -11.714   6.275  0.00  0.00    +0.292 HD
ENDBRANCH  19  22
ENDBRANCH  15  16
BRANCH  15  24
ATOM     24  O   LIG    1       26.058 -16.494   3.153  0.00  0.00    -0.386 OA
ATOM     25  H   LIG    1       25.581 -16.902   2.408  0.00  0.00    +0.210 HD
ENDBRANCH  15  24
ENDBRANCH   2  15
TORSDOF 9
ENDMDL
MODEL 4
REMARK VINA RESULT:      -5.1      1.574      2.152
REMARK  Name = *****
REMARK                            x       y       z     vdW  Elec       q    Type
REMARK                         _______ _______ _______ _____ _____    ______ ____
ROOT
ATOM      1  C   LIG    1       22.584 -18.927   3.447  0.00  0.00    +0.027 C 
ATOM      2  C   LIG    1       24.055 -19.231   3.772  0.00  0.00    +0.083 C 
ENDROOT
BRANCH   2   3
ATOM      3  N   LIG    1       24.787 -17.969   4.104  0.00  0.00    -0.310 NA
ATOM      4  H   LIG    1       24.086 -17.236   4.241  0.00  0.00    +0.122 HD
BRANCH   3   5
ATOM      5  C   LIG    1       25.722 -17.548   3.055  0.00  0.00    +0.086 C 
BRANCH   5   6
ATOM      6  C   LIG    1       26.614 -16.353   3.435  0.00  0.00    +0.050 C 
BRANCH   6   7
ATOM      7  C   LIG    1       25.829 -15.055   3.326  0.00  0.00    -0.046 A 
ATOM      8  C   LIG    1       24.570 -14.925   3.927  0.00  0.00    +0.007 A 
ATOM      9  C   LIG    1       23.833 -13.746   3.777  0.00  0.00    +0.045 A 
ATOM     10  C   LIG    1       24.350 -12.697   3.027  0.00  0.00    +0.117 A 
ATOM     11  C   LIG    1       25.600 -12.797   2.432  0.00  0.00    +0.045 A 
ATOM     12  C   LIG    1       26.341 -13.971   2.593  0.00  0.00    +0.007 A 
BRANCH  10  13
ATOM     13  O   LIG    1       23.588 -11.572   2.892  0.00  0.00    -0.507 OA
ATOM     14  H   LIG    1       22.797 -11.796   2.379  0.00  0.00    +0.292 HD
ENDBRANCH  10  13
ENDBRANCH   6   7
ENDBRANCH   5   6
ENDBRANCH   3   5
ENDBRANCH   2   3
BRANCH   2  15
ATOM     15  C   LIG    1       24.194 -20.386   4.828  0.00  0.00    +0.161 C 
BRANCH  15  16
ATOM     16  C   LIG    1       25.573 -20.489   5.464  0.00  0.00    -0.018 A 
ATOM     17  C   LIG    1       26.664 -19.743   4.980  0.00  0.00    +0.010 A 
ATOM     18  C   LIG    1       27.943 -19.939   5.512  0.00  0.00    +0.046 A 
ATOM     19  C   LIG    1       28.140 -20.856   6.530  0.00  0.00    +0.117 A 
ATOM     20  C   LIG    1       27.070 -21.570   7.062  0.00  0.00    +0.046 A 
ATOM     21  C   LIG    1       25.792 -21.381   6.526  0.00  0.00    +0.010 A 
BRANCH  19  22
ATOM     22  O   LIG    1       29.412 -21.043   6.990  0.00  0.00    -0.507 OA
ATOM     23  H   LIG    1       29.575 -21.993   7.084  0.00  0.00    +0.292 HD
ENDBRANCH  19  22
ENDBRANCH  15  16
BRANCH  15  24
ATOM     24  O   LIG    1       23.208 -20.222   5.855  0.00  0.00    -0.386 OA
ATOM     25  H   LIG    1       22.714 -21.059   5.910  0.00  0.00    +0.210 HD
ENDBRANCH  15  24
ENDBRANCH   2  15
TORSDOF 9
ENDMDL
MODEL 5
REMARK VINA RESULT:      -4.9      1.364      1.927
REMARK  Name = *****
REMARK                            x       y       z     vdW  Elec       q    Type
REMARK                         _______ _______ _______ _____ _____    ______ ____
ROOT
ATOM      1  C   LIG    1       21.793 -18.123   4.409  0.00  0.00    +0.027 C 
ATOM      2  C   LIG    1       23.113 -18.537   3.739  0.00  0.00    +0.083 C 
ENDROOT
BRANCH   2   3
ATOM      3  N   LIG    1       24.155 -17.483   3.945  0.00  0.00    -0.310 NA
ATOM      4  H   LIG    1       24.894 -17.893   4.524  0.00  0.00    +0.122 HD
BRANCH   3   5
ATOM      5  C   LIG    1       23.639 -16.280   4.607  0.00  0.00    +0.086 C 
BRANCH   5   6
ATOM      6  C   LIG    1       23.677 -15.009   3.740  0.00  0.00    +0.050 C 
BRANCH   6   7
ATOM      7  C   LIG    1       25.079 -14.419   3.730  0.00  0.00    -0.046 A 
ATOM      8  C   LIG    1       25.853 -14.430   2.562  0.00  0.00    +0.007 A 
ATOM      9  C   LIG    1       27.160 -13.934   2.576  0.00  0.00    +0.045 A 
ATOM     10  C   LIG    1       27.697 -13.428   3.753  0.00  0.00    +0.117 A 
ATOM     11  C   LIG    1       26.945 -13.396   4.920  0.00  0.00    +0.045 A 
ATOM     12  C   LIG    1       25.635 -13.880   4.902  0.00  0.00    +0.007 A 
BRANCH  10  13
ATOM     13  O   LIG    1       28.983 -12.970   3.725  0.00  0.00    -0.507 OA
ATOM     14  H   LIG    1       29.580 -13.734   3.728  0.00  0.00    +0.292 HD
ENDBRANCH  10  13
ENDBRANCH   6   7
ENDBRANCH   5   6
ENDBRANCH   3   5
ENDBRANCH   2   3
BRANCH   2  15
ATOM     15  C   LIG    1       23.541 -19.994   4.142  0.00  0.00    +0.161 C 
BRANCH  15  16
ATOM     16  C   LIG    1       24.828 -20.065   4.953  0.00  0.00    -0.018 A 
ATOM     17  C   LIG    1       26.061 -19.660   4.412  0.00  0.00    +0.010 A 
ATOM     18  C   LIG    1       27.243 -19.839   5.139  0.00  0.00    +0.046 A 
ATOM     19  C   LIG    1       27.203 -20.399   6.405  0.00  0.00    +0.117 A 
ATOM     20  C   LIG    1       25.990 -20.762   6.984  0.00  0.00    +0.046 A 
ATOM     21  C   LIG    1       24.809 -20.591   6.255  0.00  0.00    +0.010 A 
BRANCH  19  22
ATOM     22  O   LIG    1       28.385 -20.592   7.060  0.00  0.00    -0.507 OA
ATOM     23  H   LIG    1       29.115 -20.453   6.439  0.00  0.00    +0.292 HD
ENDBRANCH  19  22
ENDBRANCH  15  16
BRANCH  15  24
ATOM     24  O   LIG    1       22.483 -20.624   4.875  0.00  0.00    -0.386 OA
ATOM     25  H   LIG    1       21.650 -20.217   4.576  0.00  0.00    +0.210 HD
ENDBRANCH  15  24
ENDBRANCH   2  15
TORSDOF 9
ENDMDL
MODEL 6
REMARK VINA RESULT:      -4.3      2.356      4.207
REMARK  Name = *****
REMARK                            x       y       z     vdW  Elec       q    Type
REMARK                         _______ _______ _______ _____ _____    ______ ____
ROOT
ATOM      1  C   LIG    1       25.560 -17.567   3.398  0.00  0.00    +0.027 C 
ATOM      2  C   LIG    1       26.868 -18.268   3.796  0.00  0.00    +0.083 C 
ENDROOT
BRANCH   2   3
ATOM      3  N   LIG    1       27.949 -17.259   4.032  0.00  0.00    -0.310 NA
ATOM      4  H   LIG    1       28.562 -17.634   4.762  0.00  0.00    +0.122 HD
BRANCH   3   5
ATOM      5  C   LIG    1       27.438 -15.952   4.459  0.00  0.00    +0.086 C 
BRANCH   5   6
ATOM      6  C   LIG    1       27.687 -14.811   3.456  0.00  0.00    +0.050 C 
BRANCH   6   7
ATOM      7  C   LIG    1       26.491 -13.874   3.418  0.00  0.00    -0.046 A 
ATOM      8  C   LIG    1       25.724 -13.642   4.568  0.00  0.00    +0.007 A 
ATOM      9  C   LIG    1       24.594 -12.820   4.510  0.00  0.00    +0.045 A 
ATOM     10  C   LIG    1       24.229 -12.228   3.307  0.00  0.00    +0.117 A 
ATOM     11  C   LIG    1       24.979 -12.432   2.158  0.00  0.00    +0.045 A 
ATOM     12  C   LIG    1       26.115 -13.244   2.219  0.00  0.00    +0.007 A 
BRANCH  10  13
ATOM     13  O   LIG    1       23.109 -11.447   3.294  0.00  0.00    -0.507 OA
ATOM     14  H   LIG    1       22.404 -11.928   2.834  0.00  0.00    +0.292 HD
ENDBRANCH  10  13
ENDBRANCH   6   7
ENDBRANCH   5   6
ENDBRANCH   3   5
ENDBRANCH   2   3
BRANCH   2  15
ATOM     15  C   LIG    1       26.648 -19.301   4.959  0.00  0.00    +0.161 C 
BRANCH  15  16
ATOM     16  C   LIG    1       25.293 -19.994   4.932  0.00  0.00    -0.018 A 
ATOM     17  C   LIG    1       24.712 -20.426   3.726  0.00  0.00    +0.010 A 
ATOM     18  C   LIG    1       23.419 -20.960   3.718  0.00  0.00    +0.046 A 
ATOM     19  C   LIG    1       22.710 -21.083   4.901  0.00  0.00    +0.117 A 
ATOM     20  C   LIG    1       23.280 -20.710   6.115  0.00  0.00    +0.046 A 
ATOM     21  C   LIG    1       24.570 -20.169   6.123  0.00  0.00    +0.010 A 
BRANCH  19  22
ATOM     22  O   LIG    1       21.436 -21.572   4.839  0.00  0.00    -0.507 OA
ATOM     23  H   LIG    1       21.445 -22.411   4.356  0.00  0.00    +0.292 HD
ENDBRANCH  19  22
ENDBRANCH  15  16
BRANCH  15  24
ATOM     24  O   LIG    1       27.687 -20.288   4.932  0.00  0.00    -0.386 OA
ATOM     25  H   LIG    1       28.155 -20.184   4.084  0.00  0.00    +0.210 HD
ENDBRANCH  15  24
ENDBRANCH   2  15
TORSDOF 9
ENDMDL
MODEL 7
REMARK VINA RESULT:      -3.6      2.230      5.900
REMARK  Name = *****
REMARK                            x       y       z     vdW  Elec       q    Type
REMARK                         _______ _______ _______ _____ _____    ______ ____
ROOT
ATOM      1  C   LIG    1       23.535 -11.902   4.079  0.00  0.00    +0.027 C 
ATOM      2  C   LIG    1       24.184 -13.294   4.083  0.00  0.00    +0.083 C 
ENDROOT
BRANCH   2   3
ATOM      3  N   LIG    1       23.170 -14.343   3.747  0.00  0.00    -0.310 NA
ATOM      4  H   LIG    1       22.257 -13.883   3.705  0.00  0.00    +0.122 HD
BRANCH   3   5
ATOM      5  C   LIG    1       23.115 -15.430   4.731  0.00  0.00    +0.086 C 
BRANCH   5   6
ATOM      6  C   LIG    1       22.097 -16.537   4.402  0.00  0.00    +0.050 C 
BRANCH   6   7
ATOM      7  C   LIG    1       22.771 -17.899   4.433  0.00  0.00    -0.046 A 
ATOM      8  C   LIG    1       22.378 -18.873   5.362  0.00  0.00    +0.007 A 
ATOM      9  C   LIG    1       23.041 -20.104   5.417  0.00  0.00    +0.045 A 
ATOM     10  C   LIG    1       24.093 -20.364   4.548  0.00  0.00    +0.117 A 
ATOM     11  C   LIG    1       24.492 -19.420   3.612  0.00  0.00    +0.045 A 
ATOM     12  C   LIG    1       23.823 -18.196   3.549  0.00  0.00    +0.007 A 
BRANCH  10  13
ATOM     13  O   LIG    1       24.722 -21.572   4.651  0.00  0.00    -0.507 OA
ATOM     14  H   LIG    1       24.506 -21.958   5.513  0.00  0.00    +0.292 HD
ENDBRANCH  10  13
ENDBRANCH   6   7
ENDBRANCH   5   6
ENDBRANCH   3   5
ENDBRANCH   2   3
BRANCH   2  15
ATOM     15  C   LIG    1       25.497 -13.330   3.221  0.00  0.00    +0.161 C 
BRANCH  15  16
ATOM     16  C   LIG    1       26.415 -14.505   3.528  0.00  0.00    -0.018 A 
ATOM     17  C   LIG    1       26.129 -15.802   3.065  0.00  0.00    +0.010 A 
ATOM     18  C   LIG    1       26.930 -16.881   3.454  0.00  0.00    +0.046 A 
ATOM     19  C   LIG    1       28.021 -16.676   4.282  0.00  0.00    +0.117 A 
ATOM     20  C   LIG    1       28.356 -15.395   4.713  0.00  0.00    +0.046 A 
ATOM     21  C   LIG    1       27.551 -14.316   4.332  0.00  0.00    +0.010 A 
BRANCH  19  22
ATOM     22  O   LIG    1       28.749 -17.764   4.668  0.00  0.00    -0.507 OA
ATOM     23  H   LIG    1       29.077 -17.619   5.568  0.00  0.00    +0.292 HD
ENDBRANCH  19  22
ENDBRANCH  15  16
BRANCH  15  24
ATOM     24  O   LIG    1       25.160 -13.342   1.828  0.00  0.00    -0.386 OA
ATOM     25  H   LIG    1       25.990 -13.475   1.336  0.00  0.00    +0.210 HD
ENDBRANCH  15  24
ENDBRANCH   2  15
TORSDOF 9
ENDMDL
MODEL 8
REMARK VINA RESULT:      -3.6      1.832      5.978
REMARK  Name = *****
REMARK                            x       y       z     vdW  Elec       q    Type
REMARK                         _______ _______ _______ _____ _____    ______ ____
ROOT
ATOM      1  C   LIG    1       22.991 -16.852   4.558  0.00  0.00    +0.027 C 
ATOM      2  C   LIG    1       24.001 -17.862   3.989  0.00  0.00    +0.083 C 
ENDROOT
BRANCH   2   3
ATOM      3  N   LIG    1       23.288 -19.054   3.432  0.00  0.00    -0.310 NA
ATOM      4  H   LIG    1       22.283 -18.877   3.517  0.00  0.00    +0.122 HD
BRANCH   3   5
ATOM      5  C   LIG    1       23.616 -20.303   4.128  0.00  0.00    +0.086 C 
BRANCH   5   6
ATOM      6  C   LIG    1       23.954 -20.132   5.620  0.00  0.00    +0.050 C 
BRANCH   6   7
ATOM      7  C   LIG    1       25.429 -20.409   5.861  0.00  0.00    -0.046 A 
ATOM      8  C   LIG    1       25.835 -21.358   6.810  0.00  0.00    +0.007 A 
ATOM      9  C   LIG    1       27.194 -21.568   7.062  0.00  0.00    +0.045 A 
ATOM     10  C   LIG    1       28.149 -20.834   6.369  0.00  0.00    +0.117 A 
ATOM     11  C   LIG    1       27.772 -19.898   5.416  0.00  0.00    +0.045 A 
ATOM     12  C   LIG    1       26.415 -19.697   5.156  0.00  0.00    +0.007 A 
BRANCH  10  13
ATOM     13  O   LIG    1       29.464 -21.060   6.660  0.00  0.00    -0.507 OA
ATOM     14  H   LIG    1       30.003 -20.436   6.151  0.00  0.00    +0.292 HD
ENDBRANCH  10  13
ENDBRANCH   6   7
ENDBRANCH   5   6
ENDBRANCH   3   5
ENDBRANCH   2   3
BRANCH   2  15
ATOM     15  C   LIG    1       25.028 -17.178   3.017  0.00  0.00    +0.161 C 
BRANCH  15  16
ATOM     16  C   LIG    1       25.672 -15.916   3.574  0.00  0.00    -0.018 A 
ATOM     17  C   LIG    1       27.066 -15.811   3.732  0.00  0.00    +0.010 A 
ATOM     18  C   LIG    1       27.622 -14.684   4.348  0.00  0.00    +0.046 A 
ATOM     19  C   LIG    1       26.804 -13.657   4.788  0.00  0.00    +0.117 A 
ATOM     20  C   LIG    1       25.426 -13.713   4.598  0.00  0.00    +0.046 A 
ATOM     21  C   LIG    1       24.868 -14.843   3.990  0.00  0.00    +0.010 A 
BRANCH  19  22
ATOM     22  O   LIG    1       27.387 -12.596   5.419  0.00  0.00    -0.507 OA
ATOM     23  H   LIG    1       26.694 -11.994   5.728  0.00  0.00    +0.292 HD
ENDBRANCH  19  22
ENDBRANCH  15  16
BRANCH  15  24
ATOM     24  O   LIG    1       26.051 -18.115   2.659  0.00  0.00    -0.386 OA
ATOM     25  H   LIG    1       26.843 -17.882   3.174  0.00  0.00    +0.210 HD
ENDBRANCH  15  24
ENDBRANCH   2  15
TORSDOF 9
ENDMDL
MODEL 9
REMARK VINA RESULT:      -3.3      1.744      6.264
REMARK  Name = *****
REMARK                            x       y       z     vdW  Elec       q    Type
REMARK                         _______ _______ _______ _____ _____    ______ ____
ROOT
ATOM      1  C   LIG    1       25.111 -16.978   3.679  0.00  0.00    +0.027 C 
ATOM      2  C   LIG    1       23.765 -16.238   3.706  0.00  0.00    +0.083 C 
ENDROOT
BRANCH   2   3
ATOM      3  N   LIG    1       22.767 -16.998   4.522  0.00  0.00    -0.310 NA
ATOM      4  H   LIG    1       23.228 -17.266   5.396  0.00  0.00    +0.122 HD
BRANCH   3   5
ATOM      5  C   LIG    1       22.271 -18.206   3.852  0.00  0.00    +0.086 C 
BRANCH   5   6
ATOM      6  C   LIG    1       21.977 -19.385   4.797  0.00  0.00    +0.050 C 
BRANCH   6   7
ATOM      7  C   LIG    1       23.276 -20.012   5.277  0.00  0.00    -0.046 A 
ATOM      8  C   LIG    1       23.441 -20.380   6.619  0.00  0.00    +0.007 A 
ATOM      9  C   LIG    1       24.658 -20.908   7.062  0.00  0.00    +0.045 A 
ATOM     10  C   LIG    1       25.710 -21.070   6.168  0.00  0.00    +0.117 A 
ATOM     11  C   LIG    1       25.566 -20.723   4.832  0.00  0.00    +0.045 A 
ATOM     12  C   LIG    1       24.346 -20.208   4.387  0.00  0.00    +0.007 A 
BRANCH  10  13
ATOM     13  O   LIG    1       26.885 -21.572   6.648  0.00  0.00    -0.507 OA
ATOM     14  H   LIG    1       27.328 -20.879   7.162  0.00  0.00    +0.292 HD
ENDBRANCH  10  13
ENDBRANCH   6   7
ENDBRANCH   5   6
ENDBRANCH   3   5
ENDBRANCH   2   3
BRANCH   2  15
ATOM     15  C   LIG    1       23.937 -14.725   4.095  0.00  0.00    +0.161 C 
BRANCH  15  16
ATOM     16  C   LIG    1       25.353 -14.193   3.925  0.00  0.00    -0.018 A 
ATOM     17  C   LIG    1       25.993 -14.193   2.672  0.00  0.00    +0.010 A 
ATOM     18  C   LIG    1       27.332 -13.801   2.565  0.00  0.00    +0.046 A 
ATOM     19  C   LIG    1       28.029 -13.392   3.689  0.00  0.00    +0.117 A 
ATOM     20  C   LIG    1       27.405 -13.335   4.932  0.00  0.00    +0.046 A 
ATOM     21  C   LIG    1       26.069 -13.734   5.042  0.00  0.00    +0.010 A 
BRANCH  19  22
ATOM     22  O   LIG    1       29.345 -13.058   3.543  0.00  0.00    -0.507 OA
ATOM     23  H   LIG    1       29.804 -13.781   3.090  0.00  0.00    +0.292 HD
ENDBRANCH  19  22
ENDBRANCH  15  16
BRANCH  15  24
ATOM     24  O   LIG    1       23.032 -13.923   3.326  0.00  0.00    -0.386 OA
ATOM     25  H   LIG    1       23.193 -14.132   2.388  0.00  0.00    +0.210 HD
ENDBRANCH  15  24
ENDBRANCH   2  15
TORSDOF 9
ENDMDL
