MODEL 1
REMARK VINA RESULT:      -5.1      0.000      0.000
REMARK  Name = *****
REMARK                            x       y       z     vdW  Elec       q    Type
REMARK                         _______ _______ _______ _____ _____    ______ ____
ROOT
ATOM      1  C   LIG    1       26.133 -17.500   3.286  0.00  0.00    +0.197 C 
ENDROOT
BRANCH   1   2
ATOM      2  C   LIG    1       24.939 -18.412   3.558  0.00  0.00    -0.013 A 
ATOM      3  C   LIG    1       23.734 -17.893   4.066  0.00  0.00    +0.008 A 
ATOM      4  C   LIG    1       22.712 -18.746   4.479  0.00  0.00    +0.020 A 
ATOM      5  C   LIG    1       22.856 -20.121   4.328  0.00  0.00    +0.041 A 
ATOM      6 CL   LIG    1       21.614 -21.174   4.883  0.00  0.00    -0.084 Cl
ATOM      7  C   LIG    1       24.005 -20.650   3.743  0.00  0.00    +0.020 A 
ATOM      8  C   LIG    1       25.044 -19.797   3.360  0.00  0.00    +0.008 A 
ENDBRANCH   1   2
BRANCH   1   9
ATOM      9  C   LIG    1       25.739 -16.016   3.311  0.00  0.00    +0.074 A 
ATOM     10  N   LIG    1       26.475 -15.146   2.562  0.00  0.00    -0.257 NA
ATOM     11  C   LIG    1       26.098 -13.845   2.562  0.00  0.00    +0.111 A 
ATOM     12  C   LIG    1       25.016 -13.356   3.278  0.00  0.00    +0.020 A 
ATOM     13  C   LIG    1       24.280 -14.243   4.042  0.00  0.00    +0.003 A 
ATOM     14  C   LIG    1       24.636 -15.591   4.061  0.00  0.00    +0.026 A 
ENDBRANCH   1   9
BRANCH   1  15
ATOM     15  O   LIG    1       27.217 -17.749   4.214  0.00  0.00    -0.365 OA
BRANCH  15  16
ATOM     16  C   LIG    1       27.266 -19.096   4.710  0.00  0.00    +0.176 C 
BRANCH  16  17
ATOM     17  C   LIG    1       28.439 -19.222   5.702  0.00  0.00    +0.112 C 
BRANCH  17  19
ATOM     18  C   LIG    1       26.748 -20.424   6.988  0.00  0.00    +0.104 C 
ATOM     19  N   LIG    1       28.137 -19.969   6.942  0.00  0.00    -0.306 NA
ATOM     20  C   LIG    1       29.035 -21.123   7.062  0.00  0.00    +0.104 C 
ENDBRANCH  17  19
ENDBRANCH  16  17
ENDBRANCH  15  16
ENDBRANCH   1  15
TORSDOF 6
ENDMDL
MODEL 2
REMARK VINA RESULT:      -4.8      2.771      5.289
REMARK  Name = *****
REMARK                            x       y       z     vdW  Elec       q    Type
REMARK                         _______ _______ _______ _____ _____    ______ ____
ROOT
ATOM      1  C   LIG    1       25.756 -18.165   3.441  0.00  0.00    +0.197 C 
ENDROOT
BRANCH   1   2
ATOM      2  C   LIG    1       25.424 -16.679   3.555  0.00  0.00    -0.013 A 
ATOM      3  C   LIG    1       26.404 -15.698   3.316  0.00  0.00    +0.008 A 
ATOM      4  C   LIG    1       26.147 -14.356   3.592  0.00  0.00    +0.020 A 
ATOM      5  C   LIG    1       24.890 -13.972   4.047  0.00  0.00    +0.041 A 
ATOM      6 CL   LIG    1       24.591 -12.323   4.434  0.00  0.00    -0.084 Cl
ATOM      7  C   LIG    1       23.878 -14.917   4.203  0.00  0.00    +0.020 A 
ATOM      8  C   LIG    1       24.144 -16.267   3.959  0.00  0.00    +0.008 A 
ENDBRANCH   1   2
BRANCH   1   9
ATOM      9  C   LIG    1       26.887 -18.574   4.395  0.00  0.00    +0.074 A 
ATOM     10  N   LIG    1       26.727 -19.717   5.123  0.00  0.00    -0.257 NA
ATOM     11  C   LIG    1       27.744 -20.089   5.936  0.00  0.00    +0.111 A 
ATOM     12  C   LIG    1       28.926 -19.377   6.068  0.00  0.00    +0.020 A 
ATOM     13  C   LIG    1       29.077 -18.215   5.334  0.00  0.00    +0.003 A 
ATOM     14  C   LIG    1       28.052 -17.804   4.482  0.00  0.00    +0.026 A 
ENDBRANCH   1   9
BRANCH   1  15
ATOM     15  O   LIG    1       24.587 -18.992   3.661  0.00  0.00    -0.365 OA
BRANCH  15  16
ATOM     16  C   LIG    1       24.627 -20.255   2.979  0.00  0.00    +0.176 C 
BRANCH  16  17
ATOM     17  C   LIG    1       24.101 -21.352   3.926  0.00  0.00    +0.112 C 
BRANCH  17  19
ATOM     18  C   LIG    1       21.923 -21.022   4.977  0.00  0.00    +0.104 C 
ATOM     19  N   LIG    1       23.371 -20.861   5.114  0.00  0.00    -0.306 NA
ATOM     20  C   LIG    1       23.831 -21.572   6.312  0.00  0.00    +0.104 C 
ENDBRANCH  17  19
ENDBRANCH  16  17
ENDBRANCH  15  16
ENDBRANCH   1  15
TORSDOF 6
ENDMDL
MODEL 3
REMARK VINA RESULT:      -4.2      0.736      1.547
REMARK  Name = *****
REMARK                            x       y       z     vdW  Elec       q    Type
REMARK                         _______ _______ _______ _____ _____    ______ ____
ROOT
ATOM      1  C   LIG    1       25.920 -17.445   3.248  0.00  0.00    +0.197 C 
ENDROOT
BRANCH   1   2
ATOM      2  C   LIG    1       24.815 -18.368   3.754  0.00  0.00    -0.013 A 
ATOM      3  C   LIG    1       25.020 -19.756   3.853  0.00  0.00    +0.008 A 
ATOM      4  C   LIG    1       23.959 -20.612   4.145  0.00  0.00    +0.020 A 
ATOM      5  C   LIG    1       22.698 -20.086   4.405  0.00  0.00    +0.041 A 
ATOM      6 CL   LIG    1       21.380 -21.146   4.716  0.00  0.00    -0.084 Cl
ATOM      7  C   LIG    1       22.494 -18.707   4.401  0.00  0.00    +0.020 A 
ATOM      8  C   LIG    1       23.550 -17.850   4.076  0.00  0.00    +0.008 A 
ENDBRANCH   1   2
BRANCH   1   9
ATOM      9  C   LIG    1       25.540 -15.964   3.390  0.00  0.00    +0.074 A 
ATOM     10  N   LIG    1       24.339 -15.665   3.963  0.00  0.00    -0.257 NA
ATOM     11  C   LIG    1       24.027 -14.356   4.117  0.00  0.00    +0.111 A 
ATOM     12  C   LIG    1       24.854 -13.315   3.724  0.00  0.00    +0.020 A 
ATOM     13  C   LIG    1       26.066 -13.626   3.136  0.00  0.00    +0.003 A 
ATOM     14  C   LIG    1       26.423 -14.963   2.967  0.00  0.00    +0.026 A 
ENDBRANCH   1   9
BRANCH   1  15
ATOM     15  O   LIG    1       27.181 -17.706   3.914  0.00  0.00    -0.365 OA
BRANCH  15  16
ATOM     16  C   LIG    1       27.246 -18.987   4.561  0.00  0.00    +0.176 C 
BRANCH  16  17
ATOM     17  C   LIG    1       28.464 -19.010   5.505  0.00  0.00    +0.112 C 
BRANCH  17  19
ATOM     18  C   LIG    1       27.109 -20.651   6.699  0.00  0.00    +0.104 C 
ATOM     19  N   LIG    1       28.276 -19.771   6.758  0.00  0.00    -0.306 NA
ATOM     20  C   LIG    1       29.475 -20.567   7.044  0.00  0.00    +0.104 C 
ENDBRANCH  17  19
ENDBRANCH  16  17
ENDBRANCH  15  16
ENDBRANCH   1  15
TORSDOF 6
ENDMDL
MODEL 4
REMARK VINA RESULT:      -4.1      2.593      3.684
REMARK  Name = *****
REMARK                            x       y       z     vdW  Elec       q    Type
REMARK                         _______ _______ _______ _____ _____    ______ ____
ROOT
ATOM      1  C   LIG    1       25.964 -16.437   3.206  0.00  0.00    +0.197 C 
ENDROOT
BRANCH   1   2
ATOM      2  C   LIG    1       24.956 -17.537   3.529  0.00  0.00    -0.013 A 
ATOM      3  C   LIG    1       23.624 -17.225   3.854  0.00  0.00    +0.008 A 
ATOM      4  C   LIG    1       22.756 -18.212   4.319  0.00  0.00    +0.020 A 
ATOM      5  C   LIG    1       23.190 -19.531   4.402  0.00  0.00    +0.041 A 
ATOM      6 CL   LIG    1       22.134 -20.739   5.022  0.00  0.00    -0.084 Cl
ATOM      7  C   LIG    1       24.479 -19.876   3.998  0.00  0.00    +0.020 A 
ATOM      8  C   LIG    1       25.360 -18.881   3.563  0.00  0.00    +0.008 A 
ENDBRANCH   1   2
BRANCH   1   9
ATOM      9  C   LIG    1       25.308 -15.049   3.180  0.00  0.00    +0.074 A 
ATOM     10  N   LIG    1       25.522 -14.261   2.087  0.00  0.00    -0.257 NA
ATOM     11  C   LIG    1       24.911 -13.053   2.056  0.00  0.00    +0.111 A 
ATOM     12  C   LIG    1       24.089 -12.579   3.067  0.00  0.00    +0.020 A 
ATOM     13  C   LIG    1       23.884 -13.380   4.175  0.00  0.00    +0.003 A 
ATOM     14  C   LIG    1       24.493 -14.632   4.239  0.00  0.00    +0.026 A 
ENDBRANCH   1   9
BRANCH   1  15
ATOM     15  O   LIG    1       27.082 -16.448   4.129  0.00  0.00    -0.365 OA
BRANCH  15  16
ATOM     16  C   LIG    1       28.003 -15.362   3.945  0.00  0.00    +0.176 C 
BRANCH  16  17
ATOM     17  C   LIG    1       27.685 -14.257   4.971  0.00  0.00    +0.112 C 
BRANCH  17  19
ATOM     18  C   LIG    1       28.800 -12.133   5.426  0.00  0.00    +0.104 C 
ATOM     19  N   LIG    1       27.937 -12.876   4.507  0.00  0.00    -0.306 NA
ATOM     20  C   LIG    1       28.548 -12.900   3.173  0.00  0.00    +0.104 C 
ENDBRANCH  17  19
ENDBRANCH  16  17
ENDBRANCH  15  16
ENDBRANCH   1  15
TORSDOF 6
ENDMDL
MODEL 5
REMARK VINA RESULT:      -3.5      2.861      4.275
REMARK  Name = *****
REMARK                            x       y       z     vdW  Elec       q    Type
REMARK                         _______ _______ _______ _____ _____    ______ ____
ROOT
ATOM      1  C   LIG    1       25.274 -15.692   3.146  0.00  0.00    +0.197 C 
ENDROOT
BRANCH   1   2
ATOM      2  C   LIG    1       24.413 -16.832   3.686  0.00  0.00    -0.013 A 
ATOM      3  C   LIG    1       24.848 -18.167   3.607  0.00  0.00    +0.008 A 
ATOM      4  C   LIG    1       23.990 -19.215   3.937  0.00  0.00    +0.020 A 
ATOM      5  C   LIG    1       22.712 -18.938   4.411  0.00  0.00    +0.041 A 
ATOM      6 CL   LIG    1       21.637 -20.232   4.771  0.00  0.00    -0.084 Cl
ATOM      7  C   LIG    1       22.294 -17.620   4.583  0.00  0.00    +0.020 A 
ATOM      8  C   LIG    1       23.142 -16.569   4.221  0.00  0.00    +0.008 A 
ENDBRANCH   1   2
BRANCH   1   9
ATOM      9  C   LIG    1       24.746 -14.319   3.585  0.00  0.00    +0.074 A 
ATOM     10  N   LIG    1       24.870 -13.977   4.900  0.00  0.00    -0.257 NA
ATOM     11  C   LIG    1       24.435 -12.750   5.272  0.00  0.00    +0.111 A 
ATOM     12  C   LIG    1       23.874 -11.832   4.397  0.00  0.00    +0.020 A 
ATOM     13  C   LIG    1       23.745 -12.189   3.068  0.00  0.00    +0.003 A 
ATOM     14  C   LIG    1       24.187 -13.443   2.648  0.00  0.00    +0.026 A 
ENDBRANCH   1   9
BRANCH   1  15
ATOM     15  O   LIG    1       26.663 -15.844   3.529  0.00  0.00    -0.365 OA
BRANCH  15  16
ATOM     16  C   LIG    1       27.531 -14.832   2.996  0.00  0.00    +0.176 C 
BRANCH  16  17
ATOM     17  C   LIG    1       28.359 -14.226   4.146  0.00  0.00    +0.112 C 
BRANCH  17  19
ATOM     18  C   LIG    1       27.806 -12.107   3.068  0.00  0.00    +0.104 C 
ATOM     19  N   LIG    1       28.714 -12.800   3.982  0.00  0.00    -0.306 NA
ATOM     20  C   LIG    1       28.700 -12.129   5.287  0.00  0.00    +0.104 C 
ENDBRANCH  17  19
ENDBRANCH  16  17
ENDBRANCH  15  16
ENDBRANCH   1  15
TORSDOF 6
ENDMDL
MODEL 6
REMARK VINA RESULT:      -3.4      2.684      4.823
REMARK  Name = *****
REMARK                            x       y       z     vdW  Elec       q    Type
REMARK                         _______ _______ _______ _____ _____    ______ ____
ROOT
ATOM      1  C   LIG    1       26.217 -16.968   4.145  0.00  0.00    +0.197 C 
ENDROOT
BRANCH   1   2
ATOM      2  C   LIG    1       25.810 -15.636   3.520  0.00  0.00    -0.013 A 
ATOM      3  C   LIG    1       26.711 -14.904   2.726  0.00  0.00    +0.008 A 
ATOM      4  C   LIG    1       26.400 -13.612   2.306  0.00  0.00    +0.020 A 
ATOM      5  C   LIG    1       25.160 -13.063   2.618  0.00  0.00    +0.041 A 
ATOM      6 CL   LIG    1       24.797 -11.451   2.141  0.00  0.00    -0.084 Cl
ATOM      7  C   LIG    1       24.218 -13.807   3.326  0.00  0.00    +0.020 A 
ATOM      8  C   LIG    1       24.542 -15.090   3.777  0.00  0.00    +0.008 A 
ENDBRANCH   1   2
BRANCH   1   9
ATOM      9  C   LIG    1       25.216 -18.085   3.815  0.00  0.00    +0.074 A 
ATOM     10  N   LIG    1       25.704 -19.248   3.295  0.00  0.00    -0.257 NA
ATOM     11  C   LIG    1       24.818 -20.240   3.041  0.00  0.00    +0.111 A 
ATOM     12  C   LIG    1       23.456 -20.138   3.277  0.00  0.00    +0.020 A 
ATOM     13  C   LIG    1       22.968 -18.953   3.796  0.00  0.00    +0.003 A 
ATOM     14  C   LIG    1       23.852 -17.911   4.075  0.00  0.00    +0.026 A 
ENDBRANCH   1   9
BRANCH   1  15
ATOM     15  O   LIG    1       27.555 -17.358   3.747  0.00  0.00    -0.365 OA
BRANCH  15  16
ATOM     16  C   LIG    1       28.492 -17.423   4.833  0.00  0.00    +0.176 C 
BRANCH  16  17
ATOM     17  C   LIG    1       28.877 -18.897   5.075  0.00  0.00    +0.112 C 
BRANCH  17  19
ATOM     18  C   LIG    1       27.172 -20.170   6.271  0.00  0.00    +0.104 C 
ATOM     19  N   LIG    1       28.444 -19.455   6.374  0.00  0.00    -0.306 NA
ATOM     20  C   LIG    1       29.474 -20.360   6.896  0.00  0.00    +0.104 C 
ENDBRANCH  17  19
ENDBRANCH  16  17
ENDBRANCH  15  16
ENDBRANCH   1  15
TORSDOF 6
ENDMDL
MODEL 7
REMARK VINA RESULT:      -3.2      2.755      4.801
REMARK  Name = *****
REMARK                            x       y       z     vdW  Elec       q    Type
REMARK                         _______ _______ _______ _____ _____    ______ ____
ROOT
ATOM      1  C   LIG    1       25.552 -16.925   4.097  0.00  0.00    +0.197 C 
ENDROOT
BRANCH   1   2
ATOM      2  C   LIG    1       25.309 -15.487   3.647  0.00  0.00    -0.013 A 
ATOM      3  C   LIG    1       24.146 -14.795   4.030  0.00  0.00    +0.008 A 
ATOM      4  C   LIG    1       23.843 -13.552   3.477  0.00  0.00    +0.020 A 
ATOM      5  C   LIG    1       24.731 -12.958   2.585  0.00  0.00    +0.041 A 
ATOM      6 CL   LIG    1       24.333 -11.448   1.865  0.00  0.00    -0.084 Cl
ATOM      7  C   LIG    1       25.932 -13.587   2.262  0.00  0.00    +0.020 A 
ATOM      8  C   LIG    1       26.220 -14.848   2.791  0.00  0.00    +0.008 A 
ENDBRANCH   1   2
BRANCH   1   9
ATOM      9  C   LIG    1       24.273 -17.772   4.024  0.00  0.00    +0.074 A 
ATOM     10  N   LIG    1       24.395 -19.087   3.682  0.00  0.00    -0.257 NA
ATOM     11  C   LIG    1       23.266 -19.834   3.654  0.00  0.00    +0.111 A 
ATOM     12  C   LIG    1       22.006 -19.339   3.950  0.00  0.00    +0.020 A 
ATOM     13  C   LIG    1       21.889 -18.003   4.287  0.00  0.00    +0.003 A 
ATOM     14  C   LIG    1       23.031 -17.204   4.331  0.00  0.00    +0.026 A 
ENDBRANCH   1   9
BRANCH   1  15
ATOM     15  O   LIG    1       26.614 -17.551   3.336  0.00  0.00    -0.365 OA
BRANCH  15  16
ATOM     16  C   LIG    1       27.790 -17.845   4.105  0.00  0.00    +0.176 C 
BRANCH  16  17
ATOM     17  C   LIG    1       27.488 -19.023   5.053  0.00  0.00    +0.112 C 
BRANCH  17  19
ATOM     18  C   LIG    1       29.474 -18.667   6.426  0.00  0.00    +0.104 C 
ATOM     19  N   LIG    1       28.672 -19.641   5.686  0.00  0.00    -0.306 NA
ATOM     20  C   LIG    1       28.250 -20.717   6.591  0.00  0.00    +0.104 C 
ENDBRANCH  17  19
ENDBRANCH  16  17
ENDBRANCH  15  16
ENDBRANCH   1  15
TORSDOF 6
ENDMDL
MODEL 8
REMARK VINA RESULT:      -2.6      3.003      5.639
REMARK  Name = *****
REMARK                            x       y       z     vdW  Elec       q    Type
REMARK                         _______ _______ _______ _____ _____    ______ ____
ROOT
ATOM      1  C   LIG    1       26.211 -15.150   3.548  0.00  0.00    +0.197 C 
ENDROOT
BRANCH   1   2
ATOM      2  C   LIG    1       26.668 -16.575   3.851  0.00  0.00    -0.013 A 
ATOM      3  C   LIG    1       25.829 -17.674   3.593  0.00  0.00    +0.008 A 
ATOM      4  C   LIG    1       26.176 -18.951   4.032  0.00  0.00    +0.020 A 
ATOM      5  C   LIG    1       27.393 -19.154   4.675  0.00  0.00    +0.041 A 
ATOM      6 CL   LIG    1       27.797 -20.720   5.259  0.00  0.00    -0.084 Cl
ATOM      7  C   LIG    1       28.279 -18.094   4.859  0.00  0.00    +0.020 A 
ATOM      8  C   LIG    1       27.917 -16.807   4.449  0.00  0.00    +0.008 A 
ENDBRANCH   1   2
BRANCH   1   9
ATOM      9  C   LIG    1       27.210 -14.105   4.066  0.00  0.00    +0.074 A 
ATOM     10  N   LIG    1       28.241 -13.745   3.248  0.00  0.00    -0.257 NA
ATOM     11  C   LIG    1       29.096 -12.798   3.700  0.00  0.00    +0.111 A 
ATOM     12  C   LIG    1       28.983 -12.182   4.936  0.00  0.00    +0.020 A 
ATOM     13  C   LIG    1       27.941 -12.558   5.763  0.00  0.00    +0.003 A 
ATOM     14  C   LIG    1       27.037 -13.527   5.330  0.00  0.00    +0.026 A 
ENDBRANCH   1   9
BRANCH   1  15
ATOM     15  O   LIG    1       25.969 -14.956   2.132  0.00  0.00    -0.365 OA
BRANCH  15  16
ATOM     16  C   LIG    1       25.016 -13.923   1.838  0.00  0.00    +0.176 C 
BRANCH  16  17
ATOM     17  C   LIG    1       24.095 -13.728   3.059  0.00  0.00    +0.112 C 
BRANCH  17  19
ATOM     18  C   LIG    1       23.891 -11.862   4.619  0.00  0.00    +0.104 C 
ATOM     19  N   LIG    1       23.611 -12.347   3.268  0.00  0.00    -0.306 NA
ATOM     20  C   LIG    1       24.229 -11.447   2.287  0.00  0.00    +0.104 C 
ENDBRANCH  17  19
ENDBRANCH  16  17
ENDBRANCH  15  16
ENDBRANCH   1  15
TORSDOF 6
ENDMDL
MODEL 9
REMARK VINA RESULT:      -2.5      2.810      4.884
REMARK  Name = *****
REMARK                            x       y       z     vdW  Elec       q    Type
REMARK                         _______ _______ _______ _____ _____    ______ ____
ROOT
ATOM      1  C   LIG    1       24.663 -18.253   4.413  0.00  0.00    +0.197 C 
ENDROOT
BRANCH   1   2
ATOM      2  C   LIG    1       24.582 -16.786   3.995  0.00  0.00    -0.013 A 
ATOM      3  C   LIG    1       25.626 -16.181   3.272  0.00  0.00    +0.008 A 
ATOM      4  C   LIG    1       25.630 -14.806   3.047  0.00  0.00    +0.020 A 
ATOM      5  C   LIG    1       24.560 -14.031   3.484  0.00  0.00    +0.041 A 
ATOM      6 CL   LIG    1       24.590 -12.327   3.249  0.00  0.00    -0.084 Cl
ATOM      7  C   LIG    1       23.473 -14.625   4.123  0.00  0.00    +0.020 A 
ATOM      8  C   LIG    1       23.485 -15.999   4.378  0.00  0.00    +0.008 A 
ENDBRANCH   1   2
BRANCH   1   9
ATOM      9  C   LIG    1       23.297 -18.949   4.330  0.00  0.00    +0.074 A 
ATOM     10  N   LIG    1       23.177 -20.191   4.881  0.00  0.00    -0.257 NA
ATOM     11  C   LIG    1       21.960 -20.782   4.834  0.00  0.00    +0.111 A 
ATOM     12  C   LIG    1       20.841 -20.199   4.260  0.00  0.00    +0.020 A 
ATOM     13  C   LIG    1       20.972 -18.944   3.696  0.00  0.00    +0.003 A 
ATOM     14  C   LIG    1       22.210 -18.302   3.730  0.00  0.00    +0.026 A 
ENDBRANCH   1   9
BRANCH   1  15
ATOM     15  O   LIG    1       25.645 -18.977   3.631  0.00  0.00    -0.365 OA
BRANCH  15  16
ATOM     16  C   LIG    1       26.165 -20.146   4.284  0.00  0.00    +0.176 C 
BRANCH  16  17
ATOM     17  C   LIG    1       27.193 -19.712   5.347  0.00  0.00    +0.112 C 
BRANCH  17  19
ATOM     18  C   LIG    1       26.046 -21.434   6.643  0.00  0.00    +0.104 C 
ATOM     19  N   LIG    1       27.061 -20.380   6.660  0.00  0.00    -0.306 NA
ATOM     20  C   LIG    1       28.352 -20.950   7.062  0.00  0.00    +0.104 C 
ENDBRANCH  17  19
ENDBRANCH  16  17
ENDBRANCH  15  16
ENDBRANCH   1  15
TORSDOF 6
ENDMDL
