MODEL 1
REMARK VINA RESULT:       2.8      0.000      0.000
REMARK  Name = *****
REMARK                            x       y       z     vdW  Elec       q    Type
REMARK                         _______ _______ _______ _____ _____    ______ ____
ROOT
ATOM      1  C   LIG    1       28.161 -13.018   3.678  0.00  0.00    +0.132 C 
ATOM      2  C   LIG    1       27.414 -14.327   4.108  0.00  0.00    +0.011 C 
ATOM      3  C   LIG    1       28.417 -15.279   4.792  0.00  0.00    +0.015 C 
ATOM      4  C   LIG    1       26.889 -14.834   2.747  0.00  0.00    +0.002 C 
ATOM      5  C   LIG    1       25.859 -15.982   2.821  0.00  0.00    +0.001 C 
ATOM      6  C   LIG    1       24.685 -15.668   3.773  0.00  0.00    +0.023 C 
ATOM      7  C   LIG    1       25.179 -15.166   5.143  0.00  0.00    +0.009 C 
ATOM      8  C   LIG    1       23.765 -16.866   3.972  0.00  0.00    -0.041 A 
ATOM      9  C   LIG    1       24.199 -18.184   3.728  0.00  0.00    -0.041 A 
ATOM     10  C   LIG    1       23.342 -19.260   4.009  0.00  0.00    +0.049 A 
ATOM     11  C   LIG    1       22.069 -19.022   4.516  0.00  0.00    +0.117 A 
ATOM     12  C   LIG    1       21.621 -17.728   4.734  0.00  0.00    +0.045 A 
ATOM     13  C   LIG    1       25.545 -18.479   3.118  0.00  0.00    +0.036 C 
ATOM     14  C   LIG    1       22.466 -16.653   4.466  0.00  0.00    +0.008 A 
ATOM     15  C   LIG    1       26.512 -17.312   3.243  0.00  0.00    +0.009 C 
ATOM     16  C   LIG    1       26.346 -13.534   2.110  0.00  0.00    +0.008 C 
ATOM     17  C   LIG    1       26.203 -14.035   5.048  0.00  0.00    +0.011 C 
ATOM     18  C   LIG    1       27.316 -12.418   2.545  0.00  0.00    +0.049 C 
ENDROOT
BRANCH   1  20
ATOM     19  C   LIG    1       28.875 -11.691   5.850  0.00  0.00    +0.007 C 
ATOM     20  C   LIG    1       28.406 -12.183   4.868  0.00  0.00    -0.070 C 
ENDBRANCH   1  20
BRANCH   1  21
ATOM     21  O   LIG    1       29.434 -13.341   3.105  0.00  0.00    -0.376 OA
ATOM     22  H   LIG    1       29.523 -14.307   3.159  0.00  0.00    +0.211 HD
ENDBRANCH   1  21
BRANCH  11  23
ATOM     23  O   LIG    1       21.222 -20.050   4.809  0.00  0.00    -0.507 OA
ATOM     24  H   LIG    1       21.216 -20.664   4.057  0.00  0.00    +0.292 HD
ENDBRANCH  11  23
TORSDOF 3
ENDMDL
