MODEL 1
REMARK VINA RESULT:      -7.0      0.000      0.000
REMARK  Name = *****
REMARK                            x       y       z     vdW  Elec       q    Type
REMARK                         _______ _______ _______ _____ _____    ______ ____
ROOT
ATOM      1  C   LIG    1       27.448 -21.218   6.866  0.00  0.00    +0.028 A 
ATOM      2  C   LIG    1       28.414 -21.718   7.739  0.00  0.00    +0.046 A 
ATOM      3  C   LIG    1       29.640 -21.062   7.901  0.00  0.00    +0.086 A 
ATOM      4 CL   LIG    1       30.763 -21.738   9.034  0.00  0.00    -0.080 Cl
ATOM      5  C   LIG    1       29.956 -19.914   7.154  0.00  0.00    +0.178 A 
ATOM      6  C   LIG    1       28.994 -19.451   6.240  0.00  0.00    +0.086 A 
ATOM      7 CL   LIG    1       29.283 -18.053   5.257  0.00  0.00    -0.080 Cl
ATOM      8  C   LIG    1       27.768 -20.111   6.081  0.00  0.00    +0.046 A 
ENDROOT
BRANCH   5   9
ATOM      9  N   LIG    1       31.179 -19.232   7.332  0.00  0.00    -0.074 NA
ATOM     10  C   LIG    1       31.241 -18.334   8.250  0.00  0.00    +0.370 C 
ATOM     11  N   LIG    1       30.285 -17.875   9.123  0.00  0.00    -0.235 N 
ATOM     12  H   LIG    1       29.322 -17.906   8.820  0.00  0.00    +0.244 HD
ATOM     13  C   LIG    1       30.750 -16.726   9.882  0.00  0.00    +0.219 C 
ATOM     14  C   LIG    1       32.275 -16.861   9.749  0.00  0.00    +0.219 C 
ATOM     15  N   LIG    1       32.385 -17.635   8.530  0.00  0.00    -0.235 N 
ATOM     16  H   LIG    1       33.255 -18.076   8.265  0.00  0.00    +0.244 HD
ENDBRANCH   5   9
BRANCH   1  17
ATOM     17  N   LIG    1       26.280 -21.947   6.616  0.00  0.00    -0.358 N 
ATOM     18  H   LIG    1       25.957 -21.899   5.653  0.00  0.00    +0.142 HD
ATOM     19  H   LIG    1       26.304 -22.904   6.958  0.00  0.00    +0.142 HD
ENDBRANCH   1  17
TORSDOF 2
ENDMDL
MODEL 2
REMARK VINA RESULT:      -6.8      0.121      2.357
REMARK  Name = *****
REMARK                            x       y       z     vdW  Elec       q    Type
REMARK                         _______ _______ _______ _____ _____    ______ ____
ROOT
ATOM      1  C   LIG    1       27.582 -21.332   6.800  0.00  0.00    +0.028 A 
ATOM      2  C   LIG    1       27.871 -20.158   6.105  0.00  0.00    +0.046 A 
ATOM      3  C   LIG    1       29.086 -19.490   6.301  0.00  0.00    +0.086 A 
ATOM      4 CL   LIG    1       29.371 -18.059   5.367  0.00  0.00    -0.080 Cl
ATOM      5  C   LIG    1       30.026 -19.951   7.240  0.00  0.00    +0.178 A 
ATOM      6  C   LIG    1       29.700 -21.106   7.971  0.00  0.00    +0.086 A 
ATOM      7 CL   LIG    1       30.779 -21.754   9.163  0.00  0.00    -0.080 Cl
ATOM      8  C   LIG    1       28.483 -21.771   7.771  0.00  0.00    +0.046 A 
ENDROOT
BRANCH   5   9
ATOM      9  N   LIG    1       31.265 -19.299   7.423  0.00  0.00    -0.074 NA
ATOM     10  C   LIG    1       31.331 -18.365   8.306  0.00  0.00    +0.370 C 
ATOM     11  N   LIG    1       30.367 -17.843   9.133  0.00  0.00    -0.235 N 
ATOM     12  H   LIG    1       29.411 -17.858   8.806  0.00  0.00    +0.244 HD
ATOM     13  C   LIG    1       30.847 -16.678   9.858  0.00  0.00    +0.219 C 
ATOM     14  C   LIG    1       32.370 -16.863   9.772  0.00  0.00    +0.219 C 
ATOM     15  N   LIG    1       32.488 -17.690   8.589  0.00  0.00    -0.235 N 
ATOM     16  H   LIG    1       33.350 -18.167   8.365  0.00  0.00    +0.244 HD
ENDBRANCH   5   9
BRANCH   1  17
ATOM     17  N   LIG    1       26.317 -21.920   6.693  0.00  0.00    -0.358 N 
ATOM     18  H   LIG    1       25.622 -21.334   6.240  0.00  0.00    +0.142 HD
ATOM     19  H   LIG    1       26.326 -22.861   6.308  0.00  0.00    +0.142 HD
ENDBRANCH   1  17
TORSDOF 2
ENDMDL
MODEL 3
REMARK VINA RESULT:      -6.7      5.421      7.653
REMARK  Name = *****
REMARK                            x       y       z     vdW  Elec       q    Type
REMARK                         _______ _______ _______ _____ _____    ______ ____
ROOT
ATOM      1  C   LIG    1       25.455 -19.122   3.964  0.00  0.00    +0.028 A 
ATOM      2  C   LIG    1       26.306 -19.749   4.874  0.00  0.00    +0.046 A 
ATOM      3  C   LIG    1       25.840 -20.786   5.692  0.00  0.00    +0.086 A 
ATOM      4 CL   LIG    1       26.979 -21.528   6.767  0.00  0.00    -0.080 Cl
ATOM      5  C   LIG    1       24.494 -21.190   5.660  0.00  0.00    +0.178 A 
ATOM      6  C   LIG    1       23.636 -20.515   4.775  0.00  0.00    +0.086 A 
ATOM      7 CL   LIG    1       21.955 -20.921   4.662  0.00  0.00    -0.080 Cl
ATOM      8  C   LIG    1       24.106 -19.478   3.958  0.00  0.00    +0.046 A 
ENDROOT
BRANCH   5   9
ATOM      9  N   LIG    1       24.024 -22.253   6.461  0.00  0.00    -0.074 NA
ATOM     10  C   LIG    1       24.276 -23.455   6.079  0.00  0.00    +0.370 C 
ATOM     11  N   LIG    1       24.933 -23.924   4.968  0.00  0.00    -0.235 N 
ATOM     12  H   LIG    1       24.897 -23.360   4.130  0.00  0.00    +0.244 HD
ATOM     13  C   LIG    1       24.838 -25.370   4.851  0.00  0.00    +0.219 C 
ATOM     14  C   LIG    1       24.495 -25.777   6.293  0.00  0.00    +0.219 C 
ATOM     15  N   LIG    1       23.896 -24.558   6.795  0.00  0.00    -0.235 N 
ATOM     16  H   LIG    1       23.742 -24.417   7.784  0.00  0.00    +0.244 HD
ENDBRANCH   5   9
BRANCH   1  17
ATOM     17  N   LIG    1       25.894 -18.006   3.244  0.00  0.00    -0.358 N 
ATOM     18  H   LIG    1       25.232 -17.672   2.549  0.00  0.00    +0.142 HD
ATOM     19  H   LIG    1       26.247 -17.248   3.823  0.00  0.00    +0.142 HD
ENDBRANCH   1  17
TORSDOF 2
ENDMDL
MODEL 4
REMARK VINA RESULT:      -6.7      3.994      7.206
REMARK  Name = *****
REMARK                            x       y       z     vdW  Elec       q    Type
REMARK                         _______ _______ _______ _____ _____    ______ ____
ROOT
ATOM      1  C   LIG    1       27.469 -19.666   5.386  0.00  0.00    +0.028 A 
ATOM      2  C   LIG    1       27.477 -20.331   6.611  0.00  0.00    +0.046 A 
ATOM      3  C   LIG    1       26.437 -21.202   6.960  0.00  0.00    +0.086 A 
ATOM      4 CL   LIG    1       26.551 -22.011   8.488  0.00  0.00    -0.080 Cl
ATOM      5  C   LIG    1       25.331 -21.390   6.113  0.00  0.00    +0.178 A 
ATOM      6  C   LIG    1       25.311 -20.673   4.904  0.00  0.00    +0.086 A 
ATOM      7 CL   LIG    1       23.990 -20.819   3.791  0.00  0.00    -0.080 Cl
ATOM      8  C   LIG    1       26.354 -19.803   4.560  0.00  0.00    +0.046 A 
ENDROOT
BRANCH   5   9
ATOM      9  N   LIG    1       24.292 -22.286   6.445  0.00  0.00    -0.074 NA
ATOM     10  C   LIG    1       24.413 -23.513   6.078  0.00  0.00    +0.370 C 
ATOM     11  N   LIG    1       25.405 -24.144   5.367  0.00  0.00    -0.235 N 
ATOM     12  H   LIG    1       25.922 -23.593   4.696  0.00  0.00    +0.244 HD
ATOM     13  C   LIG    1       25.047 -25.512   5.032  0.00  0.00    +0.219 C 
ATOM     14  C   LIG    1       23.949 -25.809   6.066  0.00  0.00    +0.219 C 
ATOM     15  N   LIG    1       23.483 -24.473   6.374  0.00  0.00    -0.235 N 
ATOM     16  H   LIG    1       22.896 -24.294   7.177  0.00  0.00    +0.244 HD
ENDBRANCH   5   9
BRANCH   1  17
ATOM     17  N   LIG    1       28.444 -18.703   5.101  0.00  0.00    -0.358 N 
ATOM     18  H   LIG    1       28.875 -18.291   5.924  0.00  0.00    +0.142 HD
ATOM     19  H   LIG    1       29.139 -19.002   4.421  0.00  0.00    +0.142 HD
ENDBRANCH   1  17
TORSDOF 2
ENDMDL
MODEL 5
REMARK VINA RESULT:      -6.6      4.010      7.559
REMARK  Name = *****
REMARK                            x       y       z     vdW  Elec       q    Type
REMARK                         _______ _______ _______ _____ _____    ______ ____
ROOT
ATOM      1  C   LIG    1       27.385 -19.600   5.459  0.00  0.00    +0.028 A 
ATOM      2  C   LIG    1       26.334 -19.829   4.571  0.00  0.00    +0.046 A 
ATOM      3  C   LIG    1       25.317 -20.740   4.885  0.00  0.00    +0.086 A 
ATOM      4 CL   LIG    1       24.035 -20.932   3.736  0.00  0.00    -0.080 Cl
ATOM      5  C   LIG    1       25.352 -21.487   6.075  0.00  0.00    +0.178 A 
ATOM      6  C   LIG    1       26.444 -21.285   6.936  0.00  0.00    +0.086 A 
ATOM      7 CL   LIG    1       26.595 -22.162   8.423  0.00  0.00    -0.080 Cl
ATOM      8  C   LIG    1       27.459 -20.372   6.618  0.00  0.00    +0.046 A 
ENDROOT
BRANCH   5   9
ATOM      9  N   LIG    1       24.317 -22.387   6.411  0.00  0.00    -0.074 NA
ATOM     10  C   LIG    1       24.444 -23.615   6.050  0.00  0.00    +0.370 C 
ATOM     11  N   LIG    1       25.440 -24.245   5.344  0.00  0.00    -0.235 N 
ATOM     12  H   LIG    1       25.955 -23.695   4.671  0.00  0.00    +0.244 HD
ATOM     13  C   LIG    1       25.088 -25.617   5.016  0.00  0.00    +0.219 C 
ATOM     14  C   LIG    1       23.990 -25.913   6.050  0.00  0.00    +0.219 C 
ATOM     15  N   LIG    1       23.518 -24.578   6.350  0.00  0.00    -0.235 N 
ATOM     16  H   LIG    1       22.929 -24.397   7.151  0.00  0.00    +0.244 HD
ENDBRANCH   5   9
BRANCH   1  17
ATOM     17  N   LIG    1       28.459 -18.787   5.082  0.00  0.00    -0.358 N 
ATOM     18  H   LIG    1       29.328 -18.992   5.569  0.00  0.00    +0.142 HD
ATOM     19  H   LIG    1       28.598 -18.716   4.078  0.00  0.00    +0.142 HD
ENDBRANCH   1  17
TORSDOF 2
ENDMDL
MODEL 6
REMARK VINA RESULT:      -6.6      5.902      7.682
REMARK  Name = *****
REMARK                            x       y       z     vdW  Elec       q    Type
REMARK                         _______ _______ _______ _____ _____    ______ ____
ROOT
ATOM      1  C   LIG    1       23.170 -19.817   4.991  0.00  0.00    +0.028 A 
ATOM      2  C   LIG    1       22.457 -20.922   5.456  0.00  0.00    +0.046 A 
ATOM      3  C   LIG    1       23.113 -21.972   6.111  0.00  0.00    +0.086 A 
ATOM      4 CL   LIG    1       22.139 -23.286   6.685  0.00  0.00    -0.080 Cl
ATOM      5  C   LIG    1       24.509 -21.972   6.271  0.00  0.00    +0.178 A 
ATOM      6  C   LIG    1       25.221 -20.877   5.751  0.00  0.00    +0.086 A 
ATOM      7 CL   LIG    1       26.946 -20.779   5.880  0.00  0.00    -0.080 Cl
ATOM      8  C   LIG    1       24.561 -19.828   5.097  0.00  0.00    +0.046 A 
ENDROOT
BRANCH   5   9
ATOM      9  N   LIG    1       25.173 -23.014   6.953  0.00  0.00    -0.074 NA
ATOM     10  C   LIG    1       25.383 -24.113   6.319  0.00  0.00    +0.370 C 
ATOM     11  N   LIG    1       25.047 -24.491   5.042  0.00  0.00    -0.235 N 
ATOM     12  H   LIG    1       24.217 -24.083   4.637  0.00  0.00    +0.244 HD
ATOM     13  C   LIG    1       25.336 -25.894   4.797  0.00  0.00    +0.219 C 
ATOM     14  C   LIG    1       26.366 -26.197   5.897  0.00  0.00    +0.219 C 
ATOM     15  N   LIG    1       26.046 -25.176   6.872  0.00  0.00    -0.235 N 
ATOM     16  H   LIG    1       26.673 -24.963   7.636  0.00  0.00    +0.244 HD
ENDBRANCH   5   9
BRANCH   1  17
ATOM     17  N   LIG    1       22.528 -18.835   4.228  0.00  0.00    -0.358 N 
ATOM     18  H   LIG    1       22.067 -19.191   3.395  0.00  0.00    +0.142 HD
ATOM     19  H   LIG    1       21.918 -18.223   4.764  0.00  0.00    +0.142 HD
ENDBRANCH   1  17
TORSDOF 2
ENDMDL
MODEL 7
REMARK VINA RESULT:      -6.2      1.491      5.406
REMARK  Name = *****
REMARK                            x       y       z     vdW  Elec       q    Type
REMARK                         _______ _______ _______ _____ _____    ______ ____
ROOT
ATOM      1  C   LIG    1       31.395 -18.323   8.390  0.00  0.00    +0.028 A 
ATOM      2  C   LIG    1       30.553 -18.178   7.288  0.00  0.00    +0.046 A 
ATOM      3  C   LIG    1       29.725 -19.229   6.876  0.00  0.00    +0.086 A 
ATOM      4 CL   LIG    1       28.688 -18.943   5.518  0.00  0.00    -0.080 Cl
ATOM      5  C   LIG    1       29.755 -20.476   7.524  0.00  0.00    +0.178 A 
ATOM      6  C   LIG    1       30.645 -20.625   8.601  0.00  0.00    +0.086 A 
ATOM      7 CL   LIG    1       30.774 -22.123   9.464  0.00  0.00    -0.080 Cl
ATOM      8  C   LIG    1       31.472 -19.571   9.010  0.00  0.00    +0.046 A 
ENDROOT
BRANCH   5   9
ATOM      9  N   LIG    1       28.903 -21.531   7.132  0.00  0.00    -0.074 NA
ATOM     10  C   LIG    1       27.673 -21.484   7.504  0.00  0.00    +0.370 C 
ATOM     11  N   LIG    1       27.001 -20.563   8.269  0.00  0.00    -0.235 N 
ATOM     12  H   LIG    1       27.530 -20.062   8.969  0.00  0.00    +0.244 HD
ATOM     13  C   LIG    1       25.649 -20.998   8.581  0.00  0.00    +0.219 C 
ATOM     14  C   LIG    1       25.399 -22.046   7.486  0.00  0.00    +0.219 C 
ATOM     15  N   LIG    1       26.753 -22.436   7.153  0.00  0.00    -0.235 N 
ATOM     16  H   LIG    1       26.957 -22.968   6.318  0.00  0.00    +0.244 HD
ENDBRANCH   5   9
BRANCH   1  17
ATOM     17  N   LIG    1       32.309 -17.315   8.716  0.00  0.00    -0.358 N 
ATOM     18  H   LIG    1       33.263 -17.642   8.842  0.00  0.00    +0.142 HD
ATOM     19  H   LIG    1       32.267 -16.501   8.108  0.00  0.00    +0.142 HD
ENDBRANCH   1  17
TORSDOF 2
ENDMDL
MODEL 8
REMARK VINA RESULT:      -5.8      6.086      7.437
REMARK  Name = *****
REMARK                            x       y       z     vdW  Elec       q    Type
REMARK                         _______ _______ _______ _____ _____    ______ ____
ROOT
ATOM      1  C   LIG    1       25.534 -24.609   6.704  0.00  0.00    +0.028 A 
ATOM      2  C   LIG    1       24.144 -24.589   6.598  0.00  0.00    +0.046 A 
ATOM      3  C   LIG    1       23.439 -23.380   6.654  0.00  0.00    +0.086 A 
ATOM      4 CL   LIG    1       21.717 -23.451   6.478  0.00  0.00    -0.080 Cl
ATOM      5  C   LIG    1       24.103 -22.160   6.870  0.00  0.00    +0.178 A 
ATOM      6  C   LIG    1       25.500 -22.201   7.027  0.00  0.00    +0.086 A 
ATOM      7 CL   LIG    1       26.418 -20.759   7.311  0.00  0.00    -0.080 Cl
ATOM      8  C   LIG    1       26.200 -23.413   6.970  0.00  0.00    +0.046 A 
ENDROOT
BRANCH   5   9
ATOM      9  N   LIG    1       23.403 -20.935   6.900  0.00  0.00    -0.074 NA
ATOM     10  C   LIG    1       23.290 -20.277   5.800  0.00  0.00    +0.370 C 
ATOM     11  N   LIG    1       23.765 -20.547   4.540  0.00  0.00    -0.235 N 
ATOM     12  H   LIG    1       24.621 -21.079   4.467  0.00  0.00    +0.244 HD
ATOM     13  C   LIG    1       23.542 -19.438   3.627  0.00  0.00    +0.219 C 
ATOM     14  C   LIG    1       22.414 -18.672   4.336  0.00  0.00    +0.219 C 
ATOM     15  N   LIG    1       22.604 -19.095   5.708  0.00  0.00    -0.235 N 
ATOM     16  H   LIG    1       21.897 -18.933   6.411  0.00  0.00    +0.244 HD
ENDBRANCH   5   9
BRANCH   1  17
ATOM     17  N   LIG    1       26.217 -25.829   6.775  0.00  0.00    -0.358 N 
ATOM     18  H   LIG    1       25.647 -26.639   6.549  0.00  0.00    +0.142 HD
ATOM     19  H   LIG    1       27.104 -25.841   6.277  0.00  0.00    +0.142 HD
ENDBRANCH   1  17
TORSDOF 2
ENDMDL
MODEL 9
REMARK VINA RESULT:      -5.8      6.050      7.425
REMARK  Name = *****
REMARK                            x       y       z     vdW  Elec       q    Type
REMARK                         _______ _______ _______ _____ _____    ______ ____
ROOT
ATOM      1  C   LIG    1       25.559 -24.538   6.824  0.00  0.00    +0.028 A 
ATOM      2  C   LIG    1       26.229 -23.321   6.948  0.00  0.00    +0.046 A 
ATOM      3  C   LIG    1       25.520 -22.113   6.974  0.00  0.00    +0.086 A 
ATOM      4 CL   LIG    1       26.435 -20.655   7.167  0.00  0.00    -0.080 Cl
ATOM      5  C   LIG    1       24.123 -22.086   6.822  0.00  0.00    +0.178 A 
ATOM      6  C   LIG    1       23.466 -23.316   6.646  0.00  0.00    +0.086 A 
ATOM      7 CL   LIG    1       21.748 -23.399   6.436  0.00  0.00    -0.080 Cl
ATOM      8  C   LIG    1       24.180 -24.522   6.621  0.00  0.00    +0.046 A 
ENDROOT
BRANCH   5   9
ATOM      9  N   LIG    1       23.399 -20.875   6.874  0.00  0.00    -0.074 NA
ATOM     10  C   LIG    1       23.262 -20.206   5.784  0.00  0.00    +0.370 C 
ATOM     11  N   LIG    1       23.730 -20.451   4.516  0.00  0.00    -0.235 N 
ATOM     12  H   LIG    1       24.595 -20.966   4.428  0.00  0.00    +0.244 HD
ATOM     13  C   LIG    1       23.476 -19.335   3.619  0.00  0.00    +0.219 C 
ATOM     14  C   LIG    1       22.341 -18.601   4.349  0.00  0.00    +0.219 C 
ATOM     15  N   LIG    1       22.553 -19.037   5.714  0.00  0.00    -0.235 N 
ATOM     16  H   LIG    1       21.850 -18.897   6.426  0.00  0.00    +0.244 HD
ENDBRANCH   5   9
BRANCH   1  17
ATOM     17  N   LIG    1       26.282 -25.726   6.671  0.00  0.00    -0.358 N 
ATOM     18  H   LIG    1       27.246 -25.671   6.988  0.00  0.00    +0.142 HD
ATOM     19  H   LIG    1       25.812 -26.551   7.036  0.00  0.00    +0.142 HD
ENDBRANCH   1  17
TORSDOF 2
ENDMDL
