MODEL 1
REMARK VINA RESULT:      50.2      0.000      0.000
REMARK  Name = *****
REMARK                            x       y       z     vdW  Elec       q    Type
REMARK                         _______ _______ _______ _____ _____    ______ ____
ROOT
ATOM      1  C   LIG    1       26.329 -22.108   9.416  0.00  0.00    +0.014 C 
ATOM      2  C   LIG    1       25.806 -23.543   9.289  0.00  0.00    +0.037 C 
ATOM      3  C   LIG    1       26.360 -24.305   8.029  0.00  0.00    +0.127 C 
ATOM      4  C   LIG    1       25.261 -24.637   6.969  0.00  0.00    +0.056 C 
ATOM      5  C   LIG    1       24.639 -23.350   6.400  0.00  0.00    +0.014 C 
ATOM      6  C   LIG    1       25.686 -25.549   5.763  0.00  0.00    +0.179 C 
ATOM      7  C   LIG    1       27.153 -25.956   5.685  0.00  0.00    +0.052 C 
ATOM      8  O   LIG    1       24.933 -26.794   5.804  0.00  0.00    -0.461 OA
ATOM      9  C   LIG    1       23.700 -26.802   5.225  0.00  0.00    +0.310 C 
ATOM     10  O   LIG    1       23.177 -25.852   4.674  0.00  0.00    -0.251 OA
ATOM     11  C   LIG    1       23.008 -28.138   5.388  0.00  0.00    +0.152 C 
ATOM     12  C   LIG    1       22.892 -28.956   4.101  0.00  0.00    +0.128 C 
ATOM     13  C   LIG    1       24.167 -29.669   3.621  0.00  0.00    +0.063 C 
ATOM     14  C   LIG    1       24.658 -30.763   4.582  0.00  0.00    +0.119 C 
ATOM     15  C   LIG    1       25.717 -30.256   5.570  0.00  0.00    +0.062 C 
ATOM     16  C   LIG    1       25.543 -30.868   6.963  0.00  0.00    +0.117 C 
ATOM     17  C   LIG    1       26.619 -30.429   7.965  0.00  0.00    +0.034 C 
ATOM     18  C   LIG    1       26.892 -28.934   8.150  0.00  0.00    +0.036 C 
ATOM     19  C   LIG    1       25.877 -28.093   8.938  0.00  0.00    +0.143 C 
ATOM     20  C   LIG    1       25.678 -28.387  10.439  0.00  0.00    +0.150 C 
ATOM     21  C   LIG    1       26.979 -28.523  11.218  0.00  0.00    +0.108 C 
ATOM     22  C   LIG    1       26.721 -29.014  12.626  0.00  0.00    +0.138 C 
ATOM     23  O   LIG    1       25.801 -28.543  13.297  0.00  0.00    -0.297 OA
ATOM     24  C   LIG    1       27.693 -30.019  13.211  0.00  0.00    +0.106 C 
ATOM     25  C   LIG    1       27.646 -31.503  12.769  0.00  0.00    +0.138 C 
ATOM     26  C   LIG    1       26.739 -31.957  11.592  0.00  0.00    +0.155 C 
ATOM     27  C   LIG    1       25.288 -32.349  11.948  0.00  0.00    +0.134 C 
ATOM     28  C   LIG    1       24.386 -32.731  10.735  0.00  0.00    +0.068 C 
ATOM     29  C   LIG    1       22.854 -32.941  10.999  0.00  0.00    +0.147 C 
ATOM     30  C   LIG    1       21.871 -31.970  10.374  0.00  0.00    +0.004 C 
ATOM     31  C   LIG    1       22.089 -30.841   9.680  0.00  0.00    -0.002 C 
ATOM     32  C   LIG    1       21.085 -29.779   9.723  0.00  0.00    -0.000 C 
ATOM     33  C   LIG    1       21.535 -28.532   9.953  0.00  0.00    +0.000 C 
ATOM     34  C   LIG    1       20.961 -27.674  10.981  0.00  0.00    +0.000 C 
ATOM     35  C   LIG    1       21.751 -26.731  11.520  0.00  0.00    -0.000 C 
ATOM     36  C   LIG    1       21.637 -26.168  12.847  0.00  0.00    -0.004 C 
ATOM     37  C   LIG    1       22.442 -26.643  13.818  0.00  0.00    -0.026 C 
ATOM     38  C   LIG    1       22.766 -25.935  15.111  0.00  0.00    +0.031 C 
ATOM     39  C   LIG    1       24.224 -25.412  15.111  0.00  0.00    +0.031 C 
ATOM     40  C   LIG    1       24.472 -24.526  13.916  0.00  0.00    -0.026 C 
ATOM     41  C   LIG    1       25.308 -24.824  12.906  0.00  0.00    -0.005 C 
ATOM     42  C   LIG    1       25.247 -24.098  11.661  0.00  0.00    -0.004 C 
ATOM     43  C   LIG    1       26.055 -24.279  10.602  0.00  0.00    -0.021 C 
ENDROOT
BRANCH   3  44
ATOM     44  O   LIG    1       27.465 -23.621   7.440  0.00  0.00    -0.391 OA
ATOM     45  H   LIG    1       28.282 -23.901   7.884  0.00  0.00    +0.210 HD
ENDBRANCH   3  44
BRANCH  12  46
ATOM     46  O   LIG    1       22.392 -28.170   3.020  0.00  0.00    -0.391 OA
ATOM     47  H   LIG    1       22.622 -28.602   2.178  0.00  0.00    +0.210 HD
ENDBRANCH  12  46
BRANCH  14  48
ATOM     48  O   LIG    1       25.250 -31.813   3.809  0.00  0.00    -0.392 OA
ATOM     49  H   LIG    1       24.502 -32.320   3.438  0.00  0.00    +0.210 HD
ENDBRANCH  14  48
BRANCH  16  50
ATOM     50  O   LIG    1       25.592 -32.296   6.833  0.00  0.00    -0.392 OA
ATOM     51  H   LIG    1       25.667 -32.516   5.884  0.00  0.00    +0.210 HD
ENDBRANCH  16  50
BRANCH  19  52
ATOM     52  O   LIG    1       24.608 -28.190   8.298  0.00  0.00    -0.389 OA
ATOM     53  H   LIG    1       24.832 -28.383   7.367  0.00  0.00    +0.210 HD
ENDBRANCH  19  52
BRANCH  20  54
ATOM     54  O   LIG    1       24.899 -29.580  10.519  0.00  0.00    -0.389 OA
ATOM     55  H   LIG    1       24.900 -29.874  11.460  0.00  0.00    +0.210 HD
ENDBRANCH  20  54
BRANCH  25  56
ATOM     56  O   LIG    1       27.381 -32.293  13.937  0.00  0.00    -0.391 OA
ATOM     57  H   LIG    1       28.188 -32.279  14.486  0.00  0.00    +0.210 HD
ENDBRANCH  25  56
BRANCH  26  58
ATOM     58  C   LIG    1       27.369 -33.081  10.799  0.00  0.00    +0.313 C 
ATOM     59  O   LIG    1       28.498 -33.525  11.002  0.00  0.00    -0.251 OA
BRANCH  58  60
ATOM     60  O   LIG    1       26.648 -33.532   9.767  0.00  0.00    -0.480 OA
ATOM     61  H   LIG    1       26.269 -34.389  10.057  0.00  0.00    +0.295 HD
ENDBRANCH  58  60
ENDBRANCH  26  58
BRANCH  27  62
ATOM     62  O   LIG    1       24.711 -31.256  12.666  0.00  0.00    -0.391 OA
ATOM     63  H   LIG    1       24.995 -30.441  12.195  0.00  0.00    +0.210 HD
ENDBRANCH  27  62
BRANCH  29  64
ATOM     64  O   LIG    1       22.680 -32.958  12.433  0.00  0.00    -0.341 OA
BRANCH  64  65
ATOM     65  C   LIG    1       21.524 -32.340  13.017  0.00  0.00    +0.281 C 
ATOM     66  C   LIG    1       21.385 -32.463  14.551  0.00  0.00    +0.189 C 
ATOM     67  C   LIG    1       22.519 -31.712  15.275  0.00  0.00    +0.116 C 
ATOM     68  C   LIG    1       22.527 -30.248  14.805  0.00  0.00    +0.162 C 
ATOM     69  C   LIG    1       22.433 -30.080  13.275  0.00  0.00    +0.148 C 
ATOM     70  C   LIG    1       23.793 -30.119  12.591  0.00  0.00    +0.040 C 
ATOM     71  O   LIG    1       21.491 -30.952  12.635  0.00  0.00    -0.343 OA
BRANCH  67  72
ATOM     72  N   LIG    1       23.832 -32.380  15.148  0.00  0.00    -0.323 NA
ATOM     73  H   LIG    1       24.166 -32.226  14.193  0.00  0.00    +0.119 HD
ATOM     74  H   LIG    1       24.513 -31.895  15.734  0.00  0.00    +0.119 HD
ENDBRANCH  67  72
BRANCH  66  75
ATOM     75  O   LIG    1       21.313 -33.821  15.004  0.00  0.00    -0.385 OA
ATOM     76  H   LIG    1       20.479 -33.907  15.502  0.00  0.00    +0.210 HD
ENDBRANCH  66  75
BRANCH  68  77
ATOM     77  O   LIG    1       21.395 -29.597  15.413  0.00  0.00    -0.388 OA
ATOM     78  H   LIG    1       20.599 -30.088  15.141  0.00  0.00    +0.210 HD
ENDBRANCH  68  77
ENDBRANCH  64  65
ENDBRANCH  29  64
TORSDOF 15
ENDMDL
MODEL 2
REMARK VINA RESULT:      50.7      1.418      2.026
REMARK  Name = *****
REMARK                            x       y       z     vdW  Elec       q    Type
REMARK                         _______ _______ _______ _____ _____    ______ ____
ROOT
ATOM      1  C   LIG    1       26.987 -21.872   8.998  0.00  0.00    +0.014 C 
ATOM      2  C   LIG    1       26.379 -23.266   9.188  0.00  0.00    +0.037 C 
ATOM      3  C   LIG    1       26.829 -24.303   8.095  0.00  0.00    +0.127 C 
ATOM      4  C   LIG    1       25.665 -24.773   7.165  0.00  0.00    +0.056 C 
ATOM      5  C   LIG    1       25.090 -23.591   6.364  0.00  0.00    +0.014 C 
ATOM      6  C   LIG    1       25.980 -25.937   6.159  0.00  0.00    +0.179 C 
ATOM      7  C   LIG    1       27.417 -26.445   6.115  0.00  0.00    +0.052 C 
ATOM      8  O   LIG    1       25.162 -27.096   6.481  0.00  0.00    -0.461 OA
ATOM      9  C   LIG    1       23.904 -27.142   5.960  0.00  0.00    +0.310 C 
ATOM     10  O   LIG    1       23.410 -26.292   5.243  0.00  0.00    -0.251 OA
ATOM     11  C   LIG    1       23.146 -28.370   6.419  0.00  0.00    +0.152 C 
ATOM     12  C   LIG    1       22.924 -29.423   5.333  0.00  0.00    +0.128 C 
ATOM     13  C   LIG    1       24.134 -30.300   4.967  0.00  0.00    +0.063 C 
ATOM     14  C   LIG    1       24.607 -31.205   6.116  0.00  0.00    +0.119 C 
ATOM     15  C   LIG    1       25.739 -30.576   6.940  0.00  0.00    +0.062 C 
ATOM     16  C   LIG    1       25.596 -30.878   8.435  0.00  0.00    +0.117 C 
ATOM     17  C   LIG    1       26.741 -30.315   9.286  0.00  0.00    +0.034 C 
ATOM     18  C   LIG    1       27.106 -28.835   9.149  0.00  0.00    +0.036 C 
ATOM     19  C   LIG    1       26.177 -27.787   9.781  0.00  0.00    +0.143 C 
ATOM     20  C   LIG    1       26.033 -27.756  11.317  0.00  0.00    +0.150 C 
ATOM     21  C   LIG    1       27.360 -27.814  12.062  0.00  0.00    +0.108 C 
ATOM     22  C   LIG    1       27.141 -27.990  13.549  0.00  0.00    +0.138 C 
ATOM     23  O   LIG    1       26.282 -27.333  14.140  0.00  0.00    -0.297 OA
ATOM     24  C   LIG    1       28.082 -28.914  14.295  0.00  0.00    +0.106 C 
ATOM     25  C   LIG    1       27.931 -30.451  14.170  0.00  0.00    +0.138 C 
ATOM     26  C   LIG    1       26.945 -31.077  13.144  0.00  0.00    +0.155 C 
ATOM     27  C   LIG    1       25.494 -31.293  13.624  0.00  0.00    +0.134 C 
ATOM     28  C   LIG    1       24.515 -31.855  12.548  0.00  0.00    +0.068 C 
ATOM     29  C   LIG    1       22.988 -31.908  12.902  0.00  0.00    +0.147 C 
ATOM     30  C   LIG    1       22.032 -31.023  12.124  0.00  0.00    +0.004 C 
ATOM     31  C   LIG    1       22.281 -30.075  11.206  0.00  0.00    -0.002 C 
ATOM     32  C   LIG    1       21.341 -28.964  11.063  0.00  0.00    -0.000 C 
ATOM     33  C   LIG    1       21.870 -27.728  11.015  0.00  0.00    +0.000 C 
ATOM     34  C   LIG    1       21.394 -26.644  11.863  0.00  0.00    +0.000 C 
ATOM     35  C   LIG    1       22.261 -25.663  12.168  0.00  0.00    -0.000 C 
ATOM     36  C   LIG    1       22.241 -24.836  13.354  0.00  0.00    -0.004 C 
ATOM     37  C   LIG    1       23.063 -25.154  14.373  0.00  0.00    -0.026 C 
ATOM     38  C   LIG    1       23.487 -24.220  15.480  0.00  0.00    +0.031 C 
ATOM     39  C   LIG    1       24.970 -23.803  15.322  0.00  0.00    +0.031 C 
ATOM     40  C   LIG    1       25.211 -23.197  13.962  0.00  0.00    -0.026 C 
ATOM     41  C   LIG    1       25.981 -23.748  13.007  0.00  0.00    -0.005 C 
ATOM     42  C   LIG    1       25.902 -23.288  11.641  0.00  0.00    -0.004 C 
ATOM     43  C   LIG    1       26.648 -23.733  10.616  0.00  0.00    -0.021 C 
ENDROOT
BRANCH   3  44
ATOM     44  O   LIG    1       27.942 -23.826   7.339  0.00  0.00    -0.391 OA
ATOM     45  H   LIG    1       28.226 -24.522   6.725  0.00  0.00    +0.210 HD
ENDBRANCH   3  44
BRANCH  12  46
ATOM     46  O   LIG    1       22.418 -28.843   4.131  0.00  0.00    -0.391 OA
ATOM     47  H   LIG    1       22.559 -29.464   3.394  0.00  0.00    +0.210 HD
ENDBRANCH  12  46
BRANCH  14  48
ATOM     48  O   LIG    1       25.102 -32.426   5.556  0.00  0.00    -0.392 OA
ATOM     49  H   LIG    1       24.977 -32.343   4.590  0.00  0.00    +0.210 HD
ENDBRANCH  14  48
BRANCH  16  50
ATOM     50  O   LIG    1       25.559 -32.303   8.600  0.00  0.00    -0.392 OA
ATOM     51  H   LIG    1       24.624 -32.586   8.621  0.00  0.00    +0.210 HD
ENDBRANCH  16  50
BRANCH  19  52
ATOM     52  O   LIG    1       24.876 -27.930   9.219  0.00  0.00    -0.389 OA
ATOM     53  H   LIG    1       24.382 -27.171   9.585  0.00  0.00    +0.210 HD
ENDBRANCH  19  52
BRANCH  20  54
ATOM     54  O   LIG    1       25.194 -28.854  11.668  0.00  0.00    -0.389 OA
ATOM     55  H   LIG    1       25.393 -29.593  11.046  0.00  0.00    +0.210 HD
ENDBRANCH  20  54
BRANCH  25  56
ATOM     56  O   LIG    1       27.677 -30.967  15.485  0.00  0.00    -0.391 OA
ATOM     57  H   LIG    1       28.539 -31.045  15.937  0.00  0.00    +0.210 HD
ENDBRANCH  25  56
BRANCH  26  58
ATOM     58  C   LIG    1       27.473 -32.376  12.580  0.00  0.00    +0.313 C 
ATOM     59  O   LIG    1       27.147 -32.843  11.489  0.00  0.00    -0.251 OA
BRANCH  58  60
ATOM     60  O   LIG    1       28.278 -33.071  13.391  0.00  0.00    -0.480 OA
ATOM     61  H   LIG    1       29.166 -32.664  13.304  0.00  0.00    +0.295 HD
ENDBRANCH  58  60
ENDBRANCH  26  58
BRANCH  27  62
ATOM     62  O   LIG    1       25.013 -30.042  14.120  0.00  0.00    -0.391 OA
ATOM     63  H   LIG    1       25.088 -30.090  15.099  0.00  0.00    +0.210 HD
ENDBRANCH  27  62
BRANCH  29  64
ATOM     64  O   LIG    1       22.881 -31.621  14.314  0.00  0.00    -0.341 OA
BRANCH  64  65
ATOM     65  C   LIG    1       21.806 -32.189  15.077  0.00  0.00    +0.281 C 
ATOM     66  C   LIG    1       20.447 -31.458  14.993  0.00  0.00    +0.189 C 
ATOM     67  C   LIG    1       19.866 -31.527  13.568  0.00  0.00    +0.116 C 
ATOM     68  C   LIG    1       19.763 -33.000  13.141  0.00  0.00    +0.162 C 
ATOM     69  C   LIG    1       21.036 -33.825  13.425  0.00  0.00    +0.148 C 
ATOM     70  C   LIG    1       22.051 -33.754  12.292  0.00  0.00    +0.040 C 
ATOM     71  O   LIG    1       21.641 -33.569  14.699  0.00  0.00    -0.343 OA
BRANCH  67  72
ATOM     72  N   LIG    1       20.597 -30.680  12.601  0.00  0.00    -0.323 NA
ATOM     73  H   LIG    1       20.853 -29.814  13.082  0.00  0.00    +0.119 HD
ATOM     74  H   LIG    1       21.491 -31.120  12.380  0.00  0.00    +0.119 HD
ENDBRANCH  67  72
BRANCH  66  75
ATOM     75  O   LIG    1       20.508 -30.100  15.446  0.00  0.00    -0.385 OA
ATOM     76  H   LIG    1       19.684 -29.670  15.155  0.00  0.00    +0.210 HD
ENDBRANCH  66  75
BRANCH  68  77
ATOM     77  O   LIG    1       18.663 -33.581  13.867  0.00  0.00    -0.388 OA
ATOM     78  H   LIG    1       19.031 -33.994  14.668  0.00  0.00    +0.210 HD
ENDBRANCH  68  77
ENDBRANCH  64  65
ENDBRANCH  29  64
TORSDOF 15
ENDMDL
