MODEL 1
REMARK VINA RESULT:     -10.7      0.000      0.000
REMARK  Name = *****
REMARK                            x       y       z     vdW  Elec       q    Type
REMARK                         _______ _______ _______ _____ _____    ______ ____
ROOT
ATOM      1  N   LIG    1       24.513 -25.026   6.507  0.00  0.00    -0.296 NA
ATOM      2  C   LIG    1       23.536 -23.948   6.237  0.00  0.00    +0.100 C 
ATOM      3  C   LIG    1       23.627 -22.689   7.142  0.00  0.00    +0.100 C 
ATOM      4  N   LIG    1       24.984 -22.140   7.368  0.00  0.00    -0.289 NA
ATOM      5  C   LIG    1       25.803 -23.295   7.817  0.00  0.00    +0.100 C 
ATOM      6  C   LIG    1       25.846 -24.487   6.837  0.00  0.00    +0.100 C 
ENDROOT
BRANCH   1   7
ATOM      7  C   LIG    1       24.569 -25.956   5.352  0.00  0.00    +0.119 C 
BRANCH   7  11
ATOM      8  C   LIG    1       24.921 -30.210   6.297  0.00  0.00    -0.042 A 
ATOM      9  C   LIG    1       24.395 -29.293   7.221  0.00  0.00    +0.004 A 
ATOM     10  C   LIG    1       24.306 -27.926   6.919  0.00  0.00    +0.005 A 
ATOM     11  C   LIG    1       24.753 -27.424   5.691  0.00  0.00    -0.033 A 
ATOM     12  C   LIG    1       25.391 -28.308   4.819  0.00  0.00    +0.005 A 
ATOM     13  C   LIG    1       25.457 -29.676   5.112  0.00  0.00    +0.004 A 
BRANCH   8  15
ATOM     14  C   LIG    1       25.166 -32.069   8.064  0.00  0.00    +0.015 C 
ATOM     15  C   LIG    1       24.926 -31.727   6.573  0.00  0.00    -0.013 C 
ATOM     16  C   LIG    1       23.568 -32.368   6.195  0.00  0.00    +0.015 C 
ATOM     17  C   LIG    1       26.047 -32.391   5.754  0.00  0.00    +0.015 C 
ENDBRANCH   8  15
ENDBRANCH   7  11
ENDBRANCH   1   7
BRANCH   4  18
ATOM     18  C   LIG    1       25.561 -21.420   6.186  0.00  0.00    +0.117 C 
BRANCH  18  19
ATOM     19  C   LIG    1       26.846 -20.613   6.512  0.00  0.00    -0.026 A 
ATOM     20  C   LIG    1       27.332 -20.458   7.819  0.00  0.00    +0.007 A 
ATOM     21  C   LIG    1       28.556 -19.827   8.077  0.00  0.00    +0.020 A 
ATOM     22  C   LIG    1       29.289 -19.285   7.017  0.00  0.00    +0.041 A 
ATOM     23 CL   LIG    1       30.813 -18.546   7.324  0.00  0.00    -0.084 Cl
ATOM     24  C   LIG    1       28.791 -19.349   5.726  0.00  0.00    +0.020 A 
ATOM     25  C   LIG    1       27.580 -20.006   5.465  0.00  0.00    +0.007 A 
ENDBRANCH  18  19
BRANCH  18  26
ATOM     26  C   LIG    1       24.538 -20.522   5.464  0.00  0.00    -0.026 A 
ATOM     27  C   LIG    1       24.807 -20.048   4.164  0.00  0.00    +0.005 A 
ATOM     28  C   LIG    1       23.901 -19.215   3.498  0.00  0.00    +0.000 A 
ATOM     29  C   LIG    1       22.704 -18.855   4.111  0.00  0.00    +0.000 A 
ATOM     30  C   LIG    1       22.407 -19.338   5.384  0.00  0.00    +0.000 A 
ATOM     31  C   LIG    1       23.317 -20.160   6.057  0.00  0.00    +0.005 A 
ENDBRANCH  18  26
ENDBRANCH   4  18
TORSDOF 6
ENDMDL
MODEL 2
REMARK VINA RESULT:     -10.0      0.763      1.562
REMARK  Name = *****
REMARK                            x       y       z     vdW  Elec       q    Type
REMARK                         _______ _______ _______ _____ _____    ______ ____
ROOT
ATOM      1  N   LIG    1       24.885 -24.989   6.824  0.00  0.00    -0.296 NA
ATOM      2  C   LIG    1       23.813 -24.260   6.111  0.00  0.00    +0.100 C 
ATOM      3  C   LIG    1       23.358 -22.913   6.736  0.00  0.00    +0.100 C 
ATOM      4  N   LIG    1       24.437 -21.993   7.169  0.00  0.00    -0.289 NA
ATOM      5  C   LIG    1       25.329 -22.813   8.027  0.00  0.00    +0.100 C 
ATOM      6  C   LIG    1       25.914 -24.072   7.351  0.00  0.00    +0.100 C 
ENDROOT
BRANCH   1   7
ATOM      7  C   LIG    1       25.475 -26.017   5.931  0.00  0.00    +0.119 C 
BRANCH   7  11
ATOM      8  C   LIG    1       24.941 -30.227   6.985  0.00  0.00    -0.042 A 
ATOM      9  C   LIG    1       24.353 -29.676   5.835  0.00  0.00    +0.004 A 
ATOM     10  C   LIG    1       24.510 -28.320   5.515  0.00  0.00    +0.005 A 
ATOM     11  C   LIG    1       25.246 -27.461   6.340  0.00  0.00    -0.033 A 
ATOM     12  C   LIG    1       25.726 -27.971   7.547  0.00  0.00    +0.005 A 
ATOM     13  C   LIG    1       25.589 -29.330   7.853  0.00  0.00    +0.004 A 
BRANCH   8  15
ATOM     14  C   LIG    1       25.157 -32.619   6.054  0.00  0.00    +0.015 C 
ATOM     15  C   LIG    1       24.866 -31.735   7.292  0.00  0.00    -0.013 C 
ATOM     16  C   LIG    1       25.906 -32.139   8.365  0.00  0.00    +0.015 C 
ATOM     17  C   LIG    1       23.454 -32.086   7.795  0.00  0.00    +0.015 C 
ENDBRANCH   8  15
ENDBRANCH   7  11
ENDBRANCH   1   7
BRANCH   4  18
ATOM     18  C   LIG    1       25.153 -21.312   6.041  0.00  0.00    +0.117 C 
BRANCH  18  19
ATOM     19  C   LIG    1       26.491 -20.646   6.461  0.00  0.00    -0.026 A 
ATOM     20  C   LIG    1       26.817 -20.380   7.799  0.00  0.00    +0.007 A 
ATOM     21  C   LIG    1       28.077 -19.888   8.165  0.00  0.00    +0.020 A 
ATOM     22  C   LIG    1       29.018 -19.599   7.172  0.00  0.00    +0.041 A 
ATOM     23 CL   LIG    1       30.581 -19.035   7.618  0.00  0.00    -0.084 Cl
ATOM     24  C   LIG    1       28.692 -19.773   5.837  0.00  0.00    +0.020 A 
ATOM     25  C   LIG    1       27.441 -20.292   5.474  0.00  0.00    +0.007 A 
ENDBRANCH  18  19
BRANCH  18  26
ATOM     26  C   LIG    1       24.270 -20.300   5.284  0.00  0.00    -0.026 A 
ATOM     27  C   LIG    1       22.961 -20.032   5.731  0.00  0.00    +0.005 A 
ATOM     28  C   LIG    1       22.136 -19.132   5.048  0.00  0.00    +0.000 A 
ATOM     29  C   LIG    1       22.608 -18.473   3.916  0.00  0.00    +0.000 A 
ATOM     30  C   LIG    1       23.911 -18.704   3.476  0.00  0.00    +0.000 A 
ATOM     31  C   LIG    1       24.733 -19.612   4.151  0.00  0.00    +0.005 A 
ENDBRANCH  18  26
ENDBRANCH   4  18
TORSDOF 6
ENDMDL
MODEL 3
REMARK VINA RESULT:      -8.8      3.282      9.734
REMARK  Name = *****
REMARK                            x       y       z     vdW  Elec       q    Type
REMARK                         _______ _______ _______ _____ _____    ______ ____
ROOT
ATOM      1  N   LIG    1       22.111 -20.118   5.367  0.00  0.00    -0.296 NA
ATOM      2  C   LIG    1       23.266 -19.702   6.192  0.00  0.00    +0.100 C 
ATOM      3  C   LIG    1       23.705 -20.684   7.313  0.00  0.00    +0.100 C 
ATOM      4  N   LIG    1       23.803 -22.113   6.932  0.00  0.00    -0.289 NA
ATOM      5  C   LIG    1       22.504 -22.436   6.289  0.00  0.00    +0.100 C 
ATOM      6  C   LIG    1       22.142 -21.562   5.068  0.00  0.00    +0.100 C 
ENDROOT
BRANCH   1   7
ATOM      7  C   LIG    1       22.058 -19.303   4.128  0.00  0.00    +0.119 C 
BRANCH   7  11
ATOM      8  C   LIG    1       24.587 -15.746   3.881  0.00  0.00    -0.042 A 
ATOM      9  C   LIG    1       25.071 -17.018   3.536  0.00  0.00    +0.004 A 
ATOM     10  C   LIG    1       24.261 -18.158   3.639  0.00  0.00    +0.005 A 
ATOM     11  C   LIG    1       22.943 -18.071   4.105  0.00  0.00    -0.033 A 
ATOM     12  C   LIG    1       22.497 -16.832   4.569  0.00  0.00    +0.005 A 
ATOM     13  C   LIG    1       23.299 -15.692   4.442  0.00  0.00    +0.004 A 
BRANCH   8  15
ATOM     14  C   LIG    1       25.596 -13.639   4.967  0.00  0.00    +0.015 C 
ATOM     15  C   LIG    1       25.430 -14.472   3.672  0.00  0.00    -0.013 C 
ATOM     16  C   LIG    1       26.861 -14.821   3.196  0.00  0.00    +0.015 C 
ATOM     17  C   LIG    1       24.750 -13.576   2.622  0.00  0.00    +0.015 C 
ENDBRANCH   8  15
ENDBRANCH   7  11
ENDBRANCH   1   7
BRANCH   4  18
ATOM     18  C   LIG    1       24.992 -22.441   6.078  0.00  0.00    +0.117 C 
BRANCH  18  19
ATOM     19  C   LIG    1       25.258 -23.964   5.936  0.00  0.00    -0.026 A 
ATOM     20  C   LIG    1       25.761 -24.746   6.986  0.00  0.00    +0.007 A 
ATOM     21  C   LIG    1       25.882 -26.137   6.874  0.00  0.00    +0.020 A 
ATOM     22  C   LIG    1       25.548 -26.762   5.670  0.00  0.00    +0.041 A 
ATOM     23 CL   LIG    1       25.653 -28.475   5.540  0.00  0.00    -0.084 Cl
ATOM     24  C   LIG    1       25.127 -26.005   4.588  0.00  0.00    +0.020 A 
ATOM     25  C   LIG    1       24.981 -24.615   4.711  0.00  0.00    +0.007 A 
ENDBRANCH  18  19
BRANCH  18  26
ATOM     26  C   LIG    1       26.277 -21.716   6.521  0.00  0.00    -0.026 A 
ATOM     27  C   LIG    1       26.760 -20.617   5.781  0.00  0.00    +0.005 A 
ATOM     28  C   LIG    1       27.935 -19.957   6.155  0.00  0.00    +0.000 A 
ATOM     29  C   LIG    1       28.640 -20.371   7.282  0.00  0.00    +0.000 A 
ATOM     30  C   LIG    1       28.163 -21.437   8.042  0.00  0.00    +0.000 A 
ATOM     31  C   LIG    1       26.994 -22.106   7.664  0.00  0.00    +0.005 A 
ENDBRANCH  18  26
ENDBRANCH   4  18
TORSDOF 6
ENDMDL
MODEL 4
REMARK VINA RESULT:      -8.7      5.215      9.006
REMARK  Name = *****
REMARK                            x       y       z     vdW  Elec       q    Type
REMARK                         _______ _______ _______ _____ _____    ______ ____
ROOT
ATOM      1  N   LIG    1       24.494 -31.329   9.063  0.00  0.00    -0.296 NA
ATOM      2  C   LIG    1       23.626 -30.213   9.498  0.00  0.00    +0.100 C 
ATOM      3  C   LIG    1       23.363 -30.095  11.024  0.00  0.00    +0.100 C 
ATOM      4  N   LIG    1       24.546 -30.231  11.906  0.00  0.00    -0.289 NA
ATOM      5  C   LIG    1       25.208 -31.489  11.480  0.00  0.00    +0.100 C 
ATOM      6  C   LIG    1       25.619 -31.542   9.993  0.00  0.00    +0.100 C 
ENDROOT
BRANCH   1   7
ATOM      7  C   LIG    1       24.967 -31.090   7.677  0.00  0.00    +0.119 C 
BRANCH   7  11
ATOM      8  C   LIG    1       24.992 -26.881   6.494  0.00  0.00    -0.042 A 
ATOM      9  C   LIG    1       24.251 -27.840   5.785  0.00  0.00    +0.004 A 
ATOM     10  C   LIG    1       24.266 -29.192   6.157  0.00  0.00    +0.005 A 
ATOM     11  C   LIG    1       25.033 -29.638   7.240  0.00  0.00    -0.033 A 
ATOM     12  C   LIG    1       25.868 -28.714   7.870  0.00  0.00    +0.005 A 
ATOM     13  C   LIG    1       25.834 -27.361   7.512  0.00  0.00    +0.004 A 
BRANCH   8  15
ATOM     14  C   LIG    1       23.546 -24.750   6.569  0.00  0.00    +0.015 C 
ATOM     15  C   LIG    1       24.902 -25.378   6.163  0.00  0.00    -0.013 C 
ATOM     16  C   LIG    1       25.992 -24.574   6.914  0.00  0.00    +0.015 C 
ATOM     17  C   LIG    1       25.077 -25.177   4.647  0.00  0.00    +0.015 C 
ENDBRANCH   8  15
ENDBRANCH   7  11
ENDBRANCH   1   7
BRANCH   4  18
ATOM     18  C   LIG    1       25.458 -29.041  11.898  0.00  0.00    +0.117 C 
BRANCH  18  19
ATOM     19  C   LIG    1       26.886 -29.345  12.427  0.00  0.00    -0.026 A 
ATOM     20  C   LIG    1       28.029 -29.254  11.619  0.00  0.00    +0.007 A 
ATOM     21  C   LIG    1       29.316 -29.418  12.147  0.00  0.00    +0.020 A 
ATOM     22  C   LIG    1       29.471 -29.736  13.498  0.00  0.00    +0.041 A 
ATOM     23 CL   LIG    1       31.052 -29.896  14.161  0.00  0.00    -0.084 Cl
ATOM     24  C   LIG    1       28.356 -29.915  14.301  0.00  0.00    +0.020 A 
ATOM     25  C   LIG    1       27.069 -29.724  13.778  0.00  0.00    +0.007 A 
ENDBRANCH  18  19
BRANCH  18  26
ATOM     26  C   LIG    1       24.870 -27.819  12.629  0.00  0.00    -0.026 A 
ATOM     27  C   LIG    1       25.696 -26.723  12.952  0.00  0.00    +0.005 A 
ATOM     28  C   LIG    1       25.186 -25.612  13.633  0.00  0.00    +0.000 A 
ATOM     29  C   LIG    1       23.841 -25.568  13.989  0.00  0.00    +0.000 A 
ATOM     30  C   LIG    1       23.003 -26.630  13.652  0.00  0.00    +0.000 A 
ATOM     31  C   LIG    1       23.512 -27.747  12.983  0.00  0.00    +0.005 A 
ENDBRANCH  18  26
ENDBRANCH   4  18
TORSDOF 6
ENDMDL
MODEL 5
REMARK VINA RESULT:      -8.6      4.090      9.800
REMARK  Name = *****
REMARK                            x       y       z     vdW  Elec       q    Type
REMARK                         _______ _______ _______ _____ _____    ______ ____
ROOT
ATOM      1  N   LIG    1       25.378 -28.088   6.744  0.00  0.00    -0.296 NA
ATOM      2  C   LIG    1       24.815 -29.449   6.888  0.00  0.00    +0.100 C 
ATOM      3  C   LIG    1       25.554 -30.404   7.865  0.00  0.00    +0.100 C 
ATOM      4  N   LIG    1       25.928 -29.834   9.182  0.00  0.00    -0.289 NA
ATOM      5  C   LIG    1       26.649 -28.574   8.871  0.00  0.00    +0.100 C 
ATOM      6  C   LIG    1       25.851 -27.551   8.034  0.00  0.00    +0.100 C 
ENDROOT
BRANCH   1   7
ATOM      7  C   LIG    1       24.377 -27.193   6.112  0.00  0.00    +0.119 C 
BRANCH   7  11
ATOM      8  C   LIG    1       24.954 -22.929   6.890  0.00  0.00    -0.042 A 
ATOM      9  C   LIG    1       23.672 -23.486   6.756  0.00  0.00    +0.004 A 
ATOM     10  C   LIG    1       23.495 -24.851   6.484  0.00  0.00    +0.005 A 
ATOM     11  C   LIG    1       24.592 -25.705   6.321  0.00  0.00    -0.033 A 
ATOM     12  C   LIG    1       25.866 -25.137   6.327  0.00  0.00    +0.005 A 
ATOM     13  C   LIG    1       26.041 -23.780   6.623  0.00  0.00    +0.004 A 
BRANCH   8  15
ATOM     14  C   LIG    1       25.839 -21.299   8.677  0.00  0.00    +0.015 C 
ATOM     15  C   LIG    1       25.161 -21.456   7.293  0.00  0.00    -0.013 C 
ATOM     16  C   LIG    1       26.073 -20.723   6.280  0.00  0.00    +0.015 C 
ATOM     17  C   LIG    1       23.797 -20.747   7.356  0.00  0.00    +0.015 C 
ENDBRANCH   8  15
ENDBRANCH   7  11
ENDBRANCH   1   7
BRANCH   4  18
ATOM     18  C   LIG    1       24.774 -29.648  10.121  0.00  0.00    +0.117 C 
BRANCH  18  19
ATOM     19  C   LIG    1       25.189 -29.135  11.526  0.00  0.00    -0.026 A 
ATOM     20  C   LIG    1       26.508 -29.206  12.000  0.00  0.00    +0.007 A 
ATOM     21  C   LIG    1       26.882 -28.630  13.221  0.00  0.00    +0.020 A 
ATOM     22  C   LIG    1       25.912 -28.018  14.019  0.00  0.00    +0.041 A 
ATOM     23 CL   LIG    1       26.373 -27.272  15.500  0.00  0.00    -0.084 Cl
ATOM     24  C   LIG    1       24.587 -28.007  13.615  0.00  0.00    +0.020 A 
ATOM     25  C   LIG    1       24.219 -28.559  12.379  0.00  0.00    +0.007 A 
ENDBRANCH  18  19
BRANCH  18  26
ATOM     26  C   LIG    1       23.890 -30.903  10.254  0.00  0.00    -0.026 A 
ATOM     27  C   LIG    1       24.439 -32.106  10.742  0.00  0.00    +0.005 A 
ATOM     28  C   LIG    1       23.660 -33.263  10.852  0.00  0.00    +0.000 A 
ATOM     29  C   LIG    1       22.315 -33.235  10.491  0.00  0.00    +0.000 A 
ATOM     30  C   LIG    1       21.747 -32.047  10.033  0.00  0.00    +0.000 A 
ATOM     31  C   LIG    1       22.528 -30.893   9.911  0.00  0.00    +0.005 A 
ENDBRANCH  18  26
ENDBRANCH   4  18
TORSDOF 6
ENDMDL
MODEL 6
REMARK VINA RESULT:      -8.0      5.785      9.635
REMARK  Name = *****
REMARK                            x       y       z     vdW  Elec       q    Type
REMARK                         _______ _______ _______ _____ _____    ______ ____
ROOT
ATOM      1  N   LIG    1       23.263 -33.031  10.526  0.00  0.00    -0.296 NA
ATOM      2  C   LIG    1       24.616 -32.598  10.939  0.00  0.00    +0.100 C 
ATOM      3  C   LIG    1       25.611 -32.253   9.796  0.00  0.00    +0.100 C 
ATOM      4  N   LIG    1       25.084 -31.403   8.702  0.00  0.00    -0.289 NA
ATOM      5  C   LIG    1       23.830 -32.065   8.263  0.00  0.00    +0.100 C 
ATOM      6  C   LIG    1       22.770 -32.261   9.369  0.00  0.00    +0.100 C 
ENDROOT
BRANCH   1   7
ATOM      7  C   LIG    1       22.333 -32.943  11.679  0.00  0.00    +0.119 C 
BRANCH   7  11
ATOM      8  C   LIG    1       21.810 -28.884  13.218  0.00  0.00    -0.042 A 
ATOM      9  C   LIG    1       22.596 -29.832  13.894  0.00  0.00    +0.004 A 
ATOM     10  C   LIG    1       22.740 -31.139  13.406  0.00  0.00    +0.005 A 
ATOM     11  C   LIG    1       22.094 -31.551  12.234  0.00  0.00    -0.033 A 
ATOM     12  C   LIG    1       21.214 -30.655  11.627  0.00  0.00    +0.005 A 
ATOM     13  C   LIG    1       21.089 -29.343  12.102  0.00  0.00    +0.004 A 
BRANCH   8  15
ATOM     14  C   LIG    1       22.998 -26.601  13.334  0.00  0.00    +0.015 C 
ATOM     15  C   LIG    1       21.729 -27.417  13.683  0.00  0.00    -0.013 C 
ATOM     16  C   LIG    1       20.544 -26.682  13.010  0.00  0.00    +0.015 C 
ATOM     17  C   LIG    1       21.550 -27.375  15.212  0.00  0.00    +0.015 C 
ENDBRANCH   8  15
ENDBRANCH   7  11
ENDBRANCH   1   7
BRANCH   4  18
ATOM     18  C   LIG    1       24.902 -29.963   9.077  0.00  0.00    +0.117 C 
BRANCH  18  19
ATOM     19  C   LIG    1       25.064 -28.982   7.884  0.00  0.00    -0.026 A 
ATOM     20  C   LIG    1       24.352 -29.125   6.684  0.00  0.00    +0.007 A 
ATOM     21  C   LIG    1       24.425 -28.163   5.668  0.00  0.00    +0.020 A 
ATOM     22  C   LIG    1       25.270 -27.061   5.822  0.00  0.00    +0.041 A 
ATOM     23 CL   LIG    1       25.331 -25.855   4.596  0.00  0.00    -0.084 Cl
ATOM     24  C   LIG    1       26.049 -26.938   6.961  0.00  0.00    +0.020 A 
ATOM     25  C   LIG    1       25.954 -27.887   7.990  0.00  0.00    +0.007 A 
ENDBRANCH  18  19
BRANCH  18  26
ATOM     26  C   LIG    1       25.797 -29.523  10.252  0.00  0.00    -0.026 A 
ATOM     27  C   LIG    1       25.216 -28.990  11.421  0.00  0.00    +0.005 A 
ATOM     28  C   LIG    1       26.011 -28.567  12.492  0.00  0.00    +0.000 A 
ATOM     29  C   LIG    1       27.397 -28.681  12.421  0.00  0.00    +0.000 A 
ATOM     30  C   LIG    1       27.987 -29.232  11.284  0.00  0.00    +0.000 A 
ATOM     31  C   LIG    1       27.195 -29.645  10.208  0.00  0.00    +0.005 A 
ENDBRANCH  18  26
ENDBRANCH   4  18
TORSDOF 6
ENDMDL
