MODEL 1
REMARK VINA RESULT:      -9.2      0.000      0.000
REMARK  Name = *****
REMARK                            x       y       z     vdW  Elec       q    Type
REMARK                         _______ _______ _______ _____ _____    ______ ____
ROOT
ATOM      1  C   LIG    1       27.133 -29.159  12.442  0.00  0.00    +0.076 C 
ATOM      2  C   LIG    1       27.903 -30.030  11.438  0.00  0.00    +0.026 C 
ATOM      3  C   LIG    1       27.378 -30.007   9.986  0.00  0.00    -0.005 C 
ATOM      4  C   LIG    1       26.314 -31.108   9.768  0.00  0.00    +0.019 C 
ATOM      5  C   LIG    1       25.752 -31.039   8.362  0.00  0.00    +0.105 C 
ATOM      6  C   LIG    1       25.115 -29.679   8.152  0.00  0.00    +0.050 C 
ATOM      7  C   LIG    1       26.226 -28.625   8.097  0.00  0.00    +0.023 C 
ATOM      8  C   LIG    1       24.159 -29.948   7.003  0.00  0.00    +0.178 C 
ATOM      9  C   LIG    1       24.715 -29.938   5.588  0.00  0.00    +0.052 C 
ATOM     10  O   LIG    1       23.682 -31.281   7.288  0.00  0.00    -0.461 OA
ATOM     11  C   LIG    1       24.609 -31.958   8.039  0.00  0.00    +0.311 C 
ATOM     12  O   LIG    1       24.536 -33.140   8.324  0.00  0.00    -0.251 OA
ATOM     13  C   LIG    1       26.971 -28.582   9.483  0.00  0.00    -0.000 C 
ATOM     14  C   LIG    1       26.214 -27.765  10.553  0.00  0.00    +0.006 C 
ATOM     15  C   LIG    1       26.941 -27.755  11.891  0.00  0.00    +0.022 C 
ENDROOT
BRANCH   1  17
ATOM     16  C   LIG    1       25.065 -29.231  13.830  0.00  0.00    +0.401 C 
ATOM     17  N   LIG    1       25.859 -29.734  12.837  0.00  0.00    -0.278 N 
ATOM     18  H   LIG    1       25.280 -30.174  12.132  0.00  0.00    +0.152 HD
ATOM     19  O   LIG    1       23.916 -29.593  13.967  0.00  0.00    -0.227 OA
BRANCH  16  20
ATOM     20  O   LIG    1       25.662 -28.198  14.480  0.00  0.00    -0.451 OA
BRANCH  20  22
ATOM     21  C   LIG    1       24.517 -26.123  14.023  0.00  0.00    +0.048 C 
ATOM     22  C   LIG    1       24.743 -27.249  15.024  0.00  0.00    +0.230 C 
ENDBRANCH  20  22
ENDBRANCH  16  20
ENDBRANCH   1  17
BRANCH   7  23
ATOM     23  C   LIG    1       25.713 -27.276   7.675  0.00  0.00    -0.021 C 
ATOM     24  C   LIG    1       26.227 -26.559   6.661  0.00  0.00    +0.024 C 
BRANCH  24  25
ATOM     25  C   LIG    1       25.719 -25.230   6.311  0.00  0.00    +0.064 A 
ATOM     26  N   LIG    1       25.149 -25.103   5.095  0.00  0.00    -0.255 NA
ATOM     27  C   LIG    1       24.686 -23.878   4.749  0.00  0.00    +0.119 A 
ATOM     28  C   LIG    1       24.757 -22.734   5.545  0.00  0.00    +0.000 A 
ATOM     29  C   LIG    1       25.351 -22.915   6.802  0.00  0.00    +0.012 A 
ATOM     30  C   LIG    1       25.829 -24.169   7.196  0.00  0.00    +0.028 A 
BRANCH  28  31
ATOM     31  C   LIG    1       24.244 -21.424   5.086  0.00  0.00    -0.014 A 
ATOM     32  C   LIG    1       25.033 -20.558   4.308  0.00  0.00    +0.046 A 
ATOM     33  C   LIG    1       24.540 -19.325   3.885  0.00  0.00    +0.124 A 
ATOM     34  F   LIG    1       25.320 -18.526   3.145  0.00  0.00    -0.205 F 
ATOM     35  C   LIG    1       23.257 -18.913   4.214  0.00  0.00    +0.038 A 
ATOM     36  C   LIG    1       22.455 -19.747   4.984  0.00  0.00    +0.003 A 
ATOM     37  C   LIG    1       22.946 -20.985   5.416  0.00  0.00    +0.009 A 
ENDBRANCH  28  31
ENDBRANCH  24  25
ENDBRANCH   7  23
TORSDOF 6
ENDMDL
MODEL 2
REMARK VINA RESULT:      -9.1      1.218      1.708
REMARK  Name = *****
REMARK                            x       y       z     vdW  Elec       q    Type
REMARK                         _______ _______ _______ _____ _____    ______ ____
ROOT
ATOM      1  C   LIG    1       27.134 -29.222  12.360  0.00  0.00    +0.076 C 
ATOM      2  C   LIG    1       27.898 -30.082  11.343  0.00  0.00    +0.026 C 
ATOM      3  C   LIG    1       27.370 -30.035   9.892  0.00  0.00    -0.005 C 
ATOM      4  C   LIG    1       26.300 -31.129   9.660  0.00  0.00    +0.019 C 
ATOM      5  C   LIG    1       25.736 -31.037   8.256  0.00  0.00    +0.105 C 
ATOM      6  C   LIG    1       25.105 -29.672   8.068  0.00  0.00    +0.050 C 
ATOM      7  C   LIG    1       26.221 -28.621   8.025  0.00  0.00    +0.023 C 
ATOM      8  C   LIG    1       24.146 -29.919   6.916  0.00  0.00    +0.178 C 
ATOM      9  C   LIG    1       24.698 -29.892   5.501  0.00  0.00    +0.052 C 
ATOM     10  O   LIG    1       23.663 -31.254   7.184  0.00  0.00    -0.461 OA
ATOM     11  C   LIG    1       24.589 -31.946   7.923  0.00  0.00    +0.311 C 
ATOM     12  O   LIG    1       24.511 -33.132   8.191  0.00  0.00    -0.251 OA
ATOM     13  C   LIG    1       26.968 -28.601   9.410  0.00  0.00    -0.000 C 
ATOM     14  C   LIG    1       26.217 -27.796  10.493  0.00  0.00    +0.006 C 
ATOM     15  C   LIG    1       26.947 -27.809  11.830  0.00  0.00    +0.022 C 
ENDROOT
BRANCH   1  17
ATOM     16  C   LIG    1       25.717 -30.808  13.658  0.00  0.00    +0.401 C 
ATOM     17  N   LIG    1       25.858 -29.797  12.749  0.00  0.00    -0.278 N 
ATOM     18  H   LIG    1       25.039 -29.201  12.779  0.00  0.00    +0.152 HD
ATOM     19  O   LIG    1       24.635 -31.094  14.127  0.00  0.00    -0.227 OA
BRANCH  16  20
ATOM     20  O   LIG    1       26.920 -31.290  14.070  0.00  0.00    -0.451 OA
BRANCH  20  22
ATOM     21  C   LIG    1       27.008 -33.444  15.154  0.00  0.00    +0.048 C 
ATOM     22  C   LIG    1       26.878 -31.938  15.343  0.00  0.00    +0.230 C 
ENDBRANCH  20  22
ENDBRANCH  16  20
ENDBRANCH   1  17
BRANCH   7  23
ATOM     23  C   LIG    1       25.713 -27.264   7.624  0.00  0.00    -0.021 C 
ATOM     24  C   LIG    1       26.206 -26.550   6.598  0.00  0.00    +0.024 C 
BRANCH  24  25
ATOM     25  C   LIG    1       25.705 -25.213   6.268  0.00  0.00    +0.064 A 
ATOM     26  N   LIG    1       25.109 -25.072   5.065  0.00  0.00    -0.255 NA
ATOM     27  C   LIG    1       24.652 -23.840   4.738  0.00  0.00    +0.119 A 
ATOM     28  C   LIG    1       24.754 -22.702   5.539  0.00  0.00    +0.000 A 
ATOM     29  C   LIG    1       25.375 -22.898   6.781  0.00  0.00    +0.012 A 
ATOM     30  C   LIG    1       25.847 -24.159   7.157  0.00  0.00    +0.028 A 
BRANCH  28  31
ATOM     31  C   LIG    1       24.245 -21.383   5.100  0.00  0.00    -0.014 A 
ATOM     32  C   LIG    1       25.025 -20.521   4.308  0.00  0.00    +0.046 A 
ATOM     33  C   LIG    1       24.537 -19.281   3.905  0.00  0.00    +0.124 A 
ATOM     34  F   LIG    1       25.308 -18.486   3.151  0.00  0.00    -0.205 F 
ATOM     35  C   LIG    1       23.267 -18.856   4.267  0.00  0.00    +0.038 A 
ATOM     36  C   LIG    1       22.474 -19.685   5.051  0.00  0.00    +0.003 A 
ATOM     37  C   LIG    1       22.961 -20.931   5.464  0.00  0.00    +0.009 A 
ENDBRANCH  28  31
ENDBRANCH  24  25
ENDBRANCH   7  23
TORSDOF 6
ENDMDL
MODEL 3
REMARK VINA RESULT:      -7.5      5.881     10.069
REMARK  Name = *****
REMARK                            x       y       z     vdW  Elec       q    Type
REMARK                         _______ _______ _______ _____ _____    ______ ____
ROOT
ATOM      1  C   LIG    1       28.481 -20.275   7.814  0.00  0.00    +0.076 C 
ATOM      2  C   LIG    1       27.262 -20.028   8.715  0.00  0.00    +0.026 C 
ATOM      3  C   LIG    1       26.003 -20.860   8.388  0.00  0.00    -0.005 C 
ATOM      4  C   LIG    1       25.105 -20.119   7.369  0.00  0.00    +0.019 C 
ATOM      5  C   LIG    1       23.904 -20.968   6.998  0.00  0.00    +0.105 C 
ATOM      6  C   LIG    1       24.389 -22.267   6.387  0.00  0.00    +0.050 C 
ATOM      7  C   LIG    1       25.039 -23.111   7.489  0.00  0.00    +0.023 C 
ATOM      8  C   LIG    1       23.175 -22.720   5.594  0.00  0.00    +0.178 C 
ATOM      9  C   LIG    1       22.064 -23.448   6.333  0.00  0.00    +0.052 C 
ATOM     10  O   LIG    1       22.639 -21.476   5.091  0.00  0.00    -0.461 OA
ATOM     11  C   LIG    1       23.008 -20.443   5.915  0.00  0.00    +0.311 C 
ATOM     12  O   LIG    1       22.600 -19.299   5.811  0.00  0.00    -0.251 OA
ATOM     13  C   LIG    1       26.305 -22.356   8.042  0.00  0.00    -0.000 C 
ATOM     14  C   LIG    1       27.550 -22.522   7.145  0.00  0.00    +0.006 C 
ATOM     15  C   LIG    1       28.756 -21.766   7.688  0.00  0.00    +0.022 C 
ENDROOT
BRANCH   1  17
ATOM     16  C   LIG    1       29.128 -18.629   6.059  0.00  0.00    +0.401 C 
ATOM     17  N   LIG    1       28.353 -19.665   6.502  0.00  0.00    -0.278 N 
ATOM     18  H   LIG    1       28.082 -20.243   5.716  0.00  0.00    +0.152 HD
ATOM     19  O   LIG    1       29.151 -18.309   4.890  0.00  0.00    -0.227 OA
BRANCH  16  20
ATOM     20  O   LIG    1       29.955 -18.163   7.033  0.00  0.00    -0.451 OA
BRANCH  20  22
ATOM     21  C   LIG    1       31.804 -18.609   8.518  0.00  0.00    +0.048 C 
ATOM     22  C   LIG    1       31.168 -18.906   7.166  0.00  0.00    +0.230 C 
ENDBRANCH  20  22
ENDBRANCH  16  20
ENDBRANCH   1  17
BRANCH   7  23
ATOM     23  C   LIG    1       25.356 -24.507   7.028  0.00  0.00    -0.021 C 
ATOM     24  C   LIG    1       24.441 -25.366   6.547  0.00  0.00    +0.024 C 
BRANCH  24  25
ATOM     25  C   LIG    1       24.789 -26.731   6.146  0.00  0.00    +0.064 A 
ATOM     26  N   LIG    1       23.990 -27.717   6.604  0.00  0.00    -0.255 NA
ATOM     27  C   LIG    1       24.305 -28.987   6.255  0.00  0.00    +0.119 A 
ATOM     28  C   LIG    1       25.394 -29.361   5.466  0.00  0.00    +0.000 A 
ATOM     29  C   LIG    1       26.193 -28.302   5.009  0.00  0.00    +0.012 A 
ATOM     30  C   LIG    1       25.889 -26.978   5.340  0.00  0.00    +0.028 A 
BRANCH  28  31
ATOM     31  C   LIG    1       25.683 -30.776   5.144  0.00  0.00    -0.014 A 
ATOM     32  C   LIG    1       25.525 -31.279   3.840  0.00  0.00    +0.046 A 
ATOM     33  C   LIG    1       25.797 -32.614   3.550  0.00  0.00    +0.124 A 
ATOM     34  F   LIG    1       25.635 -33.059   2.297  0.00  0.00    -0.205 F 
ATOM     35  C   LIG    1       26.233 -33.489   4.533  0.00  0.00    +0.038 A 
ATOM     36  C   LIG    1       26.397 -33.020   5.831  0.00  0.00    +0.003 A 
ATOM     37  C   LIG    1       26.120 -31.681   6.131  0.00  0.00    +0.009 A 
ENDBRANCH  28  31
ENDBRANCH  24  25
ENDBRANCH   7  23
TORSDOF 6
ENDMDL
MODEL 4
REMARK VINA RESULT:      -6.9      2.997      6.163
REMARK  Name = *****
REMARK                            x       y       z     vdW  Elec       q    Type
REMARK                         _______ _______ _______ _____ _____    ______ ____
ROOT
ATOM      1  C   LIG    1       24.948 -33.197   5.023  0.00  0.00    +0.076 C 
ATOM      2  C   LIG    1       23.887 -33.616   6.051  0.00  0.00    +0.026 C 
ATOM      3  C   LIG    1       23.780 -32.725   7.309  0.00  0.00    -0.005 C 
ATOM      4  C   LIG    1       24.723 -33.234   8.424  0.00  0.00    +0.019 C 
ATOM      5  C   LIG    1       24.665 -32.319   9.632  0.00  0.00    +0.105 C 
ATOM      6  C   LIG    1       25.090 -30.925   9.214  0.00  0.00    +0.050 C 
ATOM      7  C   LIG    1       23.997 -30.330   8.319  0.00  0.00    +0.023 C 
ATOM      8  C   LIG    1       25.514 -30.310  10.537  0.00  0.00    +0.178 C 
ATOM      9  C   LIG    1       24.436 -29.742  11.444  0.00  0.00    +0.052 C 
ATOM     10  O   LIG    1       26.136 -31.420  11.220  0.00  0.00    -0.461 OA
ATOM     11  C   LIG    1       25.628 -32.604  10.748  0.00  0.00    +0.311 C 
ATOM     12  O   LIG    1       25.873 -33.699  11.223  0.00  0.00    -0.251 OA
ATOM     13  C   LIG    1       23.873 -31.192   7.008  0.00  0.00    -0.000 C 
ATOM     14  C   LIG    1       24.953 -30.854   5.957  0.00  0.00    +0.006 C 
ATOM     15  C   LIG    1       24.827 -31.715   4.706  0.00  0.00    +0.022 C 
ENDROOT
BRANCH   1  17
ATOM     16  C   LIG    1       27.325 -33.790   4.568  0.00  0.00    +0.401 C 
ATOM     17  N   LIG    1       26.302 -33.525   5.436  0.00  0.00    -0.278 N 
ATOM     18  H   LIG    1       26.675 -33.102   6.277  0.00  0.00    +0.152 HD
ATOM     19  O   LIG    1       28.479 -33.825   4.941  0.00  0.00    -0.227 OA
BRANCH  16  20
ATOM     20  O   LIG    1       26.899 -33.824   3.278  0.00  0.00    -0.451 OA
BRANCH  20  22
ATOM     21  C   LIG    1       26.587 -32.583   1.232  0.00  0.00    +0.048 C 
ATOM     22  C   LIG    1       27.470 -32.807   2.453  0.00  0.00    +0.230 C 
ENDBRANCH  20  22
ENDBRANCH  16  20
ENDBRANCH   1  17
BRANCH   7  23
ATOM     23  C   LIG    1       24.224 -28.872   8.032  0.00  0.00    -0.021 C 
ATOM     24  C   LIG    1       24.556 -28.386   6.824  0.00  0.00    +0.024 C 
BRANCH  24  25
ATOM     25  C   LIG    1       24.806 -26.960   6.601  0.00  0.00    +0.064 A 
ATOM     26  N   LIG    1       23.729 -26.193   6.332  0.00  0.00    -0.255 NA
ATOM     27  C   LIG    1       23.943 -24.875   6.109  0.00  0.00    +0.119 A 
ATOM     28  C   LIG    1       25.188 -24.244   6.127  0.00  0.00    +0.000 A 
ATOM     29  C   LIG    1       26.277 -25.080   6.416  0.00  0.00    +0.012 A 
ATOM     30  C   LIG    1       26.091 -26.443   6.663  0.00  0.00    +0.028 A 
BRANCH  28  31
ATOM     31  C   LIG    1       25.342 -22.798   5.853  0.00  0.00    -0.014 A 
ATOM     32  C   LIG    1       26.264 -22.010   6.564  0.00  0.00    +0.046 A 
ATOM     33  C   LIG    1       26.397 -20.649   6.300  0.00  0.00    +0.124 A 
ATOM     34  F   LIG    1       27.286 -19.930   6.998  0.00  0.00    -0.205 F 
ATOM     35  C   LIG    1       25.629 -20.027   5.328  0.00  0.00    +0.038 A 
ATOM     36  C   LIG    1       24.707 -20.780   4.610  0.00  0.00    +0.003 A 
ATOM     37  C   LIG    1       24.565 -22.148   4.874  0.00  0.00    +0.009 A 
ENDBRANCH  28  31
ENDBRANCH  24  25
ENDBRANCH   7  23
TORSDOF 6
ENDMDL
MODEL 5
REMARK VINA RESULT:      -6.6      6.284     10.210
REMARK  Name = *****
REMARK                            x       y       z     vdW  Elec       q    Type
REMARK                         _______ _______ _______ _____ _____    ______ ____
ROOT
ATOM      1  C   LIG    1       29.163 -20.516   8.009  0.00  0.00    +0.076 C 
ATOM      2  C   LIG    1       27.914 -19.668   8.292  0.00  0.00    +0.026 C 
ATOM      3  C   LIG    1       26.605 -20.159   7.637  0.00  0.00    -0.005 C 
ATOM      4  C   LIG    1       26.424 -19.534   6.233  0.00  0.00    +0.019 C 
ATOM      5  C   LIG    1       25.173 -20.071   5.566  0.00  0.00    +0.105 C 
ATOM      6  C   LIG    1       25.292 -21.576   5.432  0.00  0.00    +0.050 C 
ATOM      7  C   LIG    1       25.192 -22.198   6.829  0.00  0.00    +0.023 C 
ATOM      8  C   LIG    1       24.312 -21.876   4.311  0.00  0.00    +0.178 C 
ATOM      9  C   LIG    1       22.838 -21.994   4.658  0.00  0.00    +0.052 C 
ATOM     10  O   LIG    1       24.477 -20.742   3.431  0.00  0.00    -0.461 OA
ATOM     11  C   LIG    1       24.933 -19.661   4.142  0.00  0.00    +0.311 C 
ATOM     12  O   LIG    1       25.045 -18.535   3.689  0.00  0.00    -0.251 OA
ATOM     13  C   LIG    1       26.407 -21.711   7.704  0.00  0.00    -0.000 C 
ATOM     14  C   LIG    1       27.709 -22.491   7.422  0.00  0.00    +0.006 C 
ATOM     15  C   LIG    1       28.876 -21.988   8.262  0.00  0.00    +0.022 C 
ENDROOT
BRANCH   1  17
ATOM     16  C   LIG    1       30.425 -19.229   6.290  0.00  0.00    +0.401 C 
ATOM     17  N   LIG    1       29.696 -20.320   6.672  0.00  0.00    -0.278 N 
ATOM     18  H   LIG    1       29.992 -21.128   6.138  0.00  0.00    +0.152 HD
ATOM     19  O   LIG    1       31.045 -19.215   5.247  0.00  0.00    -0.227 OA
BRANCH  16  20
ATOM     20  O   LIG    1       30.497 -18.296   7.276  0.00  0.00    -0.451 OA
BRANCH  20  22
ATOM     21  C   LIG    1       31.550 -17.509   9.300  0.00  0.00    +0.048 C 
ATOM     22  C   LIG    1       31.700 -18.358   8.044  0.00  0.00    +0.230 C 
ENDBRANCH  20  22
ENDBRANCH  16  20
ENDBRANCH   1  17
BRANCH   7  23
ATOM     23  C   LIG    1       25.081 -23.697   6.781  0.00  0.00    -0.021 C 
ATOM     24  C   LIG    1       25.569 -24.455   5.784  0.00  0.00    +0.024 C 
BRANCH  24  25
ATOM     25  C   LIG    1       25.402 -25.910   5.760  0.00  0.00    +0.064 A 
ATOM     26  N   LIG    1       26.321 -26.612   5.064  0.00  0.00    -0.255 NA
ATOM     27  C   LIG    1       26.175 -27.957   5.019  0.00  0.00    +0.119 A 
ATOM     28  C   LIG    1       25.147 -28.678   5.628  0.00  0.00    +0.000 A 
ATOM     29  C   LIG    1       24.219 -27.908   6.345  0.00  0.00    +0.012 A 
ATOM     30  C   LIG    1       24.347 -26.518   6.422  0.00  0.00    +0.028 A 
BRANCH  28  31
ATOM     31  C   LIG    1       25.046 -30.151   5.516  0.00  0.00    -0.014 A 
ATOM     32  C   LIG    1       24.002 -30.864   6.134  0.00  0.00    +0.046 A 
ATOM     33  C   LIG    1       23.920 -32.250   6.025  0.00  0.00    +0.124 A 
ATOM     34  F   LIG    1       22.913 -32.896   6.626  0.00  0.00    -0.205 F 
ATOM     35  C   LIG    1       24.859 -32.971   5.303  0.00  0.00    +0.038 A 
ATOM     36  C   LIG    1       25.902 -32.293   4.683  0.00  0.00    +0.003 A 
ATOM     37  C   LIG    1       25.994 -30.901   4.793  0.00  0.00    +0.009 A 
ENDBRANCH  28  31
ENDBRANCH  24  25
ENDBRANCH   7  23
TORSDOF 6
ENDMDL
