MODEL 1
REMARK VINA RESULT:      -2.2      0.000      0.000
REMARK  Name = *****
REMARK                            x       y       z     vdW  Elec       q    Type
REMARK                         _______ _______ _______ _____ _____    ______ ____
ROOT
ATOM      1  C   LIG    1       22.709 -17.599   4.488  0.00  0.00    +0.044 C 
ATOM      2  C   LIG    1       23.894 -18.550   4.349  0.00  0.00    +0.006 C 
ATOM      3  C   LIG    1       23.662 -19.352   3.069  0.00  0.00    -0.001 C 
ATOM      4  C   LIG    1       24.469 -20.643   3.273  0.00  0.00    +0.034 C 
ATOM      5  C   LIG    1       24.727 -20.690   4.767  0.00  0.00    -0.073 C 
ATOM      6  C   LIG    1       25.645 -21.466   5.367  0.00  0.00    -0.027 C 
ATOM      7  C   LIG    1       22.142 -19.531   3.030  0.00  0.00    +0.036 C 
ATOM      8  C   LIG    1       23.925 -19.615   5.440  0.00  0.00    +0.035 C 
ATOM      9  C   LIG    1       21.564 -18.271   3.692  0.00  0.00    +0.122 C 
ENDROOT
BRANCH   1  11
ATOM     10  C   LIG    1       23.575 -15.236   4.626  0.00  0.00    +0.000 C 
ATOM     11  C   LIG    1       23.067 -16.251   3.906  0.00  0.00    -0.022 C 
BRANCH  10  12
ATOM     12  C   LIG    1       23.972 -13.874   4.107  0.00  0.00    +0.141 C 
BRANCH  12  13
ATOM     13  C   LIG    1       24.792 -13.919   2.792  0.00  0.00    +0.030 C 
ATOM     14  C   LIG    1       25.028 -12.530   2.178  0.00  0.00    +0.011 C 
BRANCH  13  15
ATOM     15  C   LIG    1       26.132 -14.666   2.991  0.00  0.00    +0.095 C 
BRANCH  15  18
ATOM     16  C   LIG    1       29.156 -12.264   4.449  0.00  0.00    +0.106 C 
ATOM     17  C   LIG    1       28.040 -13.113   4.024  0.00  0.00    -0.106 C 
ATOM     18  C   LIG    1       27.160 -13.808   3.610  0.00  0.00    -0.102 C 
ENDBRANCH  15  18
ENDBRANCH  13  15
ENDBRANCH  12  13
BRANCH  12  19
ATOM     19  O   LIG    1       24.743 -13.197   5.102  0.00  0.00    -0.388 OA
ATOM     20  H   LIG    1       25.674 -13.431   4.940  0.00  0.00    +0.210 HD
ENDBRANCH  12  19
ENDBRANCH  10  12
ENDBRANCH   1  11
BRANCH   9  21
ATOM     21  O   LIG    1       20.478 -18.617   4.545  0.00  0.00    -0.391 OA
ATOM     22  H   LIG    1       20.474 -19.583   4.656  0.00  0.00    +0.210 HD
ENDBRANCH   9  21
BRANCH   6  23
ATOM     23  C   LIG    1       26.004 -21.402   6.829  0.00  0.00    +0.028 C 
BRANCH  23  24
ATOM     24  C   LIG    1       27.511 -21.249   7.062  0.00  0.00    +0.015 C 
BRANCH  24  25
ATOM     25  C   LIG    1       27.955 -19.782   7.062  0.00  0.00    +0.121 C 
BRANCH  25  26
ATOM     26  C   LIG    1       28.856 -19.436   5.895  0.00  0.00    +0.305 C 
ATOM     27  O   LIG    1       29.235 -18.307   5.623  0.00  0.00    -0.251 OA
BRANCH  26  28
ATOM     28  O   LIG    1       29.239 -20.513   5.173  0.00  0.00    -0.481 OA
ATOM     29  H   LIG    1       28.932 -20.522   4.247  0.00  0.00    +0.295 HD
ENDBRANCH  26  28
ENDBRANCH  25  26
ENDBRANCH  24  25
ENDBRANCH  23  24
ENDBRANCH   6  23
TORSDOF 12
ENDMDL
MODEL 2
REMARK VINA RESULT:      -1.2      2.082      6.391
REMARK  Name = *****
REMARK                            x       y       z     vdW  Elec       q    Type
REMARK                         _______ _______ _______ _____ _____    ______ ____
ROOT
ATOM      1  C   LIG    1       23.058 -18.149   3.786  0.00  0.00    +0.044 C 
ATOM      2  C   LIG    1       23.690 -16.821   4.194  0.00  0.00    +0.006 C 
ATOM      3  C   LIG    1       22.751 -16.189   5.222  0.00  0.00    -0.001 C 
ATOM      4  C   LIG    1       23.054 -14.685   5.144  0.00  0.00    +0.034 C 
ATOM      5  C   LIG    1       23.784 -14.519   3.825  0.00  0.00    -0.073 C 
ATOM      6  C   LIG    1       24.507 -13.442   3.475  0.00  0.00    -0.027 C 
ATOM      7  C   LIG    1       21.360 -16.601   4.735  0.00  0.00    +0.036 C 
ATOM      8  C   LIG    1       23.715 -15.806   3.057  0.00  0.00    +0.035 C 
ATOM      9  C   LIG    1       21.547 -17.975   4.073  0.00  0.00    +0.122 C 
ENDROOT
BRANCH   1  11
ATOM     10  C   LIG    1       23.259 -19.568   5.859  0.00  0.00    +0.000 C 
ATOM     11  C   LIG    1       23.651 -19.269   4.608  0.00  0.00    -0.022 C 
BRANCH  10  12
ATOM     12  C   LIG    1       23.793 -20.682   6.727  0.00  0.00    +0.141 C 
BRANCH  12  13
ATOM     13  C   LIG    1       24.931 -21.502   6.067  0.00  0.00    +0.030 C 
ATOM     14  C   LIG    1       25.230 -21.070   4.623  0.00  0.00    +0.011 C 
BRANCH  13  15
ATOM     15  C   LIG    1       26.217 -21.470   6.927  0.00  0.00    +0.095 C 
BRANCH  15  18
ATOM     16  C   LIG    1       29.209 -18.922   5.663  0.00  0.00    +0.106 C 
ATOM     17  C   LIG    1       28.093 -19.797   6.030  0.00  0.00    -0.106 C 
ATOM     18  C   LIG    1       27.222 -20.533   6.388  0.00  0.00    -0.102 C 
ENDBRANCH  15  18
ENDBRANCH  13  15
ENDBRANCH  12  13
BRANCH  12  19
ATOM     19  O   LIG    1       22.726 -21.572   7.062  0.00  0.00    -0.388 OA
ATOM     20  H   LIG    1       23.052 -22.140   7.781  0.00  0.00    +0.210 HD
ENDBRANCH  12  19
ENDBRANCH  10  12
ENDBRANCH   1  11
BRANCH   9  21
ATOM     21  O   LIG    1       20.782 -18.053   2.874  0.00  0.00    -0.391 OA
ATOM     22  H   LIG    1       20.142 -18.779   2.968  0.00  0.00    +0.210 HD
ENDBRANCH   9  21
BRANCH   6  23
ATOM     23  C   LIG    1       25.353 -13.340   2.232  0.00  0.00    +0.028 C 
BRANCH  23  24
ATOM     24  C   LIG    1       26.804 -13.773   2.467  0.00  0.00    +0.015 C 
BRANCH  24  25
ATOM     25  C   LIG    1       27.024 -14.331   3.878  0.00  0.00    +0.121 C 
BRANCH  25  26
ATOM     26  C   LIG    1       27.624 -13.317   4.829  0.00  0.00    +0.305 C 
ATOM     27  O   LIG    1       28.669 -12.718   4.634  0.00  0.00    -0.251 OA
BRANCH  26  28
ATOM     28  O   LIG    1       26.872 -13.106   5.933  0.00  0.00    -0.481 OA
ATOM     29  H   LIG    1       27.333 -13.245   6.782  0.00  0.00    +0.295 HD
ENDBRANCH  26  28
ENDBRANCH  25  26
ENDBRANCH  24  25
ENDBRANCH  23  24
ENDBRANCH   6  23
TORSDOF 12
ENDMDL
MODEL 3
REMARK VINA RESULT:      -1.0      1.705      7.196
REMARK  Name = *****
REMARK                            x       y       z     vdW  Elec       q    Type
REMARK                         _______ _______ _______ _____ _____    ______ ____
ROOT
ATOM      1  C   LIG    1       23.724 -17.481   3.672  0.00  0.00    +0.044 C 
ATOM      2  C   LIG    1       24.116 -16.061   4.074  0.00  0.00    +0.006 C 
ATOM      3  C   LIG    1       23.344 -15.742   5.354  0.00  0.00    -0.001 C 
ATOM      4  C   LIG    1       23.265 -14.208   5.381  0.00  0.00    +0.034 C 
ATOM      5  C   LIG    1       23.583 -13.793   3.958  0.00  0.00    -0.073 C 
ATOM      6  C   LIG    1       23.929 -12.551   3.576  0.00  0.00    -0.027 C 
ATOM      7  C   LIG    1       22.009 -16.462   5.155  0.00  0.00    +0.036 C 
ATOM      8  C   LIG    1       23.622 -15.012   3.084  0.00  0.00    +0.035 C 
ATOM      9  C   LIG    1       22.335 -17.707   4.316  0.00  0.00    +0.122 C 
ENDROOT
BRANCH   1  11
ATOM     10  C   LIG    1       24.546 -19.788   4.265  0.00  0.00    +0.000 C 
ATOM     11  C   LIG    1       24.744 -18.460   4.203  0.00  0.00    -0.022 C 
BRANCH  10  12
ATOM     12  C   LIG    1       25.526 -20.823   4.764  0.00  0.00    +0.141 C 
BRANCH  12  13
ATOM     13  C   LIG    1       25.456 -21.067   6.294  0.00  0.00    +0.030 C 
ATOM     14  C   LIG    1       26.631 -20.443   7.062  0.00  0.00    +0.011 C 
BRANCH  13  15
ATOM     15  C   LIG    1       24.104 -20.590   6.877  0.00  0.00    +0.095 C 
BRANCH  15  18
ATOM     16  C   LIG    1       20.869 -21.519   4.486  0.00  0.00    +0.106 C 
ATOM     17  C   LIG    1       22.022 -21.288   5.361  0.00  0.00    -0.106 C 
ATOM     18  C   LIG    1       22.959 -21.027   6.054  0.00  0.00    -0.102 C 
ENDBRANCH  15  18
ENDBRANCH  13  15
ENDBRANCH  12  13
BRANCH  12  19
ATOM     19  O   LIG    1       26.854 -20.415   4.429  0.00  0.00    -0.388 OA
ATOM     20  H   LIG    1       27.311 -20.235   5.269  0.00  0.00    +0.210 HD
ENDBRANCH  12  19
ENDBRANCH  10  12
ENDBRANCH   1  11
BRANCH   9  21
ATOM     21  O   LIG    1       21.334 -17.908   3.323  0.00  0.00    -0.391 OA
ATOM     22  H   LIG    1       21.740 -18.371   2.570  0.00  0.00    +0.210 HD
ENDBRANCH   9  21
BRANCH   6  23
ATOM     23  C   LIG    1       24.391 -12.173   2.193  0.00  0.00    +0.028 C 
BRANCH  23  24
ATOM     24  C   LIG    1       25.917 -12.184   2.055  0.00  0.00    +0.015 C 
BRANCH  24  25
ATOM     25  C   LIG    1       26.535 -13.506   2.524  0.00  0.00    +0.121 C 
BRANCH  25  26
ATOM     26  C   LIG    1       27.501 -13.333   3.676  0.00  0.00    +0.305 C 
ATOM     27  O   LIG    1       27.202 -13.438   4.855  0.00  0.00    -0.251 OA
BRANCH  26  28
ATOM     28  O   LIG    1       28.767 -13.068   3.280  0.00  0.00    -0.481 OA
ATOM     29  H   LIG    1       29.466 -13.397   3.877  0.00  0.00    +0.295 HD
ENDBRANCH  26  28
ENDBRANCH  25  26
ENDBRANCH  24  25
ENDBRANCH  23  24
ENDBRANCH   6  23
TORSDOF 12
ENDMDL
MODEL 4
REMARK VINA RESULT:      -0.2      1.664      5.175
REMARK  Name = *****
REMARK                            x       y       z     vdW  Elec       q    Type
REMARK                         _______ _______ _______ _____ _____    ______ ____
ROOT
ATOM      1  C   LIG    1       27.555 -19.101   4.596  0.00  0.00    +0.044 C 
ATOM      2  C   LIG    1       26.164 -19.312   5.189  0.00  0.00    +0.006 C 
ATOM      3  C   LIG    1       26.367 -19.646   6.667  0.00  0.00    -0.001 C 
ATOM      4  C   LIG    1       25.102 -20.423   7.061  0.00  0.00    +0.034 C 
ATOM      5  C   LIG    1       24.500 -20.853   5.737  0.00  0.00    -0.073 C 
ATOM      6  C   LIG    1       23.240 -21.290   5.569  0.00  0.00    -0.027 C 
ATOM      7  C   LIG    1       27.663 -20.459   6.675  0.00  0.00    +0.036 C 
ATOM      8  C   LIG    1       25.469 -20.550   4.633  0.00  0.00    +0.035 C 
ATOM      9  C   LIG    1       28.507 -19.899   5.520  0.00  0.00    +0.122 C 
ENDROOT
BRANCH   1  11
ATOM     10  C   LIG    1       27.289 -16.721   3.809  0.00  0.00    +0.000 C 
ATOM     11  C   LIG    1       27.891 -17.628   4.599  0.00  0.00    -0.022 C 
BRANCH  10  12
ATOM     12  C   LIG    1       27.561 -15.236   3.774  0.00  0.00    +0.141 C 
BRANCH  12  13
ATOM     13  C   LIG    1       26.831 -14.438   4.885  0.00  0.00    +0.030 C 
ATOM     14  C   LIG    1       27.386 -13.018   5.074  0.00  0.00    +0.011 C 
BRANCH  13  15
ATOM     15  C   LIG    1       25.304 -14.402   4.638  0.00  0.00    +0.095 C 
BRANCH  15  18
ATOM     16  C   LIG    1       24.351 -11.544   1.817  0.00  0.00    +0.106 C 
ATOM     17  C   LIG    1       24.662 -12.629   2.750  0.00  0.00    -0.106 C 
ATOM     18  C   LIG    1       24.937 -13.463   3.561  0.00  0.00    -0.102 C 
ENDBRANCH  15  18
ENDBRANCH  13  15
ENDBRANCH  12  13
BRANCH  12  19
ATOM     19  O   LIG    1       27.167 -14.714   2.503  0.00  0.00    -0.388 OA
ATOM     20  H   LIG    1       26.198 -14.628   2.526  0.00  0.00    +0.210 HD
ENDBRANCH  12  19
ENDBRANCH  10  12
ENDBRANCH   1  11
BRANCH   9  21
ATOM     21  O   LIG    1       29.141 -20.960   4.813  0.00  0.00    -0.391 OA
ATOM     22  H   LIG    1       29.155 -21.744   5.389  0.00  0.00    +0.210 HD
ENDBRANCH   9  21
BRANCH   6  23
ATOM     23  C   LIG    1       22.598 -21.572   4.235  0.00  0.00    +0.028 C 
BRANCH  23  24
ATOM     24  C   LIG    1       22.009 -20.316   3.585  0.00  0.00    +0.015 C 
BRANCH  24  25
ATOM     25  C   LIG    1       22.730 -19.037   4.027  0.00  0.00    +0.121 C 
BRANCH  25  26
ATOM     26  C   LIG    1       21.796 -17.858   4.197  0.00  0.00    +0.305 C 
ATOM     27  O   LIG    1       22.073 -16.835   4.803  0.00  0.00    -0.251 OA
BRANCH  26  28
ATOM     28  O   LIG    1       20.602 -18.026   3.584  0.00  0.00    -0.481 OA
ATOM     29  H   LIG    1       19.906 -18.431   4.135  0.00  0.00    +0.295 HD
ENDBRANCH  26  28
ENDBRANCH  25  26
ENDBRANCH  24  25
ENDBRANCH  23  24
ENDBRANCH   6  23
TORSDOF 12
ENDMDL
