MODEL 1
REMARK VINA RESULT:      -4.9      0.000      0.000
REMARK  Name = *****
REMARK                            x       y       z     vdW  Elec       q    Type
REMARK                         _______ _______ _______ _____ _____    ______ ____
ROOT
ATOM      1  O   LIG    1       23.026 -29.359  11.692  0.00  0.00    -0.340 OA
ENDROOT
BRANCH   1   3
ATOM      2  C   LIG    1       22.586 -28.135  13.948  0.00  0.00    +0.178 C 
ATOM      3  C   LIG    1       22.253 -29.217  12.894  0.00  0.00    +0.184 C 
ATOM      4  C   LIG    1       21.539 -30.414  13.551  0.00  0.00    +0.183 C 
ATOM      5  C   LIG    1       20.214 -29.941  14.118  0.00  0.00    +0.205 C 
ATOM      6  C   LIG    1       20.621 -28.862  15.246  0.00  0.00    +0.282 C 
ATOM      7  O   LIG    1       22.007 -28.443  15.225  0.00  0.00    -0.341 OA
BRANCH   4   8
ATOM      8  O   LIG    1       22.275 -30.904  14.674  0.00  0.00    -0.369 OA
BRANCH   8   9
ATOM      9  C   LIG    1       23.184 -31.989  14.673  0.00  0.00    +0.191 C 
BRANCH   9  10
ATOM     10  C   LIG    1       24.715 -32.072  14.503  0.00  0.00    +0.137 C 
ATOM     11  C   LIG    1       25.570 -30.908  14.104  0.00  0.00    +0.040 C 
BRANCH  10  12
ATOM     12  O   LIG    1       25.095 -33.247  13.771  0.00  0.00    -0.390 OA
ATOM     13  H   LIG    1       26.000 -33.054  13.415  0.00  0.00    +0.210 HD
ENDBRANCH  10  12
ENDBRANCH   9  10
ENDBRANCH   8   9
ENDBRANCH   4   8
BRANCH   6  14
ATOM     14  O   LIG    1       19.787 -27.694  15.224  0.00  0.00    -0.346 OA
BRANCH  14  15
ATOM     15  C   LIG    1       18.517 -27.914  14.567  0.00  0.00    +0.194 C 
BRANCH  15  16
ATOM     16  C   LIG    1       17.490 -26.760  14.688  0.00  0.00    +0.137 C 
ATOM     17  C   LIG    1       16.122 -27.179  14.150  0.00  0.00    +0.040 C 
BRANCH  16  18
ATOM     18  O   LIG    1       17.909 -25.596  13.979  0.00  0.00    -0.390 OA
ATOM     19  H   LIG    1       18.654 -25.815  13.380  0.00  0.00    +0.210 HD
ENDBRANCH  16  18
ENDBRANCH  15  16
ENDBRANCH  14  15
ENDBRANCH   6  14
BRANCH   2  20
ATOM     20  C   LIG    1       24.038 -27.715  14.207  0.00  0.00    +0.194 C 
BRANCH  20  21
ATOM     21  O   LIG    1       24.692 -27.070  13.115  0.00  0.00    -0.375 OA
BRANCH  21  22
ATOM     22  C   LIG    1       26.086 -26.808  13.350  0.00  0.00    +0.190 C 
BRANCH  22  24
ATOM     23  C   LIG    1       27.621 -25.103  14.110  0.00  0.00    +0.040 C 
ATOM     24  C   LIG    1       26.486 -25.338  13.155  0.00  0.00    +0.137 C 
BRANCH  24  25
ATOM     25  O   LIG    1       25.464 -24.410  13.423  0.00  0.00    -0.390 OA
ATOM     26  H   LIG    1       25.843 -23.813  14.115  0.00  0.00    +0.210 HD
ENDBRANCH  24  25
ENDBRANCH  22  24
ENDBRANCH  21  22
ENDBRANCH  20  21
ENDBRANCH   2  20
BRANCH   5  27
ATOM     27  O   LIG    1       19.492 -31.121  14.576  0.00  0.00    -0.366 OA
BRANCH  27  28
ATOM     28  C   LIG    1       18.637 -31.896  13.638  0.00  0.00    +0.191 C 
BRANCH  28  29
ATOM     29  C   LIG    1       17.151 -31.370  13.244  0.00  0.00    +0.137 C 
ATOM     30  C   LIG    1       16.050 -32.341  12.899  0.00  0.00    +0.040 C 
BRANCH  29  31
ATOM     31  O   LIG    1       17.069 -30.500  12.093  0.00  0.00    -0.390 OA
ATOM     32  H   LIG    1       16.129 -30.186  12.051  0.00  0.00    +0.210 HD
ENDBRANCH  29  31
ENDBRANCH  28  29
ENDBRANCH  27  28
ENDBRANCH   5  27
ENDBRANCH   1   3
BRANCH   1  33
ATOM     33  C   LIG    1       22.921 -30.318  10.617  0.00  0.00    +0.282 C 
ATOM     34  C   LIG    1       23.436 -31.736  10.983  0.00  0.00    +0.205 C 
ATOM     35  C   LIG    1       24.778 -32.147  10.287  0.00  0.00    +0.183 C 
ATOM     36  C   LIG    1       24.772 -31.861   8.791  0.00  0.00    +0.181 C 
ATOM     37  C   LIG    1       24.034 -30.547   8.414  0.00  0.00    +0.178 C 
ATOM     38  O   LIG    1       23.710 -29.731   9.560  0.00  0.00    -0.341 OA
BRANCH  34  39
ATOM     39  O   LIG    1       22.454 -32.810  10.728  0.00  0.00    -0.366 OA
BRANCH  39  40
ATOM     40  C   LIG    1       21.364 -32.398   9.886  0.00  0.00    +0.191 C 
BRANCH  40  41
ATOM     41  C   LIG    1       19.981 -32.078  10.580  0.00  0.00    +0.137 C 
ATOM     42  C   LIG    1       18.890 -32.893   9.945  0.00  0.00    +0.040 C 
BRANCH  41  43
ATOM     43  O   LIG    1       19.472 -30.719  10.399  0.00  0.00    -0.390 OA
ATOM     44  H   LIG    1       18.672 -30.593  10.785  0.00  0.00    +0.210 HD
ENDBRANCH  41  43
ENDBRANCH  40  41
ENDBRANCH  39  40
ENDBRANCH  34  39
BRANCH  37  45
ATOM     45  C   LIG    1       24.946 -29.614   7.533  0.00  0.00    +0.194 C 
BRANCH  45  46
ATOM     46  O   LIG    1       24.346 -29.114   6.329  0.00  0.00    -0.375 OA
BRANCH  46  47
ATOM     47  C   LIG    1       25.192 -28.272   5.526  0.00  0.00    +0.190 C 
BRANCH  47  48
ATOM     48  C   LIG    1       25.455 -26.928   6.219  0.00  0.00    +0.137 C 
ATOM     49  C   LIG    1       24.294 -25.940   6.058  0.00  0.00    +0.040 C 
BRANCH  48  50
ATOM     50  O   LIG    1       26.632 -26.325   5.687  0.00  0.00    -0.390 OA
ATOM     51  H   LIG    1       27.167 -27.048   5.323  0.00  0.00    +0.210 HD
ENDBRANCH  48  50
ENDBRANCH  47  48
ENDBRANCH  46  47
ENDBRANCH  45  46
ENDBRANCH  37  45
BRANCH  35  52
ATOM     52  O   LIG    1       25.978 -31.541  10.811  0.00  0.00    -0.369 OA
BRANCH  52  53
ATOM     53  C   LIG    1       26.869 -30.809   9.914  0.00  0.00    +0.191 C 
BRANCH  53  54
ATOM     54  C   LIG    1       27.206 -29.383  10.455  0.00  0.00    +0.137 C 
ATOM     55  C   LIG    1       28.274 -29.357  11.522  0.00  0.00    +0.040 C 
BRANCH  54  56
ATOM     56  O   LIG    1       25.986 -28.746  10.796  0.00  0.00    -0.390 OA
ATOM     57  H   LIG    1       26.260 -27.801  10.857  0.00  0.00    +0.210 HD
ENDBRANCH  54  56
ENDBRANCH  53  54
ENDBRANCH  52  53
ENDBRANCH  35  52
BRANCH  36  58
ATOM     58  O   LIG    1       24.460 -33.001   7.952  0.00  0.00    -0.369 OA
BRANCH  58  59
ATOM     59  C   LIG    1       23.467 -32.728   6.926  0.00  0.00    +0.191 C 
BRANCH  59  60
ATOM     60  C   LIG    1       23.912 -33.167   5.520  0.00  0.00    +0.137 C 
ATOM     61  C   LIG    1       25.077 -32.368   4.961  0.00  0.00    +0.040 C 
BRANCH  60  62
ATOM     62  O   LIG    1       22.820 -33.061   4.614  0.00  0.00    -0.390 OA
ATOM     63  H   LIG    1       22.993 -33.711   3.908  0.00  0.00    +0.210 HD
ENDBRANCH  60  62
ENDBRANCH  59  60
ENDBRANCH  58  59
ENDBRANCH  36  58
ENDBRANCH   1  33
TORSDOF 36
ENDMDL
MODEL 2
REMARK VINA RESULT:      -4.0      2.835      9.187
REMARK  Name = *****
REMARK                            x       y       z     vdW  Elec       q    Type
REMARK                         _______ _______ _______ _____ _____    ______ ____
ROOT
ATOM      1  O   LIG    1       25.916 -28.318   7.888  0.00  0.00    -0.340 OA
ENDROOT
BRANCH   1   3
ATOM      2  C   LIG    1       24.173 -27.312   6.234  0.00  0.00    +0.178 C 
ATOM      3  C   LIG    1       25.369 -27.178   7.206  0.00  0.00    +0.184 C 
ATOM      4  C   LIG    1       26.232 -25.955   6.840  0.00  0.00    +0.183 C 
ATOM      5  C   LIG    1       25.395 -24.700   7.008  0.00  0.00    +0.205 C 
ATOM      6  C   LIG    1       24.202 -24.866   5.936  0.00  0.00    +0.282 C 
ATOM      7  O   LIG    1       24.079 -26.185   5.351  0.00  0.00    -0.341 OA
BRANCH   4   8
ATOM      8  O   LIG    1       26.604 -25.977   5.461  0.00  0.00    -0.369 OA
BRANCH   8   9
ATOM      9  C   LIG    1       27.445 -26.928   4.834  0.00  0.00    +0.191 C 
BRANCH   9  10
ATOM     10  C   LIG    1       28.932 -26.902   4.427  0.00  0.00    +0.137 C 
ATOM     11  C   LIG    1       29.499 -27.707   3.298  0.00  0.00    +0.040 C 
BRANCH  10  12
ATOM     12  O   LIG    1       29.788 -26.980   5.577  0.00  0.00    -0.390 OA
ATOM     13  H   LIG    1       30.656 -27.319   5.237  0.00  0.00    +0.210 HD
ENDBRANCH  10  12
ENDBRANCH   9  10
ENDBRANCH   8   9
ENDBRANCH   4   8
BRANCH   6  14
ATOM     14  O   LIG    1       22.924 -24.476   6.462  0.00  0.00    -0.346 OA
BRANCH  14  15
ATOM     15  C   LIG    1       22.923 -23.141   7.022  0.00  0.00    +0.194 C 
BRANCH  15  16
ATOM     16  C   LIG    1       23.050 -21.985   6.000  0.00  0.00    +0.137 C 
ATOM     17  C   LIG    1       23.321 -20.654   6.701  0.00  0.00    +0.040 C 
BRANCH  16  18
ATOM     18  O   LIG    1       21.873 -21.839   5.208  0.00  0.00    -0.390 OA
ATOM     19  H   LIG    1       21.527 -22.721   4.953  0.00  0.00    +0.210 HD
ENDBRANCH  16  18
ENDBRANCH  15  16
ENDBRANCH  14  15
ENDBRANCH   6  14
BRANCH   2  20
ATOM     20  C   LIG    1       24.002 -28.569   5.371  0.00  0.00    +0.194 C 
BRANCH  20  21
ATOM     21  O   LIG    1       23.492 -29.714   6.054  0.00  0.00    -0.375 OA
BRANCH  21  22
ATOM     22  C   LIG    1       24.055 -30.956   5.597  0.00  0.00    +0.190 C 
BRANCH  22  24
ATOM     23  C   LIG    1       25.868 -32.110   4.492  0.00  0.00    +0.040 C 
ATOM     24  C   LIG    1       25.563 -30.889   5.311  0.00  0.00    +0.137 C 
BRANCH  24  25
ATOM     25  O   LIG    1       26.379 -30.892   6.457  0.00  0.00    -0.390 OA
ATOM     26  H   LIG    1       26.551 -31.850   6.638  0.00  0.00    +0.210 HD
ENDBRANCH  24  25
ENDBRANCH  22  24
ENDBRANCH  21  22
ENDBRANCH  20  21
ENDBRANCH   2  20
BRANCH   5  27
ATOM     27  O   LIG    1       26.284 -23.559   6.823  0.00  0.00    -0.366 OA
BRANCH  27  28
ATOM     28  C   LIG    1       26.655 -22.695   7.974  0.00  0.00    +0.191 C 
BRANCH  28  29
ATOM     29  C   LIG    1       26.644 -21.076   7.832  0.00  0.00    +0.137 C 
ATOM     30  C   LIG    1       27.808 -20.344   7.215  0.00  0.00    +0.040 C 
BRANCH  29  31
ATOM     31  O   LIG    1       26.521 -20.331   9.065  0.00  0.00    -0.390 OA
ATOM     32  H   LIG    1       25.633 -19.890   9.033  0.00  0.00    +0.210 HD
ENDBRANCH  29  31
ENDBRANCH  28  29
ENDBRANCH  27  28
ENDBRANCH   5  27
ENDBRANCH   1   3
BRANCH   1  33
ATOM     33  C   LIG    1       25.707 -28.794   9.235  0.00  0.00    +0.282 C 
ATOM     34  C   LIG    1       26.994 -29.317   9.928  0.00  0.00    +0.205 C 
ATOM     35  C   LIG    1       27.046 -30.870  10.130  0.00  0.00    +0.183 C 
ATOM     36  C   LIG    1       25.758 -31.425  10.724  0.00  0.00    +0.181 C 
ATOM     37  C   LIG    1       24.478 -30.720  10.197  0.00  0.00    +0.178 C 
ATOM     38  O   LIG    1       24.733 -29.848   9.075  0.00  0.00    -0.341 OA
BRANCH  34  39
ATOM     39  O   LIG    1       27.264 -28.687  11.236  0.00  0.00    -0.366 OA
BRANCH  39  40
ATOM     40  C   LIG    1       26.273 -27.717  11.618  0.00  0.00    +0.191 C 
BRANCH  40  41
ATOM     41  C   LIG    1       26.591 -26.794  12.860  0.00  0.00    +0.137 C 
ATOM     42  C   LIG    1       25.394 -26.728  13.767  0.00  0.00    +0.040 C 
BRANCH  41  43
ATOM     43  O   LIG    1       26.812 -25.378  12.567  0.00  0.00    -0.390 OA
ATOM     44  H   LIG    1       26.050 -24.933  12.411  0.00  0.00    +0.210 HD
ENDBRANCH  41  43
ENDBRANCH  40  41
ENDBRANCH  39  40
ENDBRANCH  34  39
BRANCH  37  45
ATOM     45  C   LIG    1       23.443 -31.764   9.636  0.00  0.00    +0.194 C 
BRANCH  45  46
ATOM     46  O   LIG    1       22.123 -31.259   9.384  0.00  0.00    -0.375 OA
BRANCH  46  47
ATOM     47  C   LIG    1       21.117 -31.678  10.325  0.00  0.00    +0.190 C 
BRANCH  47  48
ATOM     48  C   LIG    1       20.337 -30.476  10.873  0.00  0.00    +0.137 C 
ATOM     49  C   LIG    1       20.992 -29.859  12.114  0.00  0.00    +0.040 C 
BRANCH  48  50
ATOM     50  O   LIG    1       19.010 -30.868  11.216  0.00  0.00    -0.390 OA
ATOM     51  H   LIG    1       18.473 -30.737  10.418  0.00  0.00    +0.210 HD
ENDBRANCH  48  50
ENDBRANCH  47  48
ENDBRANCH  46  47
ENDBRANCH  45  46
ENDBRANCH  37  45
BRANCH  35  52
ATOM     52  O   LIG    1       27.322 -31.656   8.951  0.00  0.00    -0.369 OA
BRANCH  52  53
ATOM     53  C   LIG    1       27.489 -33.102   9.071  0.00  0.00    +0.191 C 
BRANCH  53  54
ATOM     54  C   LIG    1       27.357 -33.824   7.692  0.00  0.00    +0.137 C 
ATOM     55  C   LIG    1       28.422 -33.453   6.689  0.00  0.00    +0.040 C 
BRANCH  54  56
ATOM     56  O   LIG    1       26.020 -33.675   7.247  0.00  0.00    -0.390 OA
ATOM     57  H   LIG    1       25.870 -32.709   7.372  0.00  0.00    +0.210 HD
ENDBRANCH  54  56
ENDBRANCH  53  54
ENDBRANCH  52  53
ENDBRANCH  35  52
BRANCH  36  58
ATOM     58  O   LIG    1       25.791 -31.644  12.156  0.00  0.00    -0.369 OA
BRANCH  58  59
ATOM     59  C   LIG    1       24.784 -30.900  12.893  0.00  0.00    +0.191 C 
BRANCH  59  60
ATOM     60  C   LIG    1       25.329 -30.249  14.176  0.00  0.00    +0.137 C 
ATOM     61  C   LIG    1       26.768 -30.620  14.497  0.00  0.00    +0.040 C 
BRANCH  60  62
ATOM     62  O   LIG    1       24.515 -30.613  15.285  0.00  0.00    -0.390 OA
ATOM     63  H   LIG    1       24.732 -31.543  15.484  0.00  0.00    +0.210 HD
ENDBRANCH  60  62
ENDBRANCH  59  60
ENDBRANCH  58  59
ENDBRANCH  36  58
ENDBRANCH   1  33
TORSDOF 36
ENDMDL
MODEL 3
REMARK VINA RESULT:      -3.9      2.889      9.279
REMARK  Name = *****
REMARK                            x       y       z     vdW  Elec       q    Type
REMARK                         _______ _______ _______ _____ _____    ______ ____
ROOT
ATOM      1  O   LIG    1       26.086 -28.672   7.973  0.00  0.00    -0.340 OA
ENDROOT
BRANCH   1   3
ATOM      2  C   LIG    1       24.214 -27.604   6.511  0.00  0.00    +0.178 C 
ATOM      3  C   LIG    1       25.511 -27.513   7.350  0.00  0.00    +0.184 C 
ATOM      4  C   LIG    1       26.372 -26.321   6.891  0.00  0.00    +0.183 C 
ATOM      5  C   LIG    1       25.603 -25.038   7.144  0.00  0.00    +0.205 C 
ATOM      6  C   LIG    1       24.297 -25.160   6.205  0.00  0.00    +0.282 C 
ATOM      7  O   LIG    1       24.066 -26.473   5.640  0.00  0.00    -0.341 OA
BRANCH   4   8
ATOM      8  O   LIG    1       26.594 -26.354   5.480  0.00  0.00    -0.369 OA
BRANCH   8   9
ATOM      9  C   LIG    1       27.511 -27.187   4.795  0.00  0.00    +0.191 C 
BRANCH   9  10
ATOM     10  C   LIG    1       28.974 -26.988   4.350  0.00  0.00    +0.137 C 
ATOM     11  C   LIG    1       29.621 -27.769   3.247  0.00  0.00    +0.040 C 
BRANCH  10  12
ATOM     12  O   LIG    1       29.855 -26.895   5.481  0.00  0.00    -0.390 OA
ATOM     13  H   LIG    1       30.460 -26.135   5.282  0.00  0.00    +0.210 HD
ENDBRANCH  10  12
ENDBRANCH   9  10
ENDBRANCH   8   9
ENDBRANCH   4   8
BRANCH   6  14
ATOM     14  O   LIG    1       23.097 -24.726   6.863  0.00  0.00    -0.346 OA
BRANCH  14  15
ATOM     15  C   LIG    1       22.589 -23.471   6.351  0.00  0.00    +0.194 C 
BRANCH  15  16
ATOM     16  C   LIG    1       23.642 -22.355   6.145  0.00  0.00    +0.137 C 
ATOM     17  C   LIG    1       23.222 -21.061   6.842  0.00  0.00    +0.040 C 
BRANCH  16  18
ATOM     18  O   LIG    1       23.853 -22.067   4.764  0.00  0.00    -0.390 OA
ATOM     19  H   LIG    1       23.618 -21.134   4.574  0.00  0.00    +0.210 HD
ENDBRANCH  16  18
ENDBRANCH  15  16
ENDBRANCH  14  15
ENDBRANCH   6  14
BRANCH   2  20
ATOM     20  C   LIG    1       23.908 -28.853   5.674  0.00  0.00    +0.194 C 
BRANCH  20  21
ATOM     21  O   LIG    1       24.690 -30.005   5.988  0.00  0.00    -0.375 OA
BRANCH  21  22
ATOM     22  C   LIG    1       25.355 -30.579   4.849  0.00  0.00    +0.190 C 
BRANCH  22  24
ATOM     23  C   LIG    1       25.519 -32.990   4.879  0.00  0.00    +0.040 C 
ATOM     24  C   LIG    1       26.294 -31.744   5.198  0.00  0.00    +0.137 C 
BRANCH  24  25
ATOM     25  O   LIG    1       26.699 -31.790   6.544  0.00  0.00    -0.390 OA
ATOM     26  H   LIG    1       27.549 -31.284   6.566  0.00  0.00    +0.210 HD
ENDBRANCH  24  25
ENDBRANCH  22  24
ENDBRANCH  21  22
ENDBRANCH  20  21
ENDBRANCH   2  20
BRANCH   5  27
ATOM     27  O   LIG    1       26.506 -23.928   6.863  0.00  0.00    -0.366 OA
BRANCH  27  28
ATOM     28  C   LIG    1       26.478 -22.699   7.698  0.00  0.00    +0.191 C 
BRANCH  28  29
ATOM     29  C   LIG    1       27.426 -21.430   7.337  0.00  0.00    +0.137 C 
ATOM     30  C   LIG    1       26.938 -20.331   6.427  0.00  0.00    +0.040 C 
BRANCH  29  31
ATOM     31  O   LIG    1       28.680 -21.737   6.686  0.00  0.00    -0.390 OA
ATOM     32  H   LIG    1       28.936 -22.644   6.996  0.00  0.00    +0.210 HD
ENDBRANCH  29  31
ENDBRANCH  28  29
ENDBRANCH  27  28
ENDBRANCH   5  27
ENDBRANCH   1   3
BRANCH   1  33
ATOM     33  C   LIG    1       26.146 -29.058   9.362  0.00  0.00    +0.282 C 
ATOM     34  C   LIG    1       27.019 -30.313   9.634  0.00  0.00    +0.205 C 
ATOM     35  C   LIG    1       26.215 -31.598  10.032  0.00  0.00    +0.183 C 
ATOM     36  C   LIG    1       25.175 -31.325  11.111  0.00  0.00    +0.181 C 
ATOM     37  C   LIG    1       24.475 -29.947  10.964  0.00  0.00    +0.178 C 
ATOM     38  O   LIG    1       24.765 -29.296   9.708  0.00  0.00    -0.341 OA
BRANCH  34  39
ATOM     39  O   LIG    1       28.061 -30.103  10.659  0.00  0.00    -0.366 OA
BRANCH  39  40
ATOM     40  C   LIG    1       27.834 -28.941  11.474  0.00  0.00    +0.191 C 
BRANCH  40  41
ATOM     41  C   LIG    1       27.432 -29.171  12.985  0.00  0.00    +0.137 C 
ATOM     42  C   LIG    1       27.954 -28.044  13.830  0.00  0.00    +0.040 C 
BRANCH  41  43
ATOM     43  O   LIG    1       28.039 -30.331  13.640  0.00  0.00    -0.390 OA
ATOM     44  H   LIG    1       28.808 -30.131  14.056  0.00  0.00    +0.210 HD
ENDBRANCH  41  43
ENDBRANCH  40  41
ENDBRANCH  39  40
ENDBRANCH  34  39
BRANCH  37  45
ATOM     45  C   LIG    1       22.909 -30.100  10.957  0.00  0.00    +0.194 C 
BRANCH  45  46
ATOM     46  O   LIG    1       22.201 -29.299  11.914  0.00  0.00    -0.375 OA
BRANCH  46  47
ATOM     47  C   LIG    1       23.030 -28.519  12.794  0.00  0.00    +0.190 C 
BRANCH  47  48
ATOM     48  C   LIG    1       22.229 -27.388  13.453  0.00  0.00    +0.137 C 
ATOM     49  C   LIG    1       20.804 -27.270  12.900  0.00  0.00    +0.040 C 
BRANCH  48  50
ATOM     50  O   LIG    1       22.890 -26.140  13.257  0.00  0.00    -0.390 OA
ATOM     51  H   LIG    1       22.239 -25.452  13.468  0.00  0.00    +0.210 HD
ENDBRANCH  48  50
ENDBRANCH  47  48
ENDBRANCH  46  47
ENDBRANCH  45  46
ENDBRANCH  37  45
BRANCH  35  52
ATOM     52  O   LIG    1       25.521 -32.272   8.960  0.00  0.00    -0.369 OA
BRANCH  52  53
ATOM     53  C   LIG    1       24.341 -33.078   9.260  0.00  0.00    +0.191 C 
BRANCH  53  54
ATOM     54  C   LIG    1       23.141 -32.734   8.320  0.00  0.00    +0.137 C 
ATOM     55  C   LIG    1       22.877 -33.758   7.244  0.00  0.00    +0.040 C 
BRANCH  54  56
ATOM     56  O   LIG    1       23.309 -31.401   7.867  0.00  0.00    -0.390 OA
ATOM     57  H   LIG    1       23.138 -31.491   6.902  0.00  0.00    +0.210 HD
ENDBRANCH  54  56
ENDBRANCH  53  54
ENDBRANCH  52  53
ENDBRANCH  35  52
BRANCH  36  58
ATOM     58  O   LIG    1       25.591 -31.661  12.458  0.00  0.00    -0.369 OA
BRANCH  58  59
ATOM     59  C   LIG    1       25.067 -32.928  12.942  0.00  0.00    +0.191 C 
BRANCH  59  60
ATOM     60  C   LIG    1       25.778 -33.433  14.209  0.00  0.00    +0.137 C 
ATOM     61  C   LIG    1       25.024 -33.152  15.498  0.00  0.00    +0.040 C 
BRANCH  60  62
ATOM     62  O   LIG    1       27.069 -32.840  14.307  0.00  0.00    -0.390 OA
ATOM     63  H   LIG    1       27.098 -32.147  13.621  0.00  0.00    +0.210 HD
ENDBRANCH  60  62
ENDBRANCH  59  60
ENDBRANCH  58  59
ENDBRANCH  36  58
ENDBRANCH   1  33
TORSDOF 36
ENDMDL
MODEL 4
REMARK VINA RESULT:      -2.9      2.001      8.484
REMARK  Name = *****
REMARK                            x       y       z     vdW  Elec       q    Type
REMARK                         _______ _______ _______ _____ _____    ______ ____
ROOT
ATOM      1  O   LIG    1       22.539 -31.065  10.312  0.00  0.00    -0.340 OA
ENDROOT
BRANCH   1   3
ATOM      2  C   LIG    1       24.755 -32.349   9.839  0.00  0.00    +0.178 C 
ATOM      3  C   LIG    1       23.874 -31.078   9.782  0.00  0.00    +0.184 C 
ATOM      4  C   LIG    1       24.750 -29.811   9.745  0.00  0.00    +0.183 C 
ATOM      5  C   LIG    1       25.572 -29.824   8.470  0.00  0.00    +0.205 C 
ATOM      6  C   LIG    1       26.508 -31.131   8.608  0.00  0.00    +0.282 C 
ATOM      7  O   LIG    1       26.146 -32.036   9.679  0.00  0.00    -0.341 OA
BRANCH   4   8
ATOM      8  O   LIG    1       25.704 -29.809  10.808  0.00  0.00    -0.369 OA
BRANCH   8   9
ATOM      9  C   LIG    1       25.506 -29.295  12.112  0.00  0.00    +0.191 C 
BRANCH   9  10
ATOM     10  C   LIG    1       26.316 -28.315  12.984  0.00  0.00    +0.137 C 
ATOM     11  C   LIG    1       26.774 -26.968  12.514  0.00  0.00    +0.040 C 
BRANCH  10  12
ATOM     12  O   LIG    1       27.376 -28.990  13.680  0.00  0.00    -0.390 OA
ATOM     13  H   LIG    1       28.171 -28.906  13.093  0.00  0.00    +0.210 HD
ENDBRANCH  10  12
ENDBRANCH   9  10
ENDBRANCH   8   9
ENDBRANCH   4   8
BRANCH   6  14
ATOM     14  O   LIG    1       26.604 -31.878   7.386  0.00  0.00    -0.346 OA
BRANCH  14  15
ATOM     15  C   LIG    1       25.620 -31.485   6.400  0.00  0.00    +0.194 C 
BRANCH  15  16
ATOM     16  C   LIG    1       24.992 -32.640   5.581  0.00  0.00    +0.137 C 
ATOM     17  C   LIG    1       23.592 -32.981   6.088  0.00  0.00    +0.040 C 
BRANCH  16  18
ATOM     18  O   LIG    1       25.785 -33.824   5.633  0.00  0.00    -0.390 OA
ATOM     19  H   LIG    1       26.274 -33.940   4.791  0.00  0.00    +0.210 HD
ENDBRANCH  16  18
ENDBRANCH  15  16
ENDBRANCH  14  15
ENDBRANCH   6  14
BRANCH   2  20
ATOM     20  C   LIG    1       24.650 -33.322  11.020  0.00  0.00    +0.194 C 
BRANCH  20  21
ATOM     21  O   LIG    1       25.190 -32.847  12.253  0.00  0.00    -0.375 OA
BRANCH  21  22
ATOM     22  C   LIG    1       25.980 -33.824  12.952  0.00  0.00    +0.190 C 
BRANCH  22  24
ATOM     23  C   LIG    1       25.909 -33.825  15.368  0.00  0.00    +0.040 C 
ATOM     24  C   LIG    1       26.683 -33.277  14.204  0.00  0.00    +0.137 C 
BRANCH  24  25
ATOM     25  O   LIG    1       26.714 -31.873  14.295  0.00  0.00    -0.390 OA
ATOM     26  H   LIG    1       26.067 -31.565  13.612  0.00  0.00    +0.210 HD
ENDBRANCH  24  25
ENDBRANCH  22  24
ENDBRANCH  21  22
ENDBRANCH  20  21
ENDBRANCH   2  20
BRANCH   5  27
ATOM     27  O   LIG    1       26.255 -28.540   8.381  0.00  0.00    -0.366 OA
BRANCH  27  28
ATOM     28  C   LIG    1       25.655 -27.415   7.616  0.00  0.00    +0.191 C 
BRANCH  28  29
ATOM     29  C   LIG    1       25.265 -27.593   6.049  0.00  0.00    +0.137 C 
ATOM     30  C   LIG    1       26.203 -27.138   4.960  0.00  0.00    +0.040 C 
BRANCH  29  31
ATOM     31  O   LIG    1       24.057 -26.928   5.615  0.00  0.00    -0.390 OA
ATOM     32  H   LIG    1       23.552 -26.708   6.440  0.00  0.00    +0.210 HD
ENDBRANCH  29  31
ENDBRANCH  28  29
ENDBRANCH  27  28
ENDBRANCH   5  27
ENDBRANCH   1   3
BRANCH   1  33
ATOM     33  C   LIG    1       22.069 -30.908  11.668  0.00  0.00    +0.282 C 
ATOM     34  C   LIG    1       21.004 -31.954  12.093  0.00  0.00    +0.205 C 
ATOM     35  C   LIG    1       19.555 -31.382  12.264  0.00  0.00    +0.183 C 
ATOM     36  C   LIG    1       19.526 -30.102  13.089  0.00  0.00    +0.181 C 
ATOM     37  C   LIG    1       20.738 -29.168  12.828  0.00  0.00    +0.178 C 
ATOM     38  O   LIG    1       21.527 -29.570  11.687  0.00  0.00    -0.341 OA
BRANCH  34  39
ATOM     39  O   LIG    1       21.345 -32.682  13.332  0.00  0.00    -0.366 OA
BRANCH  39  40
ATOM     40  C   LIG    1       22.727 -32.557  13.705  0.00  0.00    +0.191 C 
BRANCH  40  41
ATOM     41  C   LIG    1       23.055 -31.848  15.079  0.00  0.00    +0.137 C 
ATOM     42  C   LIG    1       21.896 -30.988  15.499  0.00  0.00    +0.040 C 
BRANCH  41  43
ATOM     43  O   LIG    1       24.146 -30.873  15.054  0.00  0.00    -0.390 OA
ATOM     44  H   LIG    1       24.444 -30.664  15.873  0.00  0.00    +0.210 HD
ENDBRANCH  41  43
ENDBRANCH  40  41
ENDBRANCH  39  40
ENDBRANCH  34  39
BRANCH  37  45
ATOM     45  C   LIG    1       20.268 -27.710  12.465  0.00  0.00    +0.194 C 
BRANCH  45  46
ATOM     46  O   LIG    1       20.704 -26.675  13.357  0.00  0.00    -0.375 OA
BRANCH  46  47
ATOM     47  C   LIG    1       21.244 -27.132  14.610  0.00  0.00    +0.190 C 
BRANCH  47  48
ATOM     48  C   LIG    1       22.708 -26.704  14.773  0.00  0.00    +0.137 C 
ATOM     49  C   LIG    1       23.310 -26.146  13.478  0.00  0.00    +0.040 C 
BRANCH  48  50
ATOM     50  O   LIG    1       23.500 -27.813  15.193  0.00  0.00    -0.390 OA
ATOM     51  H   LIG    1       24.425 -27.532  15.114  0.00  0.00    +0.210 HD
ENDBRANCH  48  50
ENDBRANCH  47  48
ENDBRANCH  46  47
ENDBRANCH  45  46
ENDBRANCH  37  45
BRANCH  35  52
ATOM     52  O   LIG    1       18.836 -31.096  11.046  0.00  0.00    -0.369 OA
BRANCH  52  53
ATOM     53  C   LIG    1       17.633 -31.858  10.721  0.00  0.00    +0.191 C 
BRANCH  53  54
ATOM     54  C   LIG    1       17.893 -32.917   9.603  0.00  0.00    +0.137 C 
ATOM     55  C   LIG    1       19.311 -33.431   9.547  0.00  0.00    +0.040 C 
BRANCH  54  56
ATOM     56  O   LIG    1       17.382 -32.401   8.385  0.00  0.00    -0.390 OA
ATOM     57  H   LIG    1       16.410 -32.445   8.537  0.00  0.00    +0.210 HD
ENDBRANCH  54  56
ENDBRANCH  53  54
ENDBRANCH  52  53
ENDBRANCH  35  52
BRANCH  36  58
ATOM     58  O   LIG    1       19.182 -30.284  14.485  0.00  0.00    -0.369 OA
BRANCH  58  59
ATOM     59  C   LIG    1       18.335 -31.437  14.742  0.00  0.00    +0.191 C 
BRANCH  59  60
ATOM     60  C   LIG    1       16.984 -31.067  15.379  0.00  0.00    +0.137 C 
ATOM     61  C   LIG    1       15.802 -31.841  14.819  0.00  0.00    +0.040 C 
BRANCH  60  62
ATOM     62  O   LIG    1       16.734 -29.677  15.205  0.00  0.00    -0.390 OA
ATOM     63  H   LIG    1       16.063 -29.439  15.872  0.00  0.00    +0.210 HD
ENDBRANCH  60  62
ENDBRANCH  59  60
ENDBRANCH  58  59
ENDBRANCH  36  58
ENDBRANCH   1  33
TORSDOF 36
ENDMDL
MODEL 5
REMARK VINA RESULT:      -2.8      3.224      9.226
REMARK  Name = *****
REMARK                            x       y       z     vdW  Elec       q    Type
REMARK                         _______ _______ _______ _____ _____    ______ ____
ROOT
ATOM      1  O   LIG    1       26.761 -28.285   8.248  0.00  0.00    -0.340 OA
ENDROOT
BRANCH   1   3
ATOM      2  C   LIG    1       24.568 -27.772   6.940  0.00  0.00    +0.178 C 
ATOM      3  C   LIG    1       25.930 -27.350   7.541  0.00  0.00    +0.184 C 
ATOM      4  C   LIG    1       26.520 -26.157   6.766  0.00  0.00    +0.183 C 
ATOM      5  C   LIG    1       25.593 -24.967   6.921  0.00  0.00    +0.205 C 
ATOM      6  C   LIG    1       24.214 -25.438   6.230  0.00  0.00    +0.282 C 
ATOM      7  O   LIG    1       24.128 -26.852   5.929  0.00  0.00    -0.341 OA
BRANCH   4   8
ATOM      8  O   LIG    1       26.561 -26.421   5.362  0.00  0.00    -0.369 OA
BRANCH   8   9
ATOM      9  C   LIG    1       27.510 -27.226   4.687  0.00  0.00    +0.191 C 
BRANCH   9  10
ATOM     10  C   LIG    1       28.984 -26.999   4.293  0.00  0.00    +0.137 C 
ATOM     11  C   LIG    1       29.678 -27.752   3.199  0.00  0.00    +0.040 C 
BRANCH  10  12
ATOM     12  O   LIG    1       29.826 -26.912   5.453  0.00  0.00    -0.390 OA
ATOM     13  H   LIG    1       29.506 -26.117   5.952  0.00  0.00    +0.210 HD
ENDBRANCH  10  12
ENDBRANCH   9  10
ENDBRANCH   8   9
ENDBRANCH   4   8
BRANCH   6  14
ATOM     14  O   LIG    1       23.054 -25.058   6.986  0.00  0.00    -0.346 OA
BRANCH  14  15
ATOM     15  C   LIG    1       22.521 -23.769   6.601  0.00  0.00    +0.194 C 
BRANCH  15  16
ATOM     16  C   LIG    1       23.554 -22.618   6.501  0.00  0.00    +0.137 C 
ATOM     17  C   LIG    1       23.089 -21.389   7.281  0.00  0.00    +0.040 C 
BRANCH  16  18
ATOM     18  O   LIG    1       23.787 -22.227   5.150  0.00  0.00    -0.390 OA
ATOM     19  H   LIG    1       24.712 -22.429   4.895  0.00  0.00    +0.210 HD
ENDBRANCH  16  18
ENDBRANCH  15  16
ENDBRANCH  14  15
ENDBRANCH   6  14
BRANCH   2  20
ATOM     20  C   LIG    1       24.363 -29.184   6.377  0.00  0.00    +0.194 C 
BRANCH  20  21
ATOM     21  O   LIG    1       25.174 -29.515   5.250  0.00  0.00    -0.375 OA
BRANCH  21  22
ATOM     22  C   LIG    1       25.913 -30.738   5.411  0.00  0.00    +0.190 C 
BRANCH  22  24
ATOM     23  C   LIG    1       25.747 -33.106   5.863  0.00  0.00    +0.040 C 
ATOM     24  C   LIG    1       25.107 -32.002   5.072  0.00  0.00    +0.137 C 
BRANCH  24  25
ATOM     25  O   LIG    1       25.111 -32.354   3.711  0.00  0.00    -0.390 OA
ATOM     26  H   LIG    1       24.201 -32.128   3.393  0.00  0.00    +0.210 HD
ENDBRANCH  24  25
ENDBRANCH  22  24
ENDBRANCH  21  22
ENDBRANCH  20  21
ENDBRANCH   2  20
BRANCH   5  27
ATOM     27  O   LIG    1       26.260 -23.816   6.326  0.00  0.00    -0.366 OA
BRANCH  27  28
ATOM     28  C   LIG    1       27.030 -22.866   7.171  0.00  0.00    +0.191 C 
BRANCH  28  29
ATOM     29  C   LIG    1       27.042 -21.277   6.832  0.00  0.00    +0.137 C 
ATOM     30  C   LIG    1       26.417 -20.278   7.774  0.00  0.00    +0.040 C 
BRANCH  29  31
ATOM     31  O   LIG    1       26.390 -20.884   5.603  0.00  0.00    -0.390 OA
ATOM     32  H   LIG    1       25.582 -20.376   5.870  0.00  0.00    +0.210 HD
ENDBRANCH  29  31
ENDBRANCH  28  29
ENDBRANCH  27  28
ENDBRANCH   5  27
ENDBRANCH   1   3
BRANCH   1  33
ATOM     33  C   LIG    1       26.434 -29.230   9.289  0.00  0.00    +0.282 C 
ATOM     34  C   LIG    1       25.193 -28.835  10.135  0.00  0.00    +0.205 C 
ATOM     35  C   LIG    1       25.515 -28.390  11.603  0.00  0.00    +0.183 C 
ATOM     36  C   LIG    1       26.463 -29.350  12.309  0.00  0.00    +0.181 C 
ATOM     37  C   LIG    1       27.563 -29.932  11.381  0.00  0.00    +0.178 C 
ATOM     38  O   LIG    1       27.628 -29.272  10.098  0.00  0.00    -0.341 OA
BRANCH  34  39
ATOM     39  O   LIG    1       24.159 -29.887  10.205  0.00  0.00    -0.366 OA
BRANCH  39  40
ATOM     40  C   LIG    1       24.484 -31.057   9.435  0.00  0.00    +0.191 C 
BRANCH  40  41
ATOM     41  C   LIG    1       23.343 -32.128   9.212  0.00  0.00    +0.137 C 
ATOM     42  C   LIG    1       23.836 -33.491   9.612  0.00  0.00    +0.040 C 
BRANCH  41  43
ATOM     43  O   LIG    1       22.943 -32.360   7.824  0.00  0.00    -0.390 OA
ATOM     44  H   LIG    1       23.149 -33.184   7.536  0.00  0.00    +0.210 HD
ENDBRANCH  41  43
ENDBRANCH  40  41
ENDBRANCH  39  40
ENDBRANCH  34  39
BRANCH  37  45
ATOM     45  C   LIG    1       28.998 -29.713  11.990  0.00  0.00    +0.194 C 
BRANCH  45  46
ATOM     46  O   LIG    1       29.193 -30.213  13.320  0.00  0.00    -0.375 OA
BRANCH  46  47
ATOM     47  C   LIG    1       29.747 -29.270  14.255  0.00  0.00    +0.190 C 
BRANCH  47  48
ATOM     48  C   LIG    1       31.192 -29.635  14.622  0.00  0.00    +0.137 C 
ATOM     49  C   LIG    1       32.113 -28.412  14.693  0.00  0.00    +0.040 C 
BRANCH  48  50
ATOM     50  O   LIG    1       31.726 -30.543  13.661  0.00  0.00    -0.390 OA
ATOM     51  H   LIG    1       32.691 -30.500  13.754  0.00  0.00    +0.210 HD
ENDBRANCH  48  50
ENDBRANCH  47  48
ENDBRANCH  46  47
ENDBRANCH  45  46
ENDBRANCH  37  45
BRANCH  35  52
ATOM     52  O   LIG    1       26.083 -27.072  11.758  0.00  0.00    -0.369 OA
BRANCH  52  53
ATOM     53  C   LIG    1       26.576 -26.648  13.065  0.00  0.00    +0.191 C 
BRANCH  53  54
ATOM     54  C   LIG    1       25.596 -25.656  13.769  0.00  0.00    +0.137 C 
ATOM     55  C   LIG    1       24.144 -26.067  13.711  0.00  0.00    +0.040 C 
BRANCH  54  56
ATOM     56  O   LIG    1       25.880 -24.350  13.296  0.00  0.00    -0.390 OA
ATOM     57  H   LIG    1       25.638 -24.421  12.344  0.00  0.00    +0.210 HD
ENDBRANCH  54  56
ENDBRANCH  53  54
ENDBRANCH  52  53
ENDBRANCH  35  52
BRANCH  36  58
ATOM     58  O   LIG    1       25.818 -30.317  13.175  0.00  0.00    -0.369 OA
BRANCH  58  59
ATOM     59  C   LIG    1       24.648 -29.804  13.869  0.00  0.00    +0.191 C 
BRANCH  59  60
ATOM     60  C   LIG    1       23.376 -30.626  13.602  0.00  0.00    +0.137 C 
ATOM     61  C   LIG    1       23.642 -32.035  13.097  0.00  0.00    +0.040 C 
BRANCH  60  62
ATOM     62  O   LIG    1       22.560 -29.955  12.648  0.00  0.00    -0.390 OA
ATOM     63  H   LIG    1       22.881 -29.034  12.621  0.00  0.00    +0.210 HD
ENDBRANCH  60  62
ENDBRANCH  59  60
ENDBRANCH  58  59
ENDBRANCH  36  58
ENDBRANCH   1  33
TORSDOF 36
ENDMDL
MODEL 6
REMARK VINA RESULT:      -2.5      1.679      3.415
REMARK  Name = *****
REMARK                            x       y       z     vdW  Elec       q    Type
REMARK                         _______ _______ _______ _____ _____    ______ ____
ROOT
ATOM      1  O   LIG    1       23.607 -30.267  10.448  0.00  0.00    -0.340 OA
ENDROOT
BRANCH   1   3
ATOM      2  C   LIG    1       22.430 -29.603  12.674  0.00  0.00    +0.178 C 
ATOM      3  C   LIG    1       22.469 -30.351  11.321  0.00  0.00    +0.184 C 
ATOM      4  C   LIG    1       21.563 -31.596  11.361  0.00  0.00    +0.183 C 
ATOM      5  C   LIG    1       20.128 -31.149  11.566  0.00  0.00    +0.205 C 
ATOM      6  C   LIG    1       20.133 -30.430  13.010  0.00  0.00    +0.282 C 
ATOM      7  O   LIG    1       21.445 -30.159  13.558  0.00  0.00    -0.341 OA
BRANCH   4   8
ATOM      8  O   LIG    1       21.864 -32.420  12.489  0.00  0.00    -0.369 OA
BRANCH   8   9
ATOM      9  C   LIG    1       23.032 -33.200  12.671  0.00  0.00    +0.191 C 
BRANCH   9  10
ATOM     10  C   LIG    1       24.108 -33.231  13.775  0.00  0.00    +0.137 C 
ATOM     11  C   LIG    1       23.871 -32.770  15.180  0.00  0.00    +0.040 C 
BRANCH  10  12
ATOM     12  O   LIG    1       25.365 -32.734  13.290  0.00  0.00    -0.390 OA
ATOM     13  H   LIG    1       25.293 -32.753  12.301  0.00  0.00    +0.210 HD
ENDBRANCH  10  12
ENDBRANCH   9  10
ENDBRANCH   8   9
ENDBRANCH   4   8
BRANCH   6  14
ATOM     14  O   LIG    1       19.367 -29.216  13.028  0.00  0.00    -0.346 OA
BRANCH  14  15
ATOM     15  C   LIG    1       19.092 -28.736  14.366  0.00  0.00    +0.194 C 
BRANCH  15  16
ATOM     16  C   LIG    1       18.661 -27.252  14.472  0.00  0.00    +0.137 C 
ATOM     17  C   LIG    1       17.145 -27.126  14.616  0.00  0.00    +0.040 C 
BRANCH  16  18
ATOM     18  O   LIG    1       19.064 -26.496  13.331  0.00  0.00    -0.390 OA
ATOM     19  H   LIG    1       19.827 -25.924  13.558  0.00  0.00    +0.210 HD
ENDBRANCH  16  18
ENDBRANCH  15  16
ENDBRANCH  14  15
ENDBRANCH   6  14
BRANCH   2  20
ATOM     20  C   LIG    1       23.709 -29.407  13.499  0.00  0.00    +0.194 C 
BRANCH  20  21
ATOM     21  O   LIG    1       23.793 -28.173  14.210  0.00  0.00    -0.375 OA
BRANCH  21  22
ATOM     22  C   LIG    1       24.430 -27.121  13.464  0.00  0.00    +0.190 C 
BRANCH  22  24
ATOM     23  C   LIG    1       26.372 -26.899  14.885  0.00  0.00    +0.040 C 
ATOM     24  C   LIG    1       25.965 -27.193  13.470  0.00  0.00    +0.137 C 
BRANCH  24  25
ATOM     25  O   LIG    1       26.600 -26.278  12.611  0.00  0.00    -0.390 OA
ATOM     26  H   LIG    1       26.634 -26.739  11.736  0.00  0.00    +0.210 HD
ENDBRANCH  24  25
ENDBRANCH  22  24
ENDBRANCH  21  22
ENDBRANCH  20  21
ENDBRANCH   2  20
BRANCH   5  27
ATOM     27  O   LIG    1       19.282 -32.328  11.428  0.00  0.00    -0.366 OA
BRANCH  27  28
ATOM     28  C   LIG    1       17.823 -32.188  11.183  0.00  0.00    +0.191 C 
BRANCH  28  29
ATOM     29  C   LIG    1       16.784 -32.046  12.424  0.00  0.00    +0.137 C 
ATOM     30  C   LIG    1       16.157 -30.718  12.763  0.00  0.00    +0.040 C 
BRANCH  29  31
ATOM     31  O   LIG    1       17.297 -32.406  13.727  0.00  0.00    -0.390 OA
ATOM     32  H   LIG    1       18.281 -32.477  13.625  0.00  0.00    +0.210 HD
ENDBRANCH  29  31
ENDBRANCH  28  29
ENDBRANCH  27  28
ENDBRANCH   5  27
ENDBRANCH   1   3
BRANCH   1  33
ATOM     33  C   LIG    1       23.682 -30.230   9.006  0.00  0.00    +0.282 C 
ATOM     34  C   LIG    1       24.548 -31.361   8.389  0.00  0.00    +0.205 C 
ATOM     35  C   LIG    1       25.911 -30.885   7.778  0.00  0.00    +0.183 C 
ATOM     36  C   LIG    1       25.752 -29.668   6.876  0.00  0.00    +0.181 C 
ATOM     37  C   LIG    1       24.695 -28.651   7.386  0.00  0.00    +0.178 C 
ATOM     38  O   LIG    1       24.244 -28.930   8.729  0.00  0.00    -0.341 OA
BRANCH  34  39
ATOM     39  O   LIG    1       23.848 -32.152   7.357  0.00  0.00    -0.366 OA
BRANCH  39  40
ATOM     40  C   LIG    1       24.582 -33.313   6.933  0.00  0.00    +0.191 C 
BRANCH  40  41
ATOM     41  C   LIG    1       24.854 -33.484   5.385  0.00  0.00    +0.137 C 
ATOM     42  C   LIG    1       26.334 -33.486   5.123  0.00  0.00    +0.040 C 
BRANCH  41  43
ATOM     43  O   LIG    1       24.408 -32.383   4.531  0.00  0.00    -0.390 OA
ATOM     44  H   LIG    1       23.533 -32.210   4.617  0.00  0.00    +0.210 HD
ENDBRANCH  41  43
ENDBRANCH  40  41
ENDBRANCH  39  40
ENDBRANCH  34  39
BRANCH  37  45
ATOM     45  C   LIG    1       25.300 -27.201   7.484  0.00  0.00    +0.194 C 
BRANCH  45  46
ATOM     46  O   LIG    1       24.486 -26.149   6.946  0.00  0.00    -0.375 OA
BRANCH  46  47
ATOM     47  C   LIG    1       25.096 -24.846   6.937  0.00  0.00    +0.190 C 
BRANCH  47  48
ATOM     48  C   LIG    1       24.102 -23.772   6.473  0.00  0.00    +0.137 C 
ATOM     49  C   LIG    1       24.224 -22.467   7.268  0.00  0.00    +0.040 C 
BRANCH  48  50
ATOM     50  O   LIG    1       22.766 -24.252   6.603  0.00  0.00    -0.390 OA
ATOM     51  H   LIG    1       22.762 -24.840   7.375  0.00  0.00    +0.210 HD
ENDBRANCH  48  50
ENDBRANCH  47  48
ENDBRANCH  46  47
ENDBRANCH  45  46
ENDBRANCH  37  45
BRANCH  35  52
ATOM     52  O   LIG    1       26.952 -30.558   8.722  0.00  0.00    -0.369 OA
BRANCH  52  53
ATOM     53  C   LIG    1       26.828 -29.358   9.546  0.00  0.00    +0.191 C 
BRANCH  53  54
ATOM     54  C   LIG    1       26.996 -29.671  11.067  0.00  0.00    +0.137 C 
ATOM     55  C   LIG    1       28.376 -29.392  11.613  0.00  0.00    +0.040 C 
BRANCH  54  56
ATOM     56  O   LIG    1       26.499 -30.978  11.302  0.00  0.00    -0.390 OA
ATOM     57  H   LIG    1       25.635 -30.791  11.737  0.00  0.00    +0.210 HD
ENDBRANCH  54  56
ENDBRANCH  53  54
ENDBRANCH  52  53
ENDBRANCH  35  52
BRANCH  36  58
ATOM     58  O   LIG    1       25.684 -29.964   5.458  0.00  0.00    -0.369 OA
BRANCH  58  59
ATOM     59  C   LIG    1       25.219 -28.855   4.643  0.00  0.00    +0.191 C 
BRANCH  59  60
ATOM     60  C   LIG    1       26.092 -27.595   4.779  0.00  0.00    +0.137 C 
ATOM     61  C   LIG    1       25.649 -26.436   3.901  0.00  0.00    +0.040 C 
BRANCH  60  62
ATOM     62  O   LIG    1       27.443 -27.908   4.460  0.00  0.00    -0.390 OA
ATOM     63  H   LIG    1       27.680 -28.674   5.016  0.00  0.00    +0.210 HD
ENDBRANCH  60  62
ENDBRANCH  59  60
ENDBRANCH  58  59
ENDBRANCH  36  58
ENDBRANCH   1  33
TORSDOF 36
ENDMDL
MODEL 7
REMARK VINA RESULT:      -2.4      2.371      7.551
REMARK  Name = *****
REMARK                            x       y       z     vdW  Elec       q    Type
REMARK                         _______ _______ _______ _____ _____    ______ ____
ROOT
ATOM      1  O   LIG    1       25.446 -31.629  12.187  0.00  0.00    -0.340 OA
ENDROOT
BRANCH   1   3
ATOM      2  C   LIG    1       26.898 -32.228  14.264  0.00  0.00    +0.178 C 
ATOM      3  C   LIG    1       26.272 -31.208  13.284  0.00  0.00    +0.184 C 
ATOM      4  C   LIG    1       26.085 -29.841  13.969  0.00  0.00    +0.183 C 
ATOM      5  C   LIG    1       27.449 -29.295  14.348  0.00  0.00    +0.205 C 
ATOM      6  C   LIG    1       28.028 -30.362  15.410  0.00  0.00    +0.282 C 
ATOM      7  O   LIG    1       27.292 -31.606  15.496  0.00  0.00    -0.341 OA
BRANCH   4   8
ATOM      8  O   LIG    1       25.376 -29.972  15.202  0.00  0.00    -0.369 OA
BRANCH   8   9
ATOM      9  C   LIG    1       24.030 -29.602  15.439  0.00  0.00    +0.191 C 
BRANCH   9  10
ATOM     10  C   LIG    1       23.070 -28.630  14.722  0.00  0.00    +0.137 C 
ATOM     11  C   LIG    1       23.300 -27.153  14.629  0.00  0.00    +0.040 C 
BRANCH  10  12
ATOM     12  O   LIG    1       21.702 -28.904  15.063  0.00  0.00    -0.390 OA
ATOM     13  H   LIG    1       21.371 -28.080  15.505  0.00  0.00    +0.210 HD
ENDBRANCH  10  12
ENDBRANCH   9  10
ENDBRANCH   8   9
ENDBRANCH   4   8
BRANCH   6  14
ATOM     14  O   LIG    1       29.416 -30.662  15.195  0.00  0.00    -0.346 OA
BRANCH  14  15
ATOM     15  C   LIG    1       30.110 -29.637  14.447  0.00  0.00    +0.194 C 
BRANCH  15  16
ATOM     16  C   LIG    1       31.653 -29.772  14.395  0.00  0.00    +0.137 C 
ATOM     17  C   LIG    1       32.157 -29.807  12.953  0.00  0.00    +0.040 C 
BRANCH  16  18
ATOM     18  O   LIG    1       32.107 -30.951  15.055  0.00  0.00    -0.390 OA
ATOM     19  H   LIG    1       31.470 -31.215  15.752  0.00  0.00    +0.210 HD
ENDBRANCH  16  18
ENDBRANCH  15  16
ENDBRANCH  14  15
ENDBRANCH   6  14
BRANCH   2  20
ATOM     20  C   LIG    1       26.153 -33.517  14.634  0.00  0.00    +0.194 C 
BRANCH  20  21
ATOM     21  O   LIG    1       24.941 -33.333  15.364  0.00  0.00    -0.375 OA
BRANCH  21  22
ATOM     22  C   LIG    1       23.772 -33.799  14.667  0.00  0.00    +0.190 C 
BRANCH  22  24
ATOM     23  C   LIG    1       21.488 -33.463  13.955  0.00  0.00    +0.040 C 
ATOM     24  C   LIG    1       22.682 -32.730  14.495  0.00  0.00    +0.137 C 
BRANCH  24  25
ATOM     25  O   LIG    1       23.016 -31.687  13.614  0.00  0.00    -0.390 OA
ATOM     26  H   LIG    1       23.984 -31.541  13.755  0.00  0.00    +0.210 HD
ENDBRANCH  24  25
ENDBRANCH  22  24
ENDBRANCH  21  22
ENDBRANCH  20  21
ENDBRANCH   2  20
BRANCH   5  27
ATOM     27  O   LIG    1       27.251 -27.934  14.834  0.00  0.00    -0.366 OA
BRANCH  27  28
ATOM     28  C   LIG    1       28.292 -26.895  14.619  0.00  0.00    +0.191 C 
BRANCH  28  29
ATOM     29  C   LIG    1       27.880 -25.388  14.173  0.00  0.00    +0.137 C 
ATOM     30  C   LIG    1       26.745 -24.662  14.849  0.00  0.00    +0.040 C 
BRANCH  29  31
ATOM     31  O   LIG    1       27.481 -25.220  12.794  0.00  0.00    -0.390 OA
ATOM     32  H   LIG    1       27.346 -24.247  12.662  0.00  0.00    +0.210 HD
ENDBRANCH  29  31
ENDBRANCH  28  29
ENDBRANCH  27  28
ENDBRANCH   5  27
ENDBRANCH   1   3
BRANCH   1  33
ATOM     33  C   LIG    1       25.344 -31.119  10.840  0.00  0.00    +0.282 C 
ATOM     34  C   LIG    1       24.126 -30.184  10.607  0.00  0.00    +0.205 C 
ATOM     35  C   LIG    1       22.990 -30.797   9.718  0.00  0.00    +0.183 C 
ATOM     36  C   LIG    1       23.527 -31.438   8.445  0.00  0.00    +0.181 C 
ATOM     37  C   LIG    1       24.882 -32.169   8.643  0.00  0.00    +0.178 C 
ATOM     38  O   LIG    1       25.252 -32.311  10.031  0.00  0.00    -0.341 OA
BRANCH  34  39
ATOM     39  O   LIG    1       24.483 -28.871  10.034  0.00  0.00    -0.366 OA
BRANCH  39  40
ATOM     40  C   LIG    1       25.768 -28.860   9.391  0.00  0.00    +0.191 C 
BRANCH  40  41
ATOM     41  C   LIG    1       26.963 -28.161  10.152  0.00  0.00    +0.137 C 
ATOM     42  C   LIG    1       27.702 -29.173  10.983  0.00  0.00    +0.040 C 
BRANCH  41  43
ATOM     43  O   LIG    1       26.588 -27.172  11.164  0.00  0.00    -0.390 OA
ATOM     44  H   LIG    1       26.194 -26.448  10.812  0.00  0.00    +0.210 HD
ENDBRANCH  41  43
ENDBRANCH  40  41
ENDBRANCH  39  40
ENDBRANCH  34  39
BRANCH  37  45
ATOM     45  C   LIG    1       24.812 -33.652   8.118  0.00  0.00    +0.194 C 
BRANCH  45  46
ATOM     46  O   LIG    1       24.259 -33.822   6.805  0.00  0.00    -0.375 OA
BRANCH  46  47
ATOM     47  C   LIG    1       25.216 -33.810   5.731  0.00  0.00    +0.190 C 
BRANCH  47  48
ATOM     48  C   LIG    1       24.709 -32.976   4.547  0.00  0.00    +0.137 C 
ATOM     49  C   LIG    1       25.845 -32.314   3.758  0.00  0.00    +0.040 C 
BRANCH  48  50
ATOM     50  O   LIG    1       23.830 -31.953   5.008  0.00  0.00    -0.390 OA
ATOM     51  H   LIG    1       23.352 -31.633   4.227  0.00  0.00    +0.210 HD
ENDBRANCH  48  50
ENDBRANCH  47  48
ENDBRANCH  46  47
ENDBRANCH  45  46
ENDBRANCH  37  45
BRANCH  35  52
ATOM     52  O   LIG    1       22.152 -31.788  10.349  0.00  0.00    -0.369 OA
BRANCH  52  53
ATOM     53  C   LIG    1       20.805 -32.027   9.837  0.00  0.00    +0.191 C 
BRANCH  53  54
ATOM     54  C   LIG    1       19.709 -31.380  10.742  0.00  0.00    +0.137 C 
ATOM     55  C   LIG    1       18.335 -31.328  10.119  0.00  0.00    +0.040 C 
BRANCH  54  56
ATOM     56  O   LIG    1       20.211 -30.142  11.219  0.00  0.00    -0.390 OA
ATOM     57  H   LIG    1       20.093 -30.237  12.193  0.00  0.00    +0.210 HD
ENDBRANCH  54  56
ENDBRANCH  53  54
ENDBRANCH  52  53
ENDBRANCH  35  52
BRANCH  36  58
ATOM     58  O   LIG    1       23.447 -30.604   7.262  0.00  0.00    -0.369 OA
BRANCH  58  59
ATOM     59  C   LIG    1       24.268 -29.406   7.324  0.00  0.00    +0.191 C 
BRANCH  59  60
ATOM     60  C   LIG    1       24.359 -28.663   5.980  0.00  0.00    +0.137 C 
ATOM     61  C   LIG    1       24.338 -27.149   6.106  0.00  0.00    +0.040 C 
BRANCH  60  62
ATOM     62  O   LIG    1       23.283 -29.058   5.137  0.00  0.00    -0.390 OA
ATOM     63  H   LIG    1       23.029 -28.262   4.635  0.00  0.00    +0.210 HD
ENDBRANCH  60  62
ENDBRANCH  59  60
ENDBRANCH  58  59
ENDBRANCH  36  58
ENDBRANCH   1  33
TORSDOF 36
ENDMDL
MODEL 8
REMARK VINA RESULT:      -2.1      2.738      7.159
REMARK  Name = *****
REMARK                            x       y       z     vdW  Elec       q    Type
REMARK                         _______ _______ _______ _____ _____    ______ ____
ROOT
ATOM      1  O   LIG    1       26.868 -29.574  10.254  0.00  0.00    -0.340 OA
ENDROOT
BRANCH   1   3
ATOM      2  C   LIG    1       26.882 -30.995  12.437  0.00  0.00    +0.178 C 
ATOM      3  C   LIG    1       27.037 -29.656  11.678  0.00  0.00    +0.184 C 
ATOM      4  C   LIG    1       26.724 -28.467  12.606  0.00  0.00    +0.183 C 
ATOM      5  C   LIG    1       27.741 -28.446  13.732  0.00  0.00    +0.205 C 
ATOM      6  C   LIG    1       27.496 -29.832  14.520  0.00  0.00    +0.282 C 
ATOM      7  O   LIG    1       26.649 -30.787  13.838  0.00  0.00    -0.341 OA
BRANCH   4   8
ATOM      8  O   LIG    1       25.457 -28.628  13.247  0.00  0.00    -0.369 OA
BRANCH   8   9
ATOM      9  C   LIG    1       24.271 -27.914  12.951  0.00  0.00    +0.191 C 
BRANCH   9  10
ATOM     10  C   LIG    1       22.887 -27.858  13.630  0.00  0.00    +0.137 C 
ATOM     11  C   LIG    1       21.917 -26.731  13.448  0.00  0.00    +0.040 C 
BRANCH  10  12
ATOM     12  O   LIG    1       22.972 -28.227  15.015  0.00  0.00    -0.390 OA
ATOM     13  H   LIG    1       22.899 -29.216  15.030  0.00  0.00    +0.210 HD
ENDBRANCH  10  12
ENDBRANCH   9  10
ENDBRANCH   8   9
ENDBRANCH   4   8
BRANCH   6  14
ATOM     14  O   LIG    1       28.721 -30.485  14.889  0.00  0.00    -0.346 OA
BRANCH  14  15
ATOM     15  C   LIG    1       29.682 -29.591  15.498  0.00  0.00    +0.194 C 
BRANCH  15  16
ATOM     16  C   LIG    1       31.170 -29.972  15.305  0.00  0.00    +0.137 C 
ATOM     17  C   LIG    1       31.763 -29.284  14.075  0.00  0.00    +0.040 C 
BRANCH  16  18
ATOM     18  O   LIG    1       31.346 -31.379  15.155  0.00  0.00    -0.390 OA
ATOM     19  H   LIG    1       30.643 -31.861  15.641  0.00  0.00    +0.210 HD
ENDBRANCH  16  18
ENDBRANCH  15  16
ENDBRANCH  14  15
ENDBRANCH   6  14
BRANCH   2  20
ATOM     20  C   LIG    1       25.868 -32.048  11.969  0.00  0.00    +0.194 C 
BRANCH  20  21
ATOM     21  O   LIG    1       24.692 -32.161  12.769  0.00  0.00    -0.375 OA
BRANCH  21  22
ATOM     22  C   LIG    1       24.478 -33.482  13.296  0.00  0.00    +0.190 C 
BRANCH  22  24
ATOM     23  C   LIG    1       23.113 -32.832  15.181  0.00  0.00    +0.040 C 
ATOM     24  C   LIG    1       24.392 -33.534  14.830  0.00  0.00    +0.137 C 
BRANCH  24  25
ATOM     25  O   LIG    1       25.458 -32.906  15.500  0.00  0.00    -0.390 OA
ATOM     26  H   LIG    1       26.272 -33.269  15.070  0.00  0.00    +0.210 HD
ENDBRANCH  24  25
ENDBRANCH  22  24
ENDBRANCH  21  22
ENDBRANCH  20  21
ENDBRANCH   2  20
BRANCH   5  27
ATOM     27  O   LIG    1       27.525 -27.219  14.489  0.00  0.00    -0.366 OA
BRANCH  27  28
ATOM     28  C   LIG    1       27.351 -25.919  13.790  0.00  0.00    +0.191 C 
BRANCH  28  29
ATOM     29  C   LIG    1       26.478 -24.726  14.464  0.00  0.00    +0.137 C 
ATOM     30  C   LIG    1       25.133 -24.337  13.905  0.00  0.00    +0.040 C 
BRANCH  29  31
ATOM     31  O   LIG    1       27.104 -23.423  14.502  0.00  0.00    -0.390 OA
ATOM     32  H   LIG    1       27.924 -23.495  13.947  0.00  0.00    +0.210 HD
ENDBRANCH  29  31
ENDBRANCH  28  29
ENDBRANCH  27  28
ENDBRANCH   5  27
ENDBRANCH   1   3
BRANCH   1  33
ATOM     33  C   LIG    1       25.825 -28.961   9.467  0.00  0.00    +0.282 C 
ATOM     34  C   LIG    1       24.920 -29.975   8.716  0.00  0.00    +0.205 C 
ATOM     35  C   LIG    1       25.116 -30.004   7.162  0.00  0.00    +0.183 C 
ATOM     36  C   LIG    1       25.121 -28.610   6.548  0.00  0.00    +0.181 C 
ATOM     37  C   LIG    1       25.824 -27.545   7.432  0.00  0.00    +0.178 C 
ATOM     38  O   LIG    1       26.547 -28.119   8.543  0.00  0.00    -0.341 OA
BRANCH  34  39
ATOM     39  O   LIG    1       23.478 -29.797   8.980  0.00  0.00    -0.366 OA
BRANCH  39  40
ATOM     40  C   LIG    1       22.769 -31.038   9.137  0.00  0.00    +0.191 C 
BRANCH  40  41
ATOM     41  C   LIG    1       22.082 -31.320  10.531  0.00  0.00    +0.137 C 
ATOM     42  C   LIG    1       20.677 -30.786  10.525  0.00  0.00    +0.040 C 
BRANCH  41  43
ATOM     43  O   LIG    1       22.654 -30.619  11.681  0.00  0.00    -0.390 OA
ATOM     44  H   LIG    1       23.186 -29.938  11.443  0.00  0.00    +0.210 HD
ENDBRANCH  41  43
ENDBRANCH  40  41
ENDBRANCH  39  40
ENDBRANCH  34  39
BRANCH  37  45
ATOM     45  C   LIG    1       26.931 -26.772   6.623  0.00  0.00    +0.194 C 
BRANCH  45  46
ATOM     46  O   LIG    1       26.623 -25.410   6.293  0.00  0.00    -0.375 OA
BRANCH  46  47
ATOM     47  C   LIG    1       26.185 -24.595   7.396  0.00  0.00    +0.190 C 
BRANCH  47  48
ATOM     48  C   LIG    1       26.360 -23.103   7.087  0.00  0.00    +0.137 C 
ATOM     49  C   LIG    1       25.792 -22.199   8.187  0.00  0.00    +0.040 C 
BRANCH  48  50
ATOM     50  O   LIG    1       25.710 -22.777   5.860  0.00  0.00    -0.390 OA
ATOM     51  H   LIG    1       24.766 -22.693   6.067  0.00  0.00    +0.210 HD
ENDBRANCH  48  50
ENDBRANCH  47  48
ENDBRANCH  46  47
ENDBRANCH  45  46
ENDBRANCH  37  45
BRANCH  35  52
ATOM     52  O   LIG    1       26.309 -30.662   6.683  0.00  0.00    -0.369 OA
BRANCH  52  53
ATOM     53  C   LIG    1       26.756 -31.898   7.320  0.00  0.00    +0.191 C 
BRANCH  53  54
ATOM     54  C   LIG    1       27.560 -32.807   6.336  0.00  0.00    +0.137 C 
ATOM     55  C   LIG    1       26.772 -33.284   5.140  0.00  0.00    +0.040 C 
BRANCH  54  56
ATOM     56  O   LIG    1       28.190 -33.824   7.097  0.00  0.00    -0.390 OA
ATOM     57  H   LIG    1       27.743 -33.732   7.970  0.00  0.00    +0.210 HD
ENDBRANCH  54  56
ENDBRANCH  53  54
ENDBRANCH  52  53
ENDBRANCH  35  52
BRANCH  36  58
ATOM     58  O   LIG    1       23.858 -28.192   5.974  0.00  0.00    -0.369 OA
BRANCH  58  59
ATOM     59  C   LIG    1       23.989 -27.246   4.878  0.00  0.00    +0.191 C 
BRANCH  59  60
ATOM     60  C   LIG    1       24.344 -25.823   5.345  0.00  0.00    +0.137 C 
ATOM     61  C   LIG    1       23.225 -25.119   6.094  0.00  0.00    +0.040 C 
BRANCH  60  62
ATOM     62  O   LIG    1       24.705 -25.025   4.223  0.00  0.00    -0.390 OA
ATOM     63  H   LIG    1       23.869 -24.672   3.865  0.00  0.00    +0.210 HD
ENDBRANCH  60  62
ENDBRANCH  59  60
ENDBRANCH  58  59
ENDBRANCH  36  58
ENDBRANCH   1  33
TORSDOF 36
ENDMDL
MODEL 9
REMARK VINA RESULT:      -2.1      2.155      9.017
REMARK  Name = *****
REMARK                            x       y       z     vdW  Elec       q    Type
REMARK                         _______ _______ _______ _____ _____    ______ ____
ROOT
ATOM      1  O   LIG    1       22.910 -30.795   8.869  0.00  0.00    -0.340 OA
ENDROOT
BRANCH   1   3
ATOM      2  C   LIG    1       24.481 -31.062   6.809  0.00  0.00    +0.178 C 
ATOM      3  C   LIG    1       23.800 -30.210   7.906  0.00  0.00    +0.184 C 
ATOM      4  C   LIG    1       24.647 -28.964   8.229  0.00  0.00    +0.183 C 
ATOM      5  C   LIG    1       24.725 -28.092   6.990  0.00  0.00    +0.205 C 
ATOM      6  C   LIG    1       25.491 -29.005   5.903  0.00  0.00    +0.282 C 
ATOM      7  O   LIG    1       25.631 -30.401   6.261  0.00  0.00    -0.341 OA
BRANCH   4   8
ATOM      8  O   LIG    1       25.999 -29.319   8.525  0.00  0.00    -0.369 OA
BRANCH   8   9
ATOM      9  C   LIG    1       26.825 -28.728   9.511  0.00  0.00    +0.191 C 
BRANCH   9  10
ATOM     10  C   LIG    1       26.707 -28.617  11.045  0.00  0.00    +0.137 C 
ATOM     11  C   LIG    1       25.419 -28.782  11.793  0.00  0.00    +0.040 C 
BRANCH  10  12
ATOM     12  O   LIG    1       27.434 -27.483  11.542  0.00  0.00    -0.390 OA
ATOM     13  H   LIG    1       26.849 -26.700  11.371  0.00  0.00    +0.210 HD
ENDBRANCH  10  12
ENDBRANCH   9  10
ENDBRANCH   8   9
ENDBRANCH   4   8
BRANCH   6  14
ATOM     14  O   LIG    1       24.904 -28.922   4.595  0.00  0.00    -0.346 OA
BRANCH  14  15
ATOM     15  C   LIG    1       24.569 -27.569   4.207  0.00  0.00    +0.194 C 
BRANCH  15  16
ATOM     16  C   LIG    1       25.760 -26.684   3.762  0.00  0.00    +0.137 C 
ATOM     17  C   LIG    1       27.006 -26.973   4.599  0.00  0.00    +0.040 C 
BRANCH  16  18
ATOM     18  O   LIG    1       25.463 -25.294   3.872  0.00  0.00    -0.390 OA
ATOM     19  H   LIG    1       26.293 -24.774   3.930  0.00  0.00    +0.210 HD
ENDBRANCH  16  18
ENDBRANCH  15  16
ENDBRANCH  14  15
ENDBRANCH   6  14
BRANCH   2  20
ATOM     20  C   LIG    1       24.893 -32.514   7.087  0.00  0.00    +0.194 C 
BRANCH  20  21
ATOM     21  O   LIG    1       26.006 -32.988   6.331  0.00  0.00    -0.375 OA
BRANCH  21  22
ATOM     22  C   LIG    1       25.941 -32.651   4.935  0.00  0.00    +0.190 C 
BRANCH  22  24
ATOM     23  C   LIG    1       26.085 -33.820   2.825  0.00  0.00    +0.040 C 
ATOM     24  C   LIG    1       25.250 -33.715   4.068  0.00  0.00    +0.137 C 
BRANCH  24  25
ATOM     25  O   LIG    1       23.926 -33.409   3.705  0.00  0.00    -0.390 OA
ATOM     26  H   LIG    1       23.369 -33.979   4.291  0.00  0.00    +0.210 HD
ENDBRANCH  24  25
ENDBRANCH  22  24
ENDBRANCH  21  22
ENDBRANCH  20  21
ENDBRANCH   2  20
BRANCH   5  27
ATOM     27  O   LIG    1       25.382 -26.849   7.376  0.00  0.00    -0.366 OA
BRANCH  27  28
ATOM     28  C   LIG    1       24.802 -25.535   6.990  0.00  0.00    +0.191 C 
BRANCH  28  29
ATOM     29  C   LIG    1       25.740 -24.211   6.895  0.00  0.00    +0.137 C 
ATOM     30  C   LIG    1       25.702 -23.156   7.971  0.00  0.00    +0.040 C 
BRANCH  29  31
ATOM     31  O   LIG    1       25.542 -23.374   5.734  0.00  0.00    -0.390 OA
ATOM     32  H   LIG    1       24.799 -22.758   5.962  0.00  0.00    +0.210 HD
ENDBRANCH  29  31
ENDBRANCH  28  29
ENDBRANCH  27  28
ENDBRANCH   5  27
ENDBRANCH   1   3
BRANCH   1  33
ATOM     33  C   LIG    1       23.059 -30.981  10.292  0.00  0.00    +0.282 C 
ATOM     34  C   LIG    1       22.950 -32.460  10.753  0.00  0.00    +0.205 C 
ATOM     35  C   LIG    1       21.644 -32.804  11.548  0.00  0.00    +0.183 C 
ATOM     36  C   LIG    1       21.346 -31.793  12.647  0.00  0.00    +0.181 C 
ATOM     37  C   LIG    1       21.692 -30.331  12.255  0.00  0.00    +0.178 C 
ATOM     38  O   LIG    1       21.998 -30.178  10.853  0.00  0.00    -0.341 OA
BRANCH  34  39
ATOM     39  O   LIG    1       24.098 -32.919  11.560  0.00  0.00    -0.366 OA
BRANCH  39  40
ATOM     40  C   LIG    1       25.029 -33.726  10.819  0.00  0.00    +0.191 C 
BRANCH  40  41
ATOM     41  C   LIG    1       25.980 -32.993   9.792  0.00  0.00    +0.137 C 
ATOM     42  C   LIG    1       27.210 -33.822   9.552  0.00  0.00    +0.040 C 
BRANCH  41  43
ATOM     43  O   LIG    1       26.565 -31.731  10.248  0.00  0.00    -0.390 OA
ATOM     44  H   LIG    1       26.129 -31.380  10.948  0.00  0.00    +0.210 HD
ENDBRANCH  41  43
ENDBRANCH  40  41
ENDBRANCH  39  40
ENDBRANCH  34  39
BRANCH  37  45
ATOM     45  C   LIG    1       20.462 -29.374  12.479  0.00  0.00    +0.194 C 
BRANCH  45  46
ATOM     46  O   LIG    1       20.501 -28.578  13.672  0.00  0.00    -0.375 OA
BRANCH  46  47
ATOM     47  C   LIG    1       20.748 -27.175  13.465  0.00  0.00    +0.190 C 
BRANCH  47  48
ATOM     48  C   LIG    1       21.934 -26.690  14.310  0.00  0.00    +0.137 C 
ATOM     49  C   LIG    1       23.187 -26.415  13.471  0.00  0.00    +0.040 C 
BRANCH  48  50
ATOM     50  O   LIG    1       22.262 -27.664  15.298  0.00  0.00    -0.390 OA
ATOM     51  H   LIG    1       21.704 -27.470  16.067  0.00  0.00    +0.210 HD
ENDBRANCH  48  50
ENDBRANCH  47  48
ENDBRANCH  46  47
ENDBRANCH  45  46
ENDBRANCH  37  45
BRANCH  35  52
ATOM     52  O   LIG    1       20.436 -32.923  10.767  0.00  0.00    -0.369 OA
BRANCH  52  53
ATOM     53  C   LIG    1       19.142 -32.666  11.394  0.00  0.00    +0.191 C 
BRANCH  53  54
ATOM     54  C   LIG    1       18.076 -32.177  10.363  0.00  0.00    +0.137 C 
ATOM     55  C   LIG    1       17.913 -33.075   9.160  0.00  0.00    +0.040 C 
BRANCH  54  56
ATOM     56  O   LIG    1       18.338 -30.814  10.076  0.00  0.00    -0.390 OA
ATOM     57  H   LIG    1       18.475 -30.833   9.100  0.00  0.00    +0.210 HD
ENDBRANCH  54  56
ENDBRANCH  53  54
ENDBRANCH  52  53
ENDBRANCH  35  52
BRANCH  36  58
ATOM     58  O   LIG    1       21.774 -32.190  13.974  0.00  0.00    -0.369 OA
BRANCH  58  59
ATOM     59  C   LIG    1       22.723 -31.276  14.588  0.00  0.00    +0.191 C 
BRANCH  59  60
ATOM     60  C   LIG    1       24.013 -31.970  15.060  0.00  0.00    +0.137 C 
ATOM     61  C   LIG    1       25.278 -31.166  14.807  0.00  0.00    +0.040 C 
BRANCH  60  62
ATOM     62  O   LIG    1       24.146 -33.231  14.414  0.00  0.00    -0.390 OA
ATOM     63  H   LIG    1       23.392 -33.298  13.798  0.00  0.00    +0.210 HD
ENDBRANCH  60  62
ENDBRANCH  59  60
ENDBRANCH  58  59
ENDBRANCH  36  58
ENDBRANCH   1  33
TORSDOF 36
ENDMDL
