MODEL 1
REMARK VINA RESULT:      -4.3      0.000      0.000
REMARK  Name = *****
REMARK                            x       y       z     vdW  Elec       q    Type
REMARK                         _______ _______ _______ _____ _____    ______ ____
ROOT
ATOM      1  C   LIG    1       25.549 -20.683   5.537  0.00  0.00    +0.113 A 
ATOM      2  C   LIG    1       26.500 -19.803   5.014  0.00  0.00    +0.031 A 
ATOM      3  C   LIG    1       27.799 -19.812   5.527  0.00  0.00    +0.024 A 
ATOM      4  C   LIG    1       28.144 -20.656   6.588  0.00  0.00    +0.025 A 
ATOM      5  C   LIG    1       27.194 -21.569   7.060  0.00  0.00    +0.024 A 
ATOM      6  C   LIG    1       25.890 -21.572   6.556  0.00  0.00    +0.031 A 
ENDROOT
BRANCH   1   7
ATOM      7  S   LIG    1       23.893 -20.661   4.867  0.00  0.00    +0.102 S 
ATOM      8  O   LIG    1       23.993 -21.136   3.500  0.00  0.00    -0.146 OA
ATOM      9  O   LIG    1       23.075 -21.355   5.844  0.00  0.00    -0.146 OA
BRANCH   7  12
ATOM     10  C   LIG    1       21.986 -17.263   4.445  0.00  0.00    +0.110 C 
ATOM     11  C   LIG    1       22.377 -18.706   4.470  0.00  0.00    +0.204 C 
ATOM     12  N   LIG    1       23.539 -19.081   4.866  0.00  0.00    -0.096 NA
BRANCH  11  13
ATOM     13  O   LIG    1       21.411 -19.543   4.056  0.00  0.00    -0.495 OA
ATOM     14  H   LIG    1       20.517 -19.257   4.303  0.00  0.00    +0.293 HD
ENDBRANCH  11  13
ENDBRANCH   7  12
ENDBRANCH   1   7
BRANCH   4  15
ATOM     15  N   LIG    1       29.475 -20.744   7.011  0.00  0.00    -0.358 N 
ATOM     16  H   LIG    1       29.623 -20.423   7.963  0.00  0.00    +0.142 HD
ATOM     17  H   LIG    1       29.895 -21.655   6.849  0.00  0.00    +0.142 HD
ENDBRANCH   4  15
TORSDOF 4
ENDMDL
MODEL 2
REMARK VINA RESULT:      -3.2      5.279      5.914
REMARK  Name = *****
REMARK                            x       y       z     vdW  Elec       q    Type
REMARK                         _______ _______ _______ _____ _____    ______ ____
ROOT
ATOM      1  C   LIG    1       26.858 -16.242   3.620  0.00  0.00    +0.113 A 
ATOM      2  C   LIG    1       25.727 -16.957   3.215  0.00  0.00    +0.031 A 
ATOM      3  C   LIG    1       25.631 -18.317   3.513  0.00  0.00    +0.024 A 
ATOM      4  C   LIG    1       26.674 -18.982   4.168  0.00  0.00    +0.025 A 
ATOM      5  C   LIG    1       27.772 -18.238   4.615  0.00  0.00    +0.024 A 
ATOM      6  C   LIG    1       27.881 -16.876   4.324  0.00  0.00    +0.031 A 
ENDROOT
BRANCH   1   7
ATOM      7  S   LIG    1       26.963 -14.502   3.234  0.00  0.00    +0.102 S 
ATOM      8  O   LIG    1       28.221 -14.031   3.783  0.00  0.00    -0.146 OA
ATOM      9  O   LIG    1       26.683 -14.406   1.813  0.00  0.00    -0.146 OA
BRANCH   7  12
ATOM     10  C   LIG    1       23.908 -12.298   4.318  0.00  0.00    +0.110 C 
ATOM     11  C   LIG    1       25.055 -12.915   3.583  0.00  0.00    +0.204 C 
ATOM     12  N   LIG    1       25.734 -13.881   4.086  0.00  0.00    -0.096 NA
BRANCH  11  13
ATOM     13  O   LIG    1       25.287 -12.375   2.375  0.00  0.00    -0.495 OA
ATOM     14  H   LIG    1       25.910 -11.631   2.394  0.00  0.00    +0.293 HD
ENDBRANCH  11  13
ENDBRANCH   7  12
ENDBRANCH   1   7
BRANCH   4  15
ATOM     15  N   LIG    1       26.515 -20.313   4.570  0.00  0.00    -0.358 N 
ATOM     16  H   LIG    1       26.429 -20.429   5.575  0.00  0.00    +0.142 HD
ATOM     17  H   LIG    1       25.784 -20.807   4.067  0.00  0.00    +0.142 HD
ENDBRANCH   4  15
TORSDOF 4
ENDMDL
MODEL 3
REMARK VINA RESULT:      -3.0      2.937      4.770
REMARK  Name = *****
REMARK                            x       y       z     vdW  Elec       q    Type
REMARK                         _______ _______ _______ _____ _____    ______ ____
ROOT
ATOM      1  C   LIG    1       24.389 -17.598   3.719  0.00  0.00    +0.113 A 
ATOM      2  C   LIG    1       23.680 -16.446   4.069  0.00  0.00    +0.031 A 
ATOM      3  C   LIG    1       24.320 -15.206   4.028  0.00  0.00    +0.024 A 
ATOM      4  C   LIG    1       25.674 -15.110   3.687  0.00  0.00    +0.025 A 
ATOM      5  C   LIG    1       26.351 -16.267   3.284  0.00  0.00    +0.024 A 
ATOM      6  C   LIG    1       25.724 -17.515   3.321  0.00  0.00    +0.031 A 
ENDROOT
BRANCH   1   7
ATOM      7  S   LIG    1       23.554 -19.176   3.774  0.00  0.00    +0.102 S 
ATOM      8  O   LIG    1       22.134 -18.896   3.677  0.00  0.00    -0.146 OA
ATOM      9  O   LIG    1       24.225 -19.999   2.785  0.00  0.00    -0.146 OA
BRANCH   7  12
ATOM     10  C   LIG    1       23.610 -21.309   7.062  0.00  0.00    +0.110 C 
ATOM     11  C   LIG    1       23.333 -20.769   5.694  0.00  0.00    +0.204 C 
ATOM     12  N   LIG    1       23.901 -19.701   5.266  0.00  0.00    -0.096 NA
BRANCH  11  13
ATOM     13  O   LIG    1       22.462 -21.502   4.982  0.00  0.00    -0.495 OA
ATOM     14  H   LIG    1       21.744 -20.980   4.589  0.00  0.00    +0.293 HD
ENDBRANCH  11  13
ENDBRANCH   7  12
ENDBRANCH   1   7
BRANCH   4  15
ATOM     15  N   LIG    1       26.271 -13.854   3.530  0.00  0.00    -0.358 N 
ATOM     16  H   LIG    1       25.605 -13.090   3.470  0.00  0.00    +0.142 HD
ATOM     17  H   LIG    1       27.006 -13.664   4.205  0.00  0.00    +0.142 HD
ENDBRANCH   4  15
TORSDOF 4
ENDMDL
MODEL 4
REMARK VINA RESULT:      -2.7      1.943      5.009
REMARK  Name = *****
REMARK                            x       y       z     vdW  Elec       q    Type
REMARK                         _______ _______ _______ _____ _____    ______ ____
ROOT
ATOM      1  C   LIG    1       23.360 -18.933   4.376  0.00  0.00    +0.113 A 
ATOM      2  C   LIG    1       24.458 -18.281   3.808  0.00  0.00    +0.031 A 
ATOM      3  C   LIG    1       24.451 -16.889   3.702  0.00  0.00    +0.024 A 
ATOM      4  C   LIG    1       23.339 -16.145   4.114  0.00  0.00    +0.025 A 
ATOM      5  C   LIG    1       22.274 -16.810   4.732  0.00  0.00    +0.024 A 
ATOM      6  C   LIG    1       22.267 -18.203   4.845  0.00  0.00    +0.031 A 
ENDROOT
BRANCH   1   7
ATOM      7  S   LIG    1       23.387 -20.714   4.506  0.00  0.00    +0.102 S 
ATOM      8  O   LIG    1       22.022 -21.130   4.771  0.00  0.00    -0.146 OA
ATOM      9  O   LIG    1       24.096 -21.174   3.327  0.00  0.00    -0.146 OA
BRANCH   7  12
ATOM     10  C   LIG    1       26.460 -21.113   6.906  0.00  0.00    +0.110 C 
ATOM     11  C   LIG    1       25.568 -20.903   5.723  0.00  0.00    +0.204 C 
ATOM     12  N   LIG    1       24.290 -20.953   5.829  0.00  0.00    -0.096 NA
BRANCH  11  13
ATOM     13  O   LIG    1       26.226 -20.655   4.578  0.00  0.00    -0.495 OA
ATOM     14  H   LIG    1       27.053 -21.155   4.489  0.00  0.00    +0.293 HD
ENDBRANCH  11  13
ENDBRANCH   7  12
ENDBRANCH   1   7
BRANCH   4  15
ATOM     15  N   LIG    1       23.391 -14.746   4.118  0.00  0.00    -0.358 N 
ATOM     16  H   LIG    1       23.976 -14.362   4.854  0.00  0.00    +0.142 HD
ATOM     17  H   LIG    1       23.610 -14.344   3.212  0.00  0.00    +0.142 HD
ENDBRANCH   4  15
TORSDOF 4
ENDMDL
MODEL 5
REMARK VINA RESULT:      -2.7      5.587      6.878
REMARK  Name = *****
REMARK                            x       y       z     vdW  Elec       q    Type
REMARK                         _______ _______ _______ _____ _____    ______ ____
ROOT
ATOM      1  C   LIG    1       24.942 -15.258   3.620  0.00  0.00    +0.113 A 
ATOM      2  C   LIG    1       23.740 -15.820   4.058  0.00  0.00    +0.031 A 
ATOM      3  C   LIG    1       23.610 -17.209   4.114  0.00  0.00    +0.024 A 
ATOM      4  C   LIG    1       24.653 -18.042   3.692  0.00  0.00    +0.025 A 
ATOM      5  C   LIG    1       25.868 -17.462   3.312  0.00  0.00    +0.024 A 
ATOM      6  C   LIG    1       26.012 -16.074   3.250  0.00  0.00    +0.031 A 
ENDROOT
BRANCH   1   7
ATOM      7  S   LIG    1       25.091 -13.479   3.556  0.00  0.00    +0.102 S 
ATOM      8  O   LIG    1       24.270 -13.035   2.445  0.00  0.00    -0.146 OA
ATOM      9  O   LIG    1       24.832 -13.025   4.909  0.00  0.00    -0.146 OA
BRANCH   7  12
ATOM     10  C   LIG    1       28.965 -12.973   3.872  0.00  0.00    +0.110 C 
ATOM     11  C   LIG    1       27.506 -13.164   4.142  0.00  0.00    +0.204 C 
ATOM     12  N   LIG    1       26.654 -13.274   3.189  0.00  0.00    -0.096 NA
BRANCH  11  13
ATOM     13  O   LIG    1       27.193 -13.214   5.448  0.00  0.00    -0.495 OA
ATOM     14  H   LIG    1       27.097 -12.340   5.859  0.00  0.00    +0.293 HD
ENDBRANCH  11  13
ENDBRANCH   7  12
ENDBRANCH   1   7
BRANCH   4  15
ATOM     15  N   LIG    1       24.559 -19.428   3.869  0.00  0.00    -0.358 N 
ATOM     16  H   LIG    1       23.695 -19.726   4.313  0.00  0.00    +0.142 HD
ATOM     17  H   LIG    1       24.756 -19.960   3.027  0.00  0.00    +0.142 HD
ENDBRANCH   4  15
TORSDOF 4
ENDMDL
MODEL 6
REMARK VINA RESULT:      -2.6      5.594      6.854
REMARK  Name = *****
REMARK                            x       y       z     vdW  Elec       q    Type
REMARK                         _______ _______ _______ _____ _____    ______ ____
ROOT
ATOM      1  C   LIG    1       24.891 -15.239   3.633  0.00  0.00    +0.113 A 
ATOM      2  C   LIG    1       25.961 -16.043   3.229  0.00  0.00    +0.031 A 
ATOM      3  C   LIG    1       25.829 -17.432   3.270  0.00  0.00    +0.024 A 
ATOM      4  C   LIG    1       24.658 -18.026   3.755  0.00  0.00    +0.025 A 
ATOM      5  C   LIG    1       23.579 -17.205   4.100  0.00  0.00    +0.024 A 
ATOM      6  C   LIG    1       23.696 -15.813   4.065  0.00  0.00    +0.031 A 
ENDROOT
BRANCH   1   7
ATOM      7  S   LIG    1       25.075 -13.463   3.571  0.00  0.00    +0.102 S 
ATOM      8  O   LIG    1       24.255 -13.000   2.467  0.00  0.00    -0.146 OA
ATOM      9  O   LIG    1       24.835 -13.005   4.927  0.00  0.00    -0.146 OA
BRANCH   7  12
ATOM     10  C   LIG    1       28.957 -12.999   3.859  0.00  0.00    +0.110 C 
ATOM     11  C   LIG    1       27.497 -13.163   4.140  0.00  0.00    +0.204 C 
ATOM     12  N   LIG    1       26.640 -13.288   3.193  0.00  0.00    -0.096 NA
BRANCH  11  13
ATOM     13  O   LIG    1       27.188 -13.174   5.447  0.00  0.00    -0.495 OA
ATOM     14  H   LIG    1       27.952 -13.025   6.029  0.00  0.00    +0.293 HD
ENDBRANCH  11  13
ENDBRANCH   7  12
ENDBRANCH   1   7
BRANCH   4  15
ATOM     15  N   LIG    1       24.490 -19.413   3.676  0.00  0.00    -0.358 N 
ATOM     16  H   LIG    1       24.030 -19.816   4.488  0.00  0.00    +0.142 HD
ATOM     17  H   LIG    1       24.067 -19.724   2.807  0.00  0.00    +0.142 HD
ENDBRANCH   4  15
TORSDOF 4
ENDMDL
MODEL 7
REMARK VINA RESULT:      -2.5      3.484      5.116
REMARK  Name = *****
REMARK                            x       y       z     vdW  Elec       q    Type
REMARK                         _______ _______ _______ _____ _____    ______ ____
ROOT
ATOM      1  C   LIG    1       25.117 -17.206   3.686  0.00  0.00    +0.113 A 
ATOM      2  C   LIG    1       23.965 -16.507   4.056  0.00  0.00    +0.031 A 
ATOM      3  C   LIG    1       23.980 -15.111   4.062  0.00  0.00    +0.024 A 
ATOM      4  C   LIG    1       25.149 -14.407   3.749  0.00  0.00    +0.025 A 
ATOM      5  C   LIG    1       26.275 -15.122   3.326  0.00  0.00    +0.024 A 
ATOM      6  C   LIG    1       26.274 -16.519   3.315  0.00  0.00    +0.031 A 
ENDROOT
BRANCH   1   7
ATOM      7  S   LIG    1       25.079 -18.991   3.681  0.00  0.00    +0.102 S 
ATOM      8  O   LIG    1       24.987 -19.399   2.291  0.00  0.00    -0.146 OA
ATOM      9  O   LIG    1       26.197 -19.401   4.510  0.00  0.00    -0.146 OA
BRANCH   7  12
ATOM     10  C   LIG    1       21.985 -20.890   5.159  0.00  0.00    +0.110 C 
ATOM     11  C   LIG    1       23.267 -20.526   4.480  0.00  0.00    +0.204 C 
ATOM     12  N   LIG    1       23.681 -19.312   4.432  0.00  0.00    -0.096 NA
BRANCH  11  13
ATOM     13  O   LIG    1       23.924 -21.572   3.952  0.00  0.00    -0.495 OA
ATOM     14  H   LIG    1       24.782 -21.336   3.562  0.00  0.00    +0.293 HD
ENDBRANCH  11  13
ENDBRANCH   7  12
ENDBRANCH   1   7
BRANCH   4  15
ATOM     15  N   LIG    1       25.119 -13.012   3.638  0.00  0.00    -0.358 N 
ATOM     16  H   LIG    1       25.986 -12.611   3.292  0.00  0.00    +0.142 HD
ATOM     17  H   LIG    1       24.312 -12.659   3.133  0.00  0.00    +0.142 HD
ENDBRANCH   4  15
TORSDOF 4
ENDMDL
MODEL 8
REMARK VINA RESULT:      -2.4      5.435      6.458
REMARK  Name = *****
REMARK                            x       y       z     vdW  Elec       q    Type
REMARK                         _______ _______ _______ _____ _____    ______ ____
ROOT
ATOM      1  C   LIG    1       25.537 -14.142   4.014  0.00  0.00    +0.113 A 
ATOM      2  C   LIG    1       26.216 -13.690   5.149  0.00  0.00    +0.031 A 
ATOM      3  C   LIG    1       27.535 -13.249   5.029  0.00  0.00    +0.024 A 
ATOM      4  C   LIG    1       28.198 -13.301   3.797  0.00  0.00    +0.025 A 
ATOM      5  C   LIG    1       27.483 -13.703   2.663  0.00  0.00    +0.024 A 
ATOM      6  C   LIG    1       26.163 -14.147   2.768  0.00  0.00    +0.031 A 
ENDROOT
BRANCH   1   7
ATOM      7  S   LIG    1       23.848 -14.700   4.185  0.00  0.00    +0.102 S 
ATOM      8  O   LIG    1       23.469 -14.453   5.564  0.00  0.00    -0.146 OA
ATOM      9  O   LIG    1       23.128 -14.082   3.088  0.00  0.00    -0.146 OA
BRANCH   7  12
ATOM     10  C   LIG    1       23.077 -18.542   4.101  0.00  0.00    +0.110 C 
ATOM     11  C   LIG    1       23.018 -17.060   4.302  0.00  0.00    +0.204 C 
ATOM     12  N   LIG    1       23.981 -16.294   3.938  0.00  0.00    -0.096 NA
BRANCH  11  13
ATOM     13  O   LIG    1       21.883 -16.630   4.876  0.00  0.00    -0.495 OA
ATOM     14  H   LIG    1       21.396 -17.327   5.347  0.00  0.00    +0.293 HD
ENDBRANCH  11  13
ENDBRANCH   7  12
ENDBRANCH   1   7
BRANCH   4  15
ATOM     15  N   LIG    1       29.475 -12.743   3.663  0.00  0.00    -0.358 N 
ATOM     16  H   LIG    1       29.589 -11.860   4.152  0.00  0.00    +0.142 HD
ATOM     17  H   LIG    1       30.227 -13.392   3.872  0.00  0.00    +0.142 HD
ENDBRANCH   4  15
TORSDOF 4
ENDMDL
MODEL 9
REMARK VINA RESULT:      -2.2      5.058      6.447
REMARK  Name = *****
REMARK                            x       y       z     vdW  Elec       q    Type
REMARK                         _______ _______ _______ _____ _____    ______ ____
ROOT
ATOM      1  C   LIG    1       23.990 -16.040   4.001  0.00  0.00    +0.113 A 
ATOM      2  C   LIG    1       22.739 -16.424   4.493  0.00  0.00    +0.031 A 
ATOM      3  C   LIG    1       22.411 -17.780   4.552  0.00  0.00    +0.024 A 
ATOM      4  C   LIG    1       23.299 -18.753   4.079  0.00  0.00    +0.025 A 
ATOM      5  C   LIG    1       24.568 -18.353   3.643  0.00  0.00    +0.024 A 
ATOM      6  C   LIG    1       24.910 -17.000   3.579  0.00  0.00    +0.031 A 
ENDROOT
BRANCH   1   7
ATOM      7  S   LIG    1       24.395 -14.302   3.935  0.00  0.00    +0.102 S 
ATOM      8  O   LIG    1       23.587 -13.728   2.874  0.00  0.00    -0.146 OA
ATOM      9  O   LIG    1       24.281 -13.830   5.303  0.00  0.00    -0.146 OA
BRANCH   7  12
ATOM     10  C   LIG    1       28.266 -13.696   3.842  0.00  0.00    +0.110 C 
ATOM     11  C   LIG    1       26.815 -13.714   4.205  0.00  0.00    +0.204 C 
ATOM     12  N   LIG    1       25.948 -14.323   3.480  0.00  0.00    -0.096 NA
BRANCH  11  13
ATOM     13  O   LIG    1       26.525 -13.053   5.338  0.00  0.00    -0.495 OA
ATOM     14  H   LIG    1       25.703 -13.348   5.761  0.00  0.00    +0.293 HD
ENDBRANCH  11  13
ENDBRANCH   7  12
ENDBRANCH   1   7
BRANCH   4  15
ATOM     15  N   LIG    1       23.012 -20.111   4.256  0.00  0.00    -0.358 N 
ATOM     16  H   LIG    1       23.588 -20.727   3.690  0.00  0.00    +0.142 HD
ATOM     17  H   LIG    1       22.991 -20.400   5.229  0.00  0.00    +0.142 HD
ENDBRANCH   4  15
TORSDOF 4
ENDMDL
