MODEL 1
REMARK VINA RESULT:      68.1      0.000      0.000
REMARK  Name = *****
REMARK                            x       y       z     vdW  Elec       q    Type
REMARK                         _______ _______ _______ _____ _____    ______ ____
ROOT
ATOM      1  C   LIG    1       28.143 -13.712   5.341  0.00  0.00    +0.134 C 
ATOM      2  C   LIG    1       27.727 -14.376   6.670  0.00  0.00    +0.079 C 
ATOM      3  C   LIG    1       27.049 -15.739   6.469  0.00  0.00    +0.158 C 
ATOM      4  C   LIG    1       25.858 -15.552   5.544  0.00  0.00    +0.030 A 
ATOM      5  C   LIG    1       25.858 -14.571   4.527  0.00  0.00    +0.007 A 
ATOM      6  C   LIG    1       24.771 -14.521   3.637  0.00  0.00    +0.132 A 
ATOM      7  C   LIG    1       23.662 -15.374   3.772  0.00  0.00    +0.078 A 
ATOM      8  C   LIG    1       22.547 -15.369   2.807  0.00  0.00    +0.198 C 
ATOM      9  O   LIG    1       22.562 -14.640   1.812  0.00  0.00    -0.286 OA
ATOM     10  C   LIG    1       21.434 -16.320   2.958  0.00  0.00    +0.037 A 
ATOM     11  C   LIG    1       21.375 -17.207   4.039  0.00  0.00    +0.075 A 
ATOM     12  C   LIG    1       20.355 -18.182   4.073  0.00  0.00    +0.132 A 
ATOM     13  C   LIG    1       19.362 -18.173   3.082  0.00  0.00    +0.046 A 
ATOM     14  C   LIG    1       19.403 -17.255   2.036  0.00  0.00    +0.004 A 
ATOM     15  C   LIG    1       22.395 -17.068   5.095  0.00  0.00    +0.202 C 
ATOM     16  O   LIG    1       22.256 -17.565   6.219  0.00  0.00    -0.286 OA
ATOM     17  C   LIG    1       20.447 -16.345   1.964  0.00  0.00    +0.012 A 
ATOM     18  C   LIG    1       23.608 -16.254   4.851  0.00  0.00    +0.078 A 
ATOM     19  C   LIG    1       24.706 -16.340   5.725  0.00  0.00    +0.135 A 
ATOM     20  C   LIG    1       26.894 -13.448   4.492  0.00  0.00    +0.082 C 
ENDROOT
BRANCH   1  21
ATOM     21  O   LIG    1       29.034 -14.538   4.587  0.00  0.00    -0.381 OA
ATOM     22  H   LIG    1       29.593 -13.945   4.043  0.00  0.00    +0.211 HD
ENDBRANCH   1  21
BRANCH  19  23
ATOM     23  O   LIG    1       24.691 -17.180   6.812  0.00  0.00    -0.506 OA
ATOM     24  H   LIG    1       24.256 -18.026   6.549  0.00  0.00    +0.292 HD
ENDBRANCH  19  23
BRANCH   6  25
ATOM     25  O   LIG    1       24.794 -13.551   2.671  0.00  0.00    -0.506 OA
ATOM     26  H   LIG    1       23.872 -13.337   2.439  0.00  0.00    +0.292 HD
ENDBRANCH   6  25
BRANCH  12  27
ATOM     27  O   LIG    1       20.364 -19.124   5.073  0.00  0.00    -0.494 OA
ATOM     28  C   LIG    1       19.800 -20.393   4.737  0.00  0.00    +0.277 C 
ENDBRANCH  12  27
BRANCH   1  29
ATOM     29  C   LIG    1       28.853 -12.374   5.675  0.00  0.00    +0.202 C 
ATOM     30  O   LIG    1       28.964 -11.983   6.844  0.00  0.00    -0.291 OA
BRANCH  29  31
ATOM     31  C   LIG    1       29.405 -11.552   4.513  0.00  0.00    +0.309 C 
BRANCH  31  32
ATOM     32  O   LIG    1       28.403 -11.447   3.489  0.00  0.00    -0.457 OA
BRANCH  32  33
ATOM     33  C   LIG    1       27.925 -12.569   2.957  0.00  0.00    +0.307 C 
ATOM     34  O   LIG    1       27.020 -12.611   2.129  0.00  0.00    -0.251 OA
BRANCH  33  35
ATOM     35  C   LIG    1       28.605 -13.777   3.515  0.00  0.00    +0.120 C 
BRANCH  35  36
ATOM     36  C   LIG    1       28.436 -15.044   2.645  0.00  0.00    +0.011 C 
BRANCH  36  38
ATOM     37  C   LIG    1       26.454 -16.420   1.813  0.00  0.00    +0.004 C 
ATOM     38  C   LIG    1       27.096 -15.042   1.900  0.00  0.00    -0.003 C 
ENDBRANCH  36  38
ENDBRANCH  35  36
ENDBRANCH  33  35
ENDBRANCH  32  33
ENDBRANCH  31  32
ENDBRANCH  29  31
ENDBRANCH   1  29
BRANCH   3  39
ATOM     39  O   LIG    1       28.033 -16.628   5.904  0.00  0.00    -0.343 OA
BRANCH  39  40
ATOM     40  C   LIG    1       27.687 -18.028   5.889  0.00  0.00    +0.253 C 
ATOM     41  O   LIG    1       28.791 -18.880   6.202  0.00  0.00    -0.346 OA
ATOM     42  C   LIG    1       28.347 -20.249   6.285  0.00  0.00    +0.148 C 
ATOM     43  C   LIG    1       29.441 -21.091   6.951  0.00  0.00    +0.040 C 
ATOM     44  C   LIG    1       28.054 -20.748   4.864  0.00  0.00    +0.163 C 
ATOM     45  C   LIG    1       27.150 -19.796   4.049  0.00  0.00    +0.109 C 
ATOM     46  C   LIG    1       27.200 -18.317   4.462  0.00  0.00    +0.086 C 
BRANCH  45  47
ATOM     47  N   LIG    1       25.790 -20.290   3.807  0.00  0.00    -0.302 N 
ATOM     48  H   LIG    1       25.643 -21.294   3.899  0.00  0.00    +0.149 HD
ATOM     49  C   LIG    1       24.701 -19.538   3.390  0.00  0.00    +0.318 C 
ATOM     50  O   LIG    1       24.790 -18.325   3.207  0.00  0.00    -0.266 OA
BRANCH  49  51
ATOM     51  C   LIG    1       23.416 -20.379   3.134  0.00  0.00    +0.469 C 
ATOM     52  F   LIG    1       23.691 -21.571   2.536  0.00  0.00    -0.162 F 
ATOM     53  F   LIG    1       22.505 -19.744   2.353  0.00  0.00    -0.162 F 
ATOM     54  F   LIG    1       22.779 -20.685   4.304  0.00  0.00    -0.162 F 
ENDBRANCH  49  51
ENDBRANCH  45  47
BRANCH  44  55
ATOM     55  O   LIG    1       29.299 -20.884   4.142  0.00  0.00    -0.387 OA
ATOM     56  H   LIG    1       29.391 -21.831   3.915  0.00  0.00    +0.210 HD
ENDBRANCH  44  55
ENDBRANCH  39  40
ENDBRANCH   3  39
TORSDOF 16
ENDMDL
