MODEL 1
REMARK VINA RESULT:       4.1      0.000      0.000
REMARK  Name = *****
REMARK                            x       y       z     vdW  Elec       q    Type
REMARK                         _______ _______ _______ _____ _____    ______ ____
ROOT
ATOM      1  C   LIG    1       25.011 -20.116   3.674  0.00  0.00    +0.169 C 
ATOM      2  C   LIG    1       25.590 -20.128   5.122  0.00  0.00    +0.084 C 
ATOM      3  C   LIG    1       27.096 -19.855   5.134  0.00  0.00    +0.042 C 
ATOM      4  C   LIG    1       27.333 -18.420   4.672  0.00  0.00    +0.084 C 
ATOM      5  C   LIG    1       26.637 -18.068   3.330  0.00  0.00    +0.169 C 
ATOM      6  C   LIG    1       25.905 -19.292   2.694  0.00  0.00    +0.175 C 
ENDROOT
BRANCH   2   7
ATOM      7  N   LIG    1       25.371 -21.387   5.857  0.00  0.00    -0.325 NA
ATOM      8  H   LIG    1       26.109 -22.062   5.639  0.00  0.00    +0.118 HD
ATOM      9  H   LIG    1       25.543 -21.220   6.852  0.00  0.00    +0.118 HD
ENDBRANCH   2   7
BRANCH   4  10
ATOM     10  N   LIG    1       28.775 -18.136   4.615  0.00  0.00    -0.325 NA
ATOM     11  H   LIG    1       29.170 -18.570   3.779  0.00  0.00    +0.118 HD
ATOM     12  H   LIG    1       28.907 -17.132   4.482  0.00  0.00    +0.118 HD
ENDBRANCH   4  10
BRANCH   6  13
ATOM     13  O   LIG    1       26.861 -20.206   2.117  0.00  0.00    -0.387 OA
ATOM     14  H   LIG    1       27.154 -20.830   2.804  0.00  0.00    +0.210 HD
ENDBRANCH   6  13
BRANCH   5  15
ATOM     15  O   LIG    1       25.713 -16.973   3.472  0.00  0.00    -0.341 OA
BRANCH  15  16
ATOM     16  C   LIG    1       26.302 -15.672   3.735  0.00  0.00    +0.281 C 
ATOM     17  C   LIG    1       25.131 -14.815   4.270  0.00  0.00    +0.189 C 
ATOM     18  C   LIG    1       25.500 -13.332   4.478  0.00  0.00    +0.116 C 
ATOM     19  C   LIG    1       26.151 -12.803   3.182  0.00  0.00    +0.165 C 
ATOM     20  C   LIG    1       27.263 -13.729   2.646  0.00  0.00    +0.177 C 
ATOM     21  O   LIG    1       26.849 -15.109   2.543  0.00  0.00    -0.341 OA
BRANCH  18  22
ATOM     22  N   LIG    1       26.343 -13.080   5.669  0.00  0.00    -0.323 NA
ATOM     23  H   LIG    1       26.947 -12.282   5.458  0.00  0.00    +0.119 HD
ATOM     24  H   LIG    1       25.742 -12.740   6.422  0.00  0.00    +0.119 HD
ENDBRANCH  18  22
BRANCH  19  25
ATOM     25  O   LIG    1       25.138 -12.645   2.174  0.00  0.00    -0.388 OA
ATOM     26  H   LIG    1       24.388 -12.168   2.593  0.00  0.00    +0.210 HD
ENDBRANCH  19  25
BRANCH  17  27
ATOM     27  O   LIG    1       24.049 -14.861   3.306  0.00  0.00    -0.385 OA
ATOM     28  H   LIG    1       23.545 -14.034   3.468  0.00  0.00    +0.210 HD
ENDBRANCH  17  27
BRANCH  20  29
ATOM     29  C   LIG    1       28.613 -13.552   3.378  0.00  0.00    +0.190 C 
BRANCH  29  30
ATOM     30  O   LIG    1       28.855 -12.248   3.880  0.00  0.00    -0.392 OA
ATOM     31  H   LIG    1       28.011 -11.734   3.799  0.00  0.00    +0.209 HD
ENDBRANCH  29  30
ENDBRANCH  20  29
ENDBRANCH  15  16
ENDBRANCH   5  15
BRANCH   1  32
ATOM     32  O   LIG    1       23.666 -19.600   3.596  0.00  0.00    -0.341 OA
BRANCH  32  37
ATOM     33  C   LIG    1       21.968 -17.382   4.146  0.00  0.00    +0.166 C 
ATOM     34  C   LIG    1       20.578 -18.017   3.942  0.00  0.00    +0.175 C 
ATOM     35  C   LIG    1       20.675 -19.527   3.724  0.00  0.00    +0.179 C 
ATOM     36  C   LIG    1       21.524 -20.150   4.823  0.00  0.00    +0.201 C 
ATOM     37  C   LIG    1       22.922 -19.489   4.813  0.00  0.00    +0.282 C 
ATOM     38  O   LIG    1       22.746 -18.095   5.127  0.00  0.00    -0.342 OA
BRANCH  36  39
ATOM     39  O   LIG    1       21.532 -21.571   4.681  0.00  0.00    -0.384 OA
ATOM     40  H   LIG    1       21.386 -21.730   3.724  0.00  0.00    +0.210 HD
ENDBRANCH  36  39
BRANCH  35  41
ATOM     41  O   LIG    1       19.365 -20.119   3.764  0.00  0.00    -0.386 OA
ATOM     42  H   LIG    1       19.252 -20.453   4.677  0.00  0.00    +0.210 HD
ENDBRANCH  35  41
BRANCH  34  43
ATOM     43  O   LIG    1       19.873 -17.444   2.833  0.00  0.00    -0.387 OA
ATOM     44  H   LIG    1       18.996 -17.156   3.147  0.00  0.00    +0.210 HD
ENDBRANCH  34  43
BRANCH  33  45
ATOM     45  C   LIG    1       21.810 -15.930   4.645  0.00  0.00    +0.112 C 
BRANCH  45  46
ATOM     46  N   LIG    1       21.980 -15.840   6.100  0.00  0.00    -0.328 NA
ATOM     47  H   LIG    1       21.463 -15.021   6.426  0.00  0.00    +0.118 HD
ATOM     48  H   LIG    1       22.961 -15.665   6.313  0.00  0.00    +0.118 HD
ENDBRANCH  45  46
ENDBRANCH  33  45
ENDBRANCH  32  37
ENDBRANCH   1  32
TORSDOF 17
ENDMDL
MODEL 2
REMARK VINA RESULT:       5.4      1.148      1.855
REMARK  Name = *****
REMARK                            x       y       z     vdW  Elec       q    Type
REMARK                         _______ _______ _______ _____ _____    ______ ____
ROOT
ATOM      1  C   LIG    1       25.167 -20.100   3.493  0.00  0.00    +0.169 C 
ATOM      2  C   LIG    1       25.770 -20.218   4.927  0.00  0.00    +0.084 C 
ATOM      3  C   LIG    1       27.234 -19.772   4.966  0.00  0.00    +0.042 C 
ATOM      4  C   LIG    1       27.293 -18.273   4.679  0.00  0.00    +0.084 C 
ATOM      5  C   LIG    1       26.536 -17.848   3.393  0.00  0.00    +0.169 C 
ATOM      6  C   LIG    1       25.940 -19.065   2.616  0.00  0.00    +0.175 C 
ENDROOT
BRANCH   2   7
ATOM      7  N   LIG    1       25.714 -21.572   5.505  0.00  0.00    -0.325 NA
ATOM      8  H   LIG    1       24.957 -22.113   5.079  0.00  0.00    +0.118 HD
ATOM      9  H   LIG    1       26.534 -22.097   5.192  0.00  0.00    +0.118 HD
ENDBRANCH   2   7
BRANCH   4  10
ATOM     10  N   LIG    1       28.691 -17.816   4.651  0.00  0.00    -0.325 NA
ATOM     11  H   LIG    1       29.082 -17.988   3.723  0.00  0.00    +0.118 HD
ATOM     12  H   LIG    1       28.706 -16.801   4.763  0.00  0.00    +0.118 HD
ENDBRANCH   4  10
BRANCH   6  13
ATOM     13  O   LIG    1       26.986 -19.785   1.929  0.00  0.00    -0.387 OA
ATOM     14  H   LIG    1       26.655 -20.668   1.690  0.00  0.00    +0.210 HD
ENDBRANCH   6  13
BRANCH   5  15
ATOM     15  O   LIG    1       25.493 -16.895   3.670  0.00  0.00    -0.341 OA
BRANCH  15  16
ATOM     16  C   LIG    1       25.740 -15.534   3.230  0.00  0.00    +0.281 C 
ATOM     17  C   LIG    1       27.165 -15.212   3.739  0.00  0.00    +0.189 C 
ATOM     18  C   LIG    1       27.581 -13.744   3.509  0.00  0.00    +0.116 C 
ATOM     19  C   LIG    1       26.471 -12.827   4.065  0.00  0.00    +0.165 C 
ATOM     20  C   LIG    1       25.061 -13.232   3.587  0.00  0.00    +0.177 C 
ATOM     21  O   LIG    1       24.780 -14.635   3.784  0.00  0.00    -0.341 OA
BRANCH  18  22
ATOM     22  N   LIG    1       27.918 -13.425   2.103  0.00  0.00    -0.323 NA
ATOM     23  H   LIG    1       27.041 -13.360   1.582  0.00  0.00    +0.119 HD
ATOM     24  H   LIG    1       28.294 -12.475   2.071  0.00  0.00    +0.119 HD
ENDBRANCH  18  22
BRANCH  19  25
ATOM     25  O   LIG    1       26.512 -12.851   5.502  0.00  0.00    -0.388 OA
ATOM     26  H   LIG    1       27.253 -13.443   5.757  0.00  0.00    +0.210 HD
ENDBRANCH  19  25
BRANCH  17  27
ATOM     27  O   LIG    1       27.208 -15.455   5.167  0.00  0.00    -0.385 OA
ATOM     28  H   LIG    1       26.547 -16.166   5.312  0.00  0.00    +0.210 HD
ENDBRANCH  17  27
BRANCH  20  29
ATOM     29  C   LIG    1       24.732 -12.741   2.160  0.00  0.00    +0.190 C 
BRANCH  29  30
ATOM     30  O   LIG    1       23.799 -11.675   2.095  0.00  0.00    -0.392 OA
ATOM     31  H   LIG    1       24.234 -10.924   1.615  0.00  0.00    +0.209 HD
ENDBRANCH  29  30
ENDBRANCH  20  29
ENDBRANCH  15  16
ENDBRANCH   5  15
BRANCH   1  32
ATOM     32  O   LIG    1       23.770 -19.741   3.484  0.00  0.00    -0.341 OA
BRANCH  32  37
ATOM     33  C   LIG    1       22.204 -17.431   4.044  0.00  0.00    +0.166 C 
ATOM     34  C   LIG    1       20.779 -18.017   3.974  0.00  0.00    +0.175 C 
ATOM     35  C   LIG    1       20.801 -19.538   3.825  0.00  0.00    +0.179 C 
ATOM     36  C   LIG    1       21.706 -20.143   4.890  0.00  0.00    +0.201 C 
ATOM     37  C   LIG    1       23.124 -19.543   4.745  0.00  0.00    +0.282 C 
ATOM     38  O   LIG    1       23.025 -18.130   5.001  0.00  0.00    -0.342 OA
BRANCH  36  39
ATOM     39  O   LIG    1       21.649 -21.569   4.818  0.00  0.00    -0.384 OA
ATOM     40  H   LIG    1       20.942 -21.761   4.166  0.00  0.00    +0.210 HD
ENDBRANCH  36  39
BRANCH  35  41
ATOM     41  O   LIG    1       19.477 -20.072   3.991  0.00  0.00    -0.386 OA
ATOM     42  H   LIG    1       19.497 -20.578   4.827  0.00  0.00    +0.210 HD
ENDBRANCH  35  41
BRANCH  34  43
ATOM     43  O   LIG    1       20.016 -17.467   2.892  0.00  0.00    -0.387 OA
ATOM     44  H   LIG    1       19.103 -17.802   2.964  0.00  0.00    +0.210 HD
ENDBRANCH  34  43
BRANCH  33  45
ATOM     45  C   LIG    1       22.139 -15.952   4.481  0.00  0.00    +0.112 C 
BRANCH  45  46
ATOM     46  N   LIG    1       21.957 -15.826   5.931  0.00  0.00    -0.328 NA
ATOM     47  H   LIG    1       22.805 -16.174   6.384  0.00  0.00    +0.118 HD
ATOM     48  H   LIG    1       21.200 -16.439   6.229  0.00  0.00    +0.118 HD
ENDBRANCH  45  46
ENDBRANCH  33  45
ENDBRANCH  32  37
ENDBRANCH   1  32
TORSDOF 17
ENDMDL
MODEL 3
REMARK VINA RESULT:       6.0      2.044      7.344
REMARK  Name = *****
REMARK                            x       y       z     vdW  Elec       q    Type
REMARK                         _______ _______ _______ _____ _____    ______ ____
ROOT
ATOM      1  C   LIG    1       23.307 -14.449   5.019  0.00  0.00    +0.169 C 
ATOM      2  C   LIG    1       22.346 -15.094   6.065  0.00  0.00    +0.084 C 
ATOM      3  C   LIG    1       21.302 -15.996   5.398  0.00  0.00    +0.042 C 
ATOM      4  C   LIG    1       22.019 -17.198   4.789  0.00  0.00    +0.084 C 
ATOM      5  C   LIG    1       23.210 -16.821   3.868  0.00  0.00    +0.169 C 
ATOM      6  C   LIG    1       23.371 -15.277   3.696  0.00  0.00    +0.175 C 
ENDROOT
BRANCH   2   7
ATOM      7  N   LIG    1       21.612 -14.127   6.900  0.00  0.00    -0.325 NA
ATOM      8  H   LIG    1       20.986 -13.558   6.323  0.00  0.00    +0.118 HD
ATOM      9  H   LIG    1       20.940 -14.636   7.480  0.00  0.00    +0.118 HD
ENDBRANCH   2   7
BRANCH   4  10
ATOM     10  N   LIG    1       21.056 -18.061   4.088  0.00  0.00    -0.325 NA
ATOM     11  H   LIG    1       21.223 -19.034   4.352  0.00  0.00    +0.118 HD
ATOM     12  H   LIG    1       20.117 -17.850   4.429  0.00  0.00    +0.118 HD
ENDBRANCH   4  10
BRANCH   6  13
ATOM     13  O   LIG    1       22.350 -14.759   2.818  0.00  0.00    -0.387 OA
ATOM     14  H   LIG    1       22.398 -13.787   2.818  0.00  0.00    +0.210 HD
ENDBRANCH   6  13
BRANCH   5  15
ATOM     15  O   LIG    1       24.451 -17.387   4.331  0.00  0.00    -0.341 OA
BRANCH  15  16
ATOM     16  C   LIG    1       24.390 -18.761   4.794  0.00  0.00    +0.281 C 
ATOM     17  C   LIG    1       25.594 -19.455   4.114  0.00  0.00    +0.189 C 
ATOM     18  C   LIG    1       25.637 -20.979   4.351  0.00  0.00    +0.116 C 
ATOM     19  C   LIG    1       24.258 -21.572   3.990  0.00  0.00    +0.165 C 
ATOM     20  C   LIG    1       23.086 -20.801   4.633  0.00  0.00    +0.177 C 
ATOM     21  O   LIG    1       23.159 -19.375   4.413  0.00  0.00    -0.341 OA
BRANCH  18  22
ATOM     22  N   LIG    1       26.072 -21.367   5.713  0.00  0.00    -0.323 NA
ATOM     23  H   LIG    1       25.337 -21.085   6.364  0.00  0.00    +0.119 HD
ATOM     24  H   LIG    1       26.075 -22.387   5.771  0.00  0.00    +0.119 HD
ENDBRANCH  18  22
BRANCH  19  25
ATOM     25  O   LIG    1       24.102 -21.569   2.561  0.00  0.00    -0.388 OA
ATOM     26  H   LIG    1       24.991 -21.409   2.176  0.00  0.00    +0.210 HD
ENDBRANCH  19  25
BRANCH  17  27
ATOM     27  O   LIG    1       25.498 -19.243   2.684  0.00  0.00    -0.385 OA
ATOM     28  H   LIG    1       25.241 -18.300   2.595  0.00  0.00    +0.210 HD
ENDBRANCH  17  27
BRANCH  20  29
ATOM     29  C   LIG    1       22.843 -21.176   6.112  0.00  0.00    +0.190 C 
BRANCH  29  30
ATOM     30  O   LIG    1       23.667 -20.495   7.045  0.00  0.00    -0.392 OA
ATOM     31  H   LIG    1       23.402 -20.794   7.952  0.00  0.00    +0.209 HD
ENDBRANCH  29  30
ENDBRANCH  20  29
ENDBRANCH  15  16
ENDBRANCH   5  15
BRANCH   1  32
ATOM     32  O   LIG    1       24.653 -14.275   5.506  0.00  0.00    -0.341 OA
BRANCH  32  37
ATOM     33  C   LIG    1       27.174 -13.774   4.280  0.00  0.00    +0.166 C 
ATOM     34  C   LIG    1       26.733 -13.106   2.962  0.00  0.00    +0.175 C 
ATOM     35  C   LIG    1       25.228 -12.837   2.942  0.00  0.00    +0.179 C 
ATOM     36  C   LIG    1       24.821 -12.107   4.214  0.00  0.00    +0.201 C 
ATOM     37  C   LIG    1       25.223 -12.964   5.437  0.00  0.00    +0.282 C 
ATOM     38  O   LIG    1       26.658 -13.079   5.433  0.00  0.00    -0.342 OA
BRANCH  36  39
ATOM     39  O   LIG    1       23.436 -11.764   4.152  0.00  0.00    -0.384 OA
ATOM     40  H   LIG    1       23.258 -11.280   4.986  0.00  0.00    +0.210 HD
ENDBRANCH  36  39
BRANCH  35  41
ATOM     41  O   LIG    1       24.886 -12.017   1.812  0.00  0.00    -0.386 OA
ATOM     42  H   LIG    1       23.944 -11.782   1.930  0.00  0.00    +0.210 HD
ENDBRANCH  35  41
BRANCH  34  43
ATOM     43  O   LIG    1       27.068 -13.893   1.813  0.00  0.00    -0.387 OA
ATOM     44  H   LIG    1       26.307 -13.878   1.203  0.00  0.00    +0.210 HD
ENDBRANCH  34  43
BRANCH  33  45
ATOM     45  C   LIG    1       28.714 -13.763   4.382  0.00  0.00    +0.112 C 
BRANCH  45  46
ATOM     46  N   LIG    1       29.241 -12.394   4.413  0.00  0.00    -0.328 NA
ATOM     47  H   LIG    1       29.315 -12.064   3.448  0.00  0.00    +0.118 HD
ATOM     48  H   LIG    1       30.189 -12.406   4.786  0.00  0.00    +0.118 HD
ENDBRANCH  45  46
ENDBRANCH  33  45
ENDBRANCH  32  37
ENDBRANCH   1  32
TORSDOF 17
ENDMDL
