MODEL 1
REMARK VINA RESULT:      -7.7      0.000      0.000
REMARK  Name = *****
REMARK                            x       y       z     vdW  Elec       q    Type
REMARK                         _______ _______ _______ _____ _____    ______ ____
ROOT
ATOM      1  C   LIG    1       28.060 -20.427   8.265  0.00  0.00    +0.225 C 
ATOM      2  C   LIG    1       29.127 -21.095   7.367  0.00  0.00    +0.045 C 
ATOM      3  C   LIG    1       29.539 -20.132   6.245  0.00  0.00    +0.058 C 
ATOM      4  C   LIG    1       29.899 -18.769   6.828  0.00  0.00    +0.133 C 
ATOM      5  N   LIG    1       30.084 -18.904   8.352  0.00  0.00    +0.246 N 
ATOM      6  C   LIG    1       31.047 -20.068   8.646  0.00  0.00    +0.133 C 
ATOM      7  C   LIG    1       30.381 -21.379   8.212  0.00  0.00    +0.058 C 
ATOM      8  C   LIG    1       28.704 -19.241   9.010  0.00  0.00    +0.179 C 
ENDROOT
BRANCH   1   9
ATOM      9  O   LIG    1       26.978 -19.949   7.420  0.00  0.00    -0.453 OA
BRANCH   9  11
ATOM     10  O   LIG    1       25.206 -20.695   8.631  0.00  0.00    -0.247 OA
ATOM     11  C   LIG    1       25.772 -20.625   7.558  0.00  0.00    +0.350 C 
BRANCH  11  12
ATOM     12  C   LIG    1       25.312 -21.214   6.166  0.00  0.00    +0.226 C 
BRANCH  12  13
ATOM     13  C   LIG    1       24.197 -20.392   5.487  0.00  0.00    +0.037 A 
ATOM     14  S   LIG    1       24.474 -19.696   3.915  0.00  0.00    -0.098 S 
ATOM     15  C   LIG    1       22.956 -18.931   3.869  0.00  0.00    +0.045 A 
ATOM     16  C   LIG    1       22.245 -19.144   5.024  0.00  0.00    +0.008 A 
ATOM     17  C   LIG    1       22.956 -19.975   5.954  0.00  0.00    +0.015 A 
ENDBRANCH  12  13
BRANCH  12  18
ATOM     18  C   LIG    1       24.994 -22.693   6.359  0.00  0.00    +0.037 A 
ATOM     19  S   LIG    1       23.358 -23.250   6.433  0.00  0.00    -0.098 S 
ATOM     20  C   LIG    1       23.840 -24.873   6.624  0.00  0.00    +0.045 A 
ATOM     21  C   LIG    1       25.208 -25.011   6.632  0.00  0.00    +0.008 A 
ATOM     22  C   LIG    1       25.871 -23.762   6.467  0.00  0.00    +0.015 A 
ENDBRANCH  12  18
BRANCH  12  23
ATOM     23  O   LIG    1       26.423 -21.155   5.254  0.00  0.00    -0.369 OA
ATOM     24  H   LIG    1       26.239 -21.797   4.549  0.00  0.00    +0.212 HD
ENDBRANCH  12  23
ENDBRANCH  11  12
ENDBRANCH   9  11
ENDBRANCH   1   9
BRANCH   5  25
ATOM     25  C   LIG    1       30.567 -17.586   8.971  0.00  0.00    +0.136 C 
BRANCH  25  26
ATOM     26  C   LIG    1       32.075 -17.407   8.888  0.00  0.00    +0.092 C 
BRANCH  26  27
ATOM     27  C   LIG    1       32.607 -16.837  10.188  0.00  0.00    +0.234 C 
BRANCH  27  28
ATOM     28  O   LIG    1       32.086 -17.601  11.279  0.00  0.00    -0.492 OA
BRANCH  28  29
ATOM     29  C   LIG    1       32.283 -17.011  12.502  0.00  0.00    +0.120 A 
ATOM     30  C   LIG    1       31.981 -17.632  13.716  0.00  0.00    +0.045 A 
ATOM     31  C   LIG    1       32.180 -16.966  14.920  0.00  0.00    +0.004 A 
ATOM     32  C   LIG    1       32.691 -15.673  14.923  0.00  0.00    +0.000 A 
ATOM     33  C   LIG    1       33.024 -15.055  13.718  0.00  0.00    +0.004 A 
ATOM     34  C   LIG    1       32.837 -15.729  12.507  0.00  0.00    +0.045 A 
ENDBRANCH  28  29
ENDBRANCH  27  28
ENDBRANCH  26  27
ENDBRANCH  25  26
ENDBRANCH   5  25
TORSDOF 11
ENDMDL
MODEL 2
REMARK VINA RESULT:      -7.5      7.418     11.602
REMARK  Name = *****
REMARK                            x       y       z     vdW  Elec       q    Type
REMARK                         _______ _______ _______ _____ _____    ______ ____
ROOT
ATOM      1  C   LIG    1       26.651 -29.529   9.278  0.00  0.00    +0.225 C 
ATOM      2  C   LIG    1       26.097 -30.972   9.229  0.00  0.00    +0.045 C 
ATOM      3  C   LIG    1       24.598 -30.964   9.558  0.00  0.00    +0.058 C 
ATOM      4  C   LIG    1       23.877 -29.931   8.699  0.00  0.00    +0.133 C 
ATOM      5  N   LIG    1       24.801 -29.498   7.546  0.00  0.00    +0.246 N 
ATOM      6  C   LIG    1       25.341 -30.749   6.831  0.00  0.00    +0.133 C 
ATOM      7  C   LIG    1       26.250 -31.516   7.799  0.00  0.00    +0.058 C 
ATOM      8  C   LIG    1       26.022 -28.713   8.132  0.00  0.00    +0.179 C 
ENDROOT
BRANCH   1   9
ATOM      9  O   LIG    1       26.293 -28.939  10.558  0.00  0.00    -0.453 OA
BRANCH   9  11
ATOM     10  O   LIG    1       28.440 -29.183  11.262  0.00  0.00    -0.247 OA
ATOM     11  C   LIG    1       27.269 -29.018  11.544  0.00  0.00    +0.350 C 
BRANCH  11  12
ATOM     12  C   LIG    1       26.619 -28.845  12.973  0.00  0.00    +0.226 C 
BRANCH  12  13
ATOM     13  C   LIG    1       25.108 -29.155  13.005  0.00  0.00    +0.037 A 
ATOM     14  S   LIG    1       24.566 -30.781  13.309  0.00  0.00    -0.098 S 
ATOM     15  C   LIG    1       22.924 -30.385  13.117  0.00  0.00    +0.045 A 
ATOM     16  C   LIG    1       22.757 -29.062  12.787  0.00  0.00    +0.008 A 
ATOM     17  C   LIG    1       24.006 -28.358  12.716  0.00  0.00    +0.015 A 
ENDBRANCH  12  13
BRANCH  12  18
ATOM     18  C   LIG    1       27.005 -27.469  13.506  0.00  0.00    +0.037 A 
ATOM     19  S   LIG    1       27.760 -27.292  15.051  0.00  0.00    -0.098 S 
ATOM     20  C   LIG    1       27.867 -25.600  14.890  0.00  0.00    +0.045 A 
ATOM     21  C   LIG    1       27.349 -25.159  13.695  0.00  0.00    +0.008 A 
ATOM     22  C   LIG    1       26.866 -26.232  12.894  0.00  0.00    +0.015 A 
ENDBRANCH  12  18
BRANCH  12  23
ATOM     23  O   LIG    1       27.212 -29.805  13.866  0.00  0.00    -0.369 OA
ATOM     24  H   LIG    1       26.834 -29.640  14.744  0.00  0.00    +0.212 HD
ENDBRANCH  12  23
ENDBRANCH  11  12
ENDBRANCH   9  11
ENDBRANCH   1   9
BRANCH   5  25
ATOM     25  C   LIG    1       24.078 -28.549   6.581  0.00  0.00    +0.136 C 
BRANCH  25  26
ATOM     26  C   LIG    1       24.948 -28.114   5.411  0.00  0.00    +0.092 C 
BRANCH  26  27
ATOM     27  C   LIG    1       24.947 -26.602   5.292  0.00  0.00    +0.234 C 
BRANCH  27  28
ATOM     28  O   LIG    1       23.923 -26.070   6.136  0.00  0.00    -0.492 OA
BRANCH  28  29
ATOM     29  C   LIG    1       24.167 -24.783   6.544  0.00  0.00    +0.120 A 
ATOM     30  C   LIG    1       25.443 -24.297   6.840  0.00  0.00    +0.045 A 
ATOM     31  C   LIG    1       25.618 -22.988   7.275  0.00  0.00    +0.004 A 
ATOM     32  C   LIG    1       24.518 -22.148   7.411  0.00  0.00    +0.000 A 
ATOM     33  C   LIG    1       23.243 -22.614   7.088  0.00  0.00    +0.004 A 
ATOM     34  C   LIG    1       23.068 -23.926   6.638  0.00  0.00    +0.045 A 
ENDBRANCH  28  29
ENDBRANCH  27  28
ENDBRANCH  26  27
ENDBRANCH  25  26
ENDBRANCH   5  25
TORSDOF 11
ENDMDL
MODEL 3
REMARK VINA RESULT:      -7.4      7.402     10.606
REMARK  Name = *****
REMARK                            x       y       z     vdW  Elec       q    Type
REMARK                         _______ _______ _______ _____ _____    ______ ____
ROOT
ATOM      1  C   LIG    1       26.252 -27.986   7.030  0.00  0.00    +0.225 C 
ATOM      2  C   LIG    1       25.574 -28.324   5.681  0.00  0.00    +0.045 C 
ATOM      3  C   LIG    1       24.081 -27.976   5.750  0.00  0.00    +0.058 C 
ATOM      4  C   LIG    1       23.895 -26.553   6.265  0.00  0.00    +0.133 C 
ATOM      5  N   LIG    1       25.245 -25.813   6.203  0.00  0.00    +0.246 N 
ATOM      6  C   LIG    1       25.849 -25.976   4.796  0.00  0.00    +0.133 C 
ATOM      7  C   LIG    1       26.199 -27.452   4.579  0.00  0.00    +0.058 C 
ATOM      8  C   LIG    1       26.234 -26.458   7.230  0.00  0.00    +0.179 C 
ENDROOT
BRANCH   1   9
ATOM      9  O   LIG    1       25.506 -28.632   8.097  0.00  0.00    -0.453 OA
BRANCH   9  11
ATOM     10  O   LIG    1       27.134 -28.822   9.672  0.00  0.00    -0.247 OA
ATOM     11  C   LIG    1       26.271 -29.357   9.004  0.00  0.00    +0.350 C 
BRANCH  11  12
ATOM     12  C   LIG    1       25.823 -30.872   9.010  0.00  0.00    +0.226 C 
BRANCH  12  13
ATOM     13  C   LIG    1       25.669 -31.475   7.599  0.00  0.00    +0.037 A 
ATOM     14  S   LIG    1       24.080 -31.719   6.932  0.00  0.00    -0.098 S 
ATOM     15  C   LIG    1       24.670 -32.437   5.509  0.00  0.00    +0.045 A 
ATOM     16  C   LIG    1       26.039 -32.542   5.524  0.00  0.00    +0.008 A 
ATOM     17  C   LIG    1       26.613 -31.998   6.721  0.00  0.00    +0.015 A 
ENDBRANCH  12  13
BRANCH  12  18
ATOM     18  C   LIG    1       24.593 -30.999   9.902  0.00  0.00    +0.037 A 
ATOM     19  S   LIG    1       24.169 -32.511  10.624  0.00  0.00    -0.098 S 
ATOM     20  C   LIG    1       22.810 -31.843  11.406  0.00  0.00    +0.045 A 
ATOM     21  C   LIG    1       22.666 -30.502  11.140  0.00  0.00    +0.008 A 
ATOM     22  C   LIG    1       23.696 -30.013  10.287  0.00  0.00    +0.015 A 
ENDBRANCH  12  18
BRANCH  12  23
ATOM     23  O   LIG    1       26.858 -31.653   9.635  0.00  0.00    -0.369 OA
ATOM     24  H   LIG    1       27.234 -32.221   8.944  0.00  0.00    +0.212 HD
ENDBRANCH  12  23
ENDBRANCH  11  12
ENDBRANCH   9  11
ENDBRANCH   1   9
BRANCH   5  25
ATOM     25  C   LIG    1       25.087 -24.339   6.596  0.00  0.00    +0.136 C 
BRANCH  25  26
ATOM     26  C   LIG    1       23.644 -23.860   6.545  0.00  0.00    +0.092 C 
BRANCH  26  27
ATOM     27  C   LIG    1       23.512 -22.519   7.240  0.00  0.00    +0.234 C 
BRANCH  27  28
ATOM     28  O   LIG    1       24.569 -21.662   6.802  0.00  0.00    -0.492 OA
BRANCH  28  29
ATOM     29  C   LIG    1       24.192 -20.794   5.810  0.00  0.00    +0.120 A 
ATOM     30  C   LIG    1       24.994 -20.486   4.708  0.00  0.00    +0.045 A 
ATOM     31  C   LIG    1       24.561 -19.576   3.750  0.00  0.00    +0.004 A 
ATOM     32  C   LIG    1       23.317 -18.969   3.880  0.00  0.00    +0.000 A 
ATOM     33  C   LIG    1       22.496 -19.292   4.960  0.00  0.00    +0.004 A 
ATOM     34  C   LIG    1       22.924 -20.218   5.917  0.00  0.00    +0.045 A 
ENDBRANCH  28  29
ENDBRANCH  27  28
ENDBRANCH  26  27
ENDBRANCH  25  26
ENDBRANCH   5  25
TORSDOF 11
ENDMDL
MODEL 4
REMARK VINA RESULT:      -7.4      6.766     10.590
REMARK  Name = *****
REMARK                            x       y       z     vdW  Elec       q    Type
REMARK                         _______ _______ _______ _____ _____    ______ ____
ROOT
ATOM      1  C   LIG    1       26.227 -27.718   7.041  0.00  0.00    +0.225 C 
ATOM      2  C   LIG    1       25.630 -28.314   5.744  0.00  0.00    +0.045 C 
ATOM      3  C   LIG    1       24.129 -28.002   5.673  0.00  0.00    +0.058 C 
ATOM      4  C   LIG    1       23.889 -26.515   5.911  0.00  0.00    +0.133 C 
ATOM      5  N   LIG    1       25.225 -25.760   5.783  0.00  0.00    +0.246 N 
ATOM      6  C   LIG    1       25.908 -26.157   4.462  0.00  0.00    +0.133 C 
ATOM      7  C   LIG    1       26.297 -27.638   4.534  0.00  0.00    +0.058 C 
ATOM      8  C   LIG    1       26.169 -26.180   6.959  0.00  0.00    +0.179 C 
ENDROOT
BRANCH   1   9
ATOM      9  O   LIG    1       25.436 -28.182   8.170  0.00  0.00    -0.453 OA
BRANCH   9  11
ATOM     10  O   LIG    1       27.050 -29.198   9.406  0.00  0.00    -0.247 OA
ATOM     11  C   LIG    1       25.965 -29.265   8.862  0.00  0.00    +0.350 C 
BRANCH  11  12
ATOM     12  C   LIG    1       24.959 -30.483   8.823  0.00  0.00    +0.226 C 
BRANCH  12  13
ATOM     13  C   LIG    1       24.899 -31.275  10.146  0.00  0.00    +0.037 A 
ATOM     14  S   LIG    1       24.641 -30.431  11.646  0.00  0.00    -0.098 S 
ATOM     15  C   LIG    1       24.774 -31.841  12.586  0.00  0.00    +0.045 A 
ATOM     16  C   LIG    1       25.049 -32.942  11.813  0.00  0.00    +0.008 A 
ATOM     17  C   LIG    1       25.127 -32.619  10.416  0.00  0.00    +0.015 A 
ENDBRANCH  12  13
BRANCH  12  18
ATOM     18  C   LIG    1       25.274 -31.318   7.587  0.00  0.00    +0.037 A 
ATOM     19  S   LIG    1       24.025 -31.779   6.482  0.00  0.00    -0.098 S 
ATOM     20  C   LIG    1       25.122 -32.597   5.467  0.00  0.00    +0.045 A 
ATOM     21  C   LIG    1       26.412 -32.531   5.936  0.00  0.00    +0.008 A 
ATOM     22  C   LIG    1       26.503 -31.786   7.146  0.00  0.00    +0.015 A 
ENDBRANCH  12  18
BRANCH  12  23
ATOM     23  O   LIG    1       23.627 -29.971   8.637  0.00  0.00    -0.369 OA
ATOM     24  H   LIG    1       23.048 -30.740   8.514  0.00  0.00    +0.212 HD
ENDBRANCH  12  23
ENDBRANCH  11  12
ENDBRANCH   9  11
ENDBRANCH   1   9
BRANCH   5  25
ATOM     25  C   LIG    1       25.018 -24.244   5.892  0.00  0.00    +0.136 C 
BRANCH  25  26
ATOM     26  C   LIG    1       25.759 -23.625   7.069  0.00  0.00    +0.092 C 
BRANCH  26  27
ATOM     27  C   LIG    1       25.928 -22.134   6.856  0.00  0.00    +0.234 C 
BRANCH  27  28
ATOM     28  O   LIG    1       24.661 -21.493   7.028  0.00  0.00    -0.492 OA
BRANCH  28  29
ATOM     29  C   LIG    1       24.295 -20.713   5.961  0.00  0.00    +0.120 A 
ATOM     30  C   LIG    1       25.150 -20.410   4.898  0.00  0.00    +0.045 A 
ATOM     31  C   LIG    1       24.724 -19.590   3.859  0.00  0.00    +0.004 A 
ATOM     32  C   LIG    1       23.434 -19.070   3.869  0.00  0.00    +0.000 A 
ATOM     33  C   LIG    1       22.563 -19.391   4.909  0.00  0.00    +0.004 A 
ATOM     34  C   LIG    1       22.986 -20.226   5.948  0.00  0.00    +0.045 A 
ENDBRANCH  28  29
ENDBRANCH  27  28
ENDBRANCH  26  27
ENDBRANCH  25  26
ENDBRANCH   5  25
TORSDOF 11
ENDMDL
MODEL 5
REMARK VINA RESULT:      -7.3      7.674     12.122
REMARK  Name = *****
REMARK                            x       y       z     vdW  Elec       q    Type
REMARK                         _______ _______ _______ _____ _____    ______ ____
ROOT
ATOM      1  C   LIG    1       25.770 -31.406   8.073  0.00  0.00    +0.225 C 
ATOM      2  C   LIG    1       25.610 -32.541   7.034  0.00  0.00    +0.045 C 
ATOM      3  C   LIG    1       24.137 -32.659   6.618  0.00  0.00    +0.058 C 
ATOM      4  C   LIG    1       23.592 -31.292   6.219  0.00  0.00    +0.133 C 
ATOM      5  N   LIG    1       24.768 -30.318   6.015  0.00  0.00    +0.246 N 
ATOM      6  C   LIG    1       25.802 -30.962   5.074  0.00  0.00    +0.133 C 
ATOM      7  C   LIG    1       26.416 -32.180   5.775  0.00  0.00    +0.058 C 
ATOM      8  C   LIG    1       25.466 -30.058   7.392  0.00  0.00    +0.179 C 
ENDROOT
BRANCH   1   9
ATOM      9  O   LIG    1       24.829 -31.635   9.157  0.00  0.00    -0.453 OA
BRANCH   9  11
ATOM     10  O   LIG    1       26.379 -32.679  10.451  0.00  0.00    -0.247 OA
ATOM     11  C   LIG    1       25.399 -31.962  10.381  0.00  0.00    +0.350 C 
BRANCH  11  12
ATOM     12  C   LIG    1       24.608 -31.265  11.558  0.00  0.00    +0.226 C 
BRANCH  12  13
ATOM     13  C   LIG    1       23.079 -31.261  11.354  0.00  0.00    +0.037 A 
ATOM     14  S   LIG    1       22.187 -32.751  11.477  0.00  0.00    -0.098 S 
ATOM     15  C   LIG    1       20.704 -32.021  11.077  0.00  0.00    +0.045 A 
ATOM     16  C   LIG    1       20.854 -30.683  10.809  0.00  0.00    +0.008 A 
ATOM     17  C   LIG    1       22.213 -30.246  10.961  0.00  0.00    +0.015 A 
ENDBRANCH  12  13
BRANCH  12  18
ATOM     18  C   LIG    1       25.229 -29.894  11.799  0.00  0.00    +0.037 A 
ATOM     19  S   LIG    1       24.899 -29.009  13.248  0.00  0.00    -0.098 S 
ATOM     20  C   LIG    1       25.904 -27.717  12.778  0.00  0.00    +0.045 A 
ATOM     21  C   LIG    1       26.489 -27.933  11.552  0.00  0.00    +0.008 A 
ATOM     22  C   LIG    1       26.112 -29.189  10.995  0.00  0.00    +0.015 A 
ENDBRANCH  12  18
BRANCH  12  23
ATOM     23  O   LIG    1       24.818 -32.023  12.764  0.00  0.00    -0.369 OA
ATOM     24  H   LIG    1       24.108 -32.683  12.805  0.00  0.00    +0.212 HD
ENDBRANCH  12  23
ENDBRANCH  11  12
ENDBRANCH   9  11
ENDBRANCH   1   9
BRANCH   5  25
ATOM     25  C   LIG    1       24.281 -28.961   5.494  0.00  0.00    +0.136 C 
BRANCH  25  26
ATOM     26  C   LIG    1       24.689 -27.798   6.387  0.00  0.00    +0.092 C 
BRANCH  26  27
ATOM     27  C   LIG    1       24.644 -26.498   5.609  0.00  0.00    +0.234 C 
BRANCH  27  28
ATOM     28  O   LIG    1       23.577 -25.691   6.114  0.00  0.00    -0.492 OA
BRANCH  28  29
ATOM     29  C   LIG    1       23.990 -24.466   6.572  0.00  0.00    +0.120 A 
ATOM     30  C   LIG    1       25.328 -24.143   6.812  0.00  0.00    +0.045 A 
ATOM     31  C   LIG    1       25.677 -22.890   7.302  0.00  0.00    +0.004 A 
ATOM     32  C   LIG    1       24.690 -21.942   7.551  0.00  0.00    +0.000 A 
ATOM     33  C   LIG    1       23.355 -22.243   7.286  0.00  0.00    +0.004 A 
ATOM     34  C   LIG    1       23.004 -23.499   6.780  0.00  0.00    +0.045 A 
ENDBRANCH  28  29
ENDBRANCH  27  28
ENDBRANCH  26  27
ENDBRANCH  25  26
ENDBRANCH   5  25
TORSDOF 11
ENDMDL
MODEL 6
REMARK VINA RESULT:      -7.3      7.124     11.416
REMARK  Name = *****
REMARK                            x       y       z     vdW  Elec       q    Type
REMARK                         _______ _______ _______ _____ _____    ______ ____
ROOT
ATOM      1  C   LIG    1       26.253 -29.724  10.003  0.00  0.00    +0.225 C 
ATOM      2  C   LIG    1       25.745 -31.179   9.876  0.00  0.00    +0.045 C 
ATOM      3  C   LIG    1       24.211 -31.190   9.826  0.00  0.00    +0.058 C 
ATOM      4  C   LIG    1       23.712 -30.202   8.777  0.00  0.00    +0.133 C 
ATOM      5  N   LIG    1       24.887 -29.790   7.871  0.00  0.00    +0.246 N 
ATOM      6  C   LIG    1       25.601 -31.055   7.359  0.00  0.00    +0.133 C 
ATOM      7  C   LIG    1       26.252 -31.769   8.549  0.00  0.00    +0.058 C 
ATOM      8  C   LIG    1       25.917 -28.961   8.708  0.00  0.00    +0.179 C 
ENDROOT
BRANCH   1   9
ATOM      9  O   LIG    1       25.585 -29.098  11.132  0.00  0.00    -0.453 OA
BRANCH   9  11
ATOM     10  O   LIG    1       27.211 -29.945  12.475  0.00  0.00    -0.247 OA
ATOM     11  C   LIG    1       26.211 -29.264  12.362  0.00  0.00    +0.350 C 
BRANCH  11  12
ATOM     12  C   LIG    1       25.447 -28.448  13.480  0.00  0.00    +0.226 C 
BRANCH  12  13
ATOM     13  C   LIG    1       23.960 -28.200  13.153  0.00  0.00    +0.037 A 
ATOM     14  S   LIG    1       23.230 -26.672  13.559  0.00  0.00    -0.098 S 
ATOM     15  C   LIG    1       21.689 -27.143  13.019  0.00  0.00    +0.045 A 
ATOM     16  C   LIG    1       21.683 -28.442  12.571  0.00  0.00    +0.008 A 
ATOM     17  C   LIG    1       22.980 -29.050  12.653  0.00  0.00    +0.015 A 
ENDBRANCH  12  13
BRANCH  12  18
ATOM     18  C   LIG    1       26.257 -27.194  13.788  0.00  0.00    +0.037 A 
ATOM     19  S   LIG    1       26.699 -26.796  15.411  0.00  0.00    -0.098 S 
ATOM     20  C   LIG    1       27.529 -25.391  14.922  0.00  0.00    +0.045 A 
ATOM     21  C   LIG    1       27.485 -25.211  13.559  0.00  0.00    +0.008 A 
ATOM     22  C   LIG    1       26.767 -26.252  12.906  0.00  0.00    +0.015 A 
ENDBRANCH  12  18
BRANCH  12  23
ATOM     23  O   LIG    1       25.434 -29.229  14.689  0.00  0.00    -0.369 OA
ATOM     24  H   LIG    1       25.624 -28.617  15.418  0.00  0.00    +0.212 HD
ENDBRANCH  12  23
ENDBRANCH  11  12
ENDBRANCH   9  11
ENDBRANCH   1   9
BRANCH   5  25
ATOM     25  C   LIG    1       24.413 -28.891   6.722  0.00  0.00    +0.136 C 
BRANCH  25  26
ATOM     26  C   LIG    1       25.483 -27.919   6.247  0.00  0.00    +0.092 C 
BRANCH  26  27
ATOM     27  C   LIG    1       24.853 -26.595   5.860  0.00  0.00    +0.234 C 
BRANCH  27  28
ATOM     28  O   LIG    1       25.628 -25.531   6.418  0.00  0.00    -0.492 OA
BRANCH  28  29
ATOM     29  C   LIG    1       24.886 -24.419   6.725  0.00  0.00    +0.120 A 
ATOM     30  C   LIG    1       23.500 -24.347   6.561  0.00  0.00    +0.045 A 
ATOM     31  C   LIG    1       22.811 -23.178   6.866  0.00  0.00    +0.004 A 
ATOM     32  C   LIG    1       23.501 -22.070   7.346  0.00  0.00    +0.000 A 
ATOM     33  C   LIG    1       24.880 -22.141   7.542  0.00  0.00    +0.004 A 
ATOM     34  C   LIG    1       25.572 -23.321   7.248  0.00  0.00    +0.045 A 
ENDBRANCH  28  29
ENDBRANCH  27  28
ENDBRANCH  26  27
ENDBRANCH  25  26
ENDBRANCH   5  25
TORSDOF 11
ENDMDL
MODEL 7
REMARK VINA RESULT:      -7.2      7.074     10.595
REMARK  Name = *****
REMARK                            x       y       z     vdW  Elec       q    Type
REMARK                         _______ _______ _______ _____ _____    ______ ____
ROOT
ATOM      1  C   LIG    1       25.488 -28.544   6.860  0.00  0.00    +0.225 C 
ATOM      2  C   LIG    1       25.324 -28.348   5.334  0.00  0.00    +0.045 C 
ATOM      3  C   LIG    1       24.102 -27.463   5.053  0.00  0.00    +0.058 C 
ATOM      4  C   LIG    1       24.166 -26.195   5.897  0.00  0.00    +0.133 C 
ATOM      5  N   LIG    1       25.586 -26.041   6.473  0.00  0.00    +0.246 N 
ATOM      6  C   LIG    1       26.613 -26.177   5.334  0.00  0.00    +0.133 C 
ATOM      7  C   LIG    1       26.560 -27.611   4.792  0.00  0.00    +0.058 C 
ATOM      8  C   LIG    1       25.851 -27.191   7.502  0.00  0.00    +0.179 C 
ENDROOT
BRANCH   1   9
ATOM      9  O   LIG    1       24.228 -29.024   7.403  0.00  0.00    -0.453 OA
BRANCH   9  11
ATOM     10  O   LIG    1       23.412 -30.661   6.054  0.00  0.00    -0.247 OA
ATOM     11  C   LIG    1       23.920 -30.348   7.112  0.00  0.00    +0.350 C 
BRANCH  11  12
ATOM     12  C   LIG    1       24.344 -31.284   8.313  0.00  0.00    +0.226 C 
BRANCH  12  13
ATOM     13  C   LIG    1       24.411 -30.553   9.670  0.00  0.00    +0.037 A 
ATOM     14  S   LIG    1       22.964 -30.357  10.617  0.00  0.00    -0.098 S 
ATOM     15  C   LIG    1       23.749 -29.458  11.827  0.00  0.00    +0.045 A 
ATOM     16  C   LIG    1       25.075 -29.257  11.530  0.00  0.00    +0.008 A 
ATOM     17  C   LIG    1       25.455 -29.878  10.293  0.00  0.00    +0.015 A 
ENDBRANCH  12  13
BRANCH  12  18
ATOM     18  C   LIG    1       25.619 -32.018   7.913  0.00  0.00    +0.037 A 
ATOM     19  S   LIG    1       26.324 -33.209   8.951  0.00  0.00    -0.098 S 
ATOM     20  C   LIG    1       27.588 -33.527   7.854  0.00  0.00    +0.045 A 
ATOM     21  C   LIG    1       27.494 -32.759   6.717  0.00  0.00    +0.008 A 
ATOM     22  C   LIG    1       26.357 -31.902   6.744  0.00  0.00    +0.015 A 
ENDBRANCH  12  18
BRANCH  12  23
ATOM     23  O   LIG    1       23.333 -32.294   8.486  0.00  0.00    -0.369 OA
ATOM     24  H   LIG    1       23.659 -33.093   8.042  0.00  0.00    +0.212 HD
ENDBRANCH  12  23
ENDBRANCH  11  12
ENDBRANCH   9  11
ENDBRANCH   1   9
BRANCH   5  25
ATOM     25  C   LIG    1       25.737 -24.716   7.230  0.00  0.00    +0.136 C 
BRANCH  25  26
ATOM     26  C   LIG    1       24.662 -23.700   6.873  0.00  0.00    +0.092 C 
BRANCH  26  27
ATOM     27  C   LIG    1       25.217 -22.293   6.971  0.00  0.00    +0.234 C 
BRANCH  27  28
ATOM     28  O   LIG    1       25.486 -21.806   5.653  0.00  0.00    -0.492 OA
BRANCH  28  29
ATOM     29  C   LIG    1       24.597 -20.848   5.235  0.00  0.00    +0.120 A 
ATOM     30  C   LIG    1       23.377 -20.599   5.868  0.00  0.00    +0.045 A 
ATOM     31  C   LIG    1       22.509 -19.630   5.375  0.00  0.00    +0.004 A 
ATOM     32  C   LIG    1       22.857 -18.895   4.248  0.00  0.00    +0.000 A 
ATOM     33  C   LIG    1       24.086 -19.115   3.626  0.00  0.00    +0.004 A 
ATOM     34  C   LIG    1       24.966 -20.079   4.129  0.00  0.00    +0.045 A 
ENDBRANCH  28  29
ENDBRANCH  27  28
ENDBRANCH  26  27
ENDBRANCH  25  26
ENDBRANCH   5  25
TORSDOF 11
ENDMDL
MODEL 8
REMARK VINA RESULT:      -7.1      7.532     11.989
REMARK  Name = *****
REMARK                            x       y       z     vdW  Elec       q    Type
REMARK                         _______ _______ _______ _____ _____    ______ ____
ROOT
ATOM      1  C   LIG    1       25.793 -31.418   8.107  0.00  0.00    +0.225 C 
ATOM      2  C   LIG    1       25.664 -32.561   7.074  0.00  0.00    +0.045 C 
ATOM      3  C   LIG    1       24.200 -32.702   6.637  0.00  0.00    +0.058 C 
ATOM      4  C   LIG    1       23.643 -31.345   6.220  0.00  0.00    +0.133 C 
ATOM      5  N   LIG    1       24.809 -30.357   6.027  0.00  0.00    +0.246 N 
ATOM      6  C   LIG    1       25.866 -30.993   5.106  0.00  0.00    +0.133 C 
ATOM      7  C   LIG    1       26.484 -32.198   5.825  0.00  0.00    +0.058 C 
ATOM      8  C   LIG    1       25.482 -30.078   7.413  0.00  0.00    +0.179 C 
ENDROOT
BRANCH   1   9
ATOM      9  O   LIG    1       24.838 -31.652   9.178  0.00  0.00    -0.453 OA
BRANCH   9  11
ATOM     10  O   LIG    1       26.335 -31.946  10.862  0.00  0.00    -0.247 OA
ATOM     11  C   LIG    1       25.316 -31.419  10.463  0.00  0.00    +0.350 C 
BRANCH  11  12
ATOM     12  C   LIG    1       24.368 -30.410  11.225  0.00  0.00    +0.226 C 
BRANCH  12  13
ATOM     13  C   LIG    1       25.093 -29.145  11.728  0.00  0.00    +0.037 A 
ATOM     14  S   LIG    1       26.512 -28.574  10.897  0.00  0.00    -0.098 S 
ATOM     15  C   LIG    1       26.775 -27.303  11.995  0.00  0.00    +0.045 A 
ATOM     16  C   LIG    1       25.847 -27.307  13.007  0.00  0.00    +0.008 A 
ATOM     17  C   LIG    1       24.887 -28.364  12.860  0.00  0.00    +0.015 A 
ENDBRANCH  12  13
BRANCH  12  18
ATOM     18  C   LIG    1       23.611 -31.188  12.295  0.00  0.00    +0.037 A 
ATOM     19  S   LIG    1       21.893 -31.056  12.444  0.00  0.00    -0.098 S 
ATOM     20  C   LIG    1       21.846 -32.156  13.744  0.00  0.00    +0.045 A 
ATOM     21  C   LIG    1       23.095 -32.626  14.072  0.00  0.00    +0.008 A 
ATOM     22  C   LIG    1       24.108 -32.081  13.233  0.00  0.00    +0.015 A 
ENDBRANCH  12  18
BRANCH  12  23
ATOM     23  O   LIG    1       23.377 -29.925  10.300  0.00  0.00    -0.369 OA
ATOM     24  H   LIG    1       22.803 -30.678  10.087  0.00  0.00    +0.212 HD
ENDBRANCH  12  23
ENDBRANCH  11  12
ENDBRANCH   9  11
ENDBRANCH   1   9
BRANCH   5  25
ATOM     25  C   LIG    1       24.311 -29.010   5.489  0.00  0.00    +0.136 C 
BRANCH  25  26
ATOM     26  C   LIG    1       24.515 -27.865   6.471  0.00  0.00    +0.092 C 
BRANCH  26  27
ATOM     27  C   LIG    1       24.628 -26.550   5.725  0.00  0.00    +0.234 C 
BRANCH  27  28
ATOM     28  O   LIG    1       23.566 -25.687   6.141  0.00  0.00    -0.492 OA
BRANCH  28  29
ATOM     29  C   LIG    1       24.000 -24.464   6.587  0.00  0.00    +0.120 A 
ATOM     30  C   LIG    1       25.341 -24.168   6.844  0.00  0.00    +0.045 A 
ATOM     31  C   LIG    1       25.710 -22.916   7.321  0.00  0.00    +0.004 A 
ATOM     32  C   LIG    1       24.741 -21.942   7.540  0.00  0.00    +0.000 A 
ATOM     33  C   LIG    1       23.403 -22.218   7.259  0.00  0.00    +0.004 A 
ATOM     34  C   LIG    1       23.033 -23.472   6.765  0.00  0.00    +0.045 A 
ENDBRANCH  28  29
ENDBRANCH  27  28
ENDBRANCH  26  27
ENDBRANCH  25  26
ENDBRANCH   5  25
TORSDOF 11
ENDMDL
MODEL 9
REMARK VINA RESULT:      -7.0      5.222      9.446
REMARK  Name = *****
REMARK                            x       y       z     vdW  Elec       q    Type
REMARK                         _______ _______ _______ _____ _____    ______ ____
ROOT
ATOM      1  C   LIG    1       24.351 -25.406   5.728  0.00  0.00    +0.225 C 
ATOM      2  C   LIG    1       25.793 -25.667   5.234  0.00  0.00    +0.045 C 
ATOM      3  C   LIG    1       26.702 -25.980   6.431  0.00  0.00    +0.058 C 
ATOM      4  C   LIG    1       26.074 -27.067   7.298  0.00  0.00    +0.133 C 
ATOM      5  N   LIG    1       24.934 -27.744   6.514  0.00  0.00    +0.246 N 
ATOM      6  C   LIG    1       25.453 -28.166   5.127  0.00  0.00    +0.133 C 
ATOM      7  C   LIG    1       25.790 -26.906   4.322  0.00  0.00    +0.058 C 
ATOM      8  C   LIG    1       23.774 -26.715   6.302  0.00  0.00    +0.179 C 
ENDROOT
BRANCH   1   9
ATOM      9  O   LIG    1       24.393 -24.389   6.766  0.00  0.00    -0.453 OA
BRANCH   9  11
ATOM     10  O   LIG    1       22.529 -23.090   6.751  0.00  0.00    -0.247 OA
ATOM     11  C   LIG    1       23.707 -23.216   6.478  0.00  0.00    +0.350 C 
BRANCH  11  12
ATOM     12  C   LIG    1       24.678 -22.164   5.808  0.00  0.00    +0.226 C 
BRANCH  12  13
ATOM     13  C   LIG    1       25.893 -21.801   6.685  0.00  0.00    +0.037 A 
ATOM     14  S   LIG    1       26.919 -20.469   6.231  0.00  0.00    -0.098 S 
ATOM     15  C   LIG    1       27.997 -20.720   7.522  0.00  0.00    +0.045 A 
ATOM     16  C   LIG    1       27.638 -21.809   8.278  0.00  0.00    +0.008 A 
ATOM     17  C   LIG    1       26.438 -22.433   7.797  0.00  0.00    +0.015 A 
ENDBRANCH  12  13
BRANCH  12  18
ATOM     18  C   LIG    1       23.842 -20.978   5.342  0.00  0.00    +0.037 A 
ATOM     19  S   LIG    1       23.925 -20.416   3.709  0.00  0.00    -0.098 S 
ATOM     20  C   LIG    1       22.776 -19.190   3.992  0.00  0.00    +0.045 A 
ATOM     21  C   LIG    1       22.324 -19.192   5.291  0.00  0.00    +0.008 A 
ATOM     22  C   LIG    1       22.926 -20.226   6.064  0.00  0.00    +0.015 A 
ENDBRANCH  12  18
BRANCH  12  23
ATOM     23  O   LIG    1       25.241 -22.753   4.621  0.00  0.00    -0.369 OA
ATOM     24  H   LIG    1       25.770 -23.513   4.911  0.00  0.00    +0.212 HD
ENDBRANCH  12  23
ENDBRANCH  11  12
ENDBRANCH   9  11
ENDBRANCH   1   9
BRANCH   5  25
ATOM     25  C   LIG    1       24.350 -28.927   7.296  0.00  0.00    +0.136 C 
BRANCH  25  26
ATOM     26  C   LIG    1       25.222 -30.172   7.233  0.00  0.00    +0.092 C 
BRANCH  26  27
ATOM     27  C   LIG    1       25.361 -30.784   8.613  0.00  0.00    +0.234 C 
BRANCH  27  28
ATOM     28  O   LIG    1       26.538 -30.264   9.236  0.00  0.00    -0.492 OA
BRANCH  28  29
ATOM     29  C   LIG    1       26.273 -29.448  10.306  0.00  0.00    +0.120 A 
ATOM     30  C   LIG    1       27.089 -28.378  10.682  0.00  0.00    +0.045 A 
ATOM     31  C   LIG    1       26.776 -27.606  11.795  0.00  0.00    +0.004 A 
ATOM     32  C   LIG    1       25.638 -27.891  12.541  0.00  0.00    +0.000 A 
ATOM     33  C   LIG    1       24.800 -28.938  12.157  0.00  0.00    +0.004 A 
ATOM     34  C   LIG    1       25.106 -29.706  11.029  0.00  0.00    +0.045 A 
ENDBRANCH  28  29
ENDBRANCH  27  28
ENDBRANCH  26  27
ENDBRANCH  25  26
ENDBRANCH   5  25
TORSDOF 11
ENDMDL
