MODEL 1
REMARK VINA RESULT:      -2.8      0.000      0.000
REMARK  Name = *****
REMARK                            x       y       z     vdW  Elec       q    Type
REMARK                         _______ _______ _______ _____ _____    ______ ____
ROOT
ATOM      1  C   LIG    1       27.665 -15.578   3.856  0.00  0.00    +0.253 C 
ATOM      2  C   LIG    1       27.505 -14.643   2.651  0.00  0.00    +0.195 C 
ATOM      3  C   LIG    1       27.915 -13.319   3.274  0.00  0.00    +0.178 C 
ATOM      4  C   LIG    1       27.332 -13.420   4.692  0.00  0.00    +0.178 C 
ATOM      5  O   LIG    1       27.250 -14.824   5.024  0.00  0.00    -0.346 OA
ENDROOT
BRANCH   1  10
ATOM      6  C   LIG    1       26.343 -20.140   4.741  0.00  0.00    +0.150 A 
ATOM      7  C   LIG    1       26.247 -18.864   4.161  0.00  0.00    +0.147 A 
ATOM      8  N   LIG    1       25.284 -18.269   3.375  0.00  0.00    -0.231 NA
ATOM      9  C   LIG    1       25.739 -17.053   3.150  0.00  0.00    +0.203 A 
ATOM     10  N   LIG    1       26.935 -16.825   3.778  0.00  0.00    -0.285 N 
ATOM     11  C   LIG    1       27.286 -17.985   4.418  0.00  0.00    +0.170 A 
ATOM     12  N   LIG    1       28.385 -18.223   5.152  0.00  0.00    -0.182 NA
ATOM     13  C   LIG    1       28.379 -19.484   5.638  0.00  0.00    +0.313 A 
ATOM     14  F   LIG    1       29.451 -19.836   6.367  0.00  0.00    -0.161 F 
ATOM     15  N   LIG    1       27.427 -20.431   5.489  0.00  0.00    -0.185 NA
BRANCH   6  16
ATOM     16  N   LIG    1       25.355 -21.109   4.605  0.00  0.00    -0.341 N 
ATOM     17  H   LIG    1       25.013 -21.199   3.653  0.00  0.00    +0.144 HD
ATOM     18  H   LIG    1       24.667 -21.063   5.344  0.00  0.00    +0.144 HD
ENDBRANCH   6  16
ENDBRANCH   1  10
BRANCH   2  19
ATOM     19  O   LIG    1       26.151 -14.549   2.201  0.00  0.00    -0.385 OA
ATOM     20  H   LIG    1       25.627 -14.167   2.928  0.00  0.00    +0.210 HD
ENDBRANCH   2  19
BRANCH   3  21
ATOM     21  O   LIG    1       29.344 -13.259   3.317  0.00  0.00    -0.386 OA
ATOM     22  H   LIG    1       29.686 -13.919   2.686  0.00  0.00    +0.210 HD
ENDBRANCH   3  21
BRANCH   4  23
ATOM     23  C   LIG    1       25.938 -12.800   4.828  0.00  0.00    +0.206 C 
BRANCH  23  24
ATOM     24  O   LIG    1       25.535 -12.224   3.596  0.00  0.00    -0.284 OA
BRANCH  24  25
ATOM     25  P   LIG    1       23.958 -12.091   3.354  0.00  0.00    +0.472 P 
ATOM     26  O   LIG    1       23.157 -11.447   4.425  0.00  0.00    -0.228 OA
BRANCH  25  27
ATOM     27  O   LIG    1       23.471 -13.580   3.046  0.00  0.00    -0.303 OA
ATOM     28  H   LIG    1       22.495 -13.610   3.038  0.00  0.00    +0.222 HD
ENDBRANCH  25  27
BRANCH  25  29
ATOM     29  O   LIG    1       23.830 -11.449   1.901  0.00  0.00    -0.303 OA
ATOM     30  H   LIG    1       22.910 -11.458   1.589  0.00  0.00    +0.222 HD
ENDBRANCH  25  29
ENDBRANCH  24  25
ENDBRANCH  23  24
ENDBRANCH   4  23
TORSDOF 9
ENDMDL
MODEL 2
REMARK VINA RESULT:      -2.2      4.996      7.323
REMARK  Name = *****
REMARK                            x       y       z     vdW  Elec       q    Type
REMARK                         _______ _______ _______ _____ _____    ______ ____
ROOT
ATOM      1  C   LIG    1       24.159 -18.933   4.205  0.00  0.00    +0.253 C 
ATOM      2  C   LIG    1       24.214 -20.249   3.420  0.00  0.00    +0.195 C 
ATOM      3  C   LIG    1       23.641 -21.208   4.450  0.00  0.00    +0.178 C 
ATOM      4  C   LIG    1       24.219 -20.670   5.768  0.00  0.00    +0.178 C 
ATOM      5  O   LIG    1       24.468 -19.259   5.584  0.00  0.00    -0.346 OA
ENDROOT
BRANCH   1  10
ATOM      6  C   LIG    1       25.957 -14.523   3.388  0.00  0.00    +0.150 A 
ATOM      7  C   LIG    1       25.936 -15.928   3.361  0.00  0.00    +0.147 A 
ATOM      8  N   LIG    1       26.868 -16.864   2.972  0.00  0.00    -0.231 NA
ATOM      9  C   LIG    1       26.287 -18.027   3.189  0.00  0.00    +0.203 A 
ATOM     10  N   LIG    1       25.035 -17.885   3.727  0.00  0.00    -0.285 N 
ATOM     11  C   LIG    1       24.785 -16.541   3.827  0.00  0.00    +0.170 A 
ATOM     12  N   LIG    1       23.679 -15.940   4.293  0.00  0.00    -0.182 NA
ATOM     13  C   LIG    1       23.804 -14.595   4.251  0.00  0.00    +0.313 A 
ATOM     14  F   LIG    1       22.738 -13.893   4.670  0.00  0.00    -0.161 F 
ATOM     15  N   LIG    1       24.870 -13.869   3.848  0.00  0.00    -0.185 NA
BRANCH   6  16
ATOM     16  N   LIG    1       27.059 -13.775   2.992  0.00  0.00    -0.341 N 
ATOM     17  H   LIG    1       27.015 -13.482   2.021  0.00  0.00    +0.144 HD
ATOM     18  H   LIG    1       27.930 -14.170   3.320  0.00  0.00    +0.144 HD
ENDBRANCH   6  16
ENDBRANCH   1  10
BRANCH   2  19
ATOM     19  O   LIG    1       25.552 -20.647   3.104  0.00  0.00    -0.385 OA
ATOM     20  H   LIG    1       25.521 -21.126   2.256  0.00  0.00    +0.210 HD
ENDBRANCH   2  19
BRANCH   3  21
ATOM     21  O   LIG    1       22.215 -21.090   4.437  0.00  0.00    -0.386 OA
ATOM     22  H   LIG    1       21.893 -21.302   5.332  0.00  0.00    +0.210 HD
ENDBRANCH   3  21
BRANCH   4  23
ATOM     23  C   LIG    1       25.527 -21.349   6.188  0.00  0.00    +0.206 C 
BRANCH  23  24
ATOM     24  O   LIG    1       26.345 -20.437   6.902  0.00  0.00    -0.284 OA
BRANCH  24  25
ATOM     25  P   LIG    1       27.905 -20.446   6.539  0.00  0.00    +0.472 P 
ATOM     26  O   LIG    1       28.719 -21.572   7.062  0.00  0.00    -0.228 OA
BRANCH  25  27
ATOM     27  O   LIG    1       28.443 -19.028   7.039  0.00  0.00    -0.303 OA
ATOM     28  H   LIG    1       27.698 -18.499   7.385  0.00  0.00    +0.222 HD
ENDBRANCH  25  27
BRANCH  25  29
ATOM     29  O   LIG    1       27.950 -20.222   4.962  0.00  0.00    -0.303 OA
ATOM     30  H   LIG    1       28.738 -19.722   4.697  0.00  0.00    +0.222 HD
ENDBRANCH  25  29
ENDBRANCH  24  25
ENDBRANCH  23  24
ENDBRANCH   4  23
TORSDOF 9
ENDMDL
MODEL 3
REMARK VINA RESULT:      -1.8      2.949      4.818
REMARK  Name = *****
REMARK                            x       y       z     vdW  Elec       q    Type
REMARK                         _______ _______ _______ _____ _____    ______ ____
ROOT
ATOM      1  C   LIG    1       23.664 -19.581   4.130  0.00  0.00    +0.253 C 
ATOM      2  C   LIG    1       22.414 -19.473   5.012  0.00  0.00    +0.195 C 
ATOM      3  C   LIG    1       21.656 -18.377   4.281  0.00  0.00    +0.178 C 
ATOM      4  C   LIG    1       22.782 -17.438   3.822  0.00  0.00    +0.178 C 
ATOM      5  O   LIG    1       23.980 -18.236   3.691  0.00  0.00    -0.346 OA
ENDROOT
BRANCH   1  10
ATOM      6  C   LIG    1       28.130 -20.120   5.892  0.00  0.00    +0.150 A 
ATOM      7  C   LIG    1       26.802 -20.491   5.622  0.00  0.00    +0.147 A 
ATOM      8  N   LIG    1       26.041 -21.572   6.008  0.00  0.00    -0.231 NA
ATOM      9  C   LIG    1       24.862 -21.367   5.457  0.00  0.00    +0.203 A 
ATOM     10  N   LIG    1       24.817 -20.189   4.758  0.00  0.00    -0.285 N 
ATOM     11  C   LIG    1       26.062 -19.621   4.838  0.00  0.00    +0.170 A 
ATOM     12  N   LIG    1       26.479 -18.466   4.295  0.00  0.00    -0.182 NA
ATOM     13  C   LIG    1       27.772 -18.225   4.603  0.00  0.00    +0.313 A 
ATOM     14  F   LIG    1       28.299 -17.103   4.085  0.00  0.00    -0.161 F 
ATOM     15  N   LIG    1       28.599 -18.967   5.371  0.00  0.00    -0.185 NA
BRANCH   6  16
ATOM     16  N   LIG    1       28.976 -20.872   6.699  0.00  0.00    -0.341 N 
ATOM     17  H   LIG    1       29.708 -20.320   7.134  0.00  0.00    +0.144 HD
ATOM     18  H   LIG    1       29.248 -21.744   6.263  0.00  0.00    +0.144 HD
ENDBRANCH   6  16
ENDBRANCH   1  10
BRANCH   2  19
ATOM     19  O   LIG    1       22.711 -19.030   6.339  0.00  0.00    -0.385 OA
ATOM     20  H   LIG    1       22.953 -18.088   6.285  0.00  0.00    +0.210 HD
ENDBRANCH   2  19
BRANCH   3  21
ATOM     21  O   LIG    1       20.990 -18.959   3.155  0.00  0.00    -0.386 OA
ATOM     22  H   LIG    1       21.668 -19.164   2.485  0.00  0.00    +0.210 HD
ENDBRANCH   3  21
BRANCH   4  23
ATOM     23  C   LIG    1       23.059 -16.290   4.797  0.00  0.00    +0.206 C 
BRANCH  23  24
ATOM     24  O   LIG    1       23.184 -15.066   4.090  0.00  0.00    -0.284 OA
BRANCH  24  25
ATOM     25  P   LIG    1       24.659 -14.451   3.985  0.00  0.00    +0.472 P 
ATOM     26  O   LIG    1       25.196 -13.760   5.184  0.00  0.00    -0.228 OA
BRANCH  25  27
ATOM     27  O   LIG    1       24.606 -13.495   2.707  0.00  0.00    -0.303 OA
ATOM     28  H   LIG    1       23.766 -13.633   2.229  0.00  0.00    +0.222 HD
ENDBRANCH  25  27
BRANCH  25  29
ATOM     29  O   LIG    1       25.547 -15.642   3.406  0.00  0.00    -0.303 OA
ATOM     30  H   LIG    1       25.913 -16.190   4.119  0.00  0.00    +0.222 HD
ENDBRANCH  25  29
ENDBRANCH  24  25
ENDBRANCH  23  24
ENDBRANCH   4  23
TORSDOF 9
ENDMDL
MODEL 4
REMARK VINA RESULT:      -1.8      4.580      7.052
REMARK  Name = *****
REMARK                            x       y       z     vdW  Elec       q    Type
REMARK                         _______ _______ _______ _____ _____    ______ ____
ROOT
ATOM      1  C   LIG    1       23.799 -18.291   3.724  0.00  0.00    +0.253 C 
ATOM      2  C   LIG    1       25.216 -18.710   3.316  0.00  0.00    +0.195 C 
ATOM      3  C   LIG    1       25.121 -20.215   3.495  0.00  0.00    +0.178 C 
ATOM      4  C   LIG    1       24.234 -20.350   4.743  0.00  0.00    +0.178 C 
ATOM      5  O   LIG    1       23.403 -19.170   4.808  0.00  0.00    -0.346 OA
ENDROOT
BRANCH   1  10
ATOM      6  C   LIG    1       24.588 -13.534   4.030  0.00  0.00    +0.150 A 
ATOM      7  C   LIG    1       23.911 -14.742   4.267  0.00  0.00    +0.147 A 
ATOM      8  N   LIG    1       22.710 -15.031   4.878  0.00  0.00    -0.231 NA
ATOM      9  C   LIG    1       22.594 -16.341   4.786  0.00  0.00    +0.203 A 
ATOM     10  N   LIG    1       23.647 -16.907   4.119  0.00  0.00    -0.285 N 
ATOM     11  C   LIG    1       24.514 -15.896   3.794  0.00  0.00    +0.170 A 
ATOM     12  N   LIG    1       25.683 -15.989   3.142  0.00  0.00    -0.182 NA
ATOM     13  C   LIG    1       26.252 -14.772   2.991  0.00  0.00    +0.313 A 
ATOM     14  F   LIG    1       27.445 -14.754   2.373  0.00  0.00    -0.161 F 
ATOM     15  N   LIG    1       25.768 -13.572   3.378  0.00  0.00    -0.185 NA
BRANCH   6  16
ATOM     16  N   LIG    1       24.082 -12.296   4.410  0.00  0.00    -0.341 N 
ATOM     17  H   LIG    1       24.135 -11.600   3.673  0.00  0.00    +0.144 HD
ATOM     18  H   LIG    1       24.391 -12.021   5.332  0.00  0.00    +0.144 HD
ENDBRANCH   6  16
ENDBRANCH   1  10
BRANCH   2  19
ATOM     19  O   LIG    1       26.219 -18.196   4.198  0.00  0.00    -0.385 OA
ATOM     20  H   LIG    1       26.659 -18.958   4.615  0.00  0.00    +0.210 HD
ENDBRANCH   2  19
BRANCH   3  21
ATOM     21  O   LIG    1       24.469 -20.769   2.348  0.00  0.00    -0.386 OA
ATOM     22  H   LIG    1       23.510 -20.773   2.526  0.00  0.00    +0.210 HD
ENDBRANCH   3  21
BRANCH   4  23
ATOM     23  C   LIG    1       25.026 -20.467   6.049  0.00  0.00    +0.206 C 
BRANCH  23  24
ATOM     24  O   LIG    1       26.152 -21.309   5.865  0.00  0.00    -0.284 OA
BRANCH  24  25
ATOM     25  P   LIG    1       27.573 -20.699   6.283  0.00  0.00    +0.472 P 
ATOM     26  O   LIG    1       28.487 -21.572   7.061  0.00  0.00    -0.228 OA
BRANCH  25  27
ATOM     27  O   LIG    1       27.218 -19.349   7.059  0.00  0.00    -0.303 OA
ATOM     28  H   LIG    1       27.008 -19.552   7.991  0.00  0.00    +0.222 HD
ENDBRANCH  25  27
BRANCH  25  29
ATOM     29  O   LIG    1       28.162 -20.097   4.930  0.00  0.00    -0.303 OA
ATOM     30  H   LIG    1       27.581 -20.286   4.175  0.00  0.00    +0.222 HD
ENDBRANCH  25  29
ENDBRANCH  24  25
ENDBRANCH  23  24
ENDBRANCH   4  23
TORSDOF 9
ENDMDL
MODEL 5
REMARK VINA RESULT:      -1.6      2.830      4.210
REMARK  Name = *****
REMARK                            x       y       z     vdW  Elec       q    Type
REMARK                         _______ _______ _______ _____ _____    ______ ____
ROOT
ATOM      1  C   LIG    1       24.977 -15.723   3.112  0.00  0.00    +0.253 C 
ATOM      2  C   LIG    1       23.806 -14.981   3.768  0.00  0.00    +0.195 C 
ATOM      3  C   LIG    1       24.230 -13.540   3.539  0.00  0.00    +0.178 C 
ATOM      4  C   LIG    1       25.754 -13.605   3.725  0.00  0.00    +0.178 C 
ATOM      5  O   LIG    1       26.170 -14.950   3.398  0.00  0.00    -0.346 OA
ENDROOT
BRANCH   1  10
ATOM      6  C   LIG    1       23.940 -20.286   4.315  0.00  0.00    +0.150 A 
ATOM      7  C   LIG    1       24.771 -19.188   4.038  0.00  0.00    +0.147 A 
ATOM      8  N   LIG    1       26.137 -19.062   3.918  0.00  0.00    -0.231 NA
ATOM      9  C   LIG    1       26.333 -17.790   3.632  0.00  0.00    +0.203 A 
ATOM     10  N   LIG    1       25.156 -17.097   3.530  0.00  0.00    -0.285 N 
ATOM     11  C   LIG    1       24.141 -17.976   3.806  0.00  0.00    +0.170 A 
ATOM     12  N   LIG    1       22.822 -17.731   3.831  0.00  0.00    -0.182 NA
ATOM     13  C   LIG    1       22.126 -18.850   4.129  0.00  0.00    +0.313 A 
ATOM     14  F   LIG    1       20.793 -18.710   4.207  0.00  0.00    -0.161 F 
ATOM     15  N   LIG    1       22.605 -20.094   4.351  0.00  0.00    -0.185 NA
BRANCH   6  16
ATOM     16  N   LIG    1       24.428 -21.570   4.525  0.00  0.00    -0.341 N 
ATOM     17  H   LIG    1       24.810 -21.705   5.456  0.00  0.00    +0.144 HD
ATOM     18  H   LIG    1       24.977 -21.905   3.744  0.00  0.00    +0.144 HD
ENDBRANCH   6  16
ENDBRANCH   1  10
BRANCH   2  19
ATOM     19  O   LIG    1       23.717 -15.225   5.175  0.00  0.00    -0.385 OA
ATOM     20  H   LIG    1       23.784 -16.187   5.309  0.00  0.00    +0.210 HD
ENDBRANCH   2  19
BRANCH   3  21
ATOM     21  O   LIG    1       23.899 -13.177   2.195  0.00  0.00    -0.386 OA
ATOM     22  H   LIG    1       24.731 -13.125   1.689  0.00  0.00    +0.210 HD
ENDBRANCH   3  21
BRANCH   4  23
ATOM     23  C   LIG    1       26.213 -13.282   5.150  0.00  0.00    +0.206 C 
BRANCH  23  24
ATOM     24  O   LIG    1       27.627 -13.356   5.239  0.00  0.00    -0.284 OA
BRANCH  24  25
ATOM     25  P   LIG    1       28.453 -12.569   4.115  0.00  0.00    +0.472 P 
ATOM     26  O   LIG    1       27.676 -11.890   3.049  0.00  0.00    -0.228 OA
BRANCH  25  27
ATOM     27  O   LIG    1       29.467 -13.654   3.528  0.00  0.00    -0.303 OA
ATOM     28  H   LIG    1       29.509 -13.570   2.556  0.00  0.00    +0.222 HD
ENDBRANCH  25  27
BRANCH  25  29
ATOM     29  O   LIG    1       29.469 -11.654   4.935  0.00  0.00    -0.303 OA
ATOM     30  H   LIG    1       30.387 -11.809   4.660  0.00  0.00    +0.222 HD
ENDBRANCH  25  29
ENDBRANCH  24  25
ENDBRANCH  23  24
ENDBRANCH   4  23
TORSDOF 9
ENDMDL
MODEL 6
REMARK VINA RESULT:      -0.6      2.499      3.864
REMARK  Name = *****
REMARK                            x       y       z     vdW  Elec       q    Type
REMARK                         _______ _______ _______ _____ _____    ______ ____
ROOT
ATOM      1  C   LIG    1       23.670 -16.043   3.384  0.00  0.00    +0.253 C 
ATOM      2  C   LIG    1       23.113 -14.787   4.066  0.00  0.00    +0.195 C 
ATOM      3  C   LIG    1       24.149 -13.761   3.642  0.00  0.00    +0.178 C 
ATOM      4  C   LIG    1       25.458 -14.566   3.686  0.00  0.00    +0.178 C 
ATOM      5  O   LIG    1       25.115 -15.953   3.467  0.00  0.00    -0.346 OA
ENDROOT
BRANCH   1  10
ATOM      6  C   LIG    1       23.761 -20.545   5.134  0.00  0.00    +0.150 A 
ATOM      7  C   LIG    1       23.180 -19.317   4.777  0.00  0.00    +0.147 A 
ATOM      8  N   LIG    1       21.918 -18.796   4.963  0.00  0.00    -0.231 NA
ATOM      9  C   LIG    1       21.969 -17.594   4.426  0.00  0.00    +0.203 A 
ATOM     10  N   LIG    1       23.212 -17.303   3.929  0.00  0.00    -0.285 N 
ATOM     11  C   LIG    1       23.999 -18.407   4.129  0.00  0.00    +0.170 A 
ATOM     12  N   LIG    1       25.288 -18.574   3.794  0.00  0.00    -0.182 NA
ATOM     13  C   LIG    1       25.732 -19.795   4.166  0.00  0.00    +0.313 A 
ATOM     14  F   LIG    1       27.007 -20.078   3.852  0.00  0.00    -0.161 F 
ATOM     15  N   LIG    1       25.055 -20.764   4.821  0.00  0.00    -0.185 NA
BRANCH   6  16
ATOM     16  N   LIG    1       23.073 -21.535   5.825  0.00  0.00    -0.341 N 
ATOM     17  H   LIG    1       23.571 -21.873   6.643  0.00  0.00    +0.144 HD
ATOM     18  H   LIG    1       22.672 -22.228   5.207  0.00  0.00    +0.144 HD
ENDBRANCH   6  16
ENDBRANCH   1  10
BRANCH   2  19
ATOM     19  O   LIG    1       23.111 -14.889   5.493  0.00  0.00    -0.385 OA
ATOM     20  H   LIG    1       22.286 -15.338   5.752  0.00  0.00    +0.210 HD
ENDBRANCH   2  19
BRANCH   3  21
ATOM     21  O   LIG    1       23.856 -13.343   2.305  0.00  0.00    -0.386 OA
ATOM     22  H   LIG    1       24.459 -13.822   1.707  0.00  0.00    +0.210 HD
ENDBRANCH   3  21
BRANCH   4  23
ATOM     23  C   LIG    1       26.207 -14.448   5.016  0.00  0.00    +0.206 C 
BRANCH  23  24
ATOM     24  O   LIG    1       27.603 -14.348   4.785  0.00  0.00    -0.284 OA
BRANCH  24  25
ATOM     25  P   LIG    1       28.116 -12.996   4.098  0.00  0.00    +0.472 P 
ATOM     26  O   LIG    1       27.173 -12.290   3.196  0.00  0.00    -0.228 OA
BRANCH  25  27
ATOM     27  O   LIG    1       29.468 -13.410   3.356  0.00  0.00    -0.303 OA
ATOM     28  H   LIG    1       30.235 -13.137   3.896  0.00  0.00    +0.222 HD
ENDBRANCH  25  27
BRANCH  25  29
ATOM     29  O   LIG    1       28.710 -12.137   5.302  0.00  0.00    -0.303 OA
ATOM     30  H   LIG    1       29.675 -12.225   5.358  0.00  0.00    +0.222 HD
ENDBRANCH  25  29
ENDBRANCH  24  25
ENDBRANCH  23  24
ENDBRANCH   4  23
TORSDOF 9
ENDMDL
