MODEL 1
REMARK VINA RESULT:      -4.7      0.000      0.000
REMARK  Name = *****
REMARK                            x       y       z     vdW  Elec       q    Type
REMARK                         _______ _______ _______ _____ _____    ______ ____
ROOT
ATOM      1  N   LIG    1       30.826 -19.642   8.032  0.00  0.00    -0.296 NA
ENDROOT
BRANCH   1   2
ATOM      2  C   LIG    1       30.772 -19.274   6.592  0.00  0.00    +0.112 C 
BRANCH   2   3
ATOM      3  C   LIG    1       29.372 -18.903   6.080  0.00  0.00    +0.171 C 
BRANCH   3   4
ATOM      4  O   LIG    1       29.493 -17.901   5.072  0.00  0.00    -0.394 OA
ATOM      5  H   LIG    1       29.414 -18.350   4.215  0.00  0.00    +0.209 HD
ENDBRANCH   3   4
ENDBRANCH   2   3
ENDBRANCH   1   2
BRANCH   1   6
ATOM      6  C   LIG    1       30.223 -20.982   8.248  0.00  0.00    +0.112 C 
BRANCH   6   7
ATOM      7  C   LIG    1       30.986 -21.925   9.201  0.00  0.00    +0.171 C 
BRANCH   7   8
ATOM      8  O   LIG    1       32.285 -21.405   9.475  0.00  0.00    -0.394 OA
ATOM      9  H   LIG    1       32.259 -20.453   9.314  0.00  0.00    +0.209 HD
ENDBRANCH   7   8
ENDBRANCH   6   7
ENDBRANCH   1   6
BRANCH   1  10
ATOM     10  C   LIG    1       30.093 -18.601   8.812  0.00  0.00    +0.112 C 
BRANCH  10  11
ATOM     11  C   LIG    1       30.834 -18.033  10.035  0.00  0.00    +0.171 C 
BRANCH  11  12
ATOM     12  O   LIG    1       32.209 -18.402  10.002  0.00  0.00    -0.394 OA
ATOM     13  H   LIG    1       32.441 -18.470   9.057  0.00  0.00    +0.209 HD
ENDBRANCH  11  12
ENDBRANCH  10  11
ENDBRANCH   1  10
TORSDOF 9
ENDMDL
MODEL 2
REMARK VINA RESULT:      -4.6      0.057      3.930
REMARK  Name = *****
REMARK                            x       y       z     vdW  Elec       q    Type
REMARK                         _______ _______ _______ _____ _____    ______ ____
ROOT
ATOM      1  N   LIG    1       30.819 -19.607   8.035  0.00  0.00    -0.296 NA
ENDROOT
BRANCH   1   2
ATOM      2  C   LIG    1       30.099 -18.586   8.843  0.00  0.00    +0.112 C 
BRANCH   2   3
ATOM      3  C   LIG    1       30.872 -18.083  10.072  0.00  0.00    +0.171 C 
BRANCH   3   4
ATOM      4  O   LIG    1       32.249 -18.425   9.929  0.00  0.00    -0.394 OA
ATOM      5  H   LIG    1       32.498 -18.935  10.718  0.00  0.00    +0.209 HD
ENDBRANCH   3   4
ENDBRANCH   2   3
ENDBRANCH   1   2
BRANCH   1   6
ATOM      6  C   LIG    1       30.748 -19.269   6.591  0.00  0.00    +0.112 C 
BRANCH   6   7
ATOM      7  C   LIG    1       29.349 -18.918   6.044  0.00  0.00    +0.171 C 
BRANCH   7   8
ATOM      8  O   LIG    1       29.446 -17.874   5.076  0.00  0.00    -0.394 OA
ATOM      9  H   LIG    1       28.548 -17.616   4.833  0.00  0.00    +0.209 HD
ENDBRANCH   7   8
ENDBRANCH   6   7
ENDBRANCH   1   6
BRANCH   1  10
ATOM     10  C   LIG    1       30.197 -20.939   8.298  0.00  0.00    +0.112 C 
BRANCH  10  11
ATOM     11  C   LIG    1       31.021 -21.904   9.167  0.00  0.00    +0.171 C 
BRANCH  11  12
ATOM     12  O   LIG    1       32.306 -21.358   9.439  0.00  0.00    -0.394 OA
ATOM     13  H   LIG    1       32.899 -21.724   8.758  0.00  0.00    +0.209 HD
ENDBRANCH  11  12
ENDBRANCH  10  11
ENDBRANCH   1  10
TORSDOF 9
ENDMDL
MODEL 3
REMARK VINA RESULT:      -4.6      1.195      3.034
REMARK  Name = *****
REMARK                            x       y       z     vdW  Elec       q    Type
REMARK                         _______ _______ _______ _____ _____    ______ ____
ROOT
ATOM      1  N   LIG    1       29.982 -19.391   8.814  0.00  0.00    -0.296 NA
ENDROOT
BRANCH   1   2
ATOM      2  C   LIG    1       29.371 -19.402   7.457  0.00  0.00    +0.112 C 
BRANCH   2   3
ATOM      3  C   LIG    1       30.351 -19.103   6.313  0.00  0.00    +0.171 C 
BRANCH   3   4
ATOM      4  O   LIG    1       29.796 -18.092   5.474  0.00  0.00    -0.394 OA
ATOM      5  H   LIG    1       29.216 -17.548   6.032  0.00  0.00    +0.209 HD
ENDBRANCH   3   4
ENDBRANCH   2   3
ENDBRANCH   1   2
BRANCH   1   6
ATOM      6  C   LIG    1       30.316 -18.002   9.220  0.00  0.00    +0.112 C 
BRANCH   6   7
ATOM      7  C   LIG    1       31.805 -17.720   9.511  0.00  0.00    +0.171 C 
BRANCH   7   8
ATOM      8  O   LIG    1       32.363 -16.903   8.483  0.00  0.00    -0.394 OA
ATOM      9  H   LIG    1       33.092 -17.393   8.083  0.00  0.00    +0.209 HD
ENDBRANCH   7   8
ENDBRANCH   6   7
ENDBRANCH   1   6
BRANCH   1  10
ATOM     10  C   LIG    1       31.207 -20.243   8.785  0.00  0.00    +0.112 C 
BRANCH  10  11
ATOM     11  C   LIG    1       30.996 -21.733   9.104  0.00  0.00    +0.171 C 
BRANCH  11  12
ATOM     12  O   LIG    1       32.115 -22.500   8.675  0.00  0.00    -0.394 OA
ATOM     13  H   LIG    1       32.238 -23.190   9.352  0.00  0.00    +0.209 HD
ENDBRANCH  11  12
ENDBRANCH  10  11
ENDBRANCH   1  10
TORSDOF 9
ENDMDL
MODEL 4
REMARK VINA RESULT:      -4.6      1.198      3.586
REMARK  Name = *****
REMARK                            x       y       z     vdW  Elec       q    Type
REMARK                         _______ _______ _______ _____ _____    ______ ____
ROOT
ATOM      1  N   LIG    1       29.976 -19.404   8.795  0.00  0.00    -0.296 NA
ENDROOT
BRANCH   1   2
ATOM      2  C   LIG    1       31.216 -20.226   8.824  0.00  0.00    +0.112 C 
BRANCH   2   3
ATOM      3  C   LIG    1       30.985 -21.719   9.098  0.00  0.00    +0.171 C 
BRANCH   3   4
ATOM      4  O   LIG    1       32.140 -22.452   8.697  0.00  0.00    -0.394 OA
ATOM      5  H   LIG    1       32.225 -22.344   7.735  0.00  0.00    +0.209 HD
ENDBRANCH   3   4
ENDBRANCH   2   3
ENDBRANCH   1   2
BRANCH   1   6
ATOM      6  C   LIG    1       29.369 -19.429   7.441  0.00  0.00    +0.112 C 
BRANCH   6   7
ATOM      7  C   LIG    1       30.322 -19.132   6.264  0.00  0.00    +0.171 C 
BRANCH   7   8
ATOM      8  O   LIG    1       29.800 -18.074   5.461  0.00  0.00    -0.394 OA
ATOM      9  H   LIG    1       29.346 -17.457   6.049  0.00  0.00    +0.209 HD
ENDBRANCH   7   8
ENDBRANCH   6   7
ENDBRANCH   1   6
BRANCH   1  10
ATOM     10  C   LIG    1       30.328 -18.007   9.191  0.00  0.00    +0.112 C 
BRANCH  10  11
ATOM     11  C   LIG    1       31.819 -17.745   9.469  0.00  0.00    +0.171 C 
BRANCH  11  12
ATOM     12  O   LIG    1       32.365 -16.878   8.481  0.00  0.00    -0.394 OA
ATOM     13  H   LIG    1       33.209 -17.284   8.210  0.00  0.00    +0.209 HD
ENDBRANCH  11  12
ENDBRANCH  10  11
ENDBRANCH   1  10
TORSDOF 9
ENDMDL
MODEL 5
REMARK VINA RESULT:      -4.5      0.337      3.979
REMARK  Name = *****
REMARK                            x       y       z     vdW  Elec       q    Type
REMARK                         _______ _______ _______ _____ _____    ______ ____
ROOT
ATOM      1  N   LIG    1       30.899 -19.566   7.986  0.00  0.00    -0.296 NA
ENDROOT
BRANCH   1   2
ATOM      2  C   LIG    1       30.250 -20.870   8.290  0.00  0.00    +0.112 C 
BRANCH   2   3
ATOM      3  C   LIG    1       31.106 -21.829   9.130  0.00  0.00    +0.171 C 
BRANCH   3   4
ATOM      4  O   LIG    1       32.352 -21.202   9.429  0.00  0.00    -0.394 OA
ATOM      5  H   LIG    1       32.157 -20.279   9.658  0.00  0.00    +0.209 HD
ENDBRANCH   3   4
ENDBRANCH   2   3
ENDBRANCH   1   2
BRANCH   1   6
ATOM      6  C   LIG    1       30.297 -18.484   8.805  0.00  0.00    +0.112 C 
BRANCH   6   7
ATOM      7  C   LIG    1       31.285 -17.488   9.447  0.00  0.00    +0.171 C 
BRANCH   7   8
ATOM      8  O   LIG    1       32.270 -18.189  10.205  0.00  0.00    -0.394 OA
ATOM      9  H   LIG    1       32.158 -19.132  10.030  0.00  0.00    +0.209 HD
ENDBRANCH   7   8
ENDBRANCH   6   7
ENDBRANCH   1   6
BRANCH   1  10
ATOM     10  C   LIG    1       30.728 -19.284   6.530  0.00  0.00    +0.112 C 
BRANCH  10  11
ATOM     11  C   LIG    1       29.325 -18.825   6.096  0.00  0.00    +0.171 C 
BRANCH  11  12
ATOM     12  O   LIG    1       29.417 -17.781   5.132  0.00  0.00    -0.394 OA
ATOM     13  H   LIG    1       30.023 -17.120   5.516  0.00  0.00    +0.209 HD
ENDBRANCH  11  12
ENDBRANCH  10  11
ENDBRANCH   1  10
TORSDOF 9
ENDMDL
MODEL 6
REMARK VINA RESULT:      -4.5      2.514      3.216
REMARK  Name = *****
REMARK                            x       y       z     vdW  Elec       q    Type
REMARK                         _______ _______ _______ _____ _____    ______ ____
ROOT
ATOM      1  N   LIG    1       29.081 -21.015   7.210  0.00  0.00    -0.296 NA
ENDROOT
BRANCH   1   2
ATOM      2  C   LIG    1       28.768 -19.897   6.279  0.00  0.00    +0.112 C 
BRANCH   2   3
ATOM      3  C   LIG    1       29.807 -18.766   6.268  0.00  0.00    +0.171 C 
BRANCH   3   4
ATOM      4  O   LIG    1       29.625 -17.974   5.095  0.00  0.00    -0.394 OA
ATOM      5  H   LIG    1       28.870 -18.351   4.614  0.00  0.00    +0.209 HD
ENDBRANCH   3   4
ENDBRANCH   2   3
ENDBRANCH   1   2
BRANCH   1   6
ATOM      6  C   LIG    1       27.846 -21.487   7.886  0.00  0.00    +0.112 C 
BRANCH   6   7
ATOM      7  C   LIG    1       26.706 -20.455   8.016  0.00  0.00    +0.171 C 
BRANCH   7   8
ATOM      8  O   LIG    1       26.077 -20.574   9.291  0.00  0.00    -0.394 OA
ATOM      9  H   LIG    1       26.670 -21.074   9.865  0.00  0.00    +0.209 HD
ENDBRANCH   7   8
ENDBRANCH   6   7
ENDBRANCH   1   6
BRANCH   1  10
ATOM     10  C   LIG    1       30.078 -20.530   8.209  0.00  0.00    +0.112 C 
BRANCH  10  11
ATOM     11  C   LIG    1       30.937 -21.615   8.880  0.00  0.00    +0.171 C 
BRANCH  11  12
ATOM     12  O   LIG    1       32.184 -21.075   9.304  0.00  0.00    -0.394 OA
ATOM     13  H   LIG    1       31.966 -20.266   9.803  0.00  0.00    +0.209 HD
ENDBRANCH  11  12
ENDBRANCH  10  11
ENDBRANCH   1  10
TORSDOF 9
ENDMDL
MODEL 7
REMARK VINA RESULT:      -4.5      2.270      3.447
REMARK  Name = *****
REMARK                            x       y       z     vdW  Elec       q    Type
REMARK                         _______ _______ _______ _____ _____    ______ ____
ROOT
ATOM      1  N   LIG    1       29.357 -19.983   8.526  0.00  0.00    -0.296 NA
ENDROOT
BRANCH   1   2
ATOM      2  C   LIG    1       28.153 -20.027   7.653  0.00  0.00    +0.112 C 
BRANCH   2   3
ATOM      3  C   LIG    1       27.094 -21.055   8.079  0.00  0.00    +0.171 C 
BRANCH   3   4
ATOM      4  O   LIG    1       26.322 -20.515   9.149  0.00  0.00    -0.394 OA
ATOM      5  H   LIG    1       26.687 -20.877   9.973  0.00  0.00    +0.209 HD
ENDBRANCH   3   4
ENDBRANCH   2   3
ENDBRANCH   1   2
BRANCH   1   6
ATOM      6  C   LIG    1       30.017 -18.657   8.431  0.00  0.00    +0.112 C 
BRANCH   6   7
ATOM      7  C   LIG    1       30.675 -18.131   9.724  0.00  0.00    +0.171 C 
BRANCH   7   8
ATOM      8  O   LIG    1       32.031 -18.567   9.800  0.00  0.00    -0.394 OA
ATOM      9  H   LIG    1       32.037 -19.432  10.229  0.00  0.00    +0.209 HD
ENDBRANCH   7   8
ENDBRANCH   6   7
ENDBRANCH   1   6
BRANCH   1  10
ATOM     10  C   LIG    1       30.288 -21.069   8.098  0.00  0.00    +0.112 C 
BRANCH  10  11
ATOM     11  C   LIG    1       30.909 -21.905   9.230  0.00  0.00    +0.171 C 
BRANCH  11  12
ATOM     12  O   LIG    1       32.236 -21.467   9.504  0.00  0.00    -0.394 OA
ATOM     13  H   LIG    1       32.640 -21.290   8.635  0.00  0.00    +0.209 HD
ENDBRANCH  11  12
ENDBRANCH  10  11
ENDBRANCH   1  10
TORSDOF 9
ENDMDL
MODEL 8
REMARK VINA RESULT:      -4.5      1.169      3.136
REMARK  Name = *****
REMARK                            x       y       z     vdW  Elec       q    Type
REMARK                         _______ _______ _______ _____ _____    ______ ____
ROOT
ATOM      1  N   LIG    1       29.919 -19.469   8.716  0.00  0.00    -0.296 NA
ENDROOT
BRANCH   1   2
ATOM      2  C   LIG    1       30.300 -18.090   9.122  0.00  0.00    +0.112 C 
BRANCH   2   3
ATOM      3  C   LIG    1       31.795 -17.901   9.419  0.00  0.00    +0.171 C 
BRANCH   3   4
ATOM      4  O   LIG    1       32.347 -16.985   8.475  0.00  0.00    -0.394 OA
ATOM      5  H   LIG    1       33.119 -17.420   8.077  0.00  0.00    +0.209 HD
ENDBRANCH   3   4
ENDBRANCH   2   3
ENDBRANCH   1   2
BRANCH   1   6
ATOM      6  C   LIG    1       31.130 -20.308   8.532  0.00  0.00    +0.112 C 
BRANCH   6   7
ATOM      7  C   LIG    1       31.064 -21.735   9.116  0.00  0.00    +0.171 C 
BRANCH   7   8
ATOM      8  O   LIG    1       32.170 -22.509   8.655  0.00  0.00    -0.394 OA
ATOM      9  H   LIG    1       32.670 -21.964   8.035  0.00  0.00    +0.209 HD
ENDBRANCH   7   8
ENDBRANCH   6   7
ENDBRANCH   1   6
BRANCH   1  10
ATOM     10  C   LIG    1       29.135 -19.387   7.448  0.00  0.00    +0.112 C 
BRANCH  10  11
ATOM     11  C   LIG    1       29.961 -19.299   6.153  0.00  0.00    +0.171 C 
BRANCH  11  12
ATOM     12  O   LIG    1       29.756 -18.043   5.515  0.00  0.00    -0.394 OA
ATOM     13  H   LIG    1       29.879 -17.370   6.210  0.00  0.00    +0.209 HD
ENDBRANCH  11  12
ENDBRANCH  10  11
ENDBRANCH   1  10
TORSDOF 9
ENDMDL
MODEL 9
REMARK VINA RESULT:      -4.4      1.335      3.668
REMARK  Name = *****
REMARK                            x       y       z     vdW  Elec       q    Type
REMARK                         _______ _______ _______ _____ _____    ______ ____
ROOT
ATOM      1  N   LIG    1       29.460 -19.882   8.434  0.00  0.00    -0.296 NA
ENDROOT
BRANCH   1   2
ATOM      2  C   LIG    1       30.493 -20.867   8.015  0.00  0.00    +0.112 C 
BRANCH   2   3
ATOM      3  C   LIG    1       30.955 -21.820   9.127  0.00  0.00    +0.171 C 
BRANCH   3   4
ATOM      4  O   LIG    1       32.279 -21.469   9.524  0.00  0.00    -0.394 OA
ATOM      5  H   LIG    1       32.874 -22.138   9.147  0.00  0.00    +0.209 HD
ENDBRANCH   3   4
ENDBRANCH   2   3
ENDBRANCH   1   2
BRANCH   1   6
ATOM      6  C   LIG    1       28.318 -19.894   7.484  0.00  0.00    +0.112 C 
BRANCH   6   7
ATOM      7  C   LIG    1       28.662 -20.206   6.012  0.00  0.00    +0.171 C 
BRANCH   7   8
ATOM      8  O   LIG    1       27.507 -20.042   5.191  0.00  0.00    -0.394 OA
ATOM      9  H   LIG    1       26.764 -20.458   5.644  0.00  0.00    +0.209 HD
ENDBRANCH   7   8
ENDBRANCH   6   7
ENDBRANCH   1   6
BRANCH   1  10
ATOM     10  C   LIG    1       30.091 -18.530   8.485  0.00  0.00    +0.112 C 
BRANCH  10  11
ATOM     11  C   LIG    1       30.701 -18.126   9.838  0.00  0.00    +0.171 C 
BRANCH  11  12
ATOM     12  O   LIG    1       32.076 -18.490   9.895  0.00  0.00    -0.394 OA
ATOM     13  H   LIG    1       32.380 -18.519   8.969  0.00  0.00    +0.209 HD
ENDBRANCH  11  12
ENDBRANCH  10  11
ENDBRANCH   1  10
TORSDOF 9
ENDMDL
