MODEL 1
REMARK VINA RESULT:      -5.4      0.000      0.000
REMARK  Name = *****
REMARK                            x       y       z     vdW  Elec       q    Type
REMARK                         _______ _______ _______ _____ _____    ______ ____
ROOT
ATOM      1  N   LIG    1       24.484 -18.434   3.674  0.00  0.00    -0.199 N 
ATOM      2  H   LIG    1       24.753 -18.449   2.703  0.00  0.00    +0.175 HD
ENDROOT
BRANCH   1   3
ATOM      3  C   LIG    1       23.621 -17.411   4.057  0.00  0.00    +0.141 A 
ATOM      4  N   LIG    1       23.824 -16.038   4.196  0.00  0.00    -0.217 N 
ATOM      5  N   LIG    1       22.753 -15.465   4.816  0.00  0.00    -0.173 NA
ATOM      6  C   LIG    1       21.854 -16.439   4.931  0.00  0.00    +0.137 A 
ATOM      7  C   LIG    1       22.331 -17.670   4.462  0.00  0.00    +0.066 A 
BRANCH   4   8
ATOM      8  C   LIG    1       24.881 -15.218   3.712  0.00  0.00    +0.068 A 
ATOM      9  C   LIG    1       24.599 -13.902   3.306  0.00  0.00    +0.028 A 
ATOM     10  C   LIG    1       25.622 -13.074   2.837  0.00  0.00    +0.002 A 
ATOM     11  C   LIG    1       26.926 -13.556   2.751  0.00  0.00    +0.000 A 
ATOM     12  C   LIG    1       27.205 -14.872   3.114  0.00  0.00    +0.002 A 
ATOM     13  C   LIG    1       26.187 -15.706   3.587  0.00  0.00    +0.028 A 
ENDBRANCH   4   8
ENDBRANCH   1   3
BRANCH   1  14
ATOM     14  S   LIG    1       24.236 -19.950   4.272  0.00  0.00    +0.073 S 
ATOM     15  O   LIG    1       23.166 -19.990   5.237  0.00  0.00    -0.150 OA
ATOM     16  O   LIG    1       24.275 -20.886   3.164  0.00  0.00    -0.150 OA
BRANCH  14  20
ATOM     17  C   LIG    1       28.175 -20.625   6.518  0.00  0.00    +0.025 A 
ATOM     18  C   LIG    1       27.036 -21.363   6.856  0.00  0.00    +0.024 A 
ATOM     19  C   LIG    1       25.817 -21.139   6.211  0.00  0.00    +0.030 A 
ATOM     20  C   LIG    1       25.752 -20.191   5.187  0.00  0.00    +0.109 A 
ATOM     21  C   LIG    1       26.887 -19.470   4.811  0.00  0.00    +0.030 A 
ATOM     22  C   LIG    1       28.097 -19.710   5.464  0.00  0.00    +0.024 A 
BRANCH  17  23
ATOM     23  N   LIG    1       29.418 -20.968   7.056  0.00  0.00    -0.358 N 
ATOM     24  H   LIG    1       30.188 -20.386   6.738  0.00  0.00    +0.142 HD
ATOM     25  H   LIG    1       29.647 -21.957   6.994  0.00  0.00    +0.142 HD
ENDBRANCH  17  23
ENDBRANCH  14  20
ENDBRANCH   1  14
TORSDOF 5
ENDMDL
MODEL 2
REMARK VINA RESULT:      -3.5      2.781      6.024
REMARK  Name = *****
REMARK                            x       y       z     vdW  Elec       q    Type
REMARK                         _______ _______ _______ _____ _____    ______ ____
ROOT
ATOM      1  N   LIG    1       23.988 -16.766   4.086  0.00  0.00    -0.199 N 
ATOM      2  H   LIG    1       24.859 -16.976   4.549  0.00  0.00    +0.175 HD
ENDROOT
BRANCH   1   3
ATOM      3  C   LIG    1       22.985 -17.724   4.201  0.00  0.00    +0.141 A 
ATOM      4  N   LIG    1       23.034 -19.071   4.562  0.00  0.00    -0.217 N 
ATOM      5  N   LIG    1       21.835 -19.668   4.311  0.00  0.00    -0.173 NA
ATOM      6  C   LIG    1       21.025 -18.682   3.934  0.00  0.00    +0.137 A 
ATOM      7  C   LIG    1       21.681 -17.447   3.862  0.00  0.00    +0.066 A 
BRANCH   4   8
ATOM      8  C   LIG    1       24.068 -19.806   5.206  0.00  0.00    +0.068 A 
ATOM      9  C   LIG    1       23.790 -20.471   6.412  0.00  0.00    +0.028 A 
ATOM     10  C   LIG    1       24.785 -21.208   7.058  0.00  0.00    +0.002 A 
ATOM     11  C   LIG    1       26.067 -21.273   6.517  0.00  0.00    +0.000 A 
ATOM     12  C   LIG    1       26.361 -20.584   5.342  0.00  0.00    +0.002 A 
ATOM     13  C   LIG    1       25.369 -19.846   4.689  0.00  0.00    +0.028 A 
ENDBRANCH   4   8
ENDBRANCH   1   3
BRANCH   1  14
ATOM     14  S   LIG    1       23.585 -15.173   4.216  0.00  0.00    +0.073 S 
ATOM     15  O   LIG    1       22.792 -14.716   3.103  0.00  0.00    -0.150 OA
ATOM     16  O   LIG    1       23.166 -14.922   5.582  0.00  0.00    -0.150 OA
BRANCH  14  20
ATOM     17  C   LIG    1       27.764 -13.345   3.750  0.00  0.00    +0.025 A 
ATOM     18  C   LIG    1       27.105 -13.291   4.983  0.00  0.00    +0.024 A 
ATOM     19  C   LIG    1       25.813 -13.805   5.130  0.00  0.00    +0.030 A 
ATOM     20  C   LIG    1       25.194 -14.416   4.037  0.00  0.00    +0.109 A 
ATOM     21  C   LIG    1       25.850 -14.511   2.808  0.00  0.00    +0.030 A 
ATOM     22  C   LIG    1       27.141 -13.996   2.680  0.00  0.00    +0.024 A 
BRANCH  17  23
ATOM     23  N   LIG    1       29.108 -12.975   3.657  0.00  0.00    -0.358 N 
ATOM     24  H   LIG    1       29.318 -12.349   2.883  0.00  0.00    +0.142 HD
ATOM     25  H   LIG    1       29.764 -13.750   3.698  0.00  0.00    +0.142 HD
ENDBRANCH  17  23
ENDBRANCH  14  20
ENDBRANCH   1  14
TORSDOF 5
ENDMDL
MODEL 3
REMARK VINA RESULT:      -2.8      1.616      2.386
REMARK  Name = *****
REMARK                            x       y       z     vdW  Elec       q    Type
REMARK                         _______ _______ _______ _____ _____    ______ ____
ROOT
ATOM      1  N   LIG    1       23.086 -19.255   5.802  0.00  0.00    -0.199 N 
ATOM      2  H   LIG    1       23.759 -18.604   6.178  0.00  0.00    +0.175 HD
ENDROOT
BRANCH   1   3
ATOM      3  C   LIG    1       22.297 -18.785   4.756  0.00  0.00    +0.141 A 
ATOM      4  N   LIG    1       22.308 -17.573   4.065  0.00  0.00    -0.217 N 
ATOM      5  N   LIG    1       21.201 -17.472   3.275  0.00  0.00    -0.173 NA
ATOM      6  C   LIG    1       20.594 -18.653   3.372  0.00  0.00    +0.137 A 
ATOM      7  C   LIG    1       21.238 -19.516   4.267  0.00  0.00    +0.066 A 
BRANCH   4   8
ATOM      8  C   LIG    1       23.307 -16.562   4.011  0.00  0.00    +0.068 A 
ATOM      9  C   LIG    1       24.598 -16.894   3.565  0.00  0.00    +0.028 A 
ATOM     10  C   LIG    1       25.593 -15.917   3.494  0.00  0.00    +0.002 A 
ATOM     11  C   LIG    1       25.316 -14.609   3.883  0.00  0.00    +0.000 A 
ATOM     12  C   LIG    1       24.050 -14.281   4.364  0.00  0.00    +0.002 A 
ATOM     13  C   LIG    1       23.048 -15.253   4.436  0.00  0.00    +0.028 A 
ENDBRANCH   4   8
ENDBRANCH   1   3
BRANCH   1  14
ATOM     14  S   LIG    1       23.683 -20.789   5.722  0.00  0.00    +0.073 S 
ATOM     15  O   LIG    1       23.377 -21.558   6.901  0.00  0.00    -0.150 OA
ATOM     16  O   LIG    1       23.407 -21.313   4.398  0.00  0.00    -0.150 OA
BRANCH  14  20
ATOM     17  C   LIG    1       28.163 -19.837   5.931  0.00  0.00    +0.025 A 
ATOM     18  C   LIG    1       27.451 -19.620   4.746  0.00  0.00    +0.024 A 
ATOM     19  C   LIG    1       26.095 -19.946   4.653  0.00  0.00    +0.030 A 
ATOM     20  C   LIG    1       25.438 -20.457   5.775  0.00  0.00    +0.109 A 
ATOM     21  C   LIG    1       26.123 -20.646   6.977  0.00  0.00    +0.030 A 
ATOM     22  C   LIG    1       27.477 -20.311   7.053  0.00  0.00    +0.024 A 
BRANCH  17  23
ATOM     23  N   LIG    1       29.470 -19.360   6.060  0.00  0.00    -0.358 N 
ATOM     24  H   LIG    1       29.616 -18.746   6.857  0.00  0.00    +0.142 HD
ATOM     25  H   LIG    1       29.862 -18.967   5.209  0.00  0.00    +0.142 HD
ENDBRANCH  17  23
ENDBRANCH  14  20
ENDBRANCH   1  14
TORSDOF 5
ENDMDL
MODEL 4
REMARK VINA RESULT:      -2.8      3.336      7.216
REMARK  Name = *****
REMARK                            x       y       z     vdW  Elec       q    Type
REMARK                         _______ _______ _______ _____ _____    ______ ____
ROOT
ATOM      1  N   LIG    1       27.196 -16.451   3.857  0.00  0.00    -0.199 N 
ATOM      2  H   LIG    1       27.056 -16.497   2.859  0.00  0.00    +0.175 HD
ENDROOT
BRANCH   1   3
ATOM      3  C   LIG    1       27.812 -17.553   4.442  0.00  0.00    +0.141 A 
ATOM      4  N   LIG    1       27.295 -18.770   4.887  0.00  0.00    -0.217 N 
ATOM      5  N   LIG    1       28.238 -19.449   5.600  0.00  0.00    -0.173 NA
ATOM      6  C   LIG    1       29.351 -18.730   5.480  0.00  0.00    +0.137 A 
ATOM      7  C   LIG    1       29.152 -17.547   4.758  0.00  0.00    +0.066 A 
BRANCH   4   8
ATOM      8  C   LIG    1       26.040 -19.382   4.615  0.00  0.00    +0.068 A 
ATOM      9  C   LIG    1       25.609 -20.452   5.418  0.00  0.00    +0.028 A 
ATOM     10  C   LIG    1       24.375 -21.062   5.177  0.00  0.00    +0.002 A 
ATOM     11  C   LIG    1       23.573 -20.624   4.127  0.00  0.00    +0.000 A 
ATOM     12  C   LIG    1       24.012 -19.589   3.302  0.00  0.00    +0.002 A 
ATOM     13  C   LIG    1       25.244 -18.973   3.538  0.00  0.00    +0.028 A 
ENDBRANCH   4   8
ENDBRANCH   1   3
BRANCH   1  14
ATOM     14  S   LIG    1       27.630 -14.940   4.353  0.00  0.00    +0.073 S 
ATOM     15  O   LIG    1       27.586 -14.800   5.786  0.00  0.00    -0.150 OA
ATOM     16  O   LIG    1       28.802 -14.535   3.600  0.00  0.00    -0.150 OA
BRANCH  14  20
ATOM     17  C   LIG    1       24.203 -12.386   2.692  0.00  0.00    +0.025 A 
ATOM     18  C   LIG    1       24.227 -12.739   4.045  0.00  0.00    +0.024 A 
ATOM     19  C   LIG    1       25.241 -13.553   4.557  0.00  0.00    +0.030 A 
ATOM     20  C   LIG    1       26.264 -13.983   3.709  0.00  0.00    +0.109 A 
ATOM     21  C   LIG    1       26.277 -13.612   2.363  0.00  0.00    +0.030 A 
ATOM     22  C   LIG    1       25.258 -12.795   1.869  0.00  0.00    +0.024 A 
BRANCH  17  23
ATOM     23  N   LIG    1       23.278 -11.447   2.228  0.00  0.00    -0.358 N 
ATOM     24  H   LIG    1       22.395 -11.845   1.920  0.00  0.00    +0.142 HD
ATOM     25  H   LIG    1       23.649 -10.789   1.547  0.00  0.00    +0.142 HD
ENDBRANCH  17  23
ENDBRANCH  14  20
ENDBRANCH   1  14
TORSDOF 5
ENDMDL
MODEL 5
REMARK VINA RESULT:      -2.7      2.215      4.988
REMARK  Name = *****
REMARK                            x       y       z     vdW  Elec       q    Type
REMARK                         _______ _______ _______ _____ _____    ______ ____
ROOT
ATOM      1  N   LIG    1       25.996 -19.109   4.108  0.00  0.00    -0.199 N 
ATOM      2  H   LIG    1       25.386 -18.411   3.711  0.00  0.00    +0.175 HD
ENDROOT
BRANCH   1   3
ATOM      3  C   LIG    1       27.209 -18.650   4.610  0.00  0.00    +0.141 A 
ATOM      4  N   LIG    1       27.858 -17.422   4.474  0.00  0.00    -0.217 N 
ATOM      5  N   LIG    1       29.132 -17.508   4.950  0.00  0.00    -0.173 NA
ATOM      6  C   LIG    1       29.221 -18.720   5.494  0.00  0.00    +0.137 A 
ATOM      7  C   LIG    1       28.051 -19.471   5.327  0.00  0.00    +0.066 A 
BRANCH   4   8
ATOM      8  C   LIG    1       27.354 -16.168   4.031  0.00  0.00    +0.068 A 
ATOM      9  C   LIG    1       28.028 -14.989   4.392  0.00  0.00    +0.028 A 
ATOM     10  C   LIG    1       27.558 -13.746   3.961  0.00  0.00    +0.002 A 
ATOM     11  C   LIG    1       26.405 -13.668   3.184  0.00  0.00    +0.000 A 
ATOM     12  C   LIG    1       25.709 -14.829   2.855  0.00  0.00    +0.002 A 
ATOM     13  C   LIG    1       26.175 -16.076   3.281  0.00  0.00    +0.028 A 
ENDBRANCH   4   8
ENDBRANCH   1   3
BRANCH   1  14
ATOM     14  S   LIG    1       25.162 -20.249   4.959  0.00  0.00    +0.073 S 
ATOM     15  O   LIG    1       25.332 -21.572   4.414  0.00  0.00    -0.150 OA
ATOM     16  O   LIG    1       25.363 -19.994   6.373  0.00  0.00    -0.150 OA
BRANCH  14  20
ATOM     17  C   LIG    1       20.853 -19.076   3.923  0.00  0.00    +0.025 A 
ATOM     18  C   LIG    1       21.899 -18.168   3.721  0.00  0.00    +0.024 A 
ATOM     19  C   LIG    1       23.211 -18.495   4.072  0.00  0.00    +0.030 A 
ATOM     20  C   LIG    1       23.482 -19.762   4.594  0.00  0.00    +0.109 A 
ATOM     21  C   LIG    1       22.457 -20.694   4.770  0.00  0.00    +0.030 A 
ATOM     22  C   LIG    1       21.153 -20.352   4.409  0.00  0.00    +0.024 A 
BRANCH  17  23
ATOM     23  N   LIG    1       19.578 -18.799   3.422  0.00  0.00    -0.358 N 
ATOM     24  H   LIG    1       19.280 -19.415   2.669  0.00  0.00    +0.142 HD
ATOM     25  H   LIG    1       19.419 -17.823   3.190  0.00  0.00    +0.142 HD
ENDBRANCH  17  23
ENDBRANCH  14  20
ENDBRANCH   1  14
TORSDOF 5
ENDMDL
