MODEL 1
REMARK VINA RESULT:      -6.8      0.000      0.000
REMARK  Name = *****
REMARK                            x       y       z     vdW  Elec       q    Type
REMARK                         _______ _______ _______ _____ _____    ______ ____
ROOT
ATOM      1  N   LIG    1       24.875 -31.137  11.232  0.00  0.00    -0.300 N 
ATOM      2  H   LIG    1       24.637 -32.127  11.234  0.00  0.00    +0.150 HD
ATOM      3  C   LIG    1       25.454 -30.710  12.409  0.00  0.00    +0.239 C 
ATOM      4  O   LIG    1       25.632 -31.539  13.301  0.00  0.00    -0.273 OA
ENDROOT
BRANCH   1  10
ATOM      5  C   LIG    1       25.364 -33.822   7.632  0.00  0.00    +0.025 C 
ATOM      6  C   LIG    1       26.000 -32.468   7.272  0.00  0.00    +0.042 C 
ATOM      7  CA  LIG    1       24.919 -31.448   6.813  0.00  0.00    +0.201 C 
ATOM      8  N   LIG    1       24.625 -30.557   7.947  0.00  0.00    -0.271 N 
ATOM      9  C   LIG    1       25.695 -30.333   8.930  0.00  0.00    +0.165 C 
ATOM     10  CA  LIG    1       24.609 -30.312  10.032  0.00  0.00    +0.190 C 
ATOM     11  C   LIG    1       23.712 -30.907   8.907  0.00  0.00    +0.240 C 
ATOM     12  O   LIG    1       22.685 -31.550   8.817  0.00  0.00    -0.273 OA
ATOM     13  S   LIG    1       26.765 -31.800   8.835  0.00  0.00    -0.127 S 
ATOM     14  C   LIG    1       27.150 -32.725   6.288  0.00  0.00    +0.025 C 
BRANCH   7  15
ATOM     15  C   LIG    1       25.298 -30.573   5.605  0.00  0.00    +0.327 C 
ATOM     16  O   LIG    1       25.687 -29.417   5.683  0.00  0.00    -0.249 OA
BRANCH  15  17
ATOM     17  OXT LIG    1       25.176 -31.198   4.406  0.00  0.00    -0.479 OA
ATOM     18  HXT LIG    1       26.037 -31.226   3.944  0.00  0.00    +0.295 HD
ENDBRANCH  15  17
ENDBRANCH   7  15
ENDBRANCH   1  10
BRANCH   3  19
ATOM     19  CA  LIG    1       25.929 -29.235  12.475  0.00  0.00    +0.191 C 
BRANCH  19  20
ATOM     20  N   LIG    1       27.208 -29.199  13.195  0.00  0.00    -0.284 N 
ATOM     21  H   LIG    1       27.210 -28.755  14.113  0.00  0.00    +0.151 HD
ATOM     22  C   LIG    1       28.426 -29.408  12.595  0.00  0.00    +0.311 C 
ATOM     23  N   LIG    1       29.513 -29.362  13.451  0.00  0.00    -0.208 N 
ATOM     24  C   LIG    1       29.544 -28.860  14.760  0.00  0.00    +0.310 C 
ATOM     25  O   LIG    1       28.602 -28.446  15.415  0.00  0.00    -0.252 OA
ATOM     26  N   LIG    1       30.845 -28.955  15.234  0.00  0.00    -0.297 N 
ATOM     27  H   LIG    1       31.015 -28.803  16.220  0.00  0.00    +0.150 HD
ATOM     28  C   LIG    1       31.624 -29.791  14.367  0.00  0.00    +0.125 C 
ATOM     29  C   LIG    1       30.858 -29.747  13.051  0.00  0.00    +0.138 C 
ATOM     30  O   LIG    1       28.540 -29.690  11.405  0.00  0.00    -0.252 OA
ENDBRANCH  19  20
BRANCH  19  31
ATOM     31  C   LIG    1       24.899 -28.255  13.016  0.00  0.00    -0.018 A 
ATOM     32  C   LIG    1       23.528 -28.571  12.961  0.00  0.00    +0.006 A 
ATOM     33  C   LIG    1       22.563 -27.588  13.196  0.00  0.00    +0.000 A 
ATOM     34  C   LIG    1       22.950 -26.291  13.526  0.00  0.00    +0.000 A 
ATOM     35  C   LIG    1       24.299 -25.986  13.667  0.00  0.00    +0.000 A 
ATOM     36  C   LIG    1       25.263 -26.961  13.420  0.00  0.00    +0.006 A 
ENDBRANCH  19  31
ENDBRANCH   3  19
TORSDOF 6
ENDMDL
MODEL 2
REMARK VINA RESULT:      -6.4      2.855      8.034
REMARK  Name = *****
REMARK                            x       y       z     vdW  Elec       q    Type
REMARK                         _______ _______ _______ _____ _____    ______ ____
ROOT
ATOM      1  N   LIG    1       24.423 -29.714  10.027  0.00  0.00    -0.300 N 
ATOM      2  H   LIG    1       23.590 -29.849  10.595  0.00  0.00    +0.150 HD
ATOM      3  C   LIG    1       24.284 -30.165   8.730  0.00  0.00    +0.239 C 
ATOM      4  O   LIG    1       23.203 -30.652   8.400  0.00  0.00    -0.273 OA
ENDROOT
BRANCH   1  10
ATOM      5  C   LIG    1       25.695 -32.215  13.568  0.00  0.00    +0.025 C 
ATOM      6  C   LIG    1       25.853 -30.740  13.979  0.00  0.00    +0.042 C 
ATOM      7  CA  LIG    1       27.195 -30.155  13.455  0.00  0.00    +0.201 C 
ATOM      8  N   LIG    1       26.905 -29.371  12.243  0.00  0.00    -0.271 N 
ATOM      9  C   LIG    1       25.570 -28.768  12.127  0.00  0.00    +0.165 C 
ATOM     10  CA  LIG    1       25.622 -29.068  10.609  0.00  0.00    +0.190 C 
ATOM     11  C   LIG    1       26.827 -29.968  11.013  0.00  0.00    +0.240 C 
ATOM     12  O   LIG    1       27.433 -30.919  10.561  0.00  0.00    -0.273 OA
ATOM     13  S   LIG    1       24.475 -29.799  13.148  0.00  0.00    -0.127 S 
ATOM     14  C   LIG    1       25.613 -30.637  15.492  0.00  0.00    +0.025 C 
BRANCH   7  15
ATOM     15  C   LIG    1       27.956 -29.249  14.438  0.00  0.00    +0.327 C 
ATOM     16  O   LIG    1       27.705 -28.068  14.628  0.00  0.00    -0.249 OA
BRANCH  15  17
ATOM     17  OXT LIG    1       28.954 -29.876  15.112  0.00  0.00    -0.479 OA
ATOM     18  HXT LIG    1       28.833 -29.776  16.076  0.00  0.00    +0.295 HD
ENDBRANCH  15  17
ENDBRANCH   7  15
ENDBRANCH   1  10
BRANCH   3  19
ATOM     19  CA  LIG    1       25.472 -29.927   7.761  0.00  0.00    +0.191 C 
BRANCH  19  20
ATOM     20  N   LIG    1       25.218 -28.684   7.024  0.00  0.00    -0.284 N 
ATOM     21  H   LIG    1       24.755 -28.769   6.120  0.00  0.00    +0.151 HD
ATOM     22  C   LIG    1       25.844 -27.492   7.300  0.00  0.00    +0.311 C 
ATOM     23  N   LIG    1       25.445 -26.427   6.511  0.00  0.00    -0.208 N 
ATOM     24  C   LIG    1       24.717 -26.482   5.315  0.00  0.00    +0.310 C 
ATOM     25  O   LIG    1       24.228 -27.470   4.791  0.00  0.00    -0.252 OA
ATOM     26  N   LIG    1       24.585 -25.191   4.824  0.00  0.00    -0.297 N 
ATOM     27  H   LIG    1       23.937 -25.023   4.064  0.00  0.00    +0.150 HD
ATOM     28  C   LIG    1       24.958 -24.241   5.832  0.00  0.00    +0.125 C 
ATOM     29  C   LIG    1       25.842 -25.051   6.771  0.00  0.00    +0.138 C 
ATOM     30  O   LIG    1       26.640 -27.361   8.226  0.00  0.00    -0.252 OA
ENDBRANCH  19  20
BRANCH  19  31
ATOM     31  C   LIG    1       25.811 -31.108   6.865  0.00  0.00    -0.018 A 
ATOM     32  C   LIG    1       26.667 -32.124   7.331  0.00  0.00    +0.006 A 
ATOM     33  C   LIG    1       27.202 -33.063   6.444  0.00  0.00    +0.000 A 
ATOM     34  C   LIG    1       26.862 -33.025   5.093  0.00  0.00    +0.000 A 
ATOM     35  C   LIG    1       25.951 -32.080   4.635  0.00  0.00    +0.000 A 
ATOM     36  C   LIG    1       25.427 -31.135   5.515  0.00  0.00    +0.006 A 
ENDBRANCH  19  31
ENDBRANCH   3  19
TORSDOF 6
ENDMDL
MODEL 3
REMARK VINA RESULT:      -6.1      2.567      5.092
REMARK  Name = *****
REMARK                            x       y       z     vdW  Elec       q    Type
REMARK                         _______ _______ _______ _____ _____    ______ ____
ROOT
ATOM      1  N   LIG    1       25.682 -30.936  11.544  0.00  0.00    -0.300 N 
ATOM      2  H   LIG    1       26.287 -31.651  11.146  0.00  0.00    +0.150 HD
ATOM      3  C   LIG    1       25.546 -31.032  12.914  0.00  0.00    +0.239 C 
ATOM      4  O   LIG    1       26.158 -31.928  13.495  0.00  0.00    -0.273 OA
ENDROOT
BRANCH   1  10
ATOM      5  C   LIG    1       24.752 -32.948   7.607  0.00  0.00    +0.025 C 
ATOM      6  C   LIG    1       25.297 -31.547   7.278  0.00  0.00    +0.042 C 
ATOM      7  CA  LIG    1       24.181 -30.471   7.402  0.00  0.00    +0.201 C 
ATOM      8  N   LIG    1       24.346 -29.794   8.698  0.00  0.00    -0.271 N 
ATOM      9  C   LIG    1       25.700 -29.737   9.268  0.00  0.00    +0.165 C 
ATOM     10  CA  LIG    1       25.063 -29.916  10.668  0.00  0.00    +0.190 C 
ATOM     11  C   LIG    1       23.802 -30.312   9.844  0.00  0.00    +0.240 C 
ATOM     12  O   LIG    1       22.775 -30.937  10.013  0.00  0.00    -0.273 OA
ATOM     13  S   LIG    1       26.589 -31.156   8.564  0.00  0.00    -0.127 S 
ATOM     14  C   LIG    1       26.021 -31.620   5.927  0.00  0.00    +0.025 C 
BRANCH   7  15
ATOM     15  C   LIG    1       24.166 -29.396   6.301  0.00  0.00    +0.327 C 
ATOM     16  O   LIG    1       24.963 -28.472   6.225  0.00  0.00    -0.249 OA
BRANCH  15  17
ATOM     17  OXT LIG    1       23.181 -29.556   5.381  0.00  0.00    -0.479 OA
ATOM     18  HXT LIG    1       22.313 -29.319   5.762  0.00  0.00    +0.295 HD
ENDBRANCH  15  17
ENDBRANCH   7  15
ENDBRANCH   1  10
BRANCH   3  19
ATOM     19  CA  LIG    1       24.710 -29.936  13.625  0.00  0.00    +0.191 C 
BRANCH  19  20
ATOM     20  N   LIG    1       23.309 -30.096  13.221  0.00  0.00    -0.284 N 
ATOM     21  H   LIG    1       22.853 -29.287  12.800  0.00  0.00    +0.151 HD
ATOM     22  C   LIG    1       22.499 -31.113  13.665  0.00  0.00    +0.311 C 
ATOM     23  N   LIG    1       21.216 -31.107  13.144  0.00  0.00    -0.208 N 
ATOM     24  C   LIG    1       20.579 -30.059  12.465  0.00  0.00    +0.310 C 
ATOM     25  O   LIG    1       21.065 -28.989  12.134  0.00  0.00    -0.252 OA
ATOM     26  N   LIG    1       19.283 -30.455  12.167  0.00  0.00    -0.297 N 
ATOM     27  H   LIG    1       18.739 -29.893  11.525  0.00  0.00    +0.150 HD
ATOM     28  C   LIG    1       19.140 -31.867  12.375  0.00  0.00    +0.125 C 
ATOM     29  C   LIG    1       20.274 -32.200  13.336  0.00  0.00    +0.138 C 
ATOM     30  O   LIG    1       22.900 -32.004  14.409  0.00  0.00    -0.252 OA
ENDBRANCH  19  20
BRANCH  19  31
ATOM     31  C   LIG    1       25.236 -28.519  13.453  0.00  0.00    -0.018 A 
ATOM     32  C   LIG    1       26.613 -28.258  13.577  0.00  0.00    +0.006 A 
ATOM     33  C   LIG    1       27.079 -26.945  13.692  0.00  0.00    +0.000 A 
ATOM     34  C   LIG    1       26.185 -25.877  13.647  0.00  0.00    +0.000 A 
ATOM     35  C   LIG    1       24.831 -26.117  13.440  0.00  0.00    +0.000 A 
ATOM     36  C   LIG    1       24.363 -27.425  13.337  0.00  0.00    +0.006 A 
ENDBRANCH  19  31
ENDBRANCH   3  19
TORSDOF 6
ENDMDL
MODEL 4
REMARK VINA RESULT:      -6.1      9.451     11.839
REMARK  Name = *****
REMARK                            x       y       z     vdW  Elec       q    Type
REMARK                         _______ _______ _______ _____ _____    ______ ____
ROOT
ATOM      1  N   LIG    1       27.176 -20.211   5.159  0.00  0.00    -0.300 N 
ATOM      2  H   LIG    1       27.842 -19.718   4.569  0.00  0.00    +0.150 HD
ATOM      3  C   LIG    1       25.860 -19.963   4.828  0.00  0.00    +0.239 C 
ATOM      4  O   LIG    1       25.634 -19.212   3.879  0.00  0.00    -0.273 OA
ENDROOT
BRANCH   1  10
ATOM      5  C   LIG    1       29.789 -17.727   7.882  0.00  0.00    +0.025 C 
ATOM      6  C   LIG    1       30.479 -19.093   7.721  0.00  0.00    +0.042 C 
ATOM      7  CA  LIG    1       29.861 -20.147   8.683  0.00  0.00    +0.201 C 
ATOM      8  N   LIG    1       28.925 -20.976   7.906  0.00  0.00    -0.271 N 
ATOM      9  C   LIG    1       29.189 -21.135   6.470  0.00  0.00    +0.165 C 
ATOM     10  CA  LIG    1       27.659 -21.105   6.237  0.00  0.00    +0.190 C 
ATOM     11  C   LIG    1       27.628 -20.582   7.703  0.00  0.00    +0.240 C 
ATOM     12  O   LIG    1       26.876 -19.955   8.422  0.00  0.00    -0.273 OA
ATOM     13  S   LIG    1       30.140 -19.666   5.979  0.00  0.00    -0.127 S 
ATOM     14  C   LIG    1       31.995 -18.881   7.833  0.00  0.00    +0.025 C 
BRANCH   7  15
ATOM     15  C   LIG    1       30.864 -21.084   9.378  0.00  0.00    +0.327 C 
ATOM     16  O   LIG    1       32.068 -20.885   9.441  0.00  0.00    -0.249 OA
BRANCH  15  17
ATOM     17  OXT LIG    1       30.299 -22.180   9.946  0.00  0.00    -0.479 OA
ATOM     18  HXT LIG    1       30.872 -22.536  10.653  0.00  0.00    +0.295 HD
ENDBRANCH  15  17
ENDBRANCH   7  15
ENDBRANCH   1  10
BRANCH   3  19
ATOM     19  CA  LIG    1       24.769 -20.734   5.617  0.00  0.00    +0.191 C 
BRANCH  19  20
ATOM     20  N   LIG    1       25.017 -22.171   5.454  0.00  0.00    -0.284 N 
ATOM     21  H   LIG    1       24.815 -22.575   4.540  0.00  0.00    +0.151 HD
ATOM     22  C   LIG    1       25.172 -23.041   6.505  0.00  0.00    +0.311 C 
ATOM     23  N   LIG    1       25.429 -24.353   6.144  0.00  0.00    -0.208 N 
ATOM     24  C   LIG    1       25.268 -24.933   4.878  0.00  0.00    +0.310 C 
ATOM     25  O   LIG    1       24.952 -24.370   3.842  0.00  0.00    -0.252 OA
ATOM     26  N   LIG    1       25.584 -26.280   4.970  0.00  0.00    -0.297 N 
ATOM     27  H   LIG    1       25.695 -26.814   4.117  0.00  0.00    +0.150 HD
ATOM     28  C   LIG    1       26.242 -26.546   6.216  0.00  0.00    +0.125 C 
ATOM     29  C   LIG    1       25.813 -25.382   7.099  0.00  0.00    +0.138 C 
ATOM     30  O   LIG    1       25.161 -22.674   7.678  0.00  0.00    -0.252 OA
ENDBRANCH  19  20
BRANCH  19  31
ATOM     31  C   LIG    1       23.339 -20.323   5.297  0.00  0.00    -0.018 A 
ATOM     32  C   LIG    1       22.339 -21.302   5.155  0.00  0.00    +0.006 A 
ATOM     33  C   LIG    1       21.098 -20.974   4.602  0.00  0.00    +0.000 A 
ATOM     34  C   LIG    1       20.826 -19.662   4.220  0.00  0.00    +0.000 A 
ATOM     35  C   LIG    1       21.774 -18.668   4.434  0.00  0.00    +0.000 A 
ATOM     36  C   LIG    1       23.016 -18.995   4.974  0.00  0.00    +0.006 A 
ENDBRANCH  19  31
ENDBRANCH   3  19
TORSDOF 6
ENDMDL
MODEL 5
REMARK VINA RESULT:      -6.0      3.144      5.769
REMARK  Name = *****
REMARK                            x       y       z     vdW  Elec       q    Type
REMARK                         _______ _______ _______ _____ _____    ______ ____
ROOT
ATOM      1  N   LIG    1       24.799 -31.088  11.613  0.00  0.00    -0.300 N 
ATOM      2  H   LIG    1       25.612 -31.652  11.375  0.00  0.00    +0.150 HD
ATOM      3  C   LIG    1       24.312 -31.333  12.880  0.00  0.00    +0.239 C 
ATOM      4  O   LIG    1       24.897 -32.165  13.574  0.00  0.00    -0.273 OA
ENDROOT
BRANCH   1  10
ATOM      5  C   LIG    1       24.917 -33.049   7.544  0.00  0.00    +0.025 C 
ATOM      6  C   LIG    1       25.362 -31.588   7.352  0.00  0.00    +0.042 C 
ATOM      7  CA  LIG    1       24.134 -30.639   7.256  0.00  0.00    +0.201 C 
ATOM      8  N   LIG    1       23.956 -29.993   8.567  0.00  0.00    -0.271 N 
ATOM      9  C   LIG    1       25.151 -29.816   9.404  0.00  0.00    +0.165 C 
ATOM     10  CA  LIG    1       24.265 -30.108  10.640  0.00  0.00    +0.190 C 
ATOM     11  C   LIG    1       23.250 -30.604   9.569  0.00  0.00    +0.240 C 
ATOM     12  O   LIG    1       22.283 -31.338   9.514  0.00  0.00    -0.273 OA
ATOM     13  S   LIG    1       26.314 -31.110   8.882  0.00  0.00    -0.127 S 
ATOM     14  C   LIG    1       26.350 -31.540   6.179  0.00  0.00    +0.025 C 
BRANCH   7  15
ATOM     15  C   LIG    1       24.228 -29.534   6.189  0.00  0.00    +0.327 C 
ATOM     16  O   LIG    1       25.163 -28.755   6.080  0.00  0.00    -0.249 OA
BRANCH  15  17
ATOM     17  OXT LIG    1       23.169 -29.489   5.341  0.00  0.00    -0.479 OA
ATOM     18  HXT LIG    1       22.561 -30.235   5.510  0.00  0.00    +0.295 HD
ENDBRANCH  15  17
ENDBRANCH   7  15
ENDBRANCH   1  10
BRANCH   3  19
ATOM     19  CA  LIG    1       23.124 -30.464  13.368  0.00  0.00    +0.191 C 
BRANCH  19  20
ATOM     20  N   LIG    1       21.915 -30.908  12.665  0.00  0.00    -0.284 N 
ATOM     21  H   LIG    1       21.465 -30.233  12.047  0.00  0.00    +0.151 HD
ATOM     22  C   LIG    1       21.182 -32.011  13.030  0.00  0.00    +0.311 C 
ATOM     23  N   LIG    1       20.091 -32.281  12.221  0.00  0.00    -0.208 N 
ATOM     24  C   LIG    1       19.499 -31.427  11.280  0.00  0.00    +0.310 C 
ATOM     25  O   LIG    1       19.885 -30.321  10.940  0.00  0.00    -0.252 OA
ATOM     26  N   LIG    1       18.399 -32.073  10.735  0.00  0.00    -0.297 N 
ATOM     27  H   LIG    1       17.959 -31.677   9.914  0.00  0.00    +0.150 HD
ATOM     28  C   LIG    1       18.424 -33.464  11.083  0.00  0.00    +0.125 C 
ATOM     29  C   LIG    1       19.308 -33.504  12.322  0.00  0.00    +0.138 C 
ATOM     30  O   LIG    1       21.509 -32.748  13.957  0.00  0.00    -0.252 OA
ENDBRANCH  19  20
BRANCH  19  31
ATOM     31  C   LIG    1       23.356 -28.963  13.292  0.00  0.00    -0.018 A 
ATOM     32  C   LIG    1       24.580 -28.416  13.722  0.00  0.00    +0.006 A 
ATOM     33  C   LIG    1       24.713 -27.038  13.914  0.00  0.00    +0.000 A 
ATOM     34  C   LIG    1       23.644 -26.186  13.645  0.00  0.00    +0.000 A 
ATOM     35  C   LIG    1       22.457 -26.704  13.138  0.00  0.00    +0.000 A 
ATOM     36  C   LIG    1       22.318 -28.079  12.958  0.00  0.00    +0.006 A 
ENDBRANCH  19  31
ENDBRANCH   3  19
TORSDOF 6
ENDMDL
MODEL 6
REMARK VINA RESULT:      -6.0      3.943      6.984
REMARK  Name = *****
REMARK                            x       y       z     vdW  Elec       q    Type
REMARK                         _______ _______ _______ _____ _____    ______ ____
ROOT
ATOM      1  N   LIG    1       22.760 -31.693  12.799  0.00  0.00    -0.300 N 
ATOM      2  H   LIG    1       22.689 -32.469  13.453  0.00  0.00    +0.150 HD
ATOM      3  C   LIG    1       23.979 -31.049  12.841  0.00  0.00    +0.239 C 
ATOM      4  O   LIG    1       24.831 -31.471  13.624  0.00  0.00    -0.273 OA
ENDROOT
BRANCH   1  10
ATOM      5  C   LIG    1       19.164 -30.980  15.439  0.00  0.00    +0.025 C 
ATOM      6  C   LIG    1       18.675 -31.782  14.219  0.00  0.00    +0.042 C 
ATOM      7  CA  LIG    1       18.417 -30.846  13.004  0.00  0.00    +0.201 C 
ATOM      8  N   LIG    1       19.576 -30.945  12.102  0.00  0.00    -0.271 N 
ATOM      9  C   LIG    1       20.335 -32.203  12.106  0.00  0.00    +0.165 C 
ATOM     10  CA  LIG    1       21.623 -31.367  11.909  0.00  0.00    +0.190 C 
ATOM     11  C   LIG    1       20.695 -30.179  12.297  0.00  0.00    +0.240 C 
ATOM     12  O   LIG    1       20.808 -29.051  12.734  0.00  0.00    -0.273 OA
ATOM     13  S   LIG    1       20.057 -32.939  13.745  0.00  0.00    -0.127 S 
ATOM     14  C   LIG    1       17.494 -32.656  14.663  0.00  0.00    +0.025 C 
BRANCH   7  15
ATOM     15  C   LIG    1       17.149 -31.149  12.186  0.00  0.00    +0.327 C 
ATOM     16  O   LIG    1       17.049 -32.060  11.377  0.00  0.00    -0.249 OA
BRANCH  15  17
ATOM     17  OXT LIG    1       16.110 -30.313  12.441  0.00  0.00    -0.479 OA
ATOM     18  HXT LIG    1       15.602 -30.623  13.217  0.00  0.00    +0.295 HD
ENDBRANCH  15  17
ENDBRANCH   7  15
ENDBRANCH   1  10
BRANCH   3  19
ATOM     19  CA  LIG    1       24.216 -29.903  11.822  0.00  0.00    +0.191 C 
BRANCH  19  20
ATOM     20  N   LIG    1       24.930 -30.460  10.668  0.00  0.00    -0.284 N 
ATOM     21  H   LIG    1       25.932 -30.617  10.775  0.00  0.00    +0.151 HD
ATOM     22  C   LIG    1       24.427 -30.463   9.389  0.00  0.00    +0.311 C 
ATOM     23  N   LIG    1       25.241 -31.062   8.442  0.00  0.00    -0.208 N 
ATOM     24  C   LIG    1       26.596 -31.395   8.576  0.00  0.00    +0.310 C 
ATOM     25  O   LIG    1       27.287 -31.296   9.577  0.00  0.00    -0.252 OA
ATOM     26  N   LIG    1       27.038 -31.923   7.372  0.00  0.00    -0.297 N 
ATOM     27  H   LIG    1       27.940 -32.380   7.342  0.00  0.00    +0.150 HD
ATOM     28  C   LIG    1       25.918 -32.224   6.527  0.00  0.00    +0.125 C 
ATOM     29  C   LIG    1       24.809 -31.338   7.081  0.00  0.00    +0.138 C 
ATOM     30  O   LIG    1       23.308 -30.036   9.116  0.00  0.00    -0.252 OA
ENDBRANCH  19  20
BRANCH  19  31
ATOM     31  C   LIG    1       24.871 -28.658  12.401  0.00  0.00    -0.018 A 
ATOM     32  C   LIG    1       24.127 -27.783  13.214  0.00  0.00    +0.006 A 
ATOM     33  C   LIG    1       24.620 -26.513  13.527  0.00  0.00    +0.000 A 
ATOM     34  C   LIG    1       25.874 -26.116  13.068  0.00  0.00    +0.000 A 
ATOM     35  C   LIG    1       26.656 -27.002  12.336  0.00  0.00    +0.000 A 
ATOM     36  C   LIG    1       26.161 -28.263  12.012  0.00  0.00    +0.006 A 
ENDBRANCH  19  31
ENDBRANCH   3  19
TORSDOF 6
ENDMDL
MODEL 7
REMARK VINA RESULT:      -5.8      9.678     12.449
REMARK  Name = *****
REMARK                            x       y       z     vdW  Elec       q    Type
REMARK                         _______ _______ _______ _____ _____    ______ ____
ROOT
ATOM      1  N   LIG    1       27.178 -21.689   8.571  0.00  0.00    -0.300 N 
ATOM      2  H   LIG    1       27.186 -21.426   9.554  0.00  0.00    +0.150 HD
ATOM      3  C   LIG    1       25.933 -22.069   8.114  0.00  0.00    +0.239 C 
ATOM      4  O   LIG    1       24.991 -22.039   8.907  0.00  0.00    -0.273 OA
ENDROOT
BRANCH   1  10
ATOM      5  C   LIG    1       29.903 -18.717  10.610  0.00  0.00    +0.025 C 
ATOM      6  C   LIG    1       30.030 -18.478   9.095  0.00  0.00    +0.042 C 
ATOM      7  CA  LIG    1       31.021 -19.488   8.451  0.00  0.00    +0.201 C 
ATOM      8  N   LIG    1       30.231 -20.554   7.812  0.00  0.00    -0.271 N 
ATOM      9  C   LIG    1       28.884 -20.209   7.338  0.00  0.00    +0.165 C 
ATOM     10  CA  LIG    1       28.424 -21.621   7.775  0.00  0.00    +0.190 C 
ATOM     11  C   LIG    1       29.787 -21.634   8.528  0.00  0.00    +0.240 C 
ATOM     12  O   LIG    1       30.295 -22.221   9.463  0.00  0.00    -0.273 OA
ATOM     13  S   LIG    1       28.349 -18.802   8.356  0.00  0.00    -0.127 S 
ATOM     14  C   LIG    1       30.336 -16.991   8.870  0.00  0.00    +0.025 C 
BRANCH   7  15
ATOM     15  C   LIG    1       31.976 -18.905   7.396  0.00  0.00    +0.327 C 
ATOM     16  O   LIG    1       32.032 -19.276   6.232  0.00  0.00    -0.249 OA
BRANCH  15  17
ATOM     17  OXT LIG    1       32.773 -17.907   7.857  0.00  0.00    -0.479 OA
ATOM     18  HXT LIG    1       32.315 -17.396   8.553  0.00  0.00    +0.295 HD
ENDBRANCH  15  17
ENDBRANCH   7  15
ENDBRANCH   1  10
BRANCH   3  19
ATOM     19  CA  LIG    1       25.799 -22.409   6.607  0.00  0.00    +0.191 C 
BRANCH  19  20
ATOM     20  N   LIG    1       24.799 -21.508   6.023  0.00  0.00    -0.284 N 
ATOM     21  H   LIG    1       23.825 -21.801   6.077  0.00  0.00    +0.151 HD
ATOM     22  C   LIG    1       25.105 -20.501   5.139  0.00  0.00    +0.311 C 
ATOM     23  N   LIG    1       24.024 -19.741   4.724  0.00  0.00    -0.208 N 
ATOM     24  C   LIG    1       22.664 -20.048   4.869  0.00  0.00    +0.310 C 
ATOM     25  O   LIG    1       22.179 -21.000   5.459  0.00  0.00    -0.252 OA
ATOM     26  N   LIG    1       21.922 -19.044   4.263  0.00  0.00    -0.297 N 
ATOM     27  H   LIG    1       20.924 -19.011   4.426  0.00  0.00    +0.150 HD
ATOM     28  C   LIG    1       22.762 -17.917   3.977  0.00  0.00    +0.125 C 
ATOM     29  C   LIG    1       24.162 -18.517   3.949  0.00  0.00    +0.138 C 
ATOM     30  O   LIG    1       26.257 -20.243   4.800  0.00  0.00    -0.252 OA
ENDBRANCH  19  20
BRANCH  19  31
ATOM     31  C   LIG    1       25.547 -23.878   6.302  0.00  0.00    -0.018 A 
ATOM     32  C   LIG    1       25.957 -24.868   7.215  0.00  0.00    +0.006 A 
ATOM     33  C   LIG    1       25.982 -26.213   6.839  0.00  0.00    +0.000 A 
ATOM     34  C   LIG    1       25.564 -26.593   5.565  0.00  0.00    +0.000 A 
ATOM     35  C   LIG    1       25.076 -25.635   4.683  0.00  0.00    +0.000 A 
ATOM     36  C   LIG    1       25.062 -24.292   5.051  0.00  0.00    +0.006 A 
ENDBRANCH  19  31
ENDBRANCH   3  19
TORSDOF 6
ENDMDL
MODEL 8
REMARK VINA RESULT:      -5.6      2.623      8.038
REMARK  Name = *****
REMARK                            x       y       z     vdW  Elec       q    Type
REMARK                         _______ _______ _______ _____ _____    ______ ____
ROOT
ATOM      1  N   LIG    1       25.459 -29.632   9.157  0.00  0.00    -0.300 N 
ATOM      2  H   LIG    1       25.584 -28.627   9.058  0.00  0.00    +0.150 HD
ATOM      3  C   LIG    1       24.443 -30.138   8.372  0.00  0.00    +0.239 C 
ATOM      4  O   LIG    1       23.826 -29.357   7.648  0.00  0.00    -0.273 OA
ENDROOT
BRANCH   1  10
ATOM      5  C   LIG    1       25.062 -27.807  13.270  0.00  0.00    +0.025 C 
ATOM      6  C   LIG    1       26.552 -28.138  13.067  0.00  0.00    +0.042 C 
ATOM      7  CA  LIG    1       26.836 -29.637  13.367  0.00  0.00    +0.201 C 
ATOM      8  N   LIG    1       26.913 -30.350  12.082  0.00  0.00    -0.271 N 
ATOM      9  C   LIG    1       27.346 -29.584  10.905  0.00  0.00    +0.165 C 
ATOM     10  CA  LIG    1       26.338 -30.404  10.063  0.00  0.00    +0.190 C 
ATOM     11  C   LIG    1       25.785 -30.816  11.460  0.00  0.00    +0.240 C 
ATOM     12  O   LIG    1       24.751 -31.249  11.928  0.00  0.00    -0.273 OA
ATOM     13  S   LIG    1       26.925 -27.852  11.263  0.00  0.00    -0.127 S 
ATOM     14  C   LIG    1       27.381 -27.118  13.860  0.00  0.00    +0.025 C 
BRANCH   7  15
ATOM     15  C   LIG    1       28.128 -29.926  14.151  0.00  0.00    +0.327 C 
ATOM     16  O   LIG    1       29.206 -30.188  13.637  0.00  0.00    -0.249 OA
BRANCH  15  17
ATOM     17  OXT LIG    1       27.987 -29.858  15.500  0.00  0.00    -0.479 OA
ATOM     18  HXT LIG    1       27.114 -30.203  15.772  0.00  0.00    +0.295 HD
ENDBRANCH  15  17
ENDBRANCH   7  15
ENDBRANCH   1  10
BRANCH   3  19
ATOM     19  CA  LIG    1       24.227 -31.674   8.389  0.00  0.00    +0.191 C 
BRANCH  19  20
ATOM     20  N   LIG    1       24.296 -32.160   7.006  0.00  0.00    -0.284 N 
ATOM     21  H   LIG    1       23.466 -32.620   6.635  0.00  0.00    +0.151 HD
ATOM     22  C   LIG    1       25.473 -32.338   6.318  0.00  0.00    +0.311 C 
ATOM     23  N   LIG    1       25.325 -32.776   5.013  0.00  0.00    -0.208 N 
ATOM     24  C   LIG    1       24.175 -33.318   4.424  0.00  0.00    +0.310 C 
ATOM     25  O   LIG    1       23.068 -33.427   4.926  0.00  0.00    -0.252 OA
ATOM     26  N   LIG    1       24.480 -33.677   3.119  0.00  0.00    -0.297 N 
ATOM     27  H   LIG    1       23.723 -33.919   2.491  0.00  0.00    +0.150 HD
ATOM     28  C   LIG    1       25.738 -33.106   2.734  0.00  0.00    +0.125 C 
ATOM     29  C   LIG    1       26.427 -32.838   4.065  0.00  0.00    +0.138 C 
ATOM     30  O   LIG    1       26.569 -32.057   6.796  0.00  0.00    -0.252 OA
ENDBRANCH  19  20
BRANCH  19  31
ATOM     31  C   LIG    1       22.985 -32.137   9.136  0.00  0.00    -0.018 A 
ATOM     32  C   LIG    1       22.466 -33.425   8.910  0.00  0.00    +0.006 A 
ATOM     33  C   LIG    1       21.192 -33.767   9.371  0.00  0.00    +0.000 A 
ATOM     34  C   LIG    1       20.437 -32.845  10.094  0.00  0.00    +0.000 A 
ATOM     35  C   LIG    1       20.973 -31.599  10.398  0.00  0.00    +0.000 A 
ATOM     36  C   LIG    1       22.238 -31.251   9.928  0.00  0.00    +0.006 A 
ENDBRANCH  19  31
ENDBRANCH   3  19
TORSDOF 6
ENDMDL
MODEL 9
REMARK VINA RESULT:      -5.5      3.486      7.541
REMARK  Name = *****
REMARK                            x       y       z     vdW  Elec       q    Type
REMARK                         _______ _______ _______ _____ _____    ______ ____
ROOT
ATOM      1  N   LIG    1       22.823 -30.992  11.414  0.00  0.00    -0.300 N 
ATOM      2  H   LIG    1       22.230 -31.707  11.831  0.00  0.00    +0.150 HD
ATOM      3  C   LIG    1       23.916 -31.505  10.748  0.00  0.00    +0.239 C 
ATOM      4  O   LIG    1       24.051 -32.728  10.712  0.00  0.00    -0.273 OA
ENDROOT
BRANCH   1  10
ATOM      5  C   LIG    1       20.973 -30.444  15.499  0.00  0.00    +0.025 C 
ATOM      6  C   LIG    1       20.145 -29.599  14.514  0.00  0.00    +0.042 C 
ATOM      7  CA  LIG    1       20.828 -28.228  14.244  0.00  0.00    +0.201 C 
ATOM      8  N   LIG    1       21.532 -28.318  12.954  0.00  0.00    -0.271 N 
ATOM      9  C   LIG    1       21.002 -29.257  11.955  0.00  0.00    +0.165 C 
ATOM     10  CA  LIG    1       22.462 -29.562  11.541  0.00  0.00    +0.190 C 
ATOM     11  C   LIG    1       22.801 -28.828  12.872  0.00  0.00    +0.240 C 
ATOM     12  O   LIG    1       23.723 -28.770  13.661  0.00  0.00    -0.273 OA
ATOM     13  S   LIG    1       20.115 -30.531  12.900  0.00  0.00    -0.127 S 
ATOM     14  C   LIG    1       18.699 -29.547  15.026  0.00  0.00    +0.025 C 
BRANCH   7  15
ATOM     15  C   LIG    1       19.885 -27.013  14.189  0.00  0.00    +0.327 C 
ATOM     16  O   LIG    1       19.507 -26.386  15.167  0.00  0.00    -0.249 OA
BRANCH  15  17
ATOM     17  OXT LIG    1       19.497 -26.668  12.935  0.00  0.00    -0.479 OA
ATOM     18  HXT LIG    1       18.959 -27.378  12.534  0.00  0.00    +0.295 HD
ENDBRANCH  15  17
ENDBRANCH   7  15
ENDBRANCH   1  10
BRANCH   3  19
ATOM     19  CA  LIG    1       24.837 -30.500  10.007  0.00  0.00    +0.191 C 
BRANCH  19  20
ATOM     20  N   LIG    1       25.406 -31.179   8.837  0.00  0.00    -0.284 N 
ATOM     21  H   LIG    1       26.319 -31.617   8.956  0.00  0.00    +0.151 HD
ATOM     22  C   LIG    1       24.968 -30.977   7.551  0.00  0.00    +0.311 C 
ATOM     23  N   LIG    1       25.614 -31.734   6.589  0.00  0.00    -0.208 N 
ATOM     24  C   LIG    1       26.815 -32.443   6.730  0.00  0.00    +0.310 C 
ATOM     25  O   LIG    1       27.470 -32.591   7.749  0.00  0.00    -0.252 OA
ATOM     26  N   LIG    1       27.133 -33.014   5.507  0.00  0.00    -0.297 N 
ATOM     27  H   LIG    1       27.871 -33.706   5.470  0.00  0.00    +0.150 HD
ATOM     28  C   LIG    1       26.004 -32.945   4.625  0.00  0.00    +0.125 C 
ATOM     29  C   LIG    1       25.170 -31.811   5.205  0.00  0.00    +0.138 C 
ATOM     30  O   LIG    1       24.024 -30.239   7.280  0.00  0.00    -0.252 OA
ENDBRANCH  19  20
BRANCH  19  31
ATOM     31  C   LIG    1       25.878 -29.821  10.884  0.00  0.00    -0.018 A 
ATOM     32  C   LIG    1       26.314 -30.441  12.070  0.00  0.00    +0.006 A 
ATOM     33  C   LIG    1       27.053 -29.725  13.015  0.00  0.00    +0.000 A 
ATOM     34  C   LIG    1       27.399 -28.397  12.774  0.00  0.00    +0.000 A 
ATOM     35  C   LIG    1       27.048 -27.797  11.569  0.00  0.00    +0.000 A 
ATOM     36  C   LIG    1       26.300 -28.506  10.632  0.00  0.00    +0.006 A 
ENDBRANCH  19  31
ENDBRANCH   3  19
TORSDOF 6
ENDMDL
