MODEL 1
REMARK VINA RESULT:      -8.5      0.000      0.000
REMARK  Name = *****
REMARK                            x       y       z     vdW  Elec       q    Type
REMARK                         _______ _______ _______ _____ _____    ______ ____
ROOT
ATOM      1  C   LIG    1       24.562 -22.489   5.665  0.00  0.00    +0.132 A 
ATOM      2  C   LIG    1       24.921 -21.111   5.412  0.00  0.00    +0.002 A 
ATOM      3  C   LIG    1       26.180 -20.676   5.915  0.00  0.00    +0.034 A 
ATOM      4  C   LIG    1       27.104 -21.537   6.541  0.00  0.00    +0.052 A 
ATOM      5  C   LIG    1       26.737 -22.890   6.626  0.00  0.00    +0.038 A 
ATOM      6  C   LIG    1       25.494 -23.427   6.219  0.00  0.00    +0.026 A 
ENDROOT
BRANCH   6   7
ATOM      7  C   LIG    1       25.292 -24.928   6.415  0.00  0.00    -0.014 A 
ATOM      8  C   LIG    1       25.841 -25.653   7.492  0.00  0.00    +0.017 A 
ATOM      9  C   LIG    1       25.755 -27.069   7.605  0.00  0.00    -0.017 A 
ATOM     10  C   LIG    1       24.963 -27.796   6.695  0.00  0.00    -0.016 A 
ATOM     11  C   LIG    1       24.833 -29.198   6.836  0.00  0.00    +0.033 A 
ATOM     12  C   LIG    1       25.501 -29.875   7.856  0.00  0.00    +0.048 A 
ATOM     13  C   LIG    1       26.349 -29.175   8.709  0.00  0.00    +0.025 A 
ATOM     14  C   LIG    1       24.335 -27.090   5.664  0.00  0.00    +0.009 A 
ATOM     15  C   LIG    1       26.464 -27.783   8.590  0.00  0.00    +0.010 A 
ATOM     16  C   LIG    1       24.532 -25.703   5.509  0.00  0.00    +0.009 A 
BRANCH  12  17
ATOM     17  N   LIG    1       25.350 -31.300   7.995  0.00  0.00    -0.221 N 
ATOM     18  H   LIG    1       25.688 -31.785   7.162  0.00  0.00    +0.173 HD
BRANCH  17  19
ATOM     19  S   LIG    1       23.756 -31.834   8.281  0.00  0.00    +0.040 S 
ATOM     20  O   LIG    1       23.247 -32.277   6.989  0.00  0.00    -0.155 OA
ATOM     21  O   LIG    1       23.052 -30.888   9.096  0.00  0.00    -0.155 OA
ATOM     22  C   LIG    1       24.074 -33.285   9.265  0.00  0.00    +0.218 C 
ENDBRANCH  17  19
ENDBRANCH  12  17
ENDBRANCH   6   7
BRANCH   4  23
ATOM     23  N   LIG    1       28.387 -21.057   7.068  0.00  0.00    -0.269 N 
ATOM     24  C   LIG    1       29.030 -19.930   6.488  0.00  0.00    +0.334 C 
ATOM     25  O   LIG    1       28.652 -19.246   5.538  0.00  0.00    -0.246 OA
ATOM     26  N   LIG    1       30.209 -19.535   7.075  0.00  0.00    -0.275 N 
ATOM     27  H   LIG    1       30.645 -18.721   6.668  0.00  0.00    +0.173 HD
ATOM     28  C   LIG    1       30.862 -20.140   8.097  0.00  0.00    +0.254 C 
ATOM     29  O   LIG    1       31.938 -19.753   8.534  0.00  0.00    -0.268 OA
ATOM     30  C   LIG    1       30.191 -21.319   8.645  0.00  0.00    +0.088 C 
ATOM     31  C   LIG    1       29.019 -21.704   8.131  0.00  0.00    +0.101 C 
ENDBRANCH   4  23
BRANCH   2  32
ATOM     32  C   LIG    1       24.079 -20.050   4.599  0.00  0.00    -0.009 C 
ATOM     33  C   LIG    1       24.917 -18.806   4.195  0.00  0.00    +0.016 C 
ATOM     34  C   LIG    1       22.847 -19.493   5.342  0.00  0.00    +0.016 C 
ATOM     35  C   LIG    1       23.565 -20.641   3.248  0.00  0.00    +0.016 C 
ENDBRANCH   2  32
BRANCH   1  37
ATOM     36  C   LIG    1       22.323 -22.956   6.353  0.00  0.00    +0.277 C 
ATOM     37  O   LIG    1       23.294 -22.877   5.303  0.00  0.00    -0.494 OA
ENDBRANCH   1  37
TORSDOF 6
ENDMDL
MODEL 2
REMARK VINA RESULT:      -8.5      1.391      1.662
REMARK  Name = *****
REMARK                            x       y       z     vdW  Elec       q    Type
REMARK                         _______ _______ _______ _____ _____    ______ ____
ROOT
ATOM      1  C   LIG    1       24.677 -21.712   5.127  0.00  0.00    +0.132 A 
ATOM      2  C   LIG    1       25.129 -20.371   4.834  0.00  0.00    +0.002 A 
ATOM      3  C   LIG    1       26.374 -19.977   5.404  0.00  0.00    +0.034 A 
ATOM      4  C   LIG    1       27.203 -20.852   6.134  0.00  0.00    +0.052 A 
ATOM      5  C   LIG    1       26.755 -22.178   6.259  0.00  0.00    +0.038 A 
ATOM      6  C   LIG    1       25.514 -22.668   5.791  0.00  0.00    +0.026 A 
ENDROOT
BRANCH   6   7
ATOM      7  C   LIG    1       25.215 -24.145   6.045  0.00  0.00    -0.014 A 
ATOM      8  C   LIG    1       25.842 -24.903   7.053  0.00  0.00    +0.017 A 
ATOM      9  C   LIG    1       25.652 -26.306   7.207  0.00  0.00    -0.017 A 
ATOM     10  C   LIG    1       24.685 -26.971   6.428  0.00  0.00    -0.016 A 
ATOM     11  C   LIG    1       24.458 -28.354   6.615  0.00  0.00    +0.033 A 
ATOM     12  C   LIG    1       25.199 -29.076   7.550  0.00  0.00    +0.048 A 
ATOM     13  C   LIG    1       26.211 -28.444   8.266  0.00  0.00    +0.025 A 
ATOM     14  C   LIG    1       23.986 -26.223   5.475  0.00  0.00    +0.009 A 
ATOM     15  C   LIG    1       26.425 -27.069   8.103  0.00  0.00    +0.010 A 
ATOM     16  C   LIG    1       24.276 -24.860   5.266  0.00  0.00    +0.009 A 
BRANCH  12  17
ATOM     17  N   LIG    1       24.948 -30.482   7.739  0.00  0.00    -0.221 N 
ATOM     18  H   LIG    1       25.712 -30.921   8.256  0.00  0.00    +0.173 HD
BRANCH  17  19
ATOM     19  S   LIG    1       24.725 -31.376   6.305  0.00  0.00    +0.040 S 
ATOM     20  O   LIG    1       25.828 -31.004   5.428  0.00  0.00    -0.155 OA
ATOM     21  O   LIG    1       23.357 -31.307   5.882  0.00  0.00    -0.155 OA
ATOM     22  C   LIG    1       25.038 -33.025   6.901  0.00  0.00    +0.218 C 
ENDBRANCH  17  19
ENDBRANCH  12  17
ENDBRANCH   6   7
BRANCH   4  23
ATOM     23  N   LIG    1       28.472 -20.414   6.727  0.00  0.00    -0.269 N 
ATOM     24  C   LIG    1       28.890 -20.915   7.990  0.00  0.00    +0.334 C 
ATOM     25  O   LIG    1       28.307 -21.715   8.721  0.00  0.00    -0.246 OA
ATOM     26  N   LIG    1       30.110 -20.473   8.445  0.00  0.00    -0.275 N 
ATOM     27  H   LIG    1       30.405 -20.852   9.331  0.00  0.00    +0.173 HD
ATOM     28  C   LIG    1       30.925 -19.561   7.859  0.00  0.00    +0.254 C 
ATOM     29  O   LIG    1       31.979 -19.182   8.353  0.00  0.00    -0.268 OA
ATOM     30  C   LIG    1       30.446 -19.039   6.579  0.00  0.00    +0.088 C 
ATOM     31  C   LIG    1       29.287 -19.481   6.083  0.00  0.00    +0.101 C 
ENDBRANCH   4  23
BRANCH   2  32
ATOM     32  C   LIG    1       24.406 -19.311   3.914  0.00  0.00    -0.009 C 
ATOM     33  C   LIG    1       25.326 -18.115   3.544  0.00  0.00    +0.016 C 
ATOM     34  C   LIG    1       23.136 -18.681   4.523  0.00  0.00    +0.016 C 
ATOM     35  C   LIG    1       23.990 -19.932   2.542  0.00  0.00    +0.016 C 
ENDBRANCH   2  32
BRANCH   1  37
ATOM     36  C   LIG    1       22.339 -21.811   5.608  0.00  0.00    +0.277 C 
ATOM     37  O   LIG    1       23.416 -22.051   4.695  0.00  0.00    -0.494 OA
ENDBRANCH   1  37
TORSDOF 6
ENDMDL
MODEL 3
REMARK VINA RESULT:      -8.3      3.622      9.676
REMARK  Name = *****
REMARK                            x       y       z     vdW  Elec       q    Type
REMARK                         _______ _______ _______ _____ _____    ______ ____
ROOT
ATOM      1  C   LIG    1       25.238 -30.347   7.296  0.00  0.00    +0.132 A 
ATOM      2  C   LIG    1       25.377 -31.497   8.160  0.00  0.00    +0.002 A 
ATOM      3  C   LIG    1       25.987 -31.275   9.428  0.00  0.00    +0.034 A 
ATOM      4  C   LIG    1       26.358 -29.999   9.896  0.00  0.00    +0.052 A 
ATOM      5  C   LIG    1       26.065 -28.915   9.052  0.00  0.00    +0.038 A 
ATOM      6  C   LIG    1       25.519 -29.017   7.751  0.00  0.00    +0.026 A 
ENDROOT
BRANCH   6   7
ATOM      7  C   LIG    1       25.293 -27.710   6.993  0.00  0.00    -0.014 A 
ATOM      8  C   LIG    1       25.884 -26.485   7.361  0.00  0.00    +0.017 A 
ATOM      9  C   LIG    1       25.576 -25.247   6.728  0.00  0.00    -0.017 A 
ATOM     10  C   LIG    1       24.760 -25.234   5.580  0.00  0.00    -0.016 A 
ATOM     11  C   LIG    1       24.494 -24.012   4.918  0.00  0.00    +0.033 A 
ATOM     12  C   LIG    1       25.014 -22.812   5.403  0.00  0.00    +0.048 A 
ATOM     13  C   LIG    1       25.753 -22.808   6.583  0.00  0.00    +0.025 A 
ATOM     14  C   LIG    1       24.227 -26.449   5.140  0.00  0.00    +0.009 A 
ATOM     15  C   LIG    1       26.040 -24.017   7.230  0.00  0.00    +0.010 A 
ATOM     16  C   LIG    1       24.457 -27.643   5.854  0.00  0.00    +0.009 A 
BRANCH  12  17
ATOM     17  N   LIG    1       24.745 -21.578   4.713  0.00  0.00    -0.221 N 
ATOM     18  H   LIG    1       25.542 -20.943   4.780  0.00  0.00    +0.173 HD
BRANCH  17  19
ATOM     19  S   LIG    1       23.372 -20.727   5.258  0.00  0.00    +0.040 S 
ATOM     20  O   LIG    1       23.674 -20.320   6.625  0.00  0.00    -0.155 OA
ATOM     21  O   LIG    1       22.176 -21.443   4.921  0.00  0.00    -0.155 OA
ATOM     22  C   LIG    1       23.460 -19.278   4.227  0.00  0.00    +0.218 C 
ENDBRANCH  17  19
ENDBRANCH  12  17
ENDBRANCH   6   7
BRANCH   4  23
ATOM     23  N   LIG    1       27.004 -29.801  11.199  0.00  0.00    -0.269 N 
ATOM     24  C   LIG    1       26.227 -29.735  12.388  0.00  0.00    +0.334 C 
ATOM     25  O   LIG    1       25.005 -29.820  12.502  0.00  0.00    -0.246 OA
ATOM     26  N   LIG    1       26.927 -29.585  13.562  0.00  0.00    -0.275 N 
ATOM     27  H   LIG    1       26.366 -29.561  14.400  0.00  0.00    +0.173 HD
ATOM     28  C   LIG    1       28.265 -29.421  13.707  0.00  0.00    +0.254 C 
ATOM     29  O   LIG    1       28.809 -29.244  14.789  0.00  0.00    -0.268 OA
ATOM     30  C   LIG    1       29.029 -29.457  12.461  0.00  0.00    +0.088 C 
ATOM     31  C   LIG    1       28.388 -29.649  11.304  0.00  0.00    +0.101 C 
ENDBRANCH   4  23
BRANCH   2  32
ATOM     32  C   LIG    1       24.882 -32.967   7.861  0.00  0.00    -0.009 C 
ATOM     33  C   LIG    1       25.877 -33.762   6.970  0.00  0.00    +0.016 C 
ATOM     34  C   LIG    1       23.521 -33.060   7.142  0.00  0.00    +0.016 C 
ATOM     35  C   LIG    1       24.762 -33.809   9.171  0.00  0.00    +0.016 C 
ENDBRANCH   2  32
BRANCH   1  37
ATOM     36  C   LIG    1       25.761 -30.890   5.029  0.00  0.00    +0.277 C 
ATOM     37  O   LIG    1       24.776 -30.578   6.022  0.00  0.00    -0.494 OA
ENDBRANCH   1  37
TORSDOF 6
ENDMDL
MODEL 4
REMARK VINA RESULT:      -8.1      1.218      1.950
REMARK  Name = *****
REMARK                            x       y       z     vdW  Elec       q    Type
REMARK                         _______ _______ _______ _____ _____    ______ ____
ROOT
ATOM      1  C   LIG    1       24.567 -22.111   5.522  0.00  0.00    +0.132 A 
ATOM      2  C   LIG    1       24.763 -20.720   5.182  0.00  0.00    +0.002 A 
ATOM      3  C   LIG    1       26.001 -20.135   5.573  0.00  0.00    +0.034 A 
ATOM      4  C   LIG    1       27.049 -20.864   6.169  0.00  0.00    +0.052 A 
ATOM      5  C   LIG    1       26.831 -22.241   6.342  0.00  0.00    +0.038 A 
ATOM      6  C   LIG    1       25.625 -22.921   6.050  0.00  0.00    +0.026 A 
ENDROOT
BRANCH   6   7
ATOM      7  C   LIG    1       25.594 -24.423   6.328  0.00  0.00    -0.014 A 
ATOM      8  C   LIG    1       25.161 -25.379   5.388  0.00  0.00    +0.017 A 
ATOM      9  C   LIG    1       25.017 -26.762   5.690  0.00  0.00    -0.017 A 
ATOM     10  C   LIG    1       25.463 -27.257   6.932  0.00  0.00    -0.016 A 
ATOM     11  C   LIG    1       25.369 -28.639   7.215  0.00  0.00    +0.033 A 
ATOM     12  C   LIG    1       24.819 -29.520   6.285  0.00  0.00    +0.048 A 
ATOM     13  C   LIG    1       24.303 -29.028   5.089  0.00  0.00    +0.025 A 
ATOM     14  C   LIG    1       25.977 -26.341   7.855  0.00  0.00    +0.009 A 
ATOM     15  C   LIG    1       24.414 -27.663   4.792  0.00  0.00    +0.010 A 
ATOM     16  C   LIG    1       26.001 -24.960   7.571  0.00  0.00    +0.009 A 
BRANCH  12  17
ATOM     17  N   LIG    1       24.741 -30.927   6.581  0.00  0.00    -0.221 N 
ATOM     18  H   LIG    1       24.070 -31.392   5.967  0.00  0.00    +0.173 HD
BRANCH  17  19
ATOM     19  S   LIG    1       24.307 -31.305   8.186  0.00  0.00    +0.040 S 
ATOM     20  O   LIG    1       23.162 -30.459   8.498  0.00  0.00    -0.155 OA
ATOM     21  O   LIG    1       25.472 -31.352   9.020  0.00  0.00    -0.155 OA
ATOM     22  C   LIG    1       23.710 -32.970   7.975  0.00  0.00    +0.218 C 
ENDBRANCH  17  19
ENDBRANCH  12  17
ENDBRANCH   6   7
BRANCH   4  23
ATOM     23  N   LIG    1       28.307 -20.231   6.581  0.00  0.00    -0.269 N 
ATOM     24  C   LIG    1       28.959 -20.631   7.779  0.00  0.00    +0.334 C 
ATOM     25  O   LIG    1       28.603 -21.487   8.588  0.00  0.00    -0.246 OA
ATOM     26  N   LIG    1       30.151 -20.005   8.060  0.00  0.00    -0.275 N 
ATOM     27  H   LIG    1       30.615 -20.313   8.901  0.00  0.00    +0.173 HD
ATOM     28  C   LIG    1       30.737 -19.001   7.361  0.00  0.00    +0.254 C 
ATOM     29  O   LIG    1       31.781 -18.461   7.704  0.00  0.00    -0.268 OA
ATOM     30  C   LIG    1       30.020 -18.589   6.155  0.00  0.00    +0.088 C 
ATOM     31  C   LIG    1       28.883 -19.209   5.825  0.00  0.00    +0.101 C 
ENDBRANCH   4  23
BRANCH   2  32
ATOM     32  C   LIG    1       23.763 -19.793   4.385  0.00  0.00    -0.009 C 
ATOM     33  C   LIG    1       24.432 -18.482   3.887  0.00  0.00    +0.016 C 
ATOM     34  C   LIG    1       22.519 -19.345   5.180  0.00  0.00    +0.016 C 
ATOM     35  C   LIG    1       23.244 -20.492   3.088  0.00  0.00    +0.016 C 
ENDBRANCH   2  32
BRANCH   1  37
ATOM     36  C   LIG    1       22.489 -22.890   6.407  0.00  0.00    +0.277 C 
ATOM     37  O   LIG    1       23.324 -22.644   5.270  0.00  0.00    -0.494 OA
ENDBRANCH   1  37
TORSDOF 6
ENDMDL
MODEL 5
REMARK VINA RESULT:      -7.2      3.669      9.643
REMARK  Name = *****
REMARK                            x       y       z     vdW  Elec       q    Type
REMARK                         _______ _______ _______ _____ _____    ______ ____
ROOT
ATOM      1  C   LIG    1       25.006 -30.134   6.920  0.00  0.00    +0.132 A 
ATOM      2  C   LIG    1       24.952 -31.354   7.694  0.00  0.00    +0.002 A 
ATOM      3  C   LIG    1       25.320 -31.257   9.067  0.00  0.00    +0.034 A 
ATOM      4  C   LIG    1       25.628 -30.037   9.702  0.00  0.00    +0.052 A 
ATOM      5  C   LIG    1       25.525 -28.880   8.912  0.00  0.00    +0.038 A 
ATOM      6  C   LIG    1       25.229 -28.857   7.530  0.00  0.00    +0.026 A 
ENDROOT
BRANCH   6   7
ATOM      7  C   LIG    1       25.181 -27.486   6.856  0.00  0.00    -0.014 A 
ATOM      8  C   LIG    1       25.802 -26.338   7.385  0.00  0.00    +0.017 A 
ATOM      9  C   LIG    1       25.653 -25.039   6.821  0.00  0.00    -0.017 A 
ATOM     10  C   LIG    1       24.984 -24.884   5.591  0.00  0.00    -0.016 A 
ATOM     11  C   LIG    1       24.879 -23.602   5.002  0.00  0.00    +0.033 A 
ATOM     12  C   LIG    1       25.413 -22.482   5.637  0.00  0.00    +0.048 A 
ATOM     13  C   LIG    1       26.005 -22.615   6.891  0.00  0.00    +0.025 A 
ATOM     14  C   LIG    1       24.429 -26.023   4.999  0.00  0.00    +0.009 A 
ATOM     15  C   LIG    1       26.133 -23.885   7.469  0.00  0.00    +0.010 A 
ATOM     16  C   LIG    1       24.494 -27.277   5.638  0.00  0.00    +0.009 A 
BRANCH  12  17
ATOM     17  N   LIG    1       25.310 -21.184   5.020  0.00  0.00    -0.221 N 
ATOM     18  H   LIG    1       25.581 -20.448   5.674  0.00  0.00    +0.173 HD
BRANCH  17  19
ATOM     19  S   LIG    1       23.764 -20.789   4.422  0.00  0.00    +0.040 S 
ATOM     20  O   LIG    1       23.550 -21.656   3.269  0.00  0.00    -0.155 OA
ATOM     21  O   LIG    1       23.608 -19.365   4.346  0.00  0.00    -0.155 OA
ATOM     22  C   LIG    1       22.740 -21.388   5.750  0.00  0.00    +0.218 C 
ENDBRANCH  17  19
ENDBRANCH  12  17
ENDBRANCH   6   7
BRANCH   4  23
ATOM     23  N   LIG    1       26.024 -29.969  11.113  0.00  0.00    -0.269 N 
ATOM     24  C   LIG    1       27.370 -29.684  11.473  0.00  0.00    +0.334 C 
ATOM     25  O   LIG    1       28.326 -29.475  10.728  0.00  0.00    -0.246 OA
ATOM     26  N   LIG    1       27.634 -29.605  12.820  0.00  0.00    -0.275 N 
ATOM     27  H   LIG    1       28.587 -29.381  13.062  0.00  0.00    +0.173 HD
ATOM     28  C   LIG    1       26.774 -29.838  13.842  0.00  0.00    +0.254 C 
ATOM     29  O   LIG    1       27.100 -29.794  15.021  0.00  0.00    -0.268 OA
ATOM     30  C   LIG    1       25.408 -30.165  13.435  0.00  0.00    +0.088 C 
ATOM     31  C   LIG    1       25.102 -30.203  12.135  0.00  0.00    +0.101 C 
ENDBRANCH   4  23
BRANCH   2  32
ATOM     32  C   LIG    1       24.485 -32.775   7.186  0.00  0.00    -0.009 C 
ATOM     33  C   LIG    1       23.972 -33.682   8.338  0.00  0.00    +0.016 C 
ATOM     34  C   LIG    1       25.576 -33.598   6.469  0.00  0.00    +0.016 C 
ATOM     35  C   LIG    1       23.280 -32.663   6.199  0.00  0.00    +0.016 C 
ENDBRANCH   2  32
BRANCH   1  37
ATOM     36  C   LIG    1       25.916 -30.583   4.758  0.00  0.00    +0.277 C 
ATOM     37  O   LIG    1       24.784 -30.247   5.567  0.00  0.00    -0.494 OA
ENDBRANCH   1  37
TORSDOF 6
ENDMDL
MODEL 6
REMARK VINA RESULT:      -5.6      3.639     10.616
REMARK  Name = *****
REMARK                            x       y       z     vdW  Elec       q    Type
REMARK                         _______ _______ _______ _____ _____    ______ ____
ROOT
ATOM      1  C   LIG    1       24.879 -29.907   7.867  0.00  0.00    +0.132 A 
ATOM      2  C   LIG    1       24.972 -31.350   7.878  0.00  0.00    +0.002 A 
ATOM      3  C   LIG    1       25.237 -31.984   6.631  0.00  0.00    +0.034 A 
ATOM      4  C   LIG    1       25.503 -31.274   5.442  0.00  0.00    +0.052 A 
ATOM      5  C   LIG    1       25.528 -29.873   5.545  0.00  0.00    +0.038 A 
ATOM      6  C   LIG    1       25.222 -29.133   6.710  0.00  0.00    +0.026 A 
ENDROOT
BRANCH   6   7
ATOM      7  C   LIG    1       25.294 -27.611   6.601  0.00  0.00    -0.014 A 
ATOM      8  C   LIG    1       24.185 -26.764   6.793  0.00  0.00    +0.017 A 
ATOM      9  C   LIG    1       24.227 -25.358   6.570  0.00  0.00    -0.017 A 
ATOM     10  C   LIG    1       25.457 -24.732   6.290  0.00  0.00    -0.016 A 
ATOM     11  C   LIG    1       25.512 -23.329   6.119  0.00  0.00    +0.033 A 
ATOM     12  C   LIG    1       24.354 -22.557   6.204  0.00  0.00    +0.048 A 
ATOM     13  C   LIG    1       23.123 -23.177   6.400  0.00  0.00    +0.025 A 
ATOM     14  C   LIG    1       26.593 -25.540   6.177  0.00  0.00    +0.009 A 
ATOM     15  C   LIG    1       23.065 -24.564   6.594  0.00  0.00    +0.010 A 
ATOM     16  C   LIG    1       26.500 -26.942   6.289  0.00  0.00    +0.009 A 
BRANCH  12  17
ATOM     17  N   LIG    1       24.425 -21.128   6.041  0.00  0.00    -0.221 N 
ATOM     18  H   LIG    1       23.633 -20.670   6.494  0.00  0.00    +0.173 HD
BRANCH  17  19
ATOM     19  S   LIG    1       24.468 -20.586   4.425  0.00  0.00    +0.040 S 
ATOM     20  O   LIG    1       24.230 -21.766   3.603  0.00  0.00    -0.155 OA
ATOM     21  O   LIG    1       25.597 -19.726   4.218  0.00  0.00    -0.155 OA
ATOM     22  C   LIG    1       22.995 -19.586   4.380  0.00  0.00    +0.218 C 
ENDBRANCH  17  19
ENDBRANCH  12  17
ENDBRANCH   6   7
BRANCH   4  23
ATOM     23  N   LIG    1       25.753 -31.953   4.166  0.00  0.00    -0.269 N 
ATOM     24  C   LIG    1       24.839 -32.924   3.672  0.00  0.00    +0.334 C 
ATOM     25  O   LIG    1       23.795 -33.316   4.191  0.00  0.00    -0.246 OA
ATOM     26  N   LIG    1       25.142 -33.477   2.451  0.00  0.00    -0.275 N 
ATOM     27  H   LIG    1       24.476 -34.148   2.102  0.00  0.00    +0.173 HD
ATOM     28  C   LIG    1       26.248 -33.254   1.698  0.00  0.00    +0.254 C 
ATOM     29  O   LIG    1       26.469 -33.825   0.638  0.00  0.00    -0.268 OA
ATOM     30  C   LIG    1       27.185 -32.278   2.254  0.00  0.00    +0.088 C 
ATOM     31  C   LIG    1       26.900 -31.684   3.416  0.00  0.00    +0.101 C 
ENDBRANCH   4  23
BRANCH   2  32
ATOM     32  C   LIG    1       24.852 -32.293   9.140  0.00  0.00    -0.009 C 
ATOM     33  C   LIG    1       23.628 -31.947  10.030  0.00  0.00    +0.016 C 
ATOM     34  C   LIG    1       26.070 -32.269  10.086  0.00  0.00    +0.016 C 
ATOM     35  C   LIG    1       24.632 -33.782   8.722  0.00  0.00    +0.016 C 
ENDBRANCH   2  32
BRANCH   1  37
ATOM     36  C   LIG    1       25.532 -28.933   9.948  0.00  0.00    +0.277 C 
ATOM     37  O   LIG    1       24.489 -29.300   9.038  0.00  0.00    -0.494 OA
ENDBRANCH   1  37
TORSDOF 6
ENDMDL
