MODEL 1
REMARK VINA RESULT:      -0.3      0.000      0.000
REMARK  Name = *****
REMARK                            x       y       z     vdW  Elec       q    Type
REMARK                         _______ _______ _______ _____ _____    ______ ____
ROOT
ATOM      1  C   LIG    1       25.249 -19.589   4.581  0.00  0.00    +0.098 C 
ATOM      2  C   LIG    1       25.889 -18.290   4.061  0.00  0.00    -0.020 A 
ATOM      3  C   LIG    1       27.170 -18.117   4.635  0.00  0.00    -0.013 A 
ATOM      4  C   LIG    1       27.920 -16.985   4.359  0.00  0.00    +0.009 A 
ATOM      5  C   LIG    1       27.382 -16.021   3.503  0.00  0.00    +0.001 A 
ATOM      6  C   LIG    1       26.111 -16.195   2.931  0.00  0.00    +0.000 A 
ATOM      7  C   LIG    1       27.462 -19.242   5.499  0.00  0.00    -0.013 A 
ATOM      8  C   LIG    1       28.575 -19.518   6.273  0.00  0.00    +0.009 A 
ATOM      9  C   LIG    1       28.584 -20.690   7.037  0.00  0.00    +0.001 A 
ATOM     10  C   LIG    1       27.490 -21.571   7.021  0.00  0.00    +0.000 A 
ATOM     11  C   LIG    1       26.367 -21.297   6.242  0.00  0.00    +0.005 A 
ATOM     12  C   LIG    1       25.352 -17.336   3.207  0.00  0.00    +0.005 A 
ATOM     13  C   LIG    1       26.364 -20.130   5.490  0.00  0.00    -0.020 A 
ENDROOT
BRANCH   1  14
ATOM     14  C   LIG    1       24.962 -20.595   3.437  0.00  0.00    +0.225 C 
ATOM     15  O   LIG    1       24.219 -21.566   3.546  0.00  0.00    -0.275 OA
ATOM     16  N   LIG    1       25.614 -20.394   2.250  0.00  0.00    -0.328 N 
ATOM     17  H   LIG    1       25.496 -21.094   1.529  0.00  0.00    +0.145 HD
ATOM     18  H   LIG    1       26.354 -19.712   2.154  0.00  0.00    +0.145 HD
ENDBRANCH   1  14
BRANCH   1  19
ATOM     19  C   LIG    1       23.955 -19.310   5.390  0.00  0.00    +0.027 C 
BRANCH  19  20
ATOM     20  C   LIG    1       22.677 -19.150   4.543  0.00  0.00    +0.017 C 
BRANCH  20  21
ATOM     21  C   LIG    1       21.950 -17.828   4.797  0.00  0.00    +0.081 C 
BRANCH  21  22
ATOM     22  N   LIG    1       22.647 -16.706   4.172  0.00  0.00    -0.314 NA
ATOM     23  H   LIG    1       23.474 -17.054   3.686  0.00  0.00    +0.122 HD
BRANCH  22  25
ATOM     24  C   LIG    1       23.487 -14.431   4.328  0.00  0.00    +0.024 C 
ATOM     25  C   LIG    1       23.042 -15.661   5.125  0.00  0.00    +0.048 C 
ATOM     26  C   LIG    1       21.904 -15.273   6.071  0.00  0.00    +0.024 C 
ENDBRANCH  22  25
ENDBRANCH  21  22
ENDBRANCH  20  21
ENDBRANCH  19  20
ENDBRANCH   1  19
TORSDOF 6
ENDMDL
MODEL 2
REMARK VINA RESULT:       0.6      1.888      4.723
REMARK  Name = *****
REMARK                            x       y       z     vdW  Elec       q    Type
REMARK                         _______ _______ _______ _____ _____    ______ ____
ROOT
ATOM      1  C   LIG    1       25.077 -18.836   3.917  0.00  0.00    +0.098 C 
ATOM      2  C   LIG    1       25.655 -19.787   4.980  0.00  0.00    -0.020 A 
ATOM      3  C   LIG    1       24.608 -20.478   5.633  0.00  0.00    -0.013 A 
ATOM      4  C   LIG    1       24.881 -21.354   6.672  0.00  0.00    +0.009 A 
ATOM      5  C   LIG    1       26.211 -21.537   7.058  0.00  0.00    +0.001 A 
ATOM      6  C   LIG    1       27.251 -20.852   6.406  0.00  0.00    +0.000 A 
ATOM      7  C   LIG    1       23.341 -20.078   5.058  0.00  0.00    -0.013 A 
ATOM      8  C   LIG    1       22.049 -20.471   5.364  0.00  0.00    +0.009 A 
ATOM      9  C   LIG    1       20.991 -19.902   4.648  0.00  0.00    +0.001 A 
ATOM     10  C   LIG    1       21.228 -18.953   3.640  0.00  0.00    +0.000 A 
ATOM     11  C   LIG    1       22.527 -18.556   3.328  0.00  0.00    +0.005 A 
ATOM     12  C   LIG    1       26.978 -19.969   5.357  0.00  0.00    +0.005 A 
ATOM     13  C   LIG    1       23.572 -19.122   4.046  0.00  0.00    -0.020 A 
ENDROOT
BRANCH   1  14
ATOM     14  C   LIG    1       25.565 -19.191   2.490  0.00  0.00    +0.225 C 
ATOM     15  O   LIG    1       26.295 -18.471   1.813  0.00  0.00    -0.275 OA
ATOM     16  N   LIG    1       25.115 -20.366   1.950  0.00  0.00    -0.328 N 
ATOM     17  H   LIG    1       25.362 -20.562   0.989  0.00  0.00    +0.145 HD
ATOM     18  H   LIG    1       24.390 -20.916   2.392  0.00  0.00    +0.145 HD
ENDBRANCH   1  14
BRANCH   1  19
ATOM     19  C   LIG    1       25.393 -17.352   4.241  0.00  0.00    +0.027 C 
BRANCH  19  20
ATOM     20  C   LIG    1       26.381 -16.669   3.275  0.00  0.00    +0.017 C 
BRANCH  20  21
ATOM     21  C   LIG    1       27.236 -15.594   3.951  0.00  0.00    +0.081 C 
BRANCH  21  22
ATOM     22  N   LIG    1       26.592 -14.284   3.894  0.00  0.00    -0.314 NA
ATOM     23  H   LIG    1       26.608 -13.862   4.823  0.00  0.00    +0.122 HD
BRANCH  22  25
ATOM     24  C   LIG    1       24.288 -13.827   4.515  0.00  0.00    +0.024 C 
ATOM     25  C   LIG    1       25.209 -14.335   3.403  0.00  0.00    +0.048 C 
ATOM     26  C   LIG    1       25.005 -13.489   2.144  0.00  0.00    +0.024 C 
ENDBRANCH  22  25
ENDBRANCH  21  22
ENDBRANCH  20  21
ENDBRANCH  19  20
ENDBRANCH   1  19
TORSDOF 6
ENDMDL
MODEL 3
REMARK VINA RESULT:       0.8      1.660      5.332
REMARK  Name = *****
REMARK                            x       y       z     vdW  Elec       q    Type
REMARK                         _______ _______ _______ _____ _____    ______ ____
ROOT
ATOM      1  C   LIG    1       24.333 -19.550   4.132  0.00  0.00    +0.098 C 
ATOM      2  C   LIG    1       22.853 -19.147   4.016  0.00  0.00    -0.020 A 
ATOM      3  C   LIG    1       22.745 -17.755   3.791  0.00  0.00    -0.013 A 
ATOM      4  C   LIG    1       21.502 -17.148   3.706  0.00  0.00    +0.009 A 
ATOM      5  C   LIG    1       20.361 -17.942   3.850  0.00  0.00    +0.001 A 
ATOM      6  C   LIG    1       20.470 -19.325   4.071  0.00  0.00    +0.000 A 
ATOM      7  C   LIG    1       24.072 -17.180   3.714  0.00  0.00    -0.013 A 
ATOM      8  C   LIG    1       24.476 -15.872   3.513  0.00  0.00    +0.009 A 
ATOM      9  C   LIG    1       25.846 -15.590   3.501  0.00  0.00    +0.001 A 
ATOM     10  C   LIG    1       26.794 -16.609   3.686  0.00  0.00    +0.000 A 
ATOM     11  C   LIG    1       26.392 -17.928   3.888  0.00  0.00    +0.005 A 
ATOM     12  C   LIG    1       21.722 -19.941   4.155  0.00  0.00    +0.005 A 
ATOM     13  C   LIG    1       25.030 -18.200   3.903  0.00  0.00    -0.020 A 
ENDROOT
BRANCH   1  14
ATOM     14  C   LIG    1       24.752 -20.557   3.031  0.00  0.00    +0.225 C 
ATOM     15  O   LIG    1       24.109 -21.561   2.736  0.00  0.00    -0.275 OA
ATOM     16  N   LIG    1       25.934 -20.317   2.381  0.00  0.00    -0.328 N 
ATOM     17  H   LIG    1       26.253 -21.014   1.722  0.00  0.00    +0.145 HD
ATOM     18  H   LIG    1       26.579 -19.602   2.690  0.00  0.00    +0.145 HD
ENDBRANCH   1  14
BRANCH   1  19
ATOM     19  C   LIG    1       24.667 -20.119   5.537  0.00  0.00    +0.027 C 
BRANCH  19  20
ATOM     20  C   LIG    1       25.596 -21.349   5.539  0.00  0.00    +0.017 C 
BRANCH  20  21
ATOM     21  C   LIG    1       26.533 -21.391   6.749  0.00  0.00    +0.081 C 
BRANCH  21  22
ATOM     22  N   LIG    1       27.062 -20.066   7.061  0.00  0.00    -0.314 NA
ATOM     23  H   LIG    1       26.696 -19.391   6.389  0.00  0.00    +0.122 HD
BRANCH  22  25
ATOM     24  C   LIG    1       29.064 -21.441   6.980  0.00  0.00    +0.024 C 
ATOM     25  C   LIG    1       28.530 -20.009   7.062  0.00  0.00    +0.048 C 
ATOM     26  C   LIG    1       29.083 -19.189   5.893  0.00  0.00    +0.024 C 
ENDBRANCH  22  25
ENDBRANCH  21  22
ENDBRANCH  20  21
ENDBRANCH  19  20
ENDBRANCH   1  19
TORSDOF 6
ENDMDL
MODEL 4
REMARK VINA RESULT:       1.4      1.880      3.047
REMARK  Name = *****
REMARK                            x       y       z     vdW  Elec       q    Type
REMARK                         _______ _______ _______ _____ _____    ______ ____
ROOT
ATOM      1  C   LIG    1       23.326 -18.421   4.387  0.00  0.00    +0.098 C 
ATOM      2  C   LIG    1       24.755 -18.003   4.000  0.00  0.00    -0.020 A 
ATOM      3  C   LIG    1       25.698 -18.809   4.680  0.00  0.00    -0.013 A 
ATOM      4  C   LIG    1       27.057 -18.582   4.532  0.00  0.00    +0.009 A 
ATOM      5  C   LIG    1       27.473 -17.540   3.700  0.00  0.00    +0.001 A 
ATOM      6  C   LIG    1       26.536 -16.742   3.023  0.00  0.00    +0.000 A 
ATOM      7  C   LIG    1       24.996 -19.782   5.491  0.00  0.00    -0.013 A 
ATOM      8  C   LIG    1       25.480 -20.772   6.329  0.00  0.00    +0.009 A 
ATOM      9  C   LIG    1       24.561 -21.572   7.017  0.00  0.00    +0.001 A 
ATOM     10  C   LIG    1       23.179 -21.380   6.862  0.00  0.00    +0.000 A 
ATOM     11  C   LIG    1       22.687 -20.385   6.019  0.00  0.00    +0.005 A 
ATOM     12  C   LIG    1       25.164 -16.969   3.168  0.00  0.00    +0.005 A 
ATOM     13  C   LIG    1       23.605 -19.592   5.343  0.00  0.00    -0.020 A 
ENDROOT
BRANCH   1  14
ATOM     14  C   LIG    1       22.512 -18.917   3.165  0.00  0.00    +0.225 C 
ATOM     15  O   LIG    1       23.009 -19.463   2.183  0.00  0.00    -0.275 OA
ATOM     16  N   LIG    1       21.161 -18.691   3.180  0.00  0.00    -0.328 N 
ATOM     17  H   LIG    1       20.639 -18.937   2.349  0.00  0.00    +0.145 HD
ATOM     18  H   LIG    1       20.723 -18.108   3.881  0.00  0.00    +0.145 HD
ENDBRANCH   1  14
BRANCH   1  19
ATOM     19  C   LIG    1       22.567 -17.278   5.111  0.00  0.00    +0.027 C 
BRANCH  19  20
ATOM     20  C   LIG    1       22.244 -16.052   4.235  0.00  0.00    +0.017 C 
BRANCH  20  21
ATOM     21  C   LIG    1       23.085 -14.823   4.587  0.00  0.00    +0.081 C 
BRANCH  21  22
ATOM     22  N   LIG    1       23.540 -14.125   3.387  0.00  0.00    -0.314 NA
ATOM     23  H   LIG    1       24.021 -14.786   2.776  0.00  0.00    +0.122 HD
BRANCH  22  25
ATOM     24  C   LIG    1       25.531 -13.472   4.618  0.00  0.00    +0.024 C 
ATOM     25  C   LIG    1       24.427 -12.990   3.673  0.00  0.00    +0.048 C 
ATOM     26  C   LIG    1       25.057 -12.407   2.406  0.00  0.00    +0.024 C 
ENDBRANCH  22  25
ENDBRANCH  21  22
ENDBRANCH  20  21
ENDBRANCH  19  20
ENDBRANCH   1  19
TORSDOF 6
ENDMDL
MODEL 5
REMARK VINA RESULT:       1.8      2.064      4.795
REMARK  Name = *****
REMARK                            x       y       z     vdW  Elec       q    Type
REMARK                         _______ _______ _______ _____ _____    ______ ____
ROOT
ATOM      1  C   LIG    1       22.366 -18.963   4.675  0.00  0.00    +0.098 C 
ATOM      2  C   LIG    1       22.614 -17.448   4.777  0.00  0.00    -0.020 A 
ATOM      3  C   LIG    1       23.787 -17.099   4.068  0.00  0.00    -0.013 A 
ATOM      4  C   LIG    1       24.245 -15.791   4.063  0.00  0.00    +0.009 A 
ATOM      5  C   LIG    1       23.525 -14.828   4.774  0.00  0.00    +0.001 A 
ATOM      6  C   LIG    1       22.358 -15.176   5.476  0.00  0.00    +0.000 A 
ATOM      7  C   LIG    1       24.345 -18.286   3.455  0.00  0.00    -0.013 A 
ATOM      8  C   LIG    1       25.476 -18.450   2.675  0.00  0.00    +0.009 A 
ATOM      9  C   LIG    1       25.795 -19.734   2.222  0.00  0.00    +0.001 A 
ATOM     10  C   LIG    1       24.987 -20.836   2.547  0.00  0.00    +0.000 A 
ATOM     11  C   LIG    1       23.846 -20.676   3.331  0.00  0.00    +0.005 A 
ATOM     12  C   LIG    1       21.892 -16.494   5.482  0.00  0.00    +0.005 A 
ATOM     13  C   LIG    1       23.538 -19.398   3.781  0.00  0.00    -0.020 A 
ENDROOT
BRANCH   1  14
ATOM     14  C   LIG    1       21.019 -19.287   3.978  0.00  0.00    +0.225 C 
ATOM     15  O   LIG    1       20.397 -20.333   4.138  0.00  0.00    -0.275 OA
ATOM     16  N   LIG    1       20.526 -18.353   3.106  0.00  0.00    -0.328 N 
ATOM     17  H   LIG    1       19.693 -18.596   2.586  0.00  0.00    +0.145 HD
ATOM     18  H   LIG    1       21.071 -17.552   2.814  0.00  0.00    +0.145 HD
ENDBRANCH   1  14
BRANCH   1  19
ATOM     19  C   LIG    1       22.434 -19.653   6.062  0.00  0.00    +0.027 C 
BRANCH  19  20
ATOM     20  C   LIG    1       23.849 -19.770   6.664  0.00  0.00    +0.017 C 
BRANCH  20  21
ATOM     21  C   LIG    1       24.612 -21.000   6.167  0.00  0.00    +0.081 C 
BRANCH  21  22
ATOM     22  N   LIG    1       25.717 -21.341   7.061  0.00  0.00    -0.314 NA
ATOM     23  H   LIG    1       25.407 -21.244   8.028  0.00  0.00    +0.122 HD
BRANCH  22  25
ATOM     24  C   LIG    1       28.146 -21.405   7.062  0.00  0.00    +0.024 C 
ATOM     25  C   LIG    1       26.915 -20.520   6.846  0.00  0.00    +0.048 C 
ATOM     26  C   LIG    1       26.962 -19.912   5.442  0.00  0.00    +0.024 C 
ENDBRANCH  22  25
ENDBRANCH  21  22
ENDBRANCH  20  21
ENDBRANCH  19  20
ENDBRANCH   1  19
TORSDOF 6
ENDMDL
MODEL 6
REMARK VINA RESULT:       2.5      1.856      3.817
REMARK  Name = *****
REMARK                            x       y       z     vdW  Elec       q    Type
REMARK                         _______ _______ _______ _____ _____    ______ ____
ROOT
ATOM      1  C   LIG    1       25.273 -19.425   4.149  0.00  0.00    +0.098 C 
ATOM      2  C   LIG    1       26.551 -19.667   4.972  0.00  0.00    -0.020 A 
ATOM      3  C   LIG    1       26.246 -20.414   6.134  0.00  0.00    -0.013 A 
ATOM      4  C   LIG    1       27.232 -20.709   7.062  0.00  0.00    +0.009 A 
ATOM      5  C   LIG    1       28.530 -20.251   6.824  0.00  0.00    +0.001 A 
ATOM      6  C   LIG    1       28.832 -19.511   5.669  0.00  0.00    +0.000 A 
ATOM      7  C   LIG    1       24.832 -20.728   6.142  0.00  0.00    -0.013 A 
ATOM      8  C   LIG    1       24.071 -21.428   7.061  0.00  0.00    +0.009 A 
ATOM      9  C   LIG    1       22.700 -21.569   6.823  0.00  0.00    +0.001 A 
ATOM     10  C   LIG    1       22.105 -21.017   5.677  0.00  0.00    +0.000 A 
ATOM     11  C   LIG    1       22.868 -20.312   4.748  0.00  0.00    +0.005 A 
ATOM     12  C   LIG    1       27.840 -19.213   4.730  0.00  0.00    +0.005 A 
ATOM     13  C   LIG    1       24.228 -20.172   4.993  0.00  0.00    -0.020 A 
ENDROOT
BRANCH   1  14
ATOM     14  C   LIG    1       25.362 -20.055   2.736  0.00  0.00    +0.225 C 
ATOM     15  O   LIG    1       26.079 -19.627   1.836  0.00  0.00    -0.275 OA
ATOM     16  N   LIG    1       24.558 -21.134   2.481  0.00  0.00    -0.328 N 
ATOM     17  H   LIG    1       24.550 -21.496   1.537  0.00  0.00    +0.145 HD
ATOM     18  H   LIG    1       23.836 -21.428   3.125  0.00  0.00    +0.145 HD
ENDBRANCH   1  14
BRANCH   1  19
ATOM     19  C   LIG    1       24.932 -17.916   4.046  0.00  0.00    +0.027 C 
BRANCH  19  20
ATOM     20  C   LIG    1       25.854 -17.100   3.119  0.00  0.00    +0.017 C 
BRANCH  20  21
ATOM     21  C   LIG    1       26.202 -15.719   3.682  0.00  0.00    +0.081 C 
BRANCH  21  22
ATOM     22  N   LIG    1       26.145 -14.690   2.647  0.00  0.00    -0.314 NA
ATOM     23  H   LIG    1       27.095 -14.435   2.375  0.00  0.00    +0.122 HD
BRANCH  22  25
ATOM     24  C   LIG    1       24.645 -12.954   1.849  0.00  0.00    +0.024 C 
ATOM     25  C   LIG    1       25.415 -13.486   3.061  0.00  0.00    +0.048 C 
ATOM     26  C   LIG    1       24.437 -13.760   4.207  0.00  0.00    +0.024 C 
ENDBRANCH  22  25
ENDBRANCH  21  22
ENDBRANCH  20  21
ENDBRANCH  19  20
ENDBRANCH   1  19
TORSDOF 6
ENDMDL
