MODEL 1
REMARK VINA RESULT:      -2.5      0.000      0.000
REMARK  Name = *****
REMARK                            x       y       z     vdW  Elec       q    Type
REMARK                         _______ _______ _______ _____ _____    ______ ____
ROOT
ATOM      1  C   LIG    1       23.974 -19.491   4.096  0.00  0.00    +0.161 A 
ATOM      2  C   LIG    1       22.685 -19.952   4.403  0.00  0.00    +0.158 A 
ATOM      3  N   LIG    1       21.631 -19.133   4.602  0.00  0.00    -0.236 NA
ATOM      4  C   LIG    1       21.844 -17.801   4.489  0.00  0.00    +0.121 A 
ATOM      5  C   LIG    1       23.066 -17.239   4.165  0.00  0.00    +0.007 A 
ATOM      6  C   LIG    1       24.139 -18.111   3.981  0.00  0.00    +0.059 A 
ENDROOT
BRANCH   5   7
ATOM      7  C   LIG    1       23.278 -15.812   4.045  0.00  0.00    +0.021 A 
ATOM      8  C   LIG    1       24.402 -15.134   4.473  0.00  0.00    +0.117 A 
ATOM      9  N   LIG    1       24.278 -13.857   3.997  0.00  0.00    -0.268 N 
ATOM     10  N   LIG    1       23.081 -13.624   3.425  0.00  0.00    -0.179 NA
ATOM     11  C   LIG    1       22.492 -14.814   3.427  0.00  0.00    +0.143 A 
BRANCH   9  12
ATOM     12  C   LIG    1       25.350 -12.865   3.935  0.00  0.00    +0.110 C 
ATOM     13  C   LIG    1       26.290 -12.911   5.150  0.00  0.00    +0.042 C 
ATOM     14  C   LIG    1       27.365 -13.990   5.028  0.00  0.00    +0.083 C 
ATOM     15  N   LIG    1       28.090 -13.903   3.759  0.00  0.00    -0.316 NA
ATOM     16  H   LIG    1       28.583 -13.012   3.707  0.00  0.00    +0.122 HD
ATOM     17  C   LIG    1       27.175 -14.033   2.624  0.00  0.00    +0.083 C 
ATOM     18  C   LIG    1       26.130 -12.922   2.619  0.00  0.00    +0.042 C 
ENDBRANCH   9  12
ENDBRANCH   5   7
BRANCH   2  19
ATOM     19  N   LIG    1       22.380 -21.312   4.449  0.00  0.00    -0.340 N 
ATOM     20  H   LIG    1       21.597 -21.533   3.848  0.00  0.00    +0.144 HD
ATOM     21  H   LIG    1       23.231 -21.814   4.203  0.00  0.00    +0.144 HD
ENDBRANCH   2  19
BRANCH   1  22
ATOM     22  O   LIG    1       25.000 -20.404   4.002  0.00  0.00    -0.481 OA
BRANCH  22  24
ATOM     23  C   LIG    1       24.815 -20.699   6.388  0.00  0.00    +0.057 C 
ATOM     24  C   LIG    1       25.767 -20.691   5.187  0.00  0.00    +0.204 C 
BRANCH  24  25
ATOM     25  C   LIG    1       27.014 -19.800   5.209  0.00  0.00    +0.032 A 
ATOM     26  C   LIG    1       27.194 -18.623   4.448  0.00  0.00    +0.084 A 
ATOM     27 CL   LIG    1       26.073 -18.054   3.263  0.00  0.00    -0.080 Cl
ATOM     28  C   LIG    1       28.350 -17.834   4.604  0.00  0.00    +0.142 A 
ATOM     29  F   LIG    1       28.499 -16.696   3.908  0.00  0.00    -0.204 F 
ATOM     30  C   LIG    1       29.369 -18.191   5.474  0.00  0.00    +0.041 A 
ATOM     31  C   LIG    1       29.244 -19.361   6.198  0.00  0.00    +0.023 A 
ATOM     32  C   LIG    1       28.092 -20.152   6.070  0.00  0.00    +0.049 A 
ATOM     33 CL   LIG    1       28.106 -21.571   7.062  0.00  0.00    -0.083 Cl
ENDBRANCH  24  25
ENDBRANCH  22  24
ENDBRANCH   1  22
TORSDOF 6
ENDMDL
MODEL 2
REMARK VINA RESULT:      -1.7      1.762      2.428
REMARK  Name = *****
REMARK                            x       y       z     vdW  Elec       q    Type
REMARK                         _______ _______ _______ _____ _____    ______ ____
ROOT
ATOM      1  C   LIG    1       23.421 -18.138   3.877  0.00  0.00    +0.161 A 
ATOM      2  C   LIG    1       22.204 -18.289   4.558  0.00  0.00    +0.158 A 
ATOM      3  N   LIG    1       21.549 -17.266   5.146  0.00  0.00    -0.236 NA
ATOM      4  C   LIG    1       22.105 -16.034   5.057  0.00  0.00    +0.121 A 
ATOM      5  C   LIG    1       23.286 -15.766   4.388  0.00  0.00    +0.007 A 
ATOM      6  C   LIG    1       23.947 -16.848   3.805  0.00  0.00    +0.059 A 
ENDROOT
BRANCH   5   7
ATOM      7  C   LIG    1       23.867 -14.443   4.299  0.00  0.00    +0.021 A 
ATOM      8  C   LIG    1       25.146 -14.106   4.693  0.00  0.00    +0.117 A 
ATOM      9  N   LIG    1       25.351 -12.825   4.260  0.00  0.00    -0.268 N 
ATOM     10  N   LIG    1       24.239 -12.258   3.752  0.00  0.00    -0.179 NA
ATOM     11  C   LIG    1       23.353 -13.249   3.747  0.00  0.00    +0.143 A 
BRANCH   9  12
ATOM     12  C   LIG    1       26.645 -12.151   4.176  0.00  0.00    +0.110 C 
ATOM     13  C   LIG    1       27.628 -12.588   5.275  0.00  0.00    +0.042 C 
ATOM     14  C   LIG    1       28.353 -13.891   4.940  0.00  0.00    +0.083 C 
ATOM     15  N   LIG    1       28.973 -13.850   3.614  0.00  0.00    -0.316 NA
ATOM     16  H   LIG    1       29.686 -13.121   3.593  0.00  0.00    +0.122 HD
ATOM     17  C   LIG    1       27.972 -13.598   2.576  0.00  0.00    +0.083 C 
ATOM     18  C   LIG    1       27.275 -12.257   2.785  0.00  0.00    +0.042 C 
ENDBRANCH   9  12
ENDBRANCH   5   7
BRANCH   2  19
ATOM     19  N   LIG    1       21.537 -19.512   4.612  0.00  0.00    -0.340 N 
ATOM     20  H   LIG    1       22.164 -20.261   4.875  0.00  0.00    +0.144 HD
ATOM     21  H   LIG    1       20.757 -19.395   5.256  0.00  0.00    +0.144 HD
ENDBRANCH   2  19
BRANCH   1  22
ATOM     22  O   LIG    1       24.053 -19.260   3.391  0.00  0.00    -0.481 OA
BRANCH  22  24
ATOM     23  C   LIG    1       25.911 -19.799   1.951  0.00  0.00    +0.057 C 
ATOM     24  C   LIG    1       25.492 -19.254   3.321  0.00  0.00    +0.204 C 
BRANCH  24  25
ATOM     25  C   LIG    1       26.061 -19.884   4.598  0.00  0.00    +0.032 A 
ATOM     26  C   LIG    1       27.269 -19.511   5.229  0.00  0.00    +0.084 A 
ATOM     27 CL   LIG    1       28.377 -18.348   4.591  0.00  0.00    -0.080 Cl
ATOM     28  C   LIG    1       27.660 -20.104   6.445  0.00  0.00    +0.142 A 
ATOM     29  F   LIG    1       28.788 -19.717   7.062  0.00  0.00    -0.204 F 
ATOM     30  C   LIG    1       26.905 -21.096   7.052  0.00  0.00    +0.041 A 
ATOM     31  C   LIG    1       25.743 -21.517   6.436  0.00  0.00    +0.023 A 
ATOM     32  C   LIG    1       25.327 -20.927   5.233  0.00  0.00    +0.049 A 
ATOM     33 CL   LIG    1       23.844 -21.572   4.615  0.00  0.00    -0.083 Cl
ENDBRANCH  24  25
ENDBRANCH  22  24
ENDBRANCH   1  22
TORSDOF 6
ENDMDL
MODEL 3
REMARK VINA RESULT:      -1.2      2.971      4.876
REMARK  Name = *****
REMARK                            x       y       z     vdW  Elec       q    Type
REMARK                         _______ _______ _______ _____ _____    ______ ____
ROOT
ATOM      1  C   LIG    1       27.492 -19.359   4.930  0.00  0.00    +0.161 A 
ATOM      2  C   LIG    1       28.669 -19.409   5.692  0.00  0.00    +0.158 A 
ATOM      3  N   LIG    1       29.475 -18.344   5.886  0.00  0.00    -0.236 NA
ATOM      4  C   LIG    1       29.109 -17.171   5.315  0.00  0.00    +0.121 A 
ATOM      5  C   LIG    1       27.957 -17.002   4.568  0.00  0.00    +0.007 A 
ATOM      6  C   LIG    1       27.155 -18.126   4.372  0.00  0.00    +0.059 A 
ENDROOT
BRANCH   5   7
ATOM      7  C   LIG    1       27.578 -15.742   3.965  0.00  0.00    +0.021 A 
ATOM      8  C   LIG    1       26.490 -15.548   3.138  0.00  0.00    +0.117 A 
ATOM      9  N   LIG    1       26.388 -14.196   2.956  0.00  0.00    -0.268 N 
ATOM     10  N   LIG    1       27.426 -13.516   3.481  0.00  0.00    -0.179 NA
ATOM     11  C   LIG    1       28.126 -14.448   4.117  0.00  0.00    +0.143 A 
BRANCH   9  12
ATOM     12  C   LIG    1       25.226 -13.496   2.412  0.00  0.00    +0.110 C 
ATOM     13  C   LIG    1       23.890 -14.027   2.956  0.00  0.00    +0.042 C 
ATOM     14  C   LIG    1       23.528 -13.440   4.319  0.00  0.00    +0.083 C 
ATOM     15  N   LIG    1       23.596 -11.978   4.325  0.00  0.00    -0.316 NA
ATOM     16  H   LIG    1       22.912 -11.601   3.669  0.00  0.00    +0.122 HD
ATOM     17  C   LIG    1       24.938 -11.516   3.965  0.00  0.00    +0.083 C 
ATOM     18  C   LIG    1       25.330 -11.976   2.564  0.00  0.00    +0.042 C 
ENDBRANCH   9  12
ENDBRANCH   5   7
BRANCH   2  19
ATOM     19  N   LIG    1       29.056 -20.561   6.376  0.00  0.00    -0.340 N 
ATOM     20  H   LIG    1       28.496 -20.699   7.207  0.00  0.00    +0.144 HD
ATOM     21  H   LIG    1       28.995 -21.332   5.715  0.00  0.00    +0.144 HD
ENDBRANCH   2  19
BRANCH   1  22
ATOM     22  O   LIG    1       26.789 -20.523   4.719  0.00  0.00    -0.481 OA
BRANCH  22  24
ATOM     23  C   LIG    1       25.715 -19.211   3.004  0.00  0.00    +0.057 C 
ATOM     24  C   LIG    1       25.626 -20.472   3.871  0.00  0.00    +0.204 C 
BRANCH  24  25
ATOM     25  C   LIG    1       24.373 -20.726   4.718  0.00  0.00    +0.032 A 
ATOM     26  C   LIG    1       23.042 -20.497   4.303  0.00  0.00    +0.084 A 
ATOM     27 CL   LIG    1       22.608 -19.770   2.797  0.00  0.00    -0.080 Cl
ATOM     28  C   LIG    1       21.959 -20.840   5.135  0.00  0.00    +0.142 A 
ATOM     29  F   LIG    1       20.695 -20.657   4.720  0.00  0.00    -0.204 F 
ATOM     30  C   LIG    1       22.147 -21.378   6.398  0.00  0.00    +0.041 A 
ATOM     31  C   LIG    1       23.438 -21.571   6.852  0.00  0.00    +0.023 A 
ATOM     32  C   LIG    1       24.531 -21.252   6.032  0.00  0.00    +0.049 A 
ATOM     33 CL   LIG    1       26.068 -21.571   6.762  0.00  0.00    -0.083 Cl
ENDBRANCH  24  25
ENDBRANCH  22  24
ENDBRANCH   1  22
TORSDOF 6
ENDMDL
MODEL 4
REMARK VINA RESULT:      -0.0      3.134      5.040
REMARK  Name = *****
REMARK                            x       y       z     vdW  Elec       q    Type
REMARK                         _______ _______ _______ _____ _____    ______ ____
ROOT
ATOM      1  C   LIG    1       27.508 -18.991   4.795  0.00  0.00    +0.161 A 
ATOM      2  C   LIG    1       28.730 -18.879   5.474  0.00  0.00    +0.158 A 
ATOM      3  N   LIG    1       29.456 -17.742   5.517  0.00  0.00    -0.236 NA
ATOM      4  C   LIG    1       28.960 -16.660   4.870  0.00  0.00    +0.121 A 
ATOM      5  C   LIG    1       27.754 -16.650   4.193  0.00  0.00    +0.007 A 
ATOM      6  C   LIG    1       27.036 -17.846   4.154  0.00  0.00    +0.059 A 
ENDROOT
BRANCH   5   7
ATOM      7  C   LIG    1       27.235 -15.485   3.509  0.00  0.00    +0.021 A 
ATOM      8  C   LIG    1       25.903 -15.250   3.230  0.00  0.00    +0.117 A 
ATOM      9  N   LIG    1       25.835 -13.967   2.759  0.00  0.00    -0.268 N 
ATOM     10  N   LIG    1       27.048 -13.413   2.568  0.00  0.00    -0.179 NA
ATOM     11  C   LIG    1       27.890 -14.319   3.052  0.00  0.00    +0.143 A 
BRANCH   9  12
ATOM     12  C   LIG    1       24.615 -13.175   2.620  0.00  0.00    +0.110 C 
ATOM     13  C   LIG    1       23.401 -13.806   3.322  0.00  0.00    +0.042 C 
ATOM     14  C   LIG    1       23.355 -13.501   4.818  0.00  0.00    +0.083 C 
ATOM     15  N   LIG    1       23.481 -12.068   5.092  0.00  0.00    -0.316 NA
ATOM     16  H   LIG    1       22.691 -11.571   4.682  0.00  0.00    +0.122 HD
ATOM     17  C   LIG    1       24.736 -11.542   4.552  0.00  0.00    +0.083 C 
ATOM     18  C   LIG    1       24.809 -11.716   3.038  0.00  0.00    +0.042 C 
ENDBRANCH   9  12
ENDBRANCH   5   7
BRANCH   2  19
ATOM     19  N   LIG    1       29.253 -19.928   6.230  0.00  0.00    -0.340 N 
ATOM     20  H   LIG    1       29.733 -19.585   7.051  0.00  0.00    +0.144 HD
ATOM     21  H   LIG    1       28.478 -20.551   6.446  0.00  0.00    +0.144 HD
ENDBRANCH   2  19
BRANCH   1  22
ATOM     22  O   LIG    1       26.892 -20.221   4.737  0.00  0.00    -0.481 OA
BRANCH  22  24
ATOM     23  C   LIG    1       26.279 -21.566   6.643  0.00  0.00    +0.057 C 
ATOM     24  C   LIG    1       25.816 -20.487   5.658  0.00  0.00    +0.204 C 
BRANCH  24  25
ATOM     25  C   LIG    1       24.515 -20.683   4.869  0.00  0.00    +0.032 A 
ATOM     26  C   LIG    1       23.280 -21.097   5.415  0.00  0.00    +0.084 A 
ATOM     27 CL   LIG    1       23.058 -21.572   7.062  0.00  0.00    -0.080 Cl
ATOM     28  C   LIG    1       22.125 -21.168   4.612  0.00  0.00    +0.142 A 
ATOM     29  F   LIG    1       20.944 -21.524   5.144  0.00  0.00    -0.204 F 
ATOM     30  C   LIG    1       22.156 -20.876   3.258  0.00  0.00    +0.041 A 
ATOM     31  C   LIG    1       23.358 -20.513   2.683  0.00  0.00    +0.023 A 
ATOM     32  C   LIG    1       24.517 -20.419   3.470  0.00  0.00    +0.049 A 
ATOM     33 CL   LIG    1       25.925 -19.941   2.583  0.00  0.00    -0.083 Cl
ENDBRANCH  24  25
ENDBRANCH  22  24
ENDBRANCH   1  22
TORSDOF 6
ENDMDL
