MODEL 1
REMARK VINA RESULT:      -6.2      0.000      0.000
REMARK  Name = *****
REMARK                            x       y       z     vdW  Elec       q    Type
REMARK                         _______ _______ _______ _____ _____    ______ ____
ROOT
ATOM      1  C   LIG    1       24.377 -29.332   8.014  0.00  0.00    +0.008 C 
ATOM      2  C   LIG    1       24.129 -30.603   8.824  0.00  0.00    -0.003 C 
ATOM      3  C   LIG    1       25.382 -31.037   9.616  0.00  0.00    +0.067 C 
ATOM      4  C   LIG    1       24.819 -31.627  10.936  0.00  0.00    -0.017 C 
ATOM      5  C   LIG    1       23.647 -30.663  11.249  0.00  0.00    +0.002 C 
ATOM      6  C   LIG    1       24.047 -29.314  11.921  0.00  0.00    +0.034 C 
ATOM      7  C   LIG    1       25.044 -29.467  13.099  0.00  0.00    +0.153 C 
ATOM      8  C   LIG    1       26.260 -30.303  12.614  0.00  0.00    +0.153 C 
ATOM      9  F   LIG    1       24.407 -30.245  14.047  0.00  0.00    -0.238 F 
ATOM     10  C   LIG    1       25.399 -28.077  13.804  0.00  0.00    +0.044 C 
ATOM     11  C   LIG    1       24.147 -27.172  14.002  0.00  0.00    -0.053 C 
ATOM     12  C   LIG    1       24.321 -25.939  14.538  0.00  0.00    +0.051 C 
ATOM     13  C   LIG    1       25.312 -25.131  13.732  0.00  0.00    +0.179 C 
ATOM     14  C   LIG    1       26.352 -25.885  12.974  0.00  0.00    +0.047 C 
ATOM     15  O   LIG    1       25.306 -23.907  13.760  0.00  0.00    -0.288 OA
ATOM     16  C   LIG    1       23.086 -27.221  12.924  0.00  0.00    +0.032 C 
ATOM     17  C   LIG    1       26.021 -28.354  15.203  0.00  0.00    +0.023 C 
ATOM     18  C   LIG    1       26.410 -27.228  13.025  0.00  0.00    -0.009 C 
ATOM     19  C   LIG    1       22.776 -28.622  12.442  0.00  0.00    +0.011 C 
ATOM     20  C   LIG    1       24.281 -33.065  10.737  0.00  0.00    +0.012 C 
ATOM     21  C   LIG    1       25.830 -31.673  12.086  0.00  0.00    +0.042 C 
ATOM     22  C   LIG    1       23.009 -30.424   9.864  0.00  0.00    +0.008 C 
ENDROOT
BRANCH   3  23
ATOM     23  C   LIG    1       26.264 -31.989   8.806  0.00  0.00    +0.162 C 
ATOM     24  O   LIG    1       27.317 -32.460   9.245  0.00  0.00    -0.295 OA
BRANCH  23  25
ATOM     25  C   LIG    1       25.812 -32.324   7.389  0.00  0.00    +0.230 C 
BRANCH  25  26
ATOM     26  O   LIG    1       26.587 -31.632   6.422  0.00  0.00    -0.388 OA
ATOM     27  H   LIG    1       27.337 -31.230   6.908  0.00  0.00    +0.210 HD
ENDBRANCH  25  26
ENDBRANCH  23  25
ENDBRANCH   3  23
BRANCH   8  28
ATOM     28  O   LIG    1       27.216 -30.552  13.641  0.00  0.00    -0.389 OA
ATOM     29  H   LIG    1       26.728 -30.589  14.486  0.00  0.00    +0.210 HD
ENDBRANCH   8  28
TORSDOF 4
ENDMDL
MODEL 2
REMARK VINA RESULT:      -5.8      3.694      6.218
REMARK  Name = *****
REMARK                            x       y       z     vdW  Elec       q    Type
REMARK                         _______ _______ _______ _____ _____    ______ ____
ROOT
ATOM      1  C   LIG    1       22.653 -28.957  11.839  0.00  0.00    +0.008 C 
ATOM      2  C   LIG    1       23.233 -30.326  11.494  0.00  0.00    -0.003 C 
ATOM      3  C   LIG    1       22.628 -30.898  10.192  0.00  0.00    +0.067 C 
ATOM      4  C   LIG    1       23.802 -31.662   9.525  0.00  0.00    -0.017 C 
ATOM      5  C   LIG    1       25.004 -30.728   9.815  0.00  0.00    +0.002 C 
ATOM      6  C   LIG    1       25.148 -29.501   8.865  0.00  0.00    +0.034 C 
ATOM      7  C   LIG    1       24.991 -29.846   7.361  0.00  0.00    +0.153 C 
ATOM      8  C   LIG    1       23.663 -30.629   7.168  0.00  0.00    +0.153 C 
ATOM      9  F   LIG    1       26.001 -30.740   7.061  0.00  0.00    -0.238 F 
ATOM     10  C   LIG    1       25.192 -28.582   6.404  0.00  0.00    +0.044 C 
ATOM     11  C   LIG    1       26.391 -27.688   6.841  0.00  0.00    -0.053 C 
ATOM     12  C   LIG    1       26.634 -26.550   6.144  0.00  0.00    +0.051 C 
ATOM     13  C   LIG    1       25.417 -25.655   6.123  0.00  0.00    +0.179 C 
ATOM     14  C   LIG    1       24.083 -26.313   6.240  0.00  0.00    +0.047 C 
ATOM     15  O   LIG    1       25.517 -24.449   5.942  0.00  0.00    -0.288 OA
ATOM     16  C   LIG    1       26.644 -27.556   8.327  0.00  0.00    +0.032 C 
ATOM     17  C   LIG    1       25.460 -29.073   4.952  0.00  0.00    +0.023 C 
ATOM     18  C   LIG    1       23.976 -27.650   6.343  0.00  0.00    -0.009 C 
ATOM     19  C   LIG    1       26.531 -28.864   9.079  0.00  0.00    +0.011 C 
ATOM     20  C   LIG    1       24.036 -33.044  10.184  0.00  0.00    +0.012 C 
ATOM     21  C   LIG    1       23.626 -31.897   8.022  0.00  0.00    +0.042 C 
ATOM     22  C   LIG    1       24.755 -30.277  11.269  0.00  0.00    +0.008 C 
ENDROOT
BRANCH   3  23
ATOM     23  C   LIG    1       21.382 -31.742  10.469  0.00  0.00    +0.162 C 
ATOM     24  O   LIG    1       20.625 -32.126   9.574  0.00  0.00    -0.295 OA
BRANCH  23  25
ATOM     25  C   LIG    1       21.073 -32.075  11.924  0.00  0.00    +0.230 C 
BRANCH  25  26
ATOM     26  O   LIG    1       19.914 -31.393  12.377  0.00  0.00    -0.388 OA
ATOM     27  H   LIG    1       20.136 -31.028  13.259  0.00  0.00    +0.210 HD
ENDBRANCH  25  26
ENDBRANCH  23  25
ENDBRANCH   3  23
BRANCH   8  28
ATOM     28  O   LIG    1       23.448 -31.045   5.822  0.00  0.00    -0.389 OA
ATOM     29  H   LIG    1       24.238 -30.787   5.310  0.00  0.00    +0.210 HD
ENDBRANCH   8  28
TORSDOF 4
ENDMDL
MODEL 3
REMARK VINA RESULT:      -5.7      2.707      3.956
REMARK  Name = *****
REMARK                            x       y       z     vdW  Elec       q    Type
REMARK                         _______ _______ _______ _____ _____    ______ ____
ROOT
ATOM      1  C   LIG    1       23.158 -30.838   9.873  0.00  0.00    +0.008 C 
ATOM      2  C   LIG    1       24.328 -30.913  10.851  0.00  0.00    -0.003 C 
ATOM      3  C   LIG    1       24.984 -29.531  11.075  0.00  0.00    +0.067 C 
ATOM      4  C   LIG    1       25.409 -29.542  12.566  0.00  0.00    -0.017 C 
ATOM      5  C   LIG    1       24.219 -30.273  13.238  0.00  0.00    +0.002 C 
ATOM      6  C   LIG    1       22.960 -29.395  13.513  0.00  0.00    +0.034 C 
ATOM      7  C   LIG    1       23.277 -28.022  14.160  0.00  0.00    +0.153 C 
ATOM      8  C   LIG    1       24.356 -27.308  13.300  0.00  0.00    +0.153 C 
ATOM      9  F   LIG    1       23.882 -28.295  15.372  0.00  0.00    -0.238 F 
ATOM     10  C   LIG    1       21.968 -27.162  14.479  0.00  0.00    +0.044 C 
ATOM     11  C   LIG    1       20.823 -28.024  15.089  0.00  0.00    -0.053 C 
ATOM     12  C   LIG    1       19.635 -27.425  15.352  0.00  0.00    +0.051 C 
ATOM     13  C   LIG    1       19.068 -26.773  14.112  0.00  0.00    +0.179 C 
ATOM     14  C   LIG    1       20.039 -26.320  13.074  0.00  0.00    +0.047 C 
ATOM     15  O   LIG    1       17.869 -26.559  13.998  0.00  0.00    -0.288 OA
ATOM     16  C   LIG    1       20.687 -29.445  14.583  0.00  0.00    +0.032 C 
ATOM     17  C   LIG    1       22.325 -26.042  15.498  0.00  0.00    +0.023 C 
ATOM     18  C   LIG    1       21.364 -26.473  13.250  0.00  0.00    -0.009 C 
ATOM     19  C   LIG    1       22.010 -30.167  14.445  0.00  0.00    +0.011 C 
ATOM     20  C   LIG    1       26.714 -30.348  12.785  0.00  0.00    +0.012 C 
ATOM     21  C   LIG    1       25.625 -28.151  13.170  0.00  0.00    +0.042 C 
ATOM     22  C   LIG    1       23.897 -31.408  12.243  0.00  0.00    +0.008 C 
ENDROOT
BRANCH   3  23
ATOM     23  C   LIG    1       26.118 -29.274  10.081  0.00  0.00    +0.162 C 
ATOM     24  O   LIG    1       26.583 -28.150   9.875  0.00  0.00    -0.295 OA
BRANCH  23  25
ATOM     25  C   LIG    1       26.651 -30.474   9.305  0.00  0.00    +0.230 C 
BRANCH  25  26
ATOM     26  O   LIG    1       26.279 -30.412   7.936  0.00  0.00    -0.388 OA
ATOM     27  H   LIG    1       26.563 -31.260   7.536  0.00  0.00    +0.210 HD
ENDBRANCH  25  26
ENDBRANCH  23  25
ENDBRANCH   3  23
BRANCH   8  28
ATOM     28  O   LIG    1       24.763 -26.053  13.840  0.00  0.00    -0.389 OA
ATOM     29  H   LIG    1       25.176 -25.547  13.114  0.00  0.00    +0.210 HD
ENDBRANCH   8  28
TORSDOF 4
ENDMDL
MODEL 4
REMARK VINA RESULT:      -5.4      2.222      3.315
REMARK  Name = *****
REMARK                            x       y       z     vdW  Elec       q    Type
REMARK                         _______ _______ _______ _____ _____    ______ ____
ROOT
ATOM      1  C   LIG    1       22.464 -32.717   9.011  0.00  0.00    +0.008 C 
ATOM      2  C   LIG    1       23.968 -32.833   8.778  0.00  0.00    -0.003 C 
ATOM      3  C   LIG    1       24.595 -31.482   8.366  0.00  0.00    +0.067 C 
ATOM      4  C   LIG    1       25.998 -31.490   9.028  0.00  0.00    -0.017 C 
ATOM      5  C   LIG    1       25.708 -32.152  10.399  0.00  0.00    +0.002 C 
ATOM      6  C   LIG    1       25.105 -31.210  11.485  0.00  0.00    +0.034 C 
ATOM      7  C   LIG    1       25.828 -29.843  11.607  0.00  0.00    +0.153 C 
ATOM      8  C   LIG    1       25.904 -29.196  10.198  0.00  0.00    +0.153 C 
ATOM      9  F   LIG    1       27.134 -30.127  11.962  0.00  0.00    -0.238 F 
ATOM     10  C   LIG    1       25.226 -28.917  12.761  0.00  0.00    +0.044 C 
ATOM     11  C   LIG    1       24.915 -29.712  14.064  0.00  0.00    -0.053 C 
ATOM     12  C   LIG    1       24.345 -29.052  15.103  0.00  0.00    +0.051 C 
ATOM     13  C   LIG    1       23.051 -28.393  14.683  0.00  0.00    +0.179 C 
ATOM     14  C   LIG    1       22.917 -28.004  13.249  0.00  0.00    +0.047 C 
ATOM     15  O   LIG    1       22.182 -28.122  15.500  0.00  0.00    -0.288 OA
ATOM     16  C   LIG    1       24.416 -31.132  13.900  0.00  0.00    +0.032 C 
ATOM     17  C   LIG    1       26.251 -27.799  13.111  0.00  0.00    +0.023 C 
ATOM     18  C   LIG    1       23.917 -28.218  12.375  0.00  0.00    -0.009 C 
ATOM     19  C   LIG    1       25.167 -31.920  12.848  0.00  0.00    +0.011 C 
ATOM     20  C   LIG    1       27.005 -32.355   8.228  0.00  0.00    +0.012 C 
ATOM     21  C   LIG    1       26.623 -30.102   9.197  0.00  0.00    +0.042 C 
ATOM     22  C   LIG    1       24.723 -33.285  10.040  0.00  0.00    +0.008 C 
ENDROOT
BRANCH   3  23
ATOM     23  C   LIG    1       24.597 -31.296   6.848  0.00  0.00    +0.162 C 
ATOM     24  O   LIG    1       24.736 -32.236   6.061  0.00  0.00    -0.295 OA
BRANCH  23  25
ATOM     25  C   LIG    1       24.454 -29.874   6.318  0.00  0.00    +0.230 C 
BRANCH  25  26
ATOM     26  O   LIG    1       23.216 -29.694   5.647  0.00  0.00    -0.388 OA
ATOM     27  H   LIG    1       22.516 -29.866   6.310  0.00  0.00    +0.210 HD
ENDBRANCH  25  26
ENDBRANCH  23  25
ENDBRANCH   3  23
BRANCH   8  28
ATOM     28  O   LIG    1       26.604 -27.954  10.187  0.00  0.00    -0.389 OA
ATOM     29  H   LIG    1       26.184 -27.381  10.857  0.00  0.00    +0.210 HD
ENDBRANCH   8  28
TORSDOF 4
ENDMDL
MODEL 5
REMARK VINA RESULT:      -5.4      2.572      3.708
REMARK  Name = *****
REMARK                            x       y       z     vdW  Elec       q    Type
REMARK                         _______ _______ _______ _____ _____    ______ ____
ROOT
ATOM      1  C   LIG    1       20.871 -28.023  12.517  0.00  0.00    +0.008 C 
ATOM      2  C   LIG    1       21.228 -29.472  12.835  0.00  0.00    -0.003 C 
ATOM      3  C   LIG    1       22.259 -30.045  11.836  0.00  0.00    +0.067 C 
ATOM      4  C   LIG    1       23.142 -30.990  12.693  0.00  0.00    -0.017 C 
ATOM      5  C   LIG    1       23.275 -30.198  14.018  0.00  0.00    +0.002 C 
ATOM      6  C   LIG    1       24.341 -29.060  14.017  0.00  0.00    +0.034 C 
ATOM      7  C   LIG    1       25.708 -29.477  13.414  0.00  0.00    +0.153 C 
ATOM      8  C   LIG    1       25.462 -30.098  12.012  0.00  0.00    +0.153 C 
ATOM      9  F   LIG    1       26.182 -30.507  14.204  0.00  0.00    -0.238 F 
ATOM     10  C   LIG    1       26.799 -28.310  13.471  0.00  0.00    +0.044 C 
ATOM     11  C   LIG    1       26.787 -27.548  14.829  0.00  0.00    -0.053 C 
ATOM     12  C   LIG    1       27.627 -26.495  14.985  0.00  0.00    +0.051 C 
ATOM     13  C   LIG    1       27.405 -25.458  13.909  0.00  0.00    +0.179 C 
ATOM     14  C   LIG    1       26.872 -25.935  12.600  0.00  0.00    +0.047 C 
ATOM     15  O   LIG    1       27.720 -24.288  14.079  0.00  0.00    -0.288 OA
ATOM     16  C   LIG    1       25.442 -27.355  15.497  0.00  0.00    +0.032 C 
ATOM     17  C   LIG    1       28.216 -28.922  13.273  0.00  0.00    +0.023 C 
ATOM     18  C   LIG    1       26.619 -27.240  12.388  0.00  0.00    -0.009 C 
ATOM     19  C   LIG    1       24.567 -28.590  15.464  0.00  0.00    +0.011 C 
ATOM     20  C   LIG    1       22.442 -32.346  12.957  0.00  0.00    +0.012 C 
ATOM     21  C   LIG    1       24.513 -31.295  12.083  0.00  0.00    +0.042 C 
ATOM     22  C   LIG    1       21.857 -29.628  14.230  0.00  0.00    +0.008 C 
ENDROOT
BRANCH   3  23
ATOM     23  C   LIG    1       21.579 -30.707  10.636  0.00  0.00    +0.162 C 
ATOM     24  O   LIG    1       22.151 -30.879   9.556  0.00  0.00    -0.295 OA
BRANCH  23  25
ATOM     25  C   LIG    1       20.124 -31.131  10.803  0.00  0.00    +0.230 C 
BRANCH  25  26
ATOM     26  O   LIG    1       19.278 -30.450   9.889  0.00  0.00    -0.388 OA
ATOM     27  H   LIG    1       19.287 -30.977   9.063  0.00  0.00    +0.210 HD
ENDBRANCH  25  26
ENDBRANCH  23  25
ENDBRANCH   3  23
BRANCH   8  28
ATOM     28  O   LIG    1       26.655 -30.568  11.390  0.00  0.00    -0.389 OA
ATOM     29  H   LIG    1       27.044 -29.815  10.905  0.00  0.00    +0.210 HD
ENDBRANCH   8  28
TORSDOF 4
ENDMDL
MODEL 6
REMARK VINA RESULT:      -5.2      2.075      6.580
REMARK  Name = *****
REMARK                            x       y       z     vdW  Elec       q    Type
REMARK                         _______ _______ _______ _____ _____    ______ ____
ROOT
ATOM      1  C   LIG    1       26.666 -26.591  12.118  0.00  0.00    +0.008 C 
ATOM      2  C   LIG    1       26.087 -27.577  13.130  0.00  0.00    -0.003 C 
ATOM      3  C   LIG    1       24.567 -27.781  12.934  0.00  0.00    +0.067 C 
ATOM      4  C   LIG    1       24.331 -29.275  13.277  0.00  0.00    -0.017 C 
ATOM      5  C   LIG    1       25.580 -29.952  12.659  0.00  0.00    +0.002 C 
ATOM      6  C   LIG    1       25.517 -30.205  11.122  0.00  0.00    +0.034 C 
ATOM      7  C   LIG    1       24.182 -30.830  10.640  0.00  0.00    +0.153 C 
ATOM      8  C   LIG    1       23.009 -29.964  11.175  0.00  0.00    +0.153 C 
ATOM      9  F   LIG    1       24.072 -32.050  11.280  0.00  0.00    -0.238 F 
ATOM     10  C   LIG    1       24.161 -31.126   9.070  0.00  0.00    +0.044 C 
ATOM     11  C   LIG    1       25.497 -31.745   8.562  0.00  0.00    -0.053 C 
ATOM     12  C   LIG    1       25.631 -31.991   7.234  0.00  0.00    +0.051 C 
ATOM     13  C   LIG    1       25.402 -30.737   6.423  0.00  0.00    +0.179 C 
ATOM     14  C   LIG    1       24.508 -29.697   7.011  0.00  0.00    +0.047 C 
ATOM     15  O   LIG    1       25.870 -30.612   5.299  0.00  0.00    -0.288 OA
ATOM     16  C   LIG    1       26.772 -31.262   9.220  0.00  0.00    +0.032 C 
ATOM     17  C   LIG    1       23.014 -32.129   8.751  0.00  0.00    +0.023 C 
ATOM     18  C   LIG    1       23.920 -29.883   8.207  0.00  0.00    -0.009 C 
ATOM     19  C   LIG    1       26.669 -31.144  10.726  0.00  0.00    +0.011 C 
ATOM     20  C   LIG    1       24.302 -29.515  14.807  0.00  0.00    +0.012 C 
ATOM     21  C   LIG    1       23.036 -29.855  12.700  0.00  0.00    +0.042 C 
ATOM     22  C   LIG    1       26.720 -28.975  13.014  0.00  0.00    +0.008 C 
ENDROOT
BRANCH   3  23
ATOM     23  C   LIG    1       23.750 -26.789  13.765  0.00  0.00    +0.162 C 
ATOM     24  O   LIG    1       24.185 -26.262  14.792  0.00  0.00    -0.295 OA
BRANCH  23  25
ATOM     25  C   LIG    1       22.332 -26.486  13.294  0.00  0.00    +0.230 C 
BRANCH  25  26
ATOM     26  O   LIG    1       21.366 -27.074  14.151  0.00  0.00    -0.388 OA
ATOM     27  H   LIG    1       21.675 -27.988  14.327  0.00  0.00    +0.210 HD
ENDBRANCH  25  26
ENDBRANCH  23  25
ENDBRANCH   3  23
BRANCH   8  28
ATOM     28  O   LIG    1       21.726 -30.485  10.833  0.00  0.00    -0.389 OA
ATOM     29  H   LIG    1       21.071 -30.033  11.399  0.00  0.00    +0.210 HD
ENDBRANCH   8  28
TORSDOF 4
ENDMDL
MODEL 7
REMARK VINA RESULT:      -5.0      2.981      3.988
REMARK  Name = *****
REMARK                            x       y       z     vdW  Elec       q    Type
REMARK                         _______ _______ _______ _____ _____    ______ ____
ROOT
ATOM      1  C   LIG    1       20.862 -32.268  10.423  0.00  0.00    +0.008 C 
ATOM      2  C   LIG    1       22.150 -32.519  11.202  0.00  0.00    -0.003 C 
ATOM      3  C   LIG    1       23.185 -31.391  10.986  0.00  0.00    +0.067 C 
ATOM      4  C   LIG    1       23.901 -31.258  12.355  0.00  0.00    -0.017 C 
ATOM      5  C   LIG    1       22.732 -31.448  13.355  0.00  0.00    +0.002 C 
ATOM      6  C   LIG    1       21.845 -30.190  13.598  0.00  0.00    +0.034 C 
ATOM      7  C   LIG    1       22.651 -28.887  13.841  0.00  0.00    +0.153 C 
ATOM      8  C   LIG    1       23.671 -28.712  12.683  0.00  0.00    +0.153 C 
ATOM      9  F   LIG    1       23.406 -29.105  14.978  0.00  0.00    -0.238 F 
ATOM     10  C   LIG    1       21.721 -27.622  14.139  0.00  0.00    +0.044 C 
ATOM     11  C   LIG    1       20.545 -27.959  15.103  0.00  0.00    -0.053 C 
ATOM     12  C   LIG    1       19.647 -26.985  15.392  0.00  0.00    +0.051 C 
ATOM     13  C   LIG    1       19.024 -26.430  14.132  0.00  0.00    +0.179 C 
ATOM     14  C   LIG    1       19.834 -26.499  12.881  0.00  0.00    +0.047 C 
ATOM     15  O   LIG    1       17.930 -25.880  14.152  0.00  0.00    -0.288 OA
ATOM     16  C   LIG    1       19.928 -29.336  14.979  0.00  0.00    +0.032 C 
ATOM     17  C   LIG    1       22.575 -26.498  14.794  0.00  0.00    +0.023 C 
ATOM     18  C   LIG    1       21.075 -27.018  12.887  0.00  0.00    -0.009 C 
ATOM     19  C   LIG    1       20.946 -30.444  14.820  0.00  0.00    +0.011 C 
ATOM     20  C   LIG    1       24.957 -32.372  12.561  0.00  0.00    +0.012 C 
ATOM     21  C   LIG    1       24.607 -29.916  12.568  0.00  0.00    +0.042 C 
ATOM     22  C   LIG    1       21.911 -32.591  12.721  0.00  0.00    +0.008 C 
ENDROOT
BRANCH   3  23
ATOM     23  C   LIG    1       24.105 -31.686   9.800  0.00  0.00    +0.162 C 
ATOM     24  O   LIG    1       24.380 -32.832   9.437  0.00  0.00    -0.295 OA
BRANCH  23  25
ATOM     25  C   LIG    1       24.720 -30.490   9.080  0.00  0.00    +0.230 C 
BRANCH  25  26
ATOM     26  O   LIG    1       23.779 -29.864   8.221  0.00  0.00    -0.388 OA
ATOM     27  H   LIG    1       23.340 -29.169   8.755  0.00  0.00    +0.210 HD
ENDBRANCH  25  26
ENDBRANCH  23  25
ENDBRANCH   3  23
BRANCH   8  28
ATOM     28  O   LIG    1       24.506 -27.568  12.839  0.00  0.00    -0.389 OA
ATOM     29  H   LIG    1       23.919 -26.794  12.942  0.00  0.00    +0.210 HD
ENDBRANCH   8  28
TORSDOF 4
ENDMDL
MODEL 8
REMARK VINA RESULT:      -4.9      2.354      3.360
REMARK  Name = *****
REMARK                            x       y       z     vdW  Elec       q    Type
REMARK                         _______ _______ _______ _____ _____    ______ ____
ROOT
ATOM      1  C   LIG    1       24.080 -29.785   8.347  0.00  0.00    +0.008 C 
ATOM      2  C   LIG    1       24.486 -31.001   9.176  0.00  0.00    -0.003 C 
ATOM      3  C   LIG    1       25.351 -30.607  10.394  0.00  0.00    +0.067 C 
ATOM      4  C   LIG    1       24.925 -31.600  11.507  0.00  0.00    -0.017 C 
ATOM      5  C   LIG    1       23.396 -31.706  11.281  0.00  0.00    +0.002 C 
ATOM      6  C   LIG    1       22.546 -30.541  11.874  0.00  0.00    +0.034 C 
ATOM      7  C   LIG    1       22.923 -30.163  13.330  0.00  0.00    +0.153 C 
ATOM      8  C   LIG    1       24.454 -29.910  13.395  0.00  0.00    +0.153 C 
ATOM      9  F   LIG    1       22.696 -31.292  14.095  0.00  0.00    -0.238 F 
ATOM     10  C   LIG    1       22.005 -29.002  13.933  0.00  0.00    +0.044 C 
ATOM     11  C   LIG    1       20.499 -29.189  13.580  0.00  0.00    -0.053 C 
ATOM     12  C   LIG    1       19.619 -28.239  13.985  0.00  0.00    +0.051 C 
ATOM     13  C   LIG    1       20.017 -26.875  13.468  0.00  0.00    +0.179 C 
ATOM     14  C   LIG    1       21.467 -26.638  13.209  0.00  0.00    +0.047 C 
ATOM     15  O   LIG    1       19.193 -25.980  13.339  0.00  0.00    -0.288 OA
ATOM     16  C   LIG    1       20.179 -29.773  12.221  0.00  0.00    +0.032 C 
ATOM     17  C   LIG    1       22.140 -28.994  15.484  0.00  0.00    +0.023 C 
ATOM     18  C   LIG    1       22.379 -27.598  13.445  0.00  0.00    -0.009 C 
ATOM     19  C   LIG    1       21.061 -30.943  11.842  0.00  0.00    +0.011 C 
ATOM     20  C   LIG    1       25.584 -32.989  11.319  0.00  0.00    +0.012 C 
ATOM     21  C   LIG    1       25.250 -31.130  12.928  0.00  0.00    +0.042 C 
ATOM     22  C   LIG    1       23.271 -31.755   9.743  0.00  0.00    +0.008 C 
ENDROOT
BRANCH   3  23
ATOM     23  C   LIG    1       26.843 -30.614  10.058  0.00  0.00    +0.162 C 
ATOM     24  O   LIG    1       27.369 -31.495   9.373  0.00  0.00    -0.295 OA
BRANCH  23  25
ATOM     25  C   LIG    1       27.695 -29.489  10.636  0.00  0.00    +0.230 C 
BRANCH  25  26
ATOM     26  O   LIG    1       28.550 -29.963  11.664  0.00  0.00    -0.388 OA
ATOM     27  H   LIG    1       29.449 -30.009  11.275  0.00  0.00    +0.210 HD
ENDBRANCH  25  26
ENDBRANCH  23  25
ENDBRANCH   3  23
BRANCH   8  28
ATOM     28  O   LIG    1       24.918 -29.607  14.709  0.00  0.00    -0.389 OA
ATOM     29  H   LIG    1       24.499 -28.766  14.976  0.00  0.00    +0.210 HD
ENDBRANCH   8  28
TORSDOF 4
ENDMDL
MODEL 9
REMARK VINA RESULT:      -4.9      3.371      6.355
REMARK  Name = *****
REMARK                            x       y       z     vdW  Elec       q    Type
REMARK                         _______ _______ _______ _____ _____    ______ ____
ROOT
ATOM      1  C   LIG    1       20.681 -26.920  12.861  0.00  0.00    +0.008 C 
ATOM      2  C   LIG    1       20.974 -27.998  13.902  0.00  0.00    -0.003 C 
ATOM      3  C   LIG    1       20.581 -29.406  13.402  0.00  0.00    +0.067 C 
ATOM      4  C   LIG    1       21.657 -30.345  14.007  0.00  0.00    -0.017 C 
ATOM      5  C   LIG    1       22.945 -29.493  13.873  0.00  0.00    +0.002 C 
ATOM      6  C   LIG    1       23.609 -29.496  12.463  0.00  0.00    +0.034 C 
ATOM      7  C   LIG    1       23.741 -30.906  11.831  0.00  0.00    +0.153 C 
ATOM      8  C   LIG    1       22.350 -31.596  11.863  0.00  0.00    +0.153 C 
ATOM      9  F   LIG    1       24.543 -31.640  12.684  0.00  0.00    -0.238 F 
ATOM     10  C   LIG    1       24.471 -30.890  10.409  0.00  0.00    +0.044 C 
ATOM     11  C   LIG    1       25.710 -29.946  10.386  0.00  0.00    -0.053 C 
ATOM     12  C   LIG    1       26.385 -29.796   9.219  0.00  0.00    +0.051 C 
ATOM     13  C   LIG    1       25.466 -29.327   8.115  0.00  0.00    +0.179 C 
ATOM     14  C   LIG    1       24.025 -29.694   8.224  0.00  0.00    +0.047 C 
ATOM     15  O   LIG    1       25.900 -28.734   7.136  0.00  0.00    -0.288 OA
ATOM     16  C   LIG    1       25.620 -28.674  11.202  0.00  0.00    +0.032 C 
ATOM     17  C   LIG    1       24.954 -32.328  10.062  0.00  0.00    +0.023 C 
ATOM     18  C   LIG    1       23.572 -30.429   9.256  0.00  0.00    -0.009 C 
ATOM     19  C   LIG    1       25.012 -28.876  12.573  0.00  0.00    +0.011 C 
ATOM     20  C   LIG    1       21.379 -30.650  15.500  0.00  0.00    +0.012 C 
ATOM     21  C   LIG    1       21.797 -31.689  13.286  0.00  0.00    +0.042 C 
ATOM     22  C   LIG    1       22.469 -28.076  14.258  0.00  0.00    +0.008 C 
ENDROOT
BRANCH   3  23
ATOM     23  C   LIG    1       19.137 -29.756  13.769  0.00  0.00    +0.162 C 
ATOM     24  O   LIG    1       18.555 -30.745  13.318  0.00  0.00    -0.295 OA
BRANCH  23  25
ATOM     25  C   LIG    1       18.405 -28.803  14.708  0.00  0.00    +0.230 C 
BRANCH  25  26
ATOM     26  O   LIG    1       17.494 -27.977  14.000  0.00  0.00    -0.388 OA
ATOM     27  H   LIG    1       17.266 -27.239  14.604  0.00  0.00    +0.210 HD
ENDBRANCH  25  26
ENDBRANCH  23  25
ENDBRANCH   3  23
BRANCH   8  28
ATOM     28  O   LIG    1       22.371 -32.927  11.353  0.00  0.00    -0.389 OA
ATOM     29  H   LIG    1       22.964 -32.929  10.577  0.00  0.00    +0.210 HD
ENDBRANCH   8  28
TORSDOF 4
ENDMDL
