MODEL 1
REMARK VINA RESULT:      -7.2      0.000      0.000
REMARK  Name = *****
REMARK                            x       y       z     vdW  Elec       q    Type
REMARK                         _______ _______ _______ _____ _____    ______ ____
ROOT
ATOM      1  C   LIG    1       26.103 -22.385   6.251  0.00  0.00    +0.169 C 
ATOM      2  C   LIG    1       26.721 -21.268   7.128  0.00  0.00    +0.182 C 
ATOM      3  C   LIG    1       25.684 -20.650   8.106  0.00  0.00    +0.163 C 
ATOM      4  C   LIG    1       24.223 -20.815   7.618  0.00  0.00    +0.084 C 
ATOM      5  C   LIG    1       24.167 -20.666   6.099  0.00  0.00    +0.042 C 
ATOM      6  C   LIG    1       24.868 -21.870   5.444  0.00  0.00    +0.084 C 
ENDROOT
BRANCH   6   7
ATOM      7  N   LIG    1       25.174 -21.569   4.040  0.00  0.00    -0.325 NA
ATOM      8  H   LIG    1       25.616 -20.649   3.973  0.00  0.00    +0.118 HD
ATOM      9  H   LIG    1       25.878 -22.226   3.694  0.00  0.00    +0.118 HD
ENDBRANCH   6   7
BRANCH   4  10
ATOM     10  N   LIG    1       23.343 -19.860   8.311  0.00  0.00    -0.325 NA
ATOM     11  H   LIG    1       22.408 -20.260   8.401  0.00  0.00    +0.118 HD
ATOM     12  H   LIG    1       23.677 -19.738   9.269  0.00  0.00    +0.118 HD
ENDBRANCH   4  10
BRANCH   3  13
ATOM     13  O   LIG    1       25.789 -21.212   9.421  0.00  0.00    -0.388 OA
ATOM     14  H   LIG    1       25.136 -20.715   9.958  0.00  0.00    +0.210 HD
ENDBRANCH   3  13
BRANCH   2  15
ATOM     15  O   LIG    1       27.201 -20.185   6.293  0.00  0.00    -0.340 OA
BRANCH  15  16
ATOM     16  C   LIG    1       28.597 -20.242   5.987  0.00  0.00    +0.282 C 
ATOM     17  C   LIG    1       29.191 -18.823   6.157  0.00  0.00    +0.201 C 
ATOM     18  C   LIG    1       30.361 -19.057   7.097  0.00  0.00    +0.179 C 
ATOM     19  C   LIG    1       29.859 -20.250   7.894  0.00  0.00    +0.178 C 
ATOM     20  O   LIG    1       29.267 -21.105   6.916  0.00  0.00    -0.341 OA
BRANCH  17  21
ATOM     21  O   LIG    1       29.637 -18.266   4.916  0.00  0.00    -0.384 OA
ATOM     22  H   LIG    1       29.979 -17.376   5.129  0.00  0.00    +0.210 HD
ENDBRANCH  17  21
BRANCH  18  23
ATOM     23  O   LIG    1       30.635 -17.912   7.894  0.00  0.00    -0.386 OA
ATOM     24  H   LIG    1       29.788 -17.679   8.332  0.00  0.00    +0.210 HD
ENDBRANCH  18  23
BRANCH  19  25
ATOM     25  C   LIG    1       30.965 -20.966   8.653  0.00  0.00    +0.190 C 
BRANCH  25  26
ATOM     26  O   LIG    1       31.953 -20.030   9.075  0.00  0.00    -0.392 OA
ATOM     27  H   LIG    1       32.126 -19.444   8.314  0.00  0.00    +0.209 HD
ENDBRANCH  25  26
ENDBRANCH  19  25
ENDBRANCH  15  16
ENDBRANCH   2  15
BRANCH   1  28
ATOM     28  O   LIG    1       25.733 -23.516   7.061  0.00  0.00    -0.342 OA
BRANCH  28  33
ATOM     29  C   LIG    1       25.797 -27.094   6.829  0.00  0.00    +0.166 C 
ATOM     30  C   LIG    1       24.381 -27.205   6.224  0.00  0.00    +0.175 C 
ATOM     31  C   LIG    1       23.903 -25.840   5.673  0.00  0.00    +0.167 C 
ATOM     32  C   LIG    1       25.104 -24.976   5.223  0.00  0.00    +0.139 C 
ATOM     33  C   LIG    1       26.062 -24.773   6.446  0.00  0.00    +0.270 C 
ATOM     34  O   LIG    1       25.946 -25.804   7.427  0.00  0.00    -0.343 OA
BRANCH  32  35
ATOM     35  N   LIG    1       25.779 -25.613   4.056  0.00  0.00    -0.321 NA
ATOM     36  H   LIG    1       26.747 -25.820   4.319  0.00  0.00    +0.119 HD
ATOM     37  H   LIG    1       25.352 -26.528   3.891  0.00  0.00    +0.119 HD
ENDBRANCH  32  35
BRANCH  30  38
ATOM     38  O   LIG    1       24.411 -28.183   5.175  0.00  0.00    -0.387 OA
ATOM     39  H   LIG    1       23.479 -28.334   4.921  0.00  0.00    +0.210 HD
ENDBRANCH  30  38
BRANCH  31  40
ATOM     40  O   LIG    1       23.120 -25.145   6.650  0.00  0.00    -0.387 OA
ATOM     41  H   LIG    1       23.094 -25.684   7.465  0.00  0.00    +0.210 HD
ENDBRANCH  31  40
BRANCH  29  42
ATOM     42  C   LIG    1       26.035 -28.196   7.881  0.00  0.00    +0.112 C 
BRANCH  42  43
ATOM     43  N   LIG    1       25.578 -29.514   7.421  0.00  0.00    -0.328 NA
ATOM     44  H   LIG    1       25.642 -29.550   6.405  0.00  0.00    +0.118 HD
ATOM     45  H   LIG    1       26.204 -30.237   7.772  0.00  0.00    +0.118 HD
ENDBRANCH  42  43
ENDBRANCH  29  42
ENDBRANCH  28  33
ENDBRANCH   1  28
TORSDOF 16
ENDMDL
MODEL 2
REMARK VINA RESULT:      -6.8      2.394      7.344
REMARK  Name = *****
REMARK                            x       y       z     vdW  Elec       q    Type
REMARK                         _______ _______ _______ _____ _____    ______ ____
ROOT
ATOM      1  C   LIG    1       26.398 -21.860   7.676  0.00  0.00    +0.169 C 
ATOM      2  C   LIG    1       25.726 -22.655   6.530  0.00  0.00    +0.182 C 
ATOM      3  C   LIG    1       24.737 -21.781   5.710  0.00  0.00    +0.163 C 
ATOM      4  C   LIG    1       24.191 -20.575   6.515  0.00  0.00    +0.084 C 
ATOM      5  C   LIG    1       23.974 -20.982   7.970  0.00  0.00    +0.042 C 
ATOM      6  C   LIG    1       25.340 -21.227   8.638  0.00  0.00    +0.084 C 
ENDROOT
BRANCH   6   7
ATOM      7  N   LIG    1       25.160 -21.984   9.884  0.00  0.00    -0.325 NA
ATOM      8  H   LIG    1       24.725 -21.386  10.590  0.00  0.00    +0.118 HD
ATOM      9  H   LIG    1       24.491 -22.743   9.731  0.00  0.00    +0.118 HD
ENDBRANCH   6   7
BRANCH   4  10
ATOM     10  N   LIG    1       22.966 -20.055   5.886  0.00  0.00    -0.325 NA
ATOM     11  H   LIG    1       23.214 -19.455   5.099  0.00  0.00    +0.118 HD
ATOM     12  H   LIG    1       22.447 -20.835   5.478  0.00  0.00    +0.118 HD
ENDBRANCH   4  10
BRANCH   3  13
ATOM     13  O   LIG    1       25.335 -21.287   4.503  0.00  0.00    -0.388 OA
ATOM     14  H   LIG    1       25.236 -22.019   3.858  0.00  0.00    +0.210 HD
ENDBRANCH   3  13
BRANCH   2  15
ATOM     15  O   LIG    1       24.955 -23.756   7.070  0.00  0.00    -0.340 OA
BRANCH  15  16
ATOM     16  C   LIG    1       24.247 -24.525   6.092  0.00  0.00    +0.282 C 
ATOM     17  C   LIG    1       25.225 -24.870   4.944  0.00  0.00    +0.201 C 
ATOM     18  C   LIG    1       25.095 -26.380   4.833  0.00  0.00    +0.179 C 
ATOM     19  C   LIG    1       24.752 -26.747   6.267  0.00  0.00    +0.178 C 
ATOM     20  O   LIG    1       23.803 -25.760   6.668  0.00  0.00    -0.341 OA
BRANCH  17  21
ATOM     21  O   LIG    1       24.866 -24.235   3.711  0.00  0.00    -0.384 OA
ATOM     22  H   LIG    1       23.942 -24.498   3.534  0.00  0.00    +0.210 HD
ENDBRANCH  17  21
BRANCH  18  23
ATOM     23  O   LIG    1       26.295 -26.979   4.360  0.00  0.00    -0.386 OA
ATOM     24  H   LIG    1       26.124 -27.945   4.337  0.00  0.00    +0.210 HD
ENDBRANCH  18  23
BRANCH  19  25
ATOM     25  C   LIG    1       24.178 -28.149   6.401  0.00  0.00    +0.190 C 
BRANCH  25  26
ATOM     26  O   LIG    1       23.849 -28.667   5.114  0.00  0.00    -0.392 OA
ATOM     27  H   LIG    1       23.386 -29.514   5.264  0.00  0.00    +0.209 HD
ENDBRANCH  25  26
ENDBRANCH  19  25
ENDBRANCH  15  16
ENDBRANCH   2  15
BRANCH   1  28
ATOM     28  O   LIG    1       27.261 -20.838   7.144  0.00  0.00    -0.342 OA
BRANCH  28  33
ATOM     29  C   LIG    1       30.421 -21.011   8.829  0.00  0.00    +0.166 C 
ATOM     30  C   LIG    1       31.196 -20.272   7.717  0.00  0.00    +0.175 C 
ATOM     31  C   LIG    1       30.228 -19.525   6.767  0.00  0.00    +0.167 C 
ATOM     32  C   LIG    1       28.935 -19.115   7.508  0.00  0.00    +0.139 C 
ATOM     33  C   LIG    1       28.257 -20.405   8.085  0.00  0.00    +0.270 C 
ATOM     34  O   LIG    1       29.178 -21.475   8.298  0.00  0.00    -0.343 OA
BRANCH  32  35
ATOM     35  N   LIG    1       29.251 -18.106   8.559  0.00  0.00    -0.321 NA
ATOM     36  H   LIG    1       29.887 -18.536   9.236  0.00  0.00    +0.119 HD
ATOM     37  H   LIG    1       29.793 -17.349   8.134  0.00  0.00    +0.119 HD
ENDBRANCH  32  35
BRANCH  30  38
ATOM     38  O   LIG    1       32.103 -19.347   8.333  0.00  0.00    -0.387 OA
ATOM     39  H   LIG    1       31.961 -18.490   7.884  0.00  0.00    +0.210 HD
ENDBRANCH  30  38
BRANCH  31  40
ATOM     40  O   LIG    1       29.921 -20.329   5.622  0.00  0.00    -0.387 OA
ATOM     41  H   LIG    1       28.957 -20.285   5.465  0.00  0.00    +0.210 HD
ENDBRANCH  31  40
BRANCH  29  42
ATOM     42  C   LIG    1       31.238 -22.198   9.377  0.00  0.00    +0.112 C 
BRANCH  42  43
ATOM     43  N   LIG    1       32.341 -22.575   8.482  0.00  0.00    -0.328 NA
ATOM     44  H   LIG    1       33.133 -21.958   8.654  0.00  0.00    +0.118 HD
ATOM     45  H   LIG    1       32.659 -23.517   8.706  0.00  0.00    +0.118 HD
ENDBRANCH  42  43
ENDBRANCH  29  42
ENDBRANCH  28  33
ENDBRANCH   1  28
TORSDOF 16
ENDMDL
MODEL 3
REMARK VINA RESULT:      -6.5      4.627      8.673
REMARK  Name = *****
REMARK                            x       y       z     vdW  Elec       q    Type
REMARK                         _______ _______ _______ _____ _____    ______ ____
ROOT
ATOM      1  C   LIG    1       24.679 -29.731   8.495  0.00  0.00    +0.169 C 
ATOM      2  C   LIG    1       24.572 -28.842   7.231  0.00  0.00    +0.182 C 
ATOM      3  C   LIG    1       24.460 -29.683   5.930  0.00  0.00    +0.163 C 
ATOM      4  C   LIG    1       25.060 -31.104   6.079  0.00  0.00    +0.084 C 
ATOM      5  C   LIG    1       26.304 -31.049   6.961  0.00  0.00    +0.042 C 
ATOM      6  C   LIG    1       25.888 -30.719   8.406  0.00  0.00    +0.084 C 
ENDROOT
BRANCH   6   7
ATOM      7  N   LIG    1       27.057 -30.277   9.177  0.00  0.00    -0.325 NA
ATOM      8  H   LIG    1       26.852 -30.332  10.177  0.00  0.00    +0.118 HD
ATOM      9  H   LIG    1       27.831 -30.930   9.031  0.00  0.00    +0.118 HD
ENDBRANCH   6   7
BRANCH   4  10
ATOM     10  N   LIG    1       25.334 -31.683   4.753  0.00  0.00    -0.325 NA
ATOM     11  H   LIG    1       24.968 -31.064   4.028  0.00  0.00    +0.118 HD
ATOM     12  H   LIG    1       26.344 -31.705   4.604  0.00  0.00    +0.118 HD
ENDBRANCH   4  10
BRANCH   3  13
ATOM     13  O   LIG    1       23.101 -29.808   5.490  0.00  0.00    -0.388 OA
ATOM     14  H   LIG    1       22.936 -29.003   4.955  0.00  0.00    +0.210 HD
ENDBRANCH   3  13
BRANCH   2  15
ATOM     15  O   LIG    1       25.760 -28.023   7.094  0.00  0.00    -0.340 OA
BRANCH  15  16
ATOM     16  C   LIG    1       25.684 -27.031   6.067  0.00  0.00    +0.282 C 
ATOM     17  C   LIG    1       24.212 -26.567   5.946  0.00  0.00    +0.201 C 
ATOM     18  C   LIG    1       24.324 -25.057   6.072  0.00  0.00    +0.179 C 
ATOM     19  C   LIG    1       25.552 -24.930   6.958  0.00  0.00    +0.178 C 
ATOM     20  O   LIG    1       26.469 -25.887   6.431  0.00  0.00    -0.341 OA
BRANCH  17  21
ATOM     21  O   LIG    1       23.627 -26.932   4.691  0.00  0.00    -0.384 OA
ATOM     22  H   LIG    1       22.723 -26.563   4.700  0.00  0.00    +0.210 HD
ENDBRANCH  17  21
BRANCH  18  23
ATOM     23  O   LIG    1       23.150 -24.488   6.637  0.00  0.00    -0.386 OA
ATOM     24  H   LIG    1       23.396 -24.203   7.543  0.00  0.00    +0.210 HD
ENDBRANCH  18  23
BRANCH  19  25
ATOM     25  C   LIG    1       26.150 -23.532   6.948  0.00  0.00    +0.190 C 
BRANCH  25  26
ATOM     26  O   LIG    1       25.554 -22.752   5.914  0.00  0.00    -0.392 OA
ATOM     27  H   LIG    1       24.815 -23.280   5.557  0.00  0.00    +0.209 HD
ENDBRANCH  25  26
ENDBRANCH  19  25
ENDBRANCH  15  16
ENDBRANCH   2  15
BRANCH   1  28
ATOM     28  O   LIG    1       23.455 -30.460   8.704  0.00  0.00    -0.342 OA
BRANCH  28  33
ATOM     29  C   LIG    1       21.105 -31.000  11.358  0.00  0.00    +0.166 C 
ATOM     30  C   LIG    1       21.862 -32.209  11.950  0.00  0.00    +0.175 C 
ATOM     31  C   LIG    1       23.316 -32.268  11.422  0.00  0.00    +0.167 C 
ATOM     32  C   LIG    1       23.834 -30.854  11.073  0.00  0.00    +0.139 C 
ATOM     33  C   LIG    1       22.881 -30.221  10.000  0.00  0.00    +0.270 C 
ATOM     34  O   LIG    1       21.565 -30.774  10.024  0.00  0.00    -0.343 OA
BRANCH  32  35
ATOM     35  N   LIG    1       23.940 -30.032  12.312  0.00  0.00    -0.321 NA
ATOM     36  H   LIG    1       24.286 -30.632  13.066  0.00  0.00    +0.119 HD
ATOM     37  H   LIG    1       24.673 -29.331  12.177  0.00  0.00    +0.119 HD
ENDBRANCH  32  35
BRANCH  30  38
ATOM     38  O   LIG    1       21.856 -32.092  13.380  0.00  0.00    -0.387 OA
ATOM     39  H   LIG    1       22.029 -31.149  13.574  0.00  0.00    +0.210 HD
ENDBRANCH  30  38
BRANCH  31  40
ATOM     40  O   LIG    1       23.406 -33.134  10.284  0.00  0.00    -0.387 OA
ATOM     41  H   LIG    1       23.046 -32.661   9.508  0.00  0.00    +0.210 HD
ENDBRANCH  31  40
BRANCH  29  42
ATOM     42  C   LIG    1       19.583 -31.248  11.359  0.00  0.00    +0.112 C 
BRANCH  42  43
ATOM     43  N   LIG    1       18.923 -30.664  10.183  0.00  0.00    -0.328 NA
ATOM     44  H   LIG    1       18.710 -29.686  10.374  0.00  0.00    +0.118 HD
ATOM     45  H   LIG    1       19.566 -30.667   9.392  0.00  0.00    +0.118 HD
ENDBRANCH  42  43
ENDBRANCH  29  42
ENDBRANCH  28  33
ENDBRANCH   1  28
TORSDOF 16
ENDMDL
MODEL 4
REMARK VINA RESULT:      -6.3      4.602      8.576
REMARK  Name = *****
REMARK                            x       y       z     vdW  Elec       q    Type
REMARK                         _______ _______ _______ _____ _____    ______ ____
ROOT
ATOM      1  C   LIG    1       24.657 -29.577   8.458  0.00  0.00    +0.169 C 
ATOM      2  C   LIG    1       24.561 -28.741   7.158  0.00  0.00    +0.182 C 
ATOM      3  C   LIG    1       24.418 -29.634   5.895  0.00  0.00    +0.163 C 
ATOM      4  C   LIG    1       24.984 -31.062   6.101  0.00  0.00    +0.084 C 
ATOM      5  C   LIG    1       26.237 -30.999   6.971  0.00  0.00    +0.042 C 
ATOM      6  C   LIG    1       25.841 -30.597   8.403  0.00  0.00    +0.084 C 
ENDROOT
BRANCH   6   7
ATOM      7  N   LIG    1       27.027 -30.151   9.145  0.00  0.00    -0.325 NA
ATOM      8  H   LIG    1       26.851 -30.218  10.150  0.00  0.00    +0.118 HD
ATOM      9  H   LIG    1       27.803 -30.795   8.970  0.00  0.00    +0.118 HD
ENDBRANCH   6   7
BRANCH   4  10
ATOM     10  N   LIG    1       25.232 -31.703   4.799  0.00  0.00    -0.325 NA
ATOM     11  H   LIG    1       25.039 -32.703   4.869  0.00  0.00    +0.118 HD
ATOM     12  H   LIG    1       24.559 -31.345   4.120  0.00  0.00    +0.118 HD
ENDBRANCH   4  10
BRANCH   3  13
ATOM     13  O   LIG    1       23.052 -29.745   5.471  0.00  0.00    -0.388 OA
ATOM     14  H   LIG    1       22.611 -30.259   6.180  0.00  0.00    +0.210 HD
ENDBRANCH   3  13
BRANCH   2  15
ATOM     15  O   LIG    1       25.767 -27.958   6.977  0.00  0.00    -0.340 OA
BRANCH  15  16
ATOM     16  C   LIG    1       25.670 -26.936   5.980  0.00  0.00    +0.282 C 
ATOM     17  C   LIG    1       24.197 -26.465   5.908  0.00  0.00    +0.201 C 
ATOM     18  C   LIG    1       24.316 -24.960   6.074  0.00  0.00    +0.179 C 
ATOM     19  C   LIG    1       25.565 -24.861   6.934  0.00  0.00    +0.178 C 
ATOM     20  O   LIG    1       26.467 -25.806   6.358  0.00  0.00    -0.341 OA
BRANCH  17  21
ATOM     21  O   LIG    1       23.581 -26.793   4.657  0.00  0.00    -0.384 OA
ATOM     22  H   LIG    1       23.967 -27.648   4.384  0.00  0.00    +0.210 HD
ENDBRANCH  17  21
BRANCH  18  23
ATOM     23  O   LIG    1       23.158 -24.404   6.683  0.00  0.00    -0.386 OA
ATOM     24  H   LIG    1       22.995 -24.937   7.491  0.00  0.00    +0.210 HD
ENDBRANCH  18  23
BRANCH  19  25
ATOM     25  C   LIG    1       26.168 -23.465   6.950  0.00  0.00    +0.190 C 
BRANCH  25  26
ATOM     26  O   LIG    1       25.563 -22.661   5.940  0.00  0.00    -0.392 OA
ATOM     27  H   LIG    1       25.553 -23.197   5.125  0.00  0.00    +0.209 HD
ENDBRANCH  25  26
ENDBRANCH  19  25
ENDBRANCH  15  16
ENDBRANCH   2  15
BRANCH   1  28
ATOM     28  O   LIG    1       23.418 -30.265   8.708  0.00  0.00    -0.342 OA
BRANCH  28  33
ATOM     29  C   LIG    1       23.221 -31.754  11.964  0.00  0.00    +0.166 C 
ATOM     30  C   LIG    1       21.717 -32.086  11.858  0.00  0.00    +0.175 C 
ATOM     31  C   LIG    1       21.235 -32.021  10.389  0.00  0.00    +0.167 C 
ATOM     32  C   LIG    1       22.389 -32.351   9.415  0.00  0.00    +0.139 C 
ATOM     33  C   LIG    1       23.557 -31.334   9.659  0.00  0.00    +0.270 C 
ATOM     34  O   LIG    1       23.551 -30.778  10.974  0.00  0.00    -0.343 OA
BRANCH  32  35
ATOM     35  N   LIG    1       22.809 -33.771   9.588  0.00  0.00    -0.321 NA
ATOM     36  H   LIG    1       23.754 -33.780   9.982  0.00  0.00    +0.119 HD
ATOM     37  H   LIG    1       22.221 -34.201  10.305  0.00  0.00    +0.119 HD
ENDBRANCH  32  35
BRANCH  30  38
ATOM     38  O   LIG    1       21.503 -33.400  12.395  0.00  0.00    -0.387 OA
ATOM     39  H   LIG    1       21.255 -33.964  11.636  0.00  0.00    +0.210 HD
ENDBRANCH  30  38
BRANCH  31  40
ATOM     40  O   LIG    1       20.678 -30.734  10.096  0.00  0.00    -0.387 OA
ATOM     41  H   LIG    1       19.736 -30.740  10.356  0.00  0.00    +0.210 HD
ENDBRANCH  31  40
BRANCH  29  42
ATOM     42  C   LIG    1       23.572 -31.224  13.369  0.00  0.00    +0.112 C 
BRANCH  42  43
ATOM     43  N   LIG    1       22.905 -31.984  14.434  0.00  0.00    -0.328 NA
ATOM     44  H   LIG    1       21.931 -31.688  14.492  0.00  0.00    +0.118 HD
ATOM     45  H   LIG    1       22.889 -32.973  14.192  0.00  0.00    +0.118 HD
ENDBRANCH  42  43
ENDBRANCH  29  42
ENDBRANCH  28  33
ENDBRANCH   1  28
TORSDOF 16
ENDMDL
MODEL 5
REMARK VINA RESULT:      -6.1      1.543      2.391
REMARK  Name = *****
REMARK                            x       y       z     vdW  Elec       q    Type
REMARK                         _______ _______ _______ _____ _____    ______ ____
ROOT
ATOM      1  C   LIG    1       25.735 -23.798   6.275  0.00  0.00    +0.169 C 
ATOM      2  C   LIG    1       26.439 -22.697   7.105  0.00  0.00    +0.182 C 
ATOM      3  C   LIG    1       25.457 -21.960   8.057  0.00  0.00    +0.163 C 
ATOM      4  C   LIG    1       23.986 -22.033   7.575  0.00  0.00    +0.084 C 
ATOM      5  C   LIG    1       23.937 -21.942   6.053  0.00  0.00    +0.042 C 
ATOM      6  C   LIG    1       24.540 -23.223   5.448  0.00  0.00    +0.084 C 
ENDROOT
BRANCH   6   7
ATOM      7  N   LIG    1       24.864 -23.005   4.032  0.00  0.00    -0.325 NA
ATOM      8  H   LIG    1       24.012 -22.779   3.514  0.00  0.00    +0.118 HD
ATOM      9  H   LIG    1       25.457 -22.176   3.939  0.00  0.00    +0.118 HD
ENDBRANCH   6   7
BRANCH   4  10
ATOM     10  N   LIG    1       23.185 -20.985   8.229  0.00  0.00    -0.325 NA
ATOM     11  H   LIG    1       22.290 -20.888   7.747  0.00  0.00    +0.118 HD
ATOM     12  H   LIG    1       22.950 -21.289   9.175  0.00  0.00    +0.118 HD
ENDBRANCH   4  10
BRANCH   3  13
ATOM     13  O   LIG    1       25.522 -22.474   9.394  0.00  0.00    -0.388 OA
ATOM     14  H   LIG    1       26.404 -22.899   9.456  0.00  0.00    +0.210 HD
ENDBRANCH   3  13
BRANCH   2  15
ATOM     15  O   LIG    1       26.999 -21.690   6.226  0.00  0.00    -0.340 OA
BRANCH  15  16
ATOM     16  C   LIG    1       27.465 -20.512   6.891  0.00  0.00    +0.282 C 
ATOM     17  C   LIG    1       28.896 -20.782   7.414  0.00  0.00    +0.201 C 
ATOM     18  C   LIG    1       29.689 -19.618   6.842  0.00  0.00    +0.179 C 
ATOM     19  C   LIG    1       28.912 -19.336   5.567  0.00  0.00    +0.178 C 
ATOM     20  O   LIG    1       27.542 -19.423   5.961  0.00  0.00    -0.341 OA
BRANCH  17  21
ATOM     21  O   LIG    1       28.962 -20.790   8.844  0.00  0.00    -0.384 OA
ATOM     22  H   LIG    1       28.519 -19.971   9.137  0.00  0.00    +0.210 HD
ENDBRANCH  17  21
BRANCH  18  23
ATOM     23  O   LIG    1       31.049 -19.967   6.617  0.00  0.00    -0.386 OA
ATOM     24  H   LIG    1       31.479 -19.162   6.258  0.00  0.00    +0.210 HD
ENDBRANCH  18  23
BRANCH  19  25
ATOM     25  C   LIG    1       29.226 -17.975   4.967  0.00  0.00    +0.190 C 
BRANCH  25  26
ATOM     26  O   LIG    1       28.101 -17.491   4.238  0.00  0.00    -0.392 OA
ATOM     27  H   LIG    1       28.106 -17.952   3.378  0.00  0.00    +0.209 HD
ENDBRANCH  25  26
ENDBRANCH  19  25
ENDBRANCH  15  16
ENDBRANCH   2  15
BRANCH   1  28
ATOM     28  O   LIG    1       25.281 -24.863   7.132  0.00  0.00    -0.342 OA
BRANCH  28  33
ATOM     29  C   LIG    1       25.882 -28.387   7.413  0.00  0.00    +0.166 C 
ATOM     30  C   LIG    1       25.133 -28.745   6.111  0.00  0.00    +0.175 C 
ATOM     31  C   LIG    1       24.927 -27.493   5.226  0.00  0.00    +0.167 C 
ATOM     32  C   LIG    1       26.049 -26.456   5.465  0.00  0.00    +0.139 C 
ATOM     33  C   LIG    1       26.055 -26.065   6.983  0.00  0.00    +0.270 C 
ATOM     34  O   LIG    1       25.495 -27.074   7.824  0.00  0.00    -0.343 OA
BRANCH  32  35
ATOM     35  N   LIG    1       27.355 -27.007   5.003  0.00  0.00    -0.321 NA
ATOM     36  H   LIG    1       27.202 -27.965   4.676  0.00  0.00    +0.119 HD
ATOM     37  H   LIG    1       27.651 -26.491   4.170  0.00  0.00    +0.119 HD
ENDBRANCH  32  35
BRANCH  30  38
ATOM     38  O   LIG    1       25.897 -29.734   5.406  0.00  0.00    -0.387 OA
ATOM     39  H   LIG    1       25.554 -30.601   5.703  0.00  0.00    +0.210 HD
ENDBRANCH  30  38
BRANCH  31  40
ATOM     40  O   LIG    1       23.641 -26.909   5.466  0.00  0.00    -0.387 OA
ATOM     41  H   LIG    1       23.773 -26.017   5.844  0.00  0.00    +0.210 HD
ENDBRANCH  31  40
BRANCH  29  42
ATOM     42  C   LIG    1       25.570 -29.405   8.528  0.00  0.00    +0.112 C 
BRANCH  42  43
ATOM     43  N   LIG    1       26.340 -30.647   8.379  0.00  0.00    -0.328 NA
ATOM     44  H   LIG    1       27.180 -30.587   8.953  0.00  0.00    +0.118 HD
ATOM     45  H   LIG    1       25.800 -31.431   8.743  0.00  0.00    +0.118 HD
ENDBRANCH  42  43
ENDBRANCH  29  42
ENDBRANCH  28  33
ENDBRANCH   1  28
TORSDOF 16
ENDMDL
MODEL 6
REMARK VINA RESULT:      -6.1      2.365      7.075
REMARK  Name = *****
REMARK                            x       y       z     vdW  Elec       q    Type
REMARK                         _______ _______ _______ _____ _____    ______ ____
ROOT
ATOM      1  C   LIG    1       25.408 -20.961   6.254  0.00  0.00    +0.169 C 
ATOM      2  C   LIG    1       25.249 -21.521   4.820  0.00  0.00    +0.182 C 
ATOM      3  C   LIG    1       24.556 -20.508   3.867  0.00  0.00    +0.163 C 
ATOM      4  C   LIG    1       23.673 -19.481   4.620  0.00  0.00    +0.084 C 
ATOM      5  C   LIG    1       22.982 -20.162   5.798  0.00  0.00    +0.042 C 
ATOM      6  C   LIG    1       24.034 -20.529   6.862  0.00  0.00    +0.084 C 
ENDROOT
BRANCH   6   7
ATOM      7  N   LIG    1       23.478 -21.512   7.800  0.00  0.00    -0.325 NA
ATOM      8  H   LIG    1       24.093 -22.327   7.850  0.00  0.00    +0.118 HD
ATOM      9  H   LIG    1       23.478 -21.122   8.746  0.00  0.00    +0.118 HD
ENDBRANCH   6   7
BRANCH   4  10
ATOM     10  N   LIG    1       22.718 -18.854   3.692  0.00  0.00    -0.325 NA
ATOM     11  H   LIG    1       22.772 -19.315   2.782  0.00  0.00    +0.118 HD
ATOM     12  H   LIG    1       21.769 -19.028   4.026  0.00  0.00    +0.118 HD
ENDBRANCH   4  10
BRANCH   3  13
ATOM     13  O   LIG    1       25.507 -19.789   3.069  0.00  0.00    -0.388 OA
ATOM     14  H   LIG    1       26.154 -19.430   3.714  0.00  0.00    +0.210 HD
ENDBRANCH   3  13
BRANCH   2  15
ATOM     15  O   LIG    1       24.418 -22.709   4.836  0.00  0.00    -0.340 OA
BRANCH  15  16
ATOM     16  C   LIG    1       24.571 -23.527   6.000  0.00  0.00    +0.282 C 
ATOM     17  C   LIG    1       23.473 -24.618   5.975  0.00  0.00    +0.201 C 
ATOM     18  C   LIG    1       24.269 -25.901   6.137  0.00  0.00    +0.179 C 
ATOM     19  C   LIG    1       25.585 -25.510   5.486  0.00  0.00    +0.178 C 
ATOM     20  O   LIG    1       25.841 -24.191   5.968  0.00  0.00    -0.341 OA
BRANCH  17  21
ATOM     21  O   LIG    1       22.528 -24.465   7.041  0.00  0.00    -0.384 OA
ATOM     22  H   LIG    1       21.646 -24.551   6.631  0.00  0.00    +0.210 HD
ENDBRANCH  17  21
BRANCH  18  23
ATOM     23  O   LIG    1       23.626 -27.003   5.509  0.00  0.00    -0.386 OA
ATOM     24  H   LIG    1       22.862 -27.231   6.080  0.00  0.00    +0.210 HD
ENDBRANCH  18  23
BRANCH  19  25
ATOM     25  C   LIG    1       26.726 -26.454   5.834  0.00  0.00    +0.190 C 
BRANCH  25  26
ATOM     26  O   LIG    1       26.501 -27.731   5.243  0.00  0.00    -0.392 OA
ATOM     27  H   LIG    1       27.203 -28.321   5.577  0.00  0.00    +0.209 HD
ENDBRANCH  25  26
ENDBRANCH  19  25
ENDBRANCH  15  16
ENDBRANCH   2  15
BRANCH   1  28
ATOM     28  O   LIG    1       26.327 -19.853   6.264  0.00  0.00    -0.342 OA
BRANCH  28  33
ATOM     29  C   LIG    1       29.853 -19.627   6.875  0.00  0.00    +0.166 C 
ATOM     30  C   LIG    1       29.792 -20.365   8.230  0.00  0.00    +0.175 C 
ATOM     31  C   LIG    1       28.457 -21.132   8.386  0.00  0.00    +0.167 C 
ATOM     32  C   LIG    1       27.898 -21.552   7.007  0.00  0.00    +0.139 C 
ATOM     33  C   LIG    1       27.698 -20.266   6.134  0.00  0.00    +0.270 C 
ATOM     34  O   LIG    1       28.540 -19.183   6.530  0.00  0.00    -0.343 OA
BRANCH  32  35
ATOM     35  N   LIG    1       28.807 -22.549   6.373  0.00  0.00    -0.321 NA
ATOM     36  H   LIG    1       29.575 -22.042   5.924  0.00  0.00    +0.119 HD
ATOM     37  H   LIG    1       29.253 -23.100   7.111  0.00  0.00    +0.119 HD
ENDBRANCH  32  35
BRANCH  30  38
ATOM     38  O   LIG    1       30.900 -21.274   8.302  0.00  0.00    -0.387 OA
ATOM     39  H   LIG    1       30.513 -22.160   8.445  0.00  0.00    +0.210 HD
ENDBRANCH  30  38
BRANCH  31  40
ATOM     40  O   LIG    1       27.499 -20.340   9.099  0.00  0.00    -0.387 OA
ATOM     41  H   LIG    1       27.962 -19.572   9.488  0.00  0.00    +0.210 HD
ENDBRANCH  31  40
BRANCH  29  42
ATOM     42  C   LIG    1       30.818 -18.426   6.943  0.00  0.00    +0.112 C 
BRANCH  42  43
ATOM     43  N   LIG    1       31.919 -18.649   7.891  0.00  0.00    -0.328 NA
ATOM     44  H   LIG    1       32.445 -19.471   7.599  0.00  0.00    +0.118 HD
ATOM     45  H   LIG    1       32.568 -17.865   7.853  0.00  0.00    +0.118 HD
ENDBRANCH  42  43
ENDBRANCH  29  42
ENDBRANCH  28  33
ENDBRANCH   1  28
TORSDOF 16
ENDMDL
MODEL 7
REMARK VINA RESULT:      -5.8      5.209      9.442
REMARK  Name = *****
REMARK                            x       y       z     vdW  Elec       q    Type
REMARK                         _______ _______ _______ _____ _____    ______ ____
ROOT
ATOM      1  C   LIG    1       23.820 -30.112   9.166  0.00  0.00    +0.169 C 
ATOM      2  C   LIG    1       24.160 -29.673   7.721  0.00  0.00    +0.182 C 
ATOM      3  C   LIG    1       24.464 -30.884   6.795  0.00  0.00    +0.163 C 
ATOM      4  C   LIG    1       24.943 -32.133   7.577  0.00  0.00    +0.084 C 
ATOM      5  C   LIG    1       25.825 -31.703   8.746  0.00  0.00    +0.042 C 
ATOM      6  C   LIG    1       24.963 -30.975   9.793  0.00  0.00    +0.084 C 
ENDROOT
BRANCH   6   7
ATOM      7  N   LIG    1       25.823 -30.220  10.713  0.00  0.00    -0.325 NA
ATOM      8  H   LIG    1       25.337 -30.080  11.602  0.00  0.00    +0.118 HD
ATOM      9  H   LIG    1       26.647 -30.778  10.949  0.00  0.00    +0.118 HD
ENDBRANCH   6   7
BRANCH   4  10
ATOM     10  N   LIG    1       25.625 -33.071   6.670  0.00  0.00    -0.325 NA
ATOM     11  H   LIG    1       26.044 -32.553   5.896  0.00  0.00    +0.118 HD
ATOM     12  H   LIG    1       26.409 -33.498   7.165  0.00  0.00    +0.118 HD
ENDBRANCH   4  10
BRANCH   3  13
ATOM     13  O   LIG    1       23.324 -31.252   6.006  0.00  0.00    -0.388 OA
ATOM     14  H   LIG    1       22.868 -31.942   6.533  0.00  0.00    +0.210 HD
ENDBRANCH   3  13
BRANCH   2  15
ATOM     15  O   LIG    1       25.348 -28.842   7.718  0.00  0.00    -0.340 OA
BRANCH  15  16
ATOM     16  C   LIG    1       25.592 -28.157   6.486  0.00  0.00    +0.282 C 
ATOM     17  C   LIG    1       24.233 -27.697   5.906  0.00  0.00    +0.201 C 
ATOM     18  C   LIG    1       24.451 -26.212   5.672  0.00  0.00    +0.179 C 
ATOM     19  C   LIG    1       25.460 -25.891   6.762  0.00  0.00    +0.178 C 
ATOM     20  O   LIG    1       26.379 -26.982   6.726  0.00  0.00    -0.341 OA
BRANCH  17  21
ATOM     21  O   LIG    1       23.908 -28.365   4.682  0.00  0.00    -0.384 OA
ATOM     22  H   LIG    1       23.844 -27.665   4.004  0.00  0.00    +0.210 HD
ENDBRANCH  17  21
BRANCH  18  23
ATOM     23  O   LIG    1       23.239 -25.477   5.780  0.00  0.00    -0.386 OA
ATOM     24  H   LIG    1       22.984 -25.513   6.727  0.00  0.00    +0.210 HD
ENDBRANCH  18  23
BRANCH  19  25
ATOM     25  C   LIG    1       26.171 -24.565   6.543  0.00  0.00    +0.190 C 
BRANCH  25  26
ATOM     26  O   LIG    1       25.416 -23.746   5.654  0.00  0.00    -0.392 OA
ATOM     27  H   LIG    1       24.487 -24.033   5.732  0.00  0.00    +0.209 HD
ENDBRANCH  25  26
ENDBRANCH  19  25
ENDBRANCH  15  16
ENDBRANCH   2  15
BRANCH   1  28
ATOM     28  O   LIG    1       22.576 -30.838   9.192  0.00  0.00    -0.342 OA
BRANCH  28  33
ATOM     29  C   LIG    1       21.483 -30.850  12.607  0.00  0.00    +0.166 C 
ATOM     30  C   LIG    1       19.987 -31.007  12.258  0.00  0.00    +0.175 C 
ATOM     31  C   LIG    1       19.804 -31.481  10.796  0.00  0.00    +0.167 C 
ATOM     32  C   LIG    1       21.019 -32.316  10.331  0.00  0.00    +0.139 C 
ATOM     33  C   LIG    1       22.312 -31.441  10.470  0.00  0.00    +0.270 C 
ATOM     34  O   LIG    1       22.185 -30.405  11.445  0.00  0.00    -0.343 OA
BRANCH  32  35
ATOM     35  N   LIG    1       21.090 -33.585  11.109  0.00  0.00    -0.321 NA
ATOM     36  H   LIG    1       20.148 -33.814  11.437  0.00  0.00    +0.119 HD
ATOM     37  H   LIG    1       21.338 -34.346  10.472  0.00  0.00    +0.119 HD
ENDBRANCH  32  35
BRANCH  30  38
ATOM     38  O   LIG    1       19.406 -31.954  13.166  0.00  0.00    -0.387 OA
ATOM     39  H   LIG    1       19.258 -31.469  14.002  0.00  0.00    +0.210 HD
ENDBRANCH  30  38
BRANCH  31  40
ATOM     40  O   LIG    1       19.595 -30.364   9.924  0.00  0.00    -0.387 OA
ATOM     41  H   LIG    1       18.645 -30.136   9.938  0.00  0.00    +0.210 HD
ENDBRANCH  31  40
BRANCH  29  42
ATOM     42  C   LIG    1       21.678 -29.845  13.761  0.00  0.00    +0.112 C 
BRANCH  42  43
ATOM     43  N   LIG    1       20.417 -29.532  14.446  0.00  0.00    -0.328 NA
ATOM     44  H   LIG    1       20.108 -30.355  14.962  0.00  0.00    +0.118 HD
ATOM     45  H   LIG    1       20.575 -28.803  15.141  0.00  0.00    +0.118 HD
ENDBRANCH  42  43
ENDBRANCH  29  42
ENDBRANCH  28  33
ENDBRANCH   1  28
TORSDOF 16
ENDMDL
MODEL 8
REMARK VINA RESULT:      -5.7      6.612     10.201
REMARK  Name = *****
REMARK                            x       y       z     vdW  Elec       q    Type
REMARK                         _______ _______ _______ _____ _____    ______ ____
ROOT
ATOM      1  C   LIG    1       24.960 -31.132  10.554  0.00  0.00    +0.169 C 
ATOM      2  C   LIG    1       23.897 -30.139  10.023  0.00  0.00    +0.182 C 
ATOM      3  C   LIG    1       22.597 -30.161  10.874  0.00  0.00    +0.163 C 
ATOM      4  C   LIG    1       22.396 -31.498  11.631  0.00  0.00    +0.084 C 
ATOM      5  C   LIG    1       22.874 -32.659  10.763  0.00  0.00    +0.042 C 
ATOM      6  C   LIG    1       24.405 -32.592  10.622  0.00  0.00    +0.084 C 
ENDROOT
BRANCH   6   7
ATOM      7  N   LIG    1       24.844 -33.433   9.501  0.00  0.00    -0.325 NA
ATOM      8  H   LIG    1       25.735 -33.879   9.732  0.00  0.00    +0.118 HD
ATOM      9  H   LIG    1       24.187 -34.208   9.376  0.00  0.00    +0.118 HD
ENDBRANCH   6   7
BRANCH   4  10
ATOM     10  N   LIG    1       20.991 -31.643  12.044  0.00  0.00    -0.325 NA
ATOM     11  H   LIG    1       20.950 -32.013  12.994  0.00  0.00    +0.118 HD
ATOM     12  H   LIG    1       20.564 -30.717  12.097  0.00  0.00    +0.118 HD
ENDBRANCH   4  10
BRANCH   3  13
ATOM     13  O   LIG    1       22.565 -29.091  11.828  0.00  0.00    -0.388 OA
ATOM     14  H   LIG    1       23.193 -29.363  12.531  0.00  0.00    +0.210 HD
ENDBRANCH   3  13
BRANCH   2  15
ATOM     15  O   LIG    1       23.513 -30.493   8.672  0.00  0.00    -0.340 OA
BRANCH  15  16
ATOM     16  C   LIG    1       24.573 -30.423   7.713  0.00  0.00    +0.282 C 
ATOM     17  C   LIG    1       23.949 -30.418   6.297  0.00  0.00    +0.201 C 
ATOM     18  C   LIG    1       24.573 -29.189   5.658  0.00  0.00    +0.179 C 
ATOM     19  C   LIG    1       24.789 -28.307   6.876  0.00  0.00    +0.178 C 
ATOM     20  O   LIG    1       25.296 -29.195   7.871  0.00  0.00    -0.341 OA
BRANCH  17  21
ATOM     21  O   LIG    1       24.272 -31.600   5.554  0.00  0.00    -0.384 OA
ATOM     22  H   LIG    1       25.239 -31.708   5.631  0.00  0.00    +0.210 HD
ENDBRANCH  17  21
BRANCH  18  23
ATOM     23  O   LIG    1       23.719 -28.613   4.678  0.00  0.00    -0.386 OA
ATOM     24  H   LIG    1       23.713 -29.239   3.923  0.00  0.00    +0.210 HD
ENDBRANCH  18  23
BRANCH  19  25
ATOM     25  C   LIG    1       25.755 -27.162   6.618  0.00  0.00    +0.190 C 
BRANCH  25  26
ATOM     26  O   LIG    1       26.492 -27.404   5.421  0.00  0.00    -0.392 OA
ATOM     27  H   LIG    1       26.043 -28.140   4.962  0.00  0.00    +0.209 HD
ENDBRANCH  25  26
ENDBRANCH  19  25
ENDBRANCH  15  16
ENDBRANCH   2  15
BRANCH   1  28
ATOM     28  O   LIG    1       25.435 -30.719  11.849  0.00  0.00    -0.342 OA
BRANCH  28  33
ATOM     29  C   LIG    1       26.235 -27.404  12.958  0.00  0.00    +0.166 C 
ATOM     30  C   LIG    1       27.184 -27.874  14.082  0.00  0.00    +0.175 C 
ATOM     31  C   LIG    1       27.602 -29.350  13.875  0.00  0.00    +0.167 C 
ATOM     32  C   LIG    1       27.588 -29.722  12.375  0.00  0.00    +0.139 C 
ATOM     33  C   LIG    1       26.148 -29.472  11.809  0.00  0.00    +0.270 C 
ATOM     34  O   LIG    1       25.413 -28.502  12.556  0.00  0.00    -0.343 OA
BRANCH  32  35
ATOM     35  N   LIG    1       28.639 -28.951  11.651  0.00  0.00    -0.321 NA
ATOM     36  H   LIG    1       28.208 -28.513  10.832  0.00  0.00    +0.119 HD
ATOM     37  H   LIG    1       28.936 -28.170  12.241  0.00  0.00    +0.119 HD
ENDBRANCH  32  35
BRANCH  30  38
ATOM     38  O   LIG    1       28.340 -27.024  14.085  0.00  0.00    -0.387 OA
ATOM     39  H   LIG    1       28.594 -26.912  13.148  0.00  0.00    +0.210 HD
ENDBRANCH  30  38
BRANCH  31  40
ATOM     40  O   LIG    1       26.749 -30.227  14.621  0.00  0.00    -0.387 OA
ATOM     41  H   LIG    1       26.285 -29.700  15.301  0.00  0.00    +0.210 HD
ENDBRANCH  31  40
BRANCH  29  42
ATOM     42  C   LIG    1       25.355 -26.230  13.433  0.00  0.00    +0.112 C 
BRANCH  42  43
ATOM     43  N   LIG    1       26.049 -24.939  13.337  0.00  0.00    -0.328 NA
ATOM     44  H   LIG    1       26.589 -24.789  14.187  0.00  0.00    +0.118 HD
ATOM     45  H   LIG    1       26.722 -24.967  12.572  0.00  0.00    +0.118 HD
ENDBRANCH  42  43
ENDBRANCH  29  42
ENDBRANCH  28  33
ENDBRANCH   1  28
TORSDOF 16
ENDMDL
MODEL 9
REMARK VINA RESULT:      -5.6      2.465      4.011
REMARK  Name = *****
REMARK                            x       y       z     vdW  Elec       q    Type
REMARK                         _______ _______ _______ _____ _____    ______ ____
ROOT
ATOM      1  C   LIG    1       25.129 -23.837   6.493  0.00  0.00    +0.169 C 
ATOM      2  C   LIG    1       26.059 -22.698   6.007  0.00  0.00    +0.182 C 
ATOM      3  C   LIG    1       26.517 -21.777   7.172  0.00  0.00    +0.163 C 
ATOM      4  C   LIG    1       25.540 -21.797   8.375  0.00  0.00    +0.084 C 
ATOM      5  C   LIG    1       24.103 -21.893   7.870  0.00  0.00    +0.042 C 
ATOM      6  C   LIG    1       23.875 -23.280   7.243  0.00  0.00    +0.084 C 
ENDROOT
BRANCH   6   7
ATOM      7  N   LIG    1       22.663 -23.264   6.415  0.00  0.00    -0.325 NA
ATOM      8  H   LIG    1       22.149 -22.394   6.572  0.00  0.00    +0.118 HD
ATOM      9  H   LIG    1       22.923 -23.241   5.426  0.00  0.00    +0.118 HD
ENDBRANCH   6   7
BRANCH   4  10
ATOM     10  N   LIG    1       25.761 -20.619   9.230  0.00  0.00    -0.325 NA
ATOM     11  H   LIG    1       26.740 -20.583   9.515  0.00  0.00    +0.118 HD
ATOM     12  H   LIG    1       25.609 -19.775   8.676  0.00  0.00    +0.118 HD
ENDBRANCH   4  10
BRANCH   3  13
ATOM     13  O   LIG    1       27.825 -22.125   7.645  0.00  0.00    -0.388 OA
ATOM     14  H   LIG    1       28.132 -22.829   7.035  0.00  0.00    +0.210 HD
ENDBRANCH   3  13
BRANCH   2  15
ATOM     15  O   LIG    1       25.359 -21.851   5.061  0.00  0.00    -0.340 OA
BRANCH  15  16
ATOM     16  C   LIG    1       25.410 -20.453   5.361  0.00  0.00    +0.282 C 
ATOM     17  C   LIG    1       26.350 -19.770   4.338  0.00  0.00    +0.201 C 
ATOM     18  C   LIG    1       25.488 -18.648   3.786  0.00  0.00    +0.179 C 
ATOM     19  C   LIG    1       24.101 -19.253   3.921  0.00  0.00    +0.178 C 
ATOM     20  O   LIG    1       24.109 -19.872   5.207  0.00  0.00    -0.341 OA
BRANCH  17  21
ATOM     21  O   LIG    1       27.536 -19.250   4.950  0.00  0.00    -0.384 OA
ATOM     22  H   LIG    1       27.992 -20.017   5.346  0.00  0.00    +0.210 HD
ENDBRANCH  17  21
BRANCH  18  23
ATOM     23  O   LIG    1       25.842 -18.321   2.448  0.00  0.00    -0.386 OA
ATOM     24  H   LIG    1       25.678 -17.358   2.353  0.00  0.00    +0.210 HD
ENDBRANCH  18  23
BRANCH  19  25
ATOM     25  C   LIG    1       22.989 -18.222   3.813  0.00  0.00    +0.190 C 
BRANCH  25  26
ATOM     26  O   LIG    1       21.766 -18.771   4.298  0.00  0.00    -0.392 OA
ATOM     27  H   LIG    1       22.003 -19.546   4.842  0.00  0.00    +0.209 HD
ENDBRANCH  25  26
ENDBRANCH  19  25
ENDBRANCH  15  16
ENDBRANCH   2  15
BRANCH   1  28
ATOM     28  O   LIG    1       25.851 -24.750   7.340  0.00  0.00    -0.342 OA
BRANCH  28  33
ATOM     29  C   LIG    1       25.533 -28.270   6.735  0.00  0.00    +0.166 C 
ATOM     30  C   LIG    1       24.304 -28.126   5.810  0.00  0.00    +0.175 C 
ATOM     31  C   LIG    1       24.146 -26.667   5.318  0.00  0.00    +0.167 C 
ATOM     32  C   LIG    1       25.517 -25.955   5.256  0.00  0.00    +0.139 C 
ATOM     33  C   LIG    1       26.165 -25.989   6.683  0.00  0.00    +0.270 C 
ATOM     34  O   LIG    1       25.688 -27.066   7.489  0.00  0.00    -0.343 OA
BRANCH  32  35
ATOM     35  N   LIG    1       26.372 -26.590   4.214  0.00  0.00    -0.321 NA
ATOM     36  H   LIG    1       25.761 -26.999   3.503  0.00  0.00    +0.119 HD
ATOM     37  H   LIG    1       26.890 -25.856   3.724  0.00  0.00    +0.119 HD
ENDBRANCH  32  35
BRANCH  30  38
ATOM     38  O   LIG    1       24.469 -29.014   4.695  0.00  0.00    -0.387 OA
ATOM     39  H   LIG    1       23.867 -28.685   3.998  0.00  0.00    +0.210 HD
ENDBRANCH  30  38
BRANCH  31  40
ATOM     40  O   LIG    1       23.239 -25.945   6.159  0.00  0.00    -0.387 OA
ATOM     41  H   LIG    1       22.574 -25.508   5.591  0.00  0.00    +0.210 HD
ENDBRANCH  31  40
BRANCH  29  42
ATOM     42  C   LIG    1       25.371 -29.474   7.685  0.00  0.00    +0.112 C 
BRANCH  42  43
ATOM     43  N   LIG    1       24.068 -30.134   7.530  0.00  0.00    -0.328 NA
ATOM     44  H   LIG    1       23.510 -29.964   8.366  0.00  0.00    +0.118 HD
ATOM     45  H   LIG    1       23.558 -29.711   6.756  0.00  0.00    +0.118 HD
ENDBRANCH  42  43
ENDBRANCH  29  42
ENDBRANCH  28  33
ENDBRANCH   1  28
TORSDOF 16
ENDMDL
