MODEL 1
REMARK VINA RESULT:      -7.3      0.000      0.000
REMARK  Name = *****
REMARK                            x       y       z     vdW  Elec       q    Type
REMARK                         _______ _______ _______ _____ _____    ______ ____
ROOT
ATOM      1  C1* LIG    1       26.797 -21.560   7.517  0.00  0.00    +0.270 C 
ATOM      2  C2* LIG    1       25.806 -20.575   8.144  0.00  0.00    +0.197 C 
ATOM      3  C3* LIG    1       24.547 -20.837   7.334  0.00  0.00    +0.178 C 
ATOM      4  C4* LIG    1       25.084 -21.204   5.952  0.00  0.00    +0.177 C 
ATOM      5  O4* LIG    1       26.348 -21.868   6.174  0.00  0.00    -0.344 OA
ENDROOT
BRANCH   1   8
ATOM      6  C   LIG    1       30.164 -20.693   7.950  0.00  0.00    +0.236 A 
ATOM      7  N   LIG    1       29.057 -21.294   8.424  0.00  0.00    -0.142 NA
ATOM      8  N   LIG    1       28.158 -21.050   7.446  0.00  0.00    -0.220 N 
ATOM      9  C   LIG    1       28.697 -20.262   6.477  0.00  0.00    +0.223 A 
ATOM     10  N   LIG    1       29.961 -20.027   6.748  0.00  0.00    -0.211 NA
BRANCH   6  14
ATOM     11  N   LIG    1       32.059 -21.960   8.692  0.00  0.00    -0.323 N 
ATOM     12  H   LIG    1       31.595 -22.764   8.285  0.00  0.00    +0.145 HD
ATOM     13  H   LIG    1       32.954 -22.051   9.148  0.00  0.00    +0.145 HD
ATOM     14  C   LIG    1       31.471 -20.726   8.636  0.00  0.00    +0.281 C 
ATOM     15  O   LIG    1       32.031 -19.746   9.131  0.00  0.00    -0.267 OA
ENDBRANCH   6  14
ENDBRANCH   1   8
BRANCH   2  16
ATOM     16  O2* LIG    1       25.585 -20.835   9.537  0.00  0.00    -0.385 OA
ATOM     17  H2* LIG    1       24.612 -20.920   9.634  0.00  0.00    +0.210 HD
ENDBRANCH   2  16
BRANCH   3  18
ATOM     18  O3* LIG    1       23.883 -21.972   7.933  0.00  0.00    -0.386 OA
ATOM     19  H3* LIG    1       22.934 -21.902   7.717  0.00  0.00    +0.210 HD
ENDBRANCH   3  18
BRANCH   4  20
ATOM     20  C5* LIG    1       25.287 -20.007   5.015  0.00  0.00    +0.190 C 
BRANCH  20  21
ATOM     21  O5* LIG    1       26.250 -20.257   4.005  0.00  0.00    -0.392 OA
ATOM     22  H5* LIG    1       26.901 -20.910   4.354  0.00  0.00    +0.209 HD
ENDBRANCH  20  21
ENDBRANCH   4  20
TORSDOF 6
ENDMDL
MODEL 2
REMARK VINA RESULT:      -7.1      2.754      3.341
REMARK  Name = *****
REMARK                            x       y       z     vdW  Elec       q    Type
REMARK                         _______ _______ _______ _____ _____    ______ ____
ROOT
ATOM      1  C1* LIG    1       29.060 -20.664   7.648  0.00  0.00    +0.270 C 
ATOM      2  C2* LIG    1       27.621 -20.191   7.869  0.00  0.00    +0.197 C 
ATOM      3  C3* LIG    1       27.016 -20.369   6.485  0.00  0.00    +0.178 C 
ATOM      4  C4* LIG    1       28.188 -20.088   5.547  0.00  0.00    +0.177 C 
ATOM      5  O4* LIG    1       29.375 -20.532   6.240  0.00  0.00    -0.344 OA
ENDROOT
BRANCH   1   8
ATOM      6  C   LIG    1       30.919 -18.367   9.530  0.00  0.00    +0.236 A 
ATOM      7  N   LIG    1       29.796 -18.659   8.849  0.00  0.00    -0.142 NA
ATOM      8  N   LIG    1       30.043 -19.915   8.416  0.00  0.00    -0.220 N 
ATOM      9  C   LIG    1       31.300 -20.307   8.759  0.00  0.00    +0.223 A 
ATOM     10  N   LIG    1       31.879 -19.369   9.474  0.00  0.00    -0.211 NA
BRANCH   6  14
ATOM     11  N   LIG    1       32.357 -16.532  10.093  0.00  0.00    -0.323 N 
ATOM     12  H   LIG    1       33.047 -16.980   9.501  0.00  0.00    +0.145 HD
ATOM     13  H   LIG    1       32.561 -15.667  10.568  0.00  0.00    +0.145 HD
ATOM     14  C   LIG    1       31.125 -17.103  10.265  0.00  0.00    +0.281 C 
ATOM     15  O   LIG    1       30.283 -16.562  10.986  0.00  0.00    -0.267 OA
ENDBRANCH   6  14
ENDBRANCH   1   8
BRANCH   2  16
ATOM     16  O2* LIG    1       26.927 -20.985   8.839  0.00  0.00    -0.385 OA
ATOM     17  H2* LIG    1       26.647 -21.795   8.360  0.00  0.00    +0.210 HD
ENDBRANCH   2  16
BRANCH   3  18
ATOM     18  O3* LIG    1       26.604 -21.750   6.375  0.00  0.00    -0.386 OA
ATOM     19  H3* LIG    1       26.978 -22.228   7.138  0.00  0.00    +0.210 HD
ENDBRANCH   3  18
BRANCH   4  20
ATOM     20  C5* LIG    1       28.340 -18.613   5.152  0.00  0.00    +0.190 C 
BRANCH  20  21
ATOM     21  O5* LIG    1       29.600 -18.075   5.518  0.00  0.00    -0.392 OA
ATOM     22  H5* LIG    1       29.485 -17.559   6.350  0.00  0.00    +0.209 HD
ENDBRANCH  20  21
ENDBRANCH   4  20
TORSDOF 6
ENDMDL
MODEL 3
REMARK VINA RESULT:      -7.1      4.843      6.709
REMARK  Name = *****
REMARK                            x       y       z     vdW  Elec       q    Type
REMARK                         _______ _______ _______ _____ _____    ______ ____
ROOT
ATOM      1  C1* LIG    1       24.322 -23.707   5.959  0.00  0.00    +0.270 C 
ATOM      2  C2* LIG    1       23.233 -23.330   6.967  0.00  0.00    +0.197 C 
ATOM      3  C3* LIG    1       23.552 -21.869   7.241  0.00  0.00    +0.178 C 
ATOM      4  C4* LIG    1       25.072 -21.808   7.115  0.00  0.00    +0.177 C 
ATOM      5  O4* LIG    1       25.435 -22.794   6.124  0.00  0.00    -0.344 OA
ENDROOT
BRANCH   1   8
ATOM      6  C   LIG    1       24.817 -27.162   6.270  0.00  0.00    +0.236 A 
ATOM      7  N   LIG    1       23.968 -26.123   6.164  0.00  0.00    -0.142 NA
ATOM      8  N   LIG    1       24.811 -25.069   6.115  0.00  0.00    -0.220 N 
ATOM      9  C   LIG    1       26.101 -25.472   6.273  0.00  0.00    +0.223 A 
ATOM     10  N   LIG    1       26.150 -26.782   6.358  0.00  0.00    -0.211 NA
BRANCH   6  14
ATOM     11  N   LIG    1       23.703 -28.986   5.183  0.00  0.00    -0.323 N 
ATOM     12  H   LIG    1       23.527 -28.338   4.424  0.00  0.00    +0.145 HD
ATOM     13  H   LIG    1       23.379 -29.940   5.138  0.00  0.00    +0.145 HD
ATOM     14  C   LIG    1       24.384 -28.573   6.296  0.00  0.00    +0.281 C 
ATOM     15  O   LIG    1       24.598 -29.359   7.222  0.00  0.00    -0.267 OA
ENDBRANCH   6  14
ENDBRANCH   1   8
BRANCH   2  16
ATOM     16  O2* LIG    1       21.913 -23.475   6.426  0.00  0.00    -0.385 OA
ATOM     17  H2* LIG    1       22.036 -23.910   5.555  0.00  0.00    +0.210 HD
ENDBRANCH   2  16
BRANCH   3  18
ATOM     18  O3* LIG    1       22.929 -21.092   6.193  0.00  0.00    -0.386 OA
ATOM     19  H3* LIG    1       21.964 -21.181   6.299  0.00  0.00    +0.210 HD
ENDBRANCH   3  18
BRANCH   4  20
ATOM     20  C5* LIG    1       25.826 -22.087   8.422  0.00  0.00    +0.190 C 
BRANCH  20  21
ATOM     21  O5* LIG    1       25.814 -20.981   9.309  0.00  0.00    -0.392 OA
ATOM     22  H5* LIG    1       26.536 -21.107   9.970  0.00  0.00    +0.209 HD
ENDBRANCH  20  21
ENDBRANCH   4  20
TORSDOF 6
ENDMDL
MODEL 4
REMARK VINA RESULT:      -7.1      2.133      2.791
REMARK  Name = *****
REMARK                            x       y       z     vdW  Elec       q    Type
REMARK                         _______ _______ _______ _____ _____    ______ ____
ROOT
ATOM      1  C1* LIG    1       25.295 -21.411   6.209  0.00  0.00    +0.270 C 
ATOM      2  C2* LIG    1       24.042 -20.706   6.737  0.00  0.00    +0.197 C 
ATOM      3  C3* LIG    1       23.074 -20.876   5.577  0.00  0.00    +0.178 C 
ATOM      4  C4* LIG    1       23.981 -20.842   4.350  0.00  0.00    +0.177 C 
ATOM      5  O4* LIG    1       25.239 -21.420   4.761  0.00  0.00    -0.344 OA
ENDROOT
BRANCH   1   8
ATOM      6  C   LIG    1       28.329 -19.688   6.524  0.00  0.00    +0.236 A 
ATOM      7  N   LIG    1       27.345 -20.156   5.734  0.00  0.00    -0.142 NA
ATOM      8  N   LIG    1       26.537 -20.776   6.622  0.00  0.00    -0.220 N 
ATOM      9  C   LIG    1       27.075 -20.745   7.871  0.00  0.00    +0.223 A 
ATOM     10  N   LIG    1       28.194 -20.056   7.856  0.00  0.00    -0.211 NA
BRANCH   6  14
ATOM     11  N   LIG    1       29.159 -18.083   4.947  0.00  0.00    -0.323 N 
ATOM     12  H   LIG    1       28.230 -18.102   4.542  0.00  0.00    +0.145 HD
ATOM     13  H   LIG    1       29.883 -17.497   4.561  0.00  0.00    +0.145 HD
ATOM     14  C   LIG    1       29.452 -18.865   6.031  0.00  0.00    +0.281 C 
ATOM     15  O   LIG    1       30.582 -18.847   6.525  0.00  0.00    -0.267 OA
ENDBRANCH   6  14
ENDBRANCH   1   8
BRANCH   2  16
ATOM     16  O2* LIG    1       23.531 -21.319   7.928  0.00  0.00    -0.385 OA
ATOM     17  H2* LIG    1       23.209 -22.203   7.648  0.00  0.00    +0.210 HD
ENDBRANCH   2  16
BRANCH   3  18
ATOM     18  O3* LIG    1       22.466 -22.180   5.717  0.00  0.00    -0.386 OA
ATOM     19  H3* LIG    1       21.828 -22.284   4.986  0.00  0.00    +0.210 HD
ENDBRANCH   3  18
BRANCH   4  20
ATOM     20  C5* LIG    1       24.219 -19.437   3.779  0.00  0.00    +0.190 C 
BRANCH  20  21
ATOM     21  O5* LIG    1       25.577 -19.201   3.451  0.00  0.00    -0.392 OA
ATOM     22  H5* LIG    1       25.607 -18.699   2.603  0.00  0.00    +0.209 HD
ENDBRANCH  20  21
ENDBRANCH   4  20
TORSDOF 6
ENDMDL
MODEL 5
REMARK VINA RESULT:      -6.9      1.767      2.881
REMARK  Name = *****
REMARK                            x       y       z     vdW  Elec       q    Type
REMARK                         _______ _______ _______ _____ _____    ______ ____
ROOT
ATOM      1  C1* LIG    1       25.778 -20.509   6.298  0.00  0.00    +0.270 C 
ATOM      2  C2* LIG    1       25.769 -20.704   4.779  0.00  0.00    +0.197 C 
ATOM      3  C3* LIG    1       24.443 -21.417   4.563  0.00  0.00    +0.178 C 
ATOM      4  C4* LIG    1       24.279 -22.253   5.830  0.00  0.00    +0.177 C 
ATOM      5  O4* LIG    1       24.907 -21.502   6.893  0.00  0.00    -0.344 OA
ENDROOT
BRANCH   1   8
ATOM      6  C   LIG    1       29.136 -20.296   7.277  0.00  0.00    +0.236 A 
ATOM      7  N   LIG    1       28.149 -19.909   6.448  0.00  0.00    -0.142 NA
ATOM      8  N   LIG    1       27.101 -20.636   6.892  0.00  0.00    -0.220 N 
ATOM      9  C   LIG    1       27.483 -21.480   7.888  0.00  0.00    +0.223 A 
ATOM     10  N   LIG    1       28.752 -21.287   8.171  0.00  0.00    -0.211 NA
BRANCH   6  14
ATOM     11  N   LIG    1       31.438 -20.461   7.926  0.00  0.00    -0.323 N 
ATOM     12  H   LIG    1       31.172 -21.312   8.406  0.00  0.00    +0.145 HD
ATOM     13  H   LIG    1       32.391 -20.130   7.943  0.00  0.00    +0.145 HD
ATOM     14  C   LIG    1       30.500 -19.733   7.245  0.00  0.00    +0.281 C 
ATOM     15  O   LIG    1       30.820 -18.695   6.662  0.00  0.00    -0.267 OA
ENDBRANCH   6  14
ENDBRANCH   1   8
BRANCH   2  16
ATOM     16  O2* LIG    1       25.805 -19.460   4.068  0.00  0.00    -0.385 OA
ATOM     17  H2* LIG    1       25.967 -19.701   3.130  0.00  0.00    +0.210 HD
ENDBRANCH   2  16
BRANCH   3  18
ATOM     18  O3* LIG    1       23.418 -20.401   4.494  0.00  0.00    -0.386 OA
ATOM     19  H3* LIG    1       23.464 -20.000   3.606  0.00  0.00    +0.210 HD
ENDBRANCH   3  18
BRANCH   4  20
ATOM     20  C5* LIG    1       24.902 -23.653   5.749  0.00  0.00    +0.190 C 
BRANCH  20  21
ATOM     21  O5* LIG    1       24.871 -24.192   4.438  0.00  0.00    -0.392 OA
ATOM     22  H5* LIG    1       24.373 -23.568   3.859  0.00  0.00    +0.209 HD
ENDBRANCH  20  21
ENDBRANCH   4  20
TORSDOF 6
ENDMDL
MODEL 6
REMARK VINA RESULT:      -6.9      2.447      5.853
REMARK  Name = *****
REMARK                            x       y       z     vdW  Elec       q    Type
REMARK                         _______ _______ _______ _____ _____    ______ ____
ROOT
ATOM      1  C1* LIG    1       29.808 -19.025   7.389  0.00  0.00    +0.270 C 
ATOM      2  C2* LIG    1       30.027 -18.475   8.801  0.00  0.00    +0.197 C 
ATOM      3  C3* LIG    1       31.497 -18.787   9.034  0.00  0.00    +0.178 C 
ATOM      4  C4* LIG    1       31.712 -20.085   8.259  0.00  0.00    +0.177 C 
ATOM      5  O4* LIG    1       30.815 -20.033   7.128  0.00  0.00    -0.344 OA
ENDROOT
BRANCH   1   8
ATOM      6  C   LIG    1       26.634 -20.490   7.628  0.00  0.00    +0.236 A 
ATOM      7  N   LIG    1       27.759 -20.070   8.235  0.00  0.00    -0.142 NA
ATOM      8  N   LIG    1       28.494 -19.621   7.195  0.00  0.00    -0.220 N 
ATOM      9  C   LIG    1       27.856 -19.851   6.015  0.00  0.00    +0.223 A 
ATOM     10  N   LIG    1       26.676 -20.382   6.245  0.00  0.00    -0.211 NA
BRANCH   6  14
ATOM     11  N   LIG    1       24.268 -20.873   7.704  0.00  0.00    -0.323 N 
ATOM     12  H   LIG    1       24.234 -20.420   6.799  0.00  0.00    +0.145 HD
ATOM     13  H   LIG    1       23.429 -21.215   8.147  0.00  0.00    +0.145 HD
ATOM     14  C   LIG    1       25.463 -21.023   8.354  0.00  0.00    +0.281 C 
ATOM     15  O   LIG    1       25.508 -21.571   9.457  0.00  0.00    -0.267 OA
ENDBRANCH   6  14
ENDBRANCH   1   8
BRANCH   2  16
ATOM     16  O2* LIG    1       29.781 -17.066   8.883  0.00  0.00    -0.385 OA
ATOM     17  H2* LIG    1       28.921 -16.979   9.348  0.00  0.00    +0.210 HD
ENDBRANCH   2  16
BRANCH   3  18
ATOM     18  O3* LIG    1       32.260 -17.714   8.438  0.00  0.00    -0.386 OA
ATOM     19  H3* LIG    1       33.060 -17.588   8.982  0.00  0.00    +0.210 HD
ENDBRANCH   3  18
BRANCH   4  20
ATOM     20  C5* LIG    1       31.444 -21.358   9.073  0.00  0.00    +0.190 C 
BRANCH  20  21
ATOM     21  O5* LIG    1       32.206 -22.466   8.626  0.00  0.00    -0.392 OA
ATOM     22  H5* LIG    1       33.155 -22.292   8.830  0.00  0.00    +0.209 HD
ENDBRANCH  20  21
ENDBRANCH   4  20
TORSDOF 6
ENDMDL
MODEL 7
REMARK VINA RESULT:      -6.7      1.575      2.504
REMARK  Name = *****
REMARK                            x       y       z     vdW  Elec       q    Type
REMARK                         _______ _______ _______ _____ _____    ______ ____
ROOT
ATOM      1  C1* LIG    1       26.781 -20.319   7.062  0.00  0.00    +0.270 C 
ATOM      2  C2* LIG    1       26.454 -20.792   5.643  0.00  0.00    +0.197 C 
ATOM      3  C3* LIG    1       25.096 -21.447   5.836  0.00  0.00    +0.178 C 
ATOM      4  C4* LIG    1       25.176 -22.020   7.249  0.00  0.00    +0.177 C 
ATOM      5  O4* LIG    1       26.027 -21.126   7.999  0.00  0.00    -0.344 OA
ENDROOT
BRANCH   1   8
ATOM      6  C   LIG    1       29.970 -21.071   8.303  0.00  0.00    +0.236 A 
ATOM      7  N   LIG    1       28.640 -21.269   8.345  0.00  0.00    -0.142 NA
ATOM      8  N   LIG    1       28.194 -20.417   7.396  0.00  0.00    -0.220 N 
ATOM      9  C   LIG    1       29.219 -19.686   6.880  0.00  0.00    +0.223 A 
ATOM     10  N   LIG    1       30.355 -20.077   7.412  0.00  0.00    -0.211 NA
BRANCH   6  14
ATOM     11  N   LIG    1       32.072 -22.213   8.465  0.00  0.00    -0.323 N 
ATOM     12  H   LIG    1       32.197 -21.981   7.487  0.00  0.00    +0.145 HD
ATOM     13  H   LIG    1       32.773 -22.734   8.970  0.00  0.00    +0.145 HD
ATOM     14  C   LIG    1       30.936 -21.827   9.124  0.00  0.00    +0.281 C 
ATOM     15  O   LIG    1       30.780 -22.110  10.314  0.00  0.00    -0.267 OA
ENDBRANCH   6  14
ENDBRANCH   1   8
BRANCH   2  16
ATOM     16  O2* LIG    1       26.373 -19.707   4.709  0.00  0.00    -0.385 OA
ATOM     17  H2* LIG    1       25.414 -19.535   4.593  0.00  0.00    +0.210 HD
ENDBRANCH   2  16
BRANCH   3  18
ATOM     18  O3* LIG    1       24.103 -20.398   5.774  0.00  0.00    -0.386 OA
ATOM     19  H3* LIG    1       24.233 -19.829   6.555  0.00  0.00    +0.210 HD
ENDBRANCH   3  18
BRANCH   4  20
ATOM     20  C5* LIG    1       25.733 -23.448   7.321  0.00  0.00    +0.190 C 
BRANCH  20  21
ATOM     21  O5* LIG    1       24.874 -24.404   6.724  0.00  0.00    -0.392 OA
ATOM     22  H5* LIG    1       24.785 -25.168   7.340  0.00  0.00    +0.209 HD
ENDBRANCH  20  21
ENDBRANCH   4  20
TORSDOF 6
ENDMDL
MODEL 8
REMARK VINA RESULT:      -6.6      4.064      5.723
REMARK  Name = *****
REMARK                            x       y       z     vdW  Elec       q    Type
REMARK                         _______ _______ _______ _____ _____    ______ ____
ROOT
ATOM      1  C1* LIG    1       25.126 -22.945   7.477  0.00  0.00    +0.270 C 
ATOM      2  C2* LIG    1       26.153 -22.036   6.796  0.00  0.00    +0.197 C 
ATOM      3  C3* LIG    1       25.551 -20.658   7.024  0.00  0.00    +0.178 C 
ATOM      4  C4* LIG    1       24.047 -20.918   6.994  0.00  0.00    +0.177 C 
ATOM      5  O4* LIG    1       23.857 -22.248   7.524  0.00  0.00    -0.344 OA
ENDROOT
BRANCH   1   8
ATOM      6  C   LIG    1       25.369 -26.041   5.855  0.00  0.00    +0.236 A 
ATOM      7  N   LIG    1       25.979 -24.964   6.380  0.00  0.00    -0.142 NA
ATOM      8  N   LIG    1       24.933 -24.217   6.796  0.00  0.00    -0.220 N 
ATOM      9  C   LIG    1       23.754 -24.798   6.447  0.00  0.00    +0.223 A 
ATOM     10  N   LIG    1       23.983 -25.955   5.868  0.00  0.00    -0.211 NA
BRANCH   6  14
ATOM     11  N   LIG    1       25.590 -28.423   5.687  0.00  0.00    -0.323 N 
ATOM     12  H   LIG    1       24.785 -28.473   6.300  0.00  0.00    +0.145 HD
ATOM     13  H   LIG    1       26.040 -29.260   5.349  0.00  0.00    +0.145 HD
ATOM     14  C   LIG    1       26.092 -27.207   5.309  0.00  0.00    +0.281 C 
ATOM     15  O   LIG    1       27.073 -27.142   4.566  0.00  0.00    -0.267 OA
ENDBRANCH   6  14
ENDBRANCH   1   8
BRANCH   2  16
ATOM     16  O2* LIG    1       27.452 -22.135   7.393  0.00  0.00    -0.385 OA
ATOM     17  H2* LIG    1       27.463 -23.004   7.849  0.00  0.00    +0.210 HD
ENDBRANCH   2  16
BRANCH   3  18
ATOM     18  O3* LIG    1       25.961 -20.226   8.341  0.00  0.00    -0.386 OA
ATOM     19  H3* LIG    1       26.897 -20.478   8.452  0.00  0.00    +0.210 HD
ENDBRANCH   3  18
BRANCH   4  20
ATOM     20  C5* LIG    1       23.418 -20.824   5.597  0.00  0.00    +0.190 C 
BRANCH  20  21
ATOM     21  O5* LIG    1       22.360 -21.748   5.409  0.00  0.00    -0.392 OA
ATOM     22  H5* LIG    1       21.601 -21.270   4.998  0.00  0.00    +0.209 HD
ENDBRANCH  20  21
ENDBRANCH   4  20
TORSDOF 6
ENDMDL
MODEL 9
REMARK VINA RESULT:      -6.5      2.435      6.158
REMARK  Name = *****
REMARK                            x       y       z     vdW  Elec       q    Type
REMARK                         _______ _______ _______ _____ _____    ______ ____
ROOT
ATOM      1  C1* LIG    1       29.337 -20.056   7.154  0.00  0.00    +0.270 C 
ATOM      2  C2* LIG    1       29.765 -18.643   6.749  0.00  0.00    +0.197 C 
ATOM      3  C3* LIG    1       31.002 -18.432   7.608  0.00  0.00    +0.178 C 
ATOM      4  C4* LIG    1       30.691 -19.220   8.878  0.00  0.00    +0.177 C 
ATOM      5  O4* LIG    1       29.874 -20.339   8.469  0.00  0.00    -0.344 OA
ENDROOT
BRANCH   1   8
ATOM      6  C   LIG    1       25.916 -20.505   6.542  0.00  0.00    +0.236 A 
ATOM      7  N   LIG    1       27.155 -20.293   6.063  0.00  0.00    -0.142 NA
ATOM      8  N   LIG    1       27.893 -20.238   7.193  0.00  0.00    -0.220 N 
ATOM      9  C   LIG    1       27.100 -20.328   8.295  0.00  0.00    +0.223 A 
ATOM     10  N   LIG    1       25.851 -20.512   7.929  0.00  0.00    -0.211 NA
BRANCH   6  14
ATOM     11  N   LIG    1       24.964 -21.416   4.539  0.00  0.00    -0.323 N 
ATOM     12  H   LIG    1       25.896 -21.756   4.331  0.00  0.00    +0.145 HD
ATOM     13  H   LIG    1       24.195 -21.588   3.909  0.00  0.00    +0.145 HD
ATOM     14  C   LIG    1       24.730 -20.705   5.685  0.00  0.00    +0.281 C 
ATOM     15  O   LIG    1       23.599 -20.288   5.939  0.00  0.00    -0.267 OA
ENDBRANCH   6  14
ENDBRANCH   1   8
BRANCH   2  16
ATOM     16  O2* LIG    1       30.083 -18.546   5.355  0.00  0.00    -0.385 OA
ATOM     17  H2* LIG    1       29.882 -17.618   5.106  0.00  0.00    +0.210 HD
ENDBRANCH   2  16
BRANCH   3  18
ATOM     18  O3* LIG    1       32.115 -19.029   6.905  0.00  0.00    -0.386 OA
ATOM     19  H3* LIG    1       32.200 -18.569   6.050  0.00  0.00    +0.210 HD
ENDBRANCH   3  18
BRANCH   4  20
ATOM     20  C5* LIG    1       29.959 -18.413   9.958  0.00  0.00    +0.190 C 
BRANCH  20  21
ATOM     21  O5* LIG    1       30.666 -18.371  11.186  0.00  0.00    -0.392 OA
ATOM     22  H5* LIG    1       31.509 -17.880  11.040  0.00  0.00    +0.209 HD
ENDBRANCH  20  21
ENDBRANCH   4  20
TORSDOF 6
ENDMDL
