MODEL 1
REMARK VINA RESULT:      -5.2      0.000      0.000
REMARK  Name = *****
REMARK                            x       y       z     vdW  Elec       q    Type
REMARK                         _______ _______ _______ _____ _____    ______ ____
ROOT
ATOM      1  N   LIG    1       25.263 -16.455   3.323  0.00  0.00    -0.272 N 
ATOM      2  H   LIG    1       24.479 -16.377   2.691  0.00  0.00    +0.258 HD
ENDROOT
BRANCH   1   5
ATOM      3  C   LIG    1       27.969 -14.068   3.765  0.00  0.00    +0.291 C 
ATOM      4  N   LIG    1       27.250 -15.314   3.568  0.00  0.00    -0.117 NA
ATOM      5  C   LIG    1       25.966 -15.299   3.478  0.00  0.00    +0.381 C 
BRANCH   5   6
ATOM      6  N   LIG    1       25.165 -14.194   3.549  0.00  0.00    -0.279 N 
ATOM      7  H   LIG    1       25.665 -13.316   3.590  0.00  0.00    +0.258 HD
ATOM      8  C   LIG    1       23.871 -14.140   4.191  0.00  0.00    +0.239 C 
ENDBRANCH   5   6
ENDBRANCH   1   5
BRANCH   1   9
ATOM      9  C   LIG    1       25.910 -17.753   3.294  0.00  0.00    +0.231 C 
BRANCH   9  10
ATOM     10  C   LIG    1       24.924 -18.790   3.777  0.00  0.00    -0.014 A 
ATOM     11  C   LIG    1       23.575 -18.454   3.968  0.00  0.00    +0.007 A 
ATOM     12  C   LIG    1       22.681 -19.387   4.494  0.00  0.00    +0.000 A 
ATOM     13  C   LIG    1       23.124 -20.664   4.838  0.00  0.00    +0.000 A 
ATOM     14  C   LIG    1       24.460 -21.011   4.645  0.00  0.00    +0.000 A 
ATOM     15  C   LIG    1       25.356 -20.080   4.119  0.00  0.00    +0.007 A 
ENDBRANCH   9  10
ENDBRANCH   1   9
TORSDOF 4
ENDMDL
MODEL 2
REMARK VINA RESULT:      -5.0      1.586      2.531
REMARK  Name = *****
REMARK                            x       y       z     vdW  Elec       q    Type
REMARK                         _______ _______ _______ _____ _____    ______ ____
ROOT
ATOM      1  N   LIG    1       26.341 -18.390   3.585  0.00  0.00    -0.272 N 
ATOM      2  H   LIG    1       26.664 -19.084   4.243  0.00  0.00    +0.258 HD
ENDROOT
BRANCH   1   5
ATOM      3  C   LIG    1       27.084 -14.837   3.378  0.00  0.00    +0.291 C 
ATOM      4  N   LIG    1       26.396 -16.110   3.253  0.00  0.00    -0.117 NA
ATOM      5  C   LIG    1       26.948 -17.178   3.714  0.00  0.00    +0.381 C 
BRANCH   5   6
ATOM      6  N   LIG    1       28.162 -17.255   4.337  0.00  0.00    -0.279 N 
ATOM      7  H   LIG    1       28.906 -16.758   3.866  0.00  0.00    +0.258 HD
ATOM      8  C   LIG    1       28.633 -18.381   5.113  0.00  0.00    +0.239 C 
ENDBRANCH   5   6
ENDBRANCH   1   5
BRANCH   1   9
ATOM      9  C   LIG    1       24.935 -18.517   3.246  0.00  0.00    +0.231 C 
BRANCH   9  10
ATOM     10  C   LIG    1       24.295 -19.484   4.213  0.00  0.00    -0.014 A 
ATOM     11  C   LIG    1       22.918 -19.416   4.479  0.00  0.00    +0.007 A 
ATOM     12  C   LIG    1       22.340 -20.253   5.435  0.00  0.00    +0.000 A 
ATOM     13  C   LIG    1       23.130 -21.163   6.136  0.00  0.00    +0.000 A 
ATOM     14  C   LIG    1       24.497 -21.244   5.875  0.00  0.00    +0.000 A 
ATOM     15  C   LIG    1       25.077 -20.409   4.920  0.00  0.00    +0.007 A 
ENDBRANCH   9  10
ENDBRANCH   1   9
TORSDOF 4
ENDMDL
MODEL 3
REMARK VINA RESULT:      -5.0      1.779      5.540
REMARK  Name = *****
REMARK                            x       y       z     vdW  Elec       q    Type
REMARK                         _______ _______ _______ _____ _____    ______ ____
ROOT
ATOM      1  N   LIG    1       25.877 -17.815   2.970  0.00  0.00    -0.272 N 
ATOM      2  H   LIG    1       25.337 -17.414   2.216  0.00  0.00    +0.258 HD
ENDROOT
BRANCH   1   5
ATOM      3  C   LIG    1       23.360 -19.923   4.532  0.00  0.00    +0.291 C 
ATOM      4  N   LIG    1       23.987 -18.823   3.821  0.00  0.00    -0.117 NA
ATOM      5  C   LIG    1       25.256 -18.846   3.607  0.00  0.00    +0.381 C 
BRANCH   5   6
ATOM      6  N   LIG    1       26.120 -19.833   3.989  0.00  0.00    -0.279 N 
ATOM      7  H   LIG    1       26.011 -20.704   3.485  0.00  0.00    +0.258 HD
ATOM      8  C   LIG    1       26.648 -20.013   5.324  0.00  0.00    +0.239 C 
ENDBRANCH   5   6
ENDBRANCH   1   5
BRANCH   1   9
ATOM      9  C   LIG    1       26.696 -16.851   3.679  0.00  0.00    +0.231 C 
BRANCH   9  10
ATOM     10  C   LIG    1       26.105 -15.476   3.474  0.00  0.00    -0.014 A 
ATOM     11  C   LIG    1       24.794 -15.197   3.889  0.00  0.00    +0.007 A 
ATOM     12  C   LIG    1       24.217 -13.954   3.624  0.00  0.00    +0.000 A 
ATOM     13  C   LIG    1       24.942 -12.979   2.941  0.00  0.00    +0.000 A 
ATOM     14  C   LIG    1       26.248 -13.242   2.531  0.00  0.00    +0.000 A 
ATOM     15  C   LIG    1       26.827 -14.484   2.793  0.00  0.00    +0.007 A 
ENDBRANCH   9  10
ENDBRANCH   1   9
TORSDOF 4
ENDMDL
MODEL 4
REMARK VINA RESULT:      -5.0      1.795      5.615
REMARK  Name = *****
REMARK                            x       y       z     vdW  Elec       q    Type
REMARK                         _______ _______ _______ _____ _____    ______ ____
ROOT
ATOM      1  N   LIG    1       25.806 -17.908   2.984  0.00  0.00    -0.272 N 
ATOM      2  H   LIG    1       25.231 -17.539   2.241  0.00  0.00    +0.258 HD
ENDROOT
BRANCH   1   5
ATOM      3  C   LIG    1       23.408 -20.075   4.650  0.00  0.00    +0.291 C 
ATOM      4  N   LIG    1       23.977 -18.967   3.903  0.00  0.00    -0.117 NA
ATOM      5  C   LIG    1       25.240 -18.948   3.657  0.00  0.00    +0.381 C 
BRANCH   5   6
ATOM      6  N   LIG    1       26.149 -19.895   4.035  0.00  0.00    -0.279 N 
ATOM      7  H   LIG    1       26.070 -20.774   3.539  0.00  0.00    +0.258 HD
ATOM      8  C   LIG    1       26.700 -20.042   5.364  0.00  0.00    +0.239 C 
ENDBRANCH   5   6
ENDBRANCH   1   5
BRANCH   1   9
ATOM      9  C   LIG    1       26.612 -16.904   3.653  0.00  0.00    +0.231 C 
BRANCH   9  10
ATOM     10  C   LIG    1       26.002 -15.548   3.392  0.00  0.00    -0.014 A 
ATOM     11  C   LIG    1       26.741 -14.550   2.738  0.00  0.00    +0.007 A 
ATOM     12  C   LIG    1       26.209 -13.270   2.571  0.00  0.00    +0.000 A 
ATOM     13  C   LIG    1       24.937 -12.973   3.057  0.00  0.00    +0.000 A 
ATOM     14  C   LIG    1       24.190 -13.959   3.701  0.00  0.00    +0.000 A 
ATOM     15  C   LIG    1       24.720 -15.239   3.870  0.00  0.00    +0.007 A 
ENDBRANCH   9  10
ENDBRANCH   1   9
TORSDOF 4
ENDMDL
MODEL 5
REMARK VINA RESULT:      -5.0      3.277      4.031
REMARK  Name = *****
REMARK                            x       y       z     vdW  Elec       q    Type
REMARK                         _______ _______ _______ _____ _____    ______ ____
ROOT
ATOM      1  N   LIG    1       26.817 -20.175   4.433  0.00  0.00    -0.272 N 
ATOM      2  H   LIG    1       26.360 -21.058   4.610  0.00  0.00    +0.258 HD
ENDROOT
BRANCH   1   5
ATOM      3  C   LIG    1       29.475 -18.536   6.294  0.00  0.00    +0.291 C 
ATOM      4  N   LIG    1       28.588 -18.923   5.212  0.00  0.00    -0.117 NA
ATOM      5  C   LIG    1       27.645 -19.770   5.436  0.00  0.00    +0.381 C 
BRANCH   5   6
ATOM      6  N   LIG    1       27.370 -20.374   6.630  0.00  0.00    -0.279 N 
ATOM      7  H   LIG    1       28.121 -20.946   6.993  0.00  0.00    +0.258 HD
ATOM      8  C   LIG    1       26.062 -20.816   7.062  0.00  0.00    +0.239 C 
ENDBRANCH   5   6
ENDBRANCH   1   5
BRANCH   1   9
ATOM      9  C   LIG    1       26.006 -19.239   3.677  0.00  0.00    +0.231 C 
BRANCH   9  10
ATOM     10  C   LIG    1       24.555 -19.478   4.018  0.00  0.00    -0.014 A 
ATOM     11  C   LIG    1       23.627 -18.427   3.951  0.00  0.00    +0.007 A 
ATOM     12  C   LIG    1       22.303 -18.625   4.347  0.00  0.00    +0.000 A 
ATOM     13  C   LIG    1       21.893 -19.873   4.815  0.00  0.00    +0.000 A 
ATOM     14  C   LIG    1       22.804 -20.926   4.877  0.00  0.00    +0.000 A 
ATOM     15  C   LIG    1       24.128 -20.730   4.483  0.00  0.00    +0.007 A 
ENDBRANCH   9  10
ENDBRANCH   1   9
TORSDOF 4
ENDMDL
MODEL 6
REMARK VINA RESULT:      -4.9      1.758      5.334
REMARK  Name = *****
REMARK                            x       y       z     vdW  Elec       q    Type
REMARK                         _______ _______ _______ _____ _____    ______ ____
ROOT
ATOM      1  N   LIG    1       25.729 -17.918   3.027  0.00  0.00    -0.272 N 
ATOM      2  H   LIG    1       25.087 -17.552   2.338  0.00  0.00    +0.258 HD
ENDROOT
BRANCH   1   5
ATOM      3  C   LIG    1       25.420 -20.741   5.297  0.00  0.00    +0.291 C 
ATOM      4  N   LIG    1       25.979 -19.625   4.555  0.00  0.00    -0.117 NA
ATOM      5  C   LIG    1       25.226 -18.951   3.758  0.00  0.00    +0.381 C 
BRANCH   5   6
ATOM      6  N   LIG    1       23.899 -19.175   3.520  0.00  0.00    -0.279 N 
ATOM      7  H   LIG    1       23.676 -19.383   2.555  0.00  0.00    +0.258 HD
ATOM      8  C   LIG    1       22.805 -18.554   4.234  0.00  0.00    +0.239 C 
ENDBRANCH   5   6
ENDBRANCH   1   5
BRANCH   1   9
ATOM      9  C   LIG    1       26.598 -16.912   3.609  0.00  0.00    +0.231 C 
BRANCH   9  10
ATOM     10  C   LIG    1       25.975 -15.554   3.387  0.00  0.00    -0.014 A 
ATOM     11  C   LIG    1       26.692 -14.542   2.731  0.00  0.00    +0.007 A 
ATOM     12  C   LIG    1       26.151 -13.262   2.600  0.00  0.00    +0.000 A 
ATOM     13  C   LIG    1       24.890 -12.980   3.123  0.00  0.00    +0.000 A 
ATOM     14  C   LIG    1       24.165 -13.980   3.769  0.00  0.00    +0.000 A 
ATOM     15  C   LIG    1       24.704 -15.260   3.902  0.00  0.00    +0.007 A 
ENDBRANCH   9  10
ENDBRANCH   1   9
TORSDOF 4
ENDMDL
MODEL 7
REMARK VINA RESULT:      -4.5      0.643      2.248
REMARK  Name = *****
REMARK                            x       y       z     vdW  Elec       q    Type
REMARK                         _______ _______ _______ _____ _____    ______ ____
ROOT
ATOM      1  N   LIG    1       26.230 -16.771   3.699  0.00  0.00    -0.272 N 
ATOM      2  H   LIG    1       26.378 -17.003   4.671  0.00  0.00    +0.258 HD
ENDROOT
BRANCH   1   5
ATOM      3  C   LIG    1       24.332 -13.677   3.506  0.00  0.00    +0.291 C 
ATOM      4  N   LIG    1       24.690 -15.058   3.773  0.00  0.00    -0.117 NA
ATOM      5  C   LIG    1       25.874 -15.474   3.487  0.00  0.00    +0.381 C 
BRANCH   5   6
ATOM      6  N   LIG    1       26.879 -14.730   2.937  0.00  0.00    -0.279 N 
ATOM      7  H   LIG    1       27.204 -15.063   2.039  0.00  0.00    +0.258 HD
ATOM      8  C   LIG    1       27.898 -14.020   3.680  0.00  0.00    +0.239 C 
ENDBRANCH   5   6
ENDBRANCH   1   5
BRANCH   1   9
ATOM      9  C   LIG    1       25.678 -17.861   2.916  0.00  0.00    +0.231 C 
BRANCH   9  10
ATOM     10  C   LIG    1       24.812 -18.707   3.818  0.00  0.00    -0.014 A 
ATOM     11  C   LIG    1       25.350 -19.823   4.478  0.00  0.00    +0.007 A 
ATOM     12  C   LIG    1       24.532 -20.655   5.244  0.00  0.00    +0.000 A 
ATOM     13  C   LIG    1       23.169 -20.383   5.358  0.00  0.00    +0.000 A 
ATOM     14  C   LIG    1       22.625 -19.273   4.714  0.00  0.00    +0.000 A 
ATOM     15  C   LIG    1       23.440 -18.440   3.946  0.00  0.00    +0.007 A 
ENDBRANCH   9  10
ENDBRANCH   1   9
TORSDOF 4
ENDMDL
MODEL 8
REMARK VINA RESULT:      -4.5      0.683      1.831
REMARK  Name = *****
REMARK                            x       y       z     vdW  Elec       q    Type
REMARK                         _______ _______ _______ _____ _____    ______ ____
ROOT
ATOM      1  N   LIG    1       26.201 -16.797   3.707  0.00  0.00    -0.272 N 
ATOM      2  H   LIG    1       26.319 -17.036   4.681  0.00  0.00    +0.258 HD
ENDROOT
BRANCH   1   5
ATOM      3  C   LIG    1       24.278 -13.717   3.520  0.00  0.00    +0.291 C 
ATOM      4  N   LIG    1       24.648 -15.095   3.787  0.00  0.00    -0.117 NA
ATOM      5  C   LIG    1       25.834 -15.502   3.496  0.00  0.00    +0.381 C 
BRANCH   5   6
ATOM      6  N   LIG    1       26.831 -14.751   2.939  0.00  0.00    -0.279 N 
ATOM      7  H   LIG    1       27.137 -15.069   2.029  0.00  0.00    +0.258 HD
ATOM      8  C   LIG    1       27.866 -14.059   3.675  0.00  0.00    +0.239 C 
ENDBRANCH   5   6
ENDBRANCH   1   5
BRANCH   1   9
ATOM      9  C   LIG    1       25.689 -17.886   2.896  0.00  0.00    +0.231 C 
BRANCH   9  10
ATOM     10  C   LIG    1       24.853 -18.786   3.775  0.00  0.00    -0.014 A 
ATOM     11  C   LIG    1       23.475 -18.560   3.917  0.00  0.00    +0.007 A 
ATOM     12  C   LIG    1       22.717 -19.338   4.794  0.00  0.00    +0.000 A 
ATOM     13  C   LIG    1       23.327 -20.347   5.538  0.00  0.00    +0.000 A 
ATOM     14  C   LIG    1       24.693 -20.585   5.399  0.00  0.00    +0.000 A 
ATOM     15  C   LIG    1       25.454 -19.808   4.524  0.00  0.00    +0.007 A 
ENDBRANCH   9  10
ENDBRANCH   1   9
TORSDOF 4
ENDMDL
MODEL 9
REMARK VINA RESULT:      -4.1      1.200      2.372
REMARK  Name = *****
REMARK                            x       y       z     vdW  Elec       q    Type
REMARK                         _______ _______ _______ _____ _____    ______ ____
ROOT
ATOM      1  N   LIG    1       24.463 -15.877   3.963  0.00  0.00    -0.272 N 
ATOM      2  H   LIG    1       25.210 -16.373   4.427  0.00  0.00    +0.258 HD
ENDROOT
BRANCH   1   5
ATOM      3  C   LIG    1       24.007 -12.330   3.309  0.00  0.00    +0.291 C 
ATOM      4  N   LIG    1       23.737 -13.749   3.457  0.00  0.00    -0.117 NA
ATOM      5  C   LIG    1       24.678 -14.537   3.843  0.00  0.00    +0.381 C 
BRANCH   5   6
ATOM      6  N   LIG    1       25.961 -14.175   4.146  0.00  0.00    -0.279 N 
ATOM      7  H   LIG    1       26.040 -13.314   4.671  0.00  0.00    +0.258 HD
ATOM      8  C   LIG    1       27.122 -14.450   3.328  0.00  0.00    +0.239 C 
ENDBRANCH   5   6
ENDBRANCH   1   5
BRANCH   1   9
ATOM      9  C   LIG    1       23.146 -16.426   4.223  0.00  0.00    +0.231 C 
BRANCH   9  10
ATOM     10  C   LIG    1       23.243 -17.933   4.202  0.00  0.00    -0.014 A 
ATOM     11  C   LIG    1       22.260 -18.718   4.825  0.00  0.00    +0.007 A 
ATOM     12  C   LIG    1       22.392 -20.106   4.879  0.00  0.00    +0.000 A 
ATOM     13  C   LIG    1       23.506 -20.725   4.316  0.00  0.00    +0.000 A 
ATOM     14  C   LIG    1       24.486 -19.957   3.687  0.00  0.00    +0.000 A 
ATOM     15  C   LIG    1       24.357 -18.569   3.632  0.00  0.00    +0.007 A 
ENDBRANCH   9  10
ENDBRANCH   1   9
TORSDOF 4
ENDMDL
