MODEL 1
REMARK VINA RESULT:      -3.4      0.000      0.000
REMARK  Name = *****
REMARK                            x       y       z     vdW  Elec       q    Type
REMARK                         _______ _______ _______ _____ _____    ______ ____
ROOT
ATOM      1  C   LIG    1       24.932 -19.977   4.358  0.00  0.00    +0.149 A 
ATOM      2  C   LIG    1       25.648 -18.806   4.055  0.00  0.00    +0.147 A 
ATOM      3  N   LIG    1       26.996 -18.525   4.011  0.00  0.00    -0.231 NA
ATOM      4  C   LIG    1       27.065 -17.262   3.640  0.00  0.00    +0.203 A 
ATOM      5  N   LIG    1       25.824 -16.704   3.478  0.00  0.00    -0.288 N 
ATOM      6  C   LIG    1       24.901 -17.684   3.731  0.00  0.00    +0.169 A 
ATOM      7  N   LIG    1       23.564 -17.589   3.682  0.00  0.00    -0.198 NA
ATOM      8  C   LIG    1       22.997 -18.767   4.014  0.00  0.00    +0.226 A 
ATOM      9 CL   LIG    1       21.285 -18.773   4.028  0.00  0.00    -0.041 Cl
ATOM     10  N   LIG    1       23.583 -19.933   4.351  0.00  0.00    -0.201 NA
ENDROOT
BRANCH   5  11
ATOM     11  C1* LIG    1       25.514 -15.354   3.032  0.00  0.00    +0.225 C 
ATOM     12  O4* LIG    1       26.730 -14.731   2.553  0.00  0.00    -0.348 OA
ATOM     13  C4* LIG    1       26.996 -13.583   3.375  0.00  0.00    +0.175 C 
ATOM     14  C3* LIG    1       26.179 -13.762   4.648  0.00  0.00    +0.150 C 
ATOM     15  C2* LIG    1       24.945 -14.445   4.114  0.00  0.00    +0.088 C 
BRANCH  14  16
ATOM     16  O3* LIG    1       25.864 -12.537   5.283  0.00  0.00    -0.389 OA
ATOM     17  H3* LIG    1       24.918 -12.363   5.092  0.00  0.00    +0.210 HD
ENDBRANCH  14  16
BRANCH  13  18
ATOM     18  C5* LIG    1       28.490 -13.444   3.656  0.00  0.00    +0.190 C 
BRANCH  18  19
ATOM     19  O5* LIG    1       28.706 -12.534   4.730  0.00  0.00    -0.392 OA
ATOM     20  H5* LIG    1       29.649 -12.598   4.967  0.00  0.00    +0.209 HD
ENDBRANCH  18  19
ENDBRANCH  13  18
ENDBRANCH   5  11
BRANCH   1  21
ATOM     21  N   LIG    1       25.549 -21.179   4.678  0.00  0.00    -0.341 N 
ATOM     22  H   LIG    1       24.904 -21.939   4.861  0.00  0.00    +0.144 HD
ATOM     23  H   LIG    1       26.360 -21.372   4.104  0.00  0.00    +0.144 HD
ENDBRANCH   1  21
TORSDOF 5
ENDMDL
MODEL 2
REMARK VINA RESULT:      -3.1      3.886      6.314
REMARK  Name = *****
REMARK                            x       y       z     vdW  Elec       q    Type
REMARK                         _______ _______ _______ _____ _____    ______ ____
ROOT
ATOM      1  C   LIG    1       24.598 -13.625   4.275  0.00  0.00    +0.149 A 
ATOM      2  C   LIG    1       24.151 -14.955   4.202  0.00  0.00    +0.147 A 
ATOM      3  N   LIG    1       22.957 -15.555   4.536  0.00  0.00    -0.231 NA
ATOM      4  C   LIG    1       23.117 -16.825   4.222  0.00  0.00    +0.203 A 
ATOM      5  N   LIG    1       24.373 -17.081   3.735  0.00  0.00    -0.288 N 
ATOM      6  C   LIG    1       25.048 -15.890   3.706  0.00  0.00    +0.169 A 
ATOM      7  N   LIG    1       26.304 -15.664   3.293  0.00  0.00    -0.198 NA
ATOM      8  C   LIG    1       26.619 -14.360   3.435  0.00  0.00    +0.226 A 
ATOM      9 CL   LIG    1       28.214 -13.941   2.977  0.00  0.00    -0.041 Cl
ATOM     10  N   LIG    1       25.864 -13.344   3.898  0.00  0.00    -0.201 NA
ENDROOT
BRANCH   5  11
ATOM     11  C1* LIG    1       24.889 -18.350   3.246  0.00  0.00    +0.225 C 
ATOM     12  O4* LIG    1       23.804 -19.308   3.202  0.00  0.00    -0.348 OA
ATOM     13  C4* LIG    1       24.125 -20.387   4.093  0.00  0.00    +0.175 C 
ATOM     14  C3* LIG    1       25.209 -19.869   5.029  0.00  0.00    +0.150 C 
ATOM     15  C2* LIG    1       25.986 -18.962   4.108  0.00  0.00    +0.088 C 
BRANCH  14  16
ATOM     16  O3* LIG    1       26.025 -20.897   5.558  0.00  0.00    -0.389 OA
ATOM     17  H3* LIG    1       25.514 -21.308   6.287  0.00  0.00    +0.210 HD
ENDBRANCH  14  16
BRANCH  13  18
ATOM     18  C5* LIG    1       22.886 -20.865   4.845  0.00  0.00    +0.190 C 
BRANCH  18  19
ATOM     19  O5* LIG    1       22.951 -20.459   6.208  0.00  0.00    -0.392 OA
ATOM     20  H5* LIG    1       22.711 -19.515   6.231  0.00  0.00    +0.209 HD
ENDBRANCH  18  19
ENDBRANCH  13  18
ENDBRANCH   5  11
BRANCH   1  21
ATOM     21  N   LIG    1       23.800 -12.583   4.730  0.00  0.00    -0.341 N 
ATOM     22  H   LIG    1       23.197 -12.834   5.504  0.00  0.00    +0.144 HD
ATOM     23  H   LIG    1       24.291 -11.700   4.776  0.00  0.00    +0.144 HD
ENDBRANCH   1  21
TORSDOF 5
ENDMDL
MODEL 3
REMARK VINA RESULT:      -2.2      3.507      5.943
REMARK  Name = *****
REMARK                            x       y       z     vdW  Elec       q    Type
REMARK                         _______ _______ _______ _____ _____    ______ ____
ROOT
ATOM      1  C   LIG    1       26.921 -14.309   3.642  0.00  0.00    +0.149 A 
ATOM      2  C   LIG    1       26.520 -15.653   3.554  0.00  0.00    +0.147 A 
ATOM      3  N   LIG    1       27.219 -16.820   3.339  0.00  0.00    -0.231 NA
ATOM      4  C   LIG    1       26.309 -17.772   3.386  0.00  0.00    +0.203 A 
ATOM      5  N   LIG    1       25.048 -17.271   3.585  0.00  0.00    -0.288 N 
ATOM      6  C   LIG    1       25.166 -15.912   3.705  0.00  0.00    +0.169 A 
ATOM      7  N   LIG    1       24.190 -15.016   3.919  0.00  0.00    -0.198 NA
ATOM      8  C   LIG    1       24.699 -13.768   3.959  0.00  0.00    +0.226 A 
ATOM      9 CL   LIG    1       23.550 -12.519   4.189  0.00  0.00    -0.041 Cl
ATOM     10  N   LIG    1       25.977 -13.361   3.829  0.00  0.00    -0.201 NA
ENDROOT
BRANCH   5  11
ATOM     11  C1* LIG    1       23.812 -18.024   3.737  0.00  0.00    +0.225 C 
ATOM     12  O4* LIG    1       23.781 -18.603   5.064  0.00  0.00    -0.348 OA
ATOM     13  C4* LIG    1       23.743 -20.032   4.926  0.00  0.00    +0.175 C 
ATOM     14  C3* LIG    1       24.207 -20.343   3.509  0.00  0.00    +0.150 C 
ATOM     15  C2* LIG    1       23.642 -19.170   2.749  0.00  0.00    +0.088 C 
BRANCH  14  16
ATOM     16  O3* LIG    1       23.706 -21.572   3.017  0.00  0.00    -0.389 OA
ATOM     17  H3* LIG    1       23.849 -21.560   2.047  0.00  0.00    +0.210 HD
ENDBRANCH  14  16
BRANCH  13  18
ATOM     18  C5* LIG    1       24.609 -20.709   5.984  0.00  0.00    +0.190 C 
BRANCH  18  19
ATOM     19  O5* LIG    1       25.594 -21.529   5.363  0.00  0.00    -0.392 OA
ATOM     20  H5* LIG    1       25.581 -21.313   4.413  0.00  0.00    +0.209 HD
ENDBRANCH  18  19
ENDBRANCH  13  18
ENDBRANCH   5  11
BRANCH   1  21
ATOM     21  N   LIG    1       28.245 -13.907   3.532  0.00  0.00    -0.341 N 
ATOM     22  H   LIG    1       28.487 -13.527   2.624  0.00  0.00    +0.144 HD
ATOM     23  H   LIG    1       28.581 -13.423   4.355  0.00  0.00    +0.144 HD
ENDBRANCH   1  21
TORSDOF 5
ENDMDL
MODEL 4
REMARK VINA RESULT:      -1.8      1.727      1.970
REMARK  Name = *****
REMARK                            x       y       z     vdW  Elec       q    Type
REMARK                         _______ _______ _______ _____ _____    ______ ____
ROOT
ATOM      1  C   LIG    1       25.128 -19.332   3.609  0.00  0.00    +0.149 A 
ATOM      2  C   LIG    1       25.248 -17.932   3.572  0.00  0.00    +0.147 A 
ATOM      3  N   LIG    1       26.301 -17.097   3.273  0.00  0.00    -0.231 NA
ATOM      4  C   LIG    1       25.808 -15.879   3.382  0.00  0.00    +0.203 A 
ATOM      5  N   LIG    1       24.495 -15.888   3.775  0.00  0.00    -0.288 N 
ATOM      6  C   LIG    1       24.115 -17.199   3.892  0.00  0.00    +0.169 A 
ATOM      7  N   LIG    1       22.913 -17.681   4.243  0.00  0.00    -0.198 NA
ATOM      8  C   LIG    1       22.935 -19.029   4.263  0.00  0.00    +0.226 A 
ATOM      9 CL   LIG    1       21.467 -19.775   4.734  0.00  0.00    -0.041 Cl
ATOM     10  N   LIG    1       23.948 -19.872   3.981  0.00  0.00    -0.201 NA
ENDROOT
BRANCH   5  11
ATOM     11  C1* LIG    1       23.617 -14.742   3.952  0.00  0.00    +0.225 C 
ATOM     12  O4* LIG    1       23.740 -13.879   2.795  0.00  0.00    -0.348 OA
ATOM     13  C4* LIG    1       24.238 -12.607   3.238  0.00  0.00    +0.175 C 
ATOM     14  C3* LIG    1       24.849 -12.836   4.615  0.00  0.00    +0.150 C 
ATOM     15  C2* LIG    1       23.927 -13.889   5.176  0.00  0.00    +0.088 C 
BRANCH  14  16
ATOM     16  O3* LIG    1       24.859 -11.672   5.419  0.00  0.00    -0.389 OA
ATOM     17  H3* LIG    1       25.640 -11.748   6.006  0.00  0.00    +0.210 HD
ENDBRANCH  14  16
BRANCH  13  18
ATOM     18  C5* LIG    1       25.243 -12.033   2.243  0.00  0.00    +0.190 C 
BRANCH  18  19
ATOM     19  O5* LIG    1       26.461 -12.768   2.297  0.00  0.00    -0.392 OA
ATOM     20  H5* LIG    1       26.358 -13.432   3.002  0.00  0.00    +0.209 HD
ENDBRANCH  18  19
ENDBRANCH  13  18
ENDBRANCH   5  11
BRANCH   1  21
ATOM     21  N   LIG    1       26.173 -20.189   3.290  0.00  0.00    -0.341 N 
ATOM     22  H   LIG    1       26.535 -20.067   2.352  0.00  0.00    +0.144 HD
ATOM     23  H   LIG    1       26.837 -20.300   4.045  0.00  0.00    +0.144 HD
ENDBRANCH   1  21
TORSDOF 5
ENDMDL
MODEL 5
REMARK VINA RESULT:      -1.6      1.899      2.816
REMARK  Name = *****
REMARK                            x       y       z     vdW  Elec       q    Type
REMARK                         _______ _______ _______ _____ _____    ______ ____
ROOT
ATOM      1  C   LIG    1       22.734 -17.742   4.306  0.00  0.00    +0.149 A 
ATOM      2  C   LIG    1       23.531 -16.601   4.109  0.00  0.00    +0.147 A 
ATOM      3  N   LIG    1       23.288 -15.257   4.281  0.00  0.00    -0.231 NA
ATOM      4  C   LIG    1       24.422 -14.665   3.960  0.00  0.00    +0.203 A 
ATOM      5  N   LIG    1       25.374 -15.563   3.553  0.00  0.00    -0.288 N 
ATOM      6  C   LIG    1       24.823 -16.813   3.651  0.00  0.00    +0.169 A 
ATOM      7  N   LIG    1       25.396 -17.992   3.367  0.00  0.00    -0.198 NA
ATOM      8  C   LIG    1       24.525 -19.000   3.573  0.00  0.00    +0.226 A 
ATOM      9 CL   LIG    1       25.121 -20.564   3.210  0.00  0.00    -0.041 Cl
ATOM     10  N   LIG    1       23.251 -18.954   4.009  0.00  0.00    -0.201 NA
ENDROOT
BRANCH   5  11
ATOM     11  C1* LIG    1       26.750 -15.281   3.172  0.00  0.00    +0.225 C 
ATOM     12  O4* LIG    1       27.525 -15.041   4.371  0.00  0.00    -0.348 OA
ATOM     13  C4* LIG    1       28.033 -13.699   4.312  0.00  0.00    +0.175 C 
ATOM     14  C3* LIG    1       27.191 -12.961   3.279  0.00  0.00    +0.150 C 
ATOM     15  C2* LIG    1       26.921 -14.058   2.280  0.00  0.00    +0.088 C 
BRANCH  14  16
ATOM     16  O3* LIG    1       27.870 -11.871   2.686  0.00  0.00    -0.389 OA
ATOM     17  H3* LIG    1       27.284 -11.091   2.788  0.00  0.00    +0.210 HD
ENDBRANCH  14  16
BRANCH  13  18
ATOM     18  C5* LIG    1       27.986 -13.034   5.685  0.00  0.00    +0.190 C 
BRANCH  18  19
ATOM     19  O5* LIG    1       28.886 -11.931   5.729  0.00  0.00    -0.392 OA
ATOM     20  H5* LIG    1       28.942 -11.578   4.822  0.00  0.00    +0.209 HD
ENDBRANCH  18  19
ENDBRANCH  13  18
ENDBRANCH   5  11
BRANCH   1  21
ATOM     21  N   LIG    1       21.431 -17.681   4.781  0.00  0.00    -0.341 N 
ATOM     22  H   LIG    1       20.819 -18.393   4.400  0.00  0.00    +0.144 HD
ATOM     23  H   LIG    1       21.380 -17.492   5.773  0.00  0.00    +0.144 HD
ENDBRANCH   1  21
TORSDOF 5
ENDMDL
MODEL 6
REMARK VINA RESULT:      -1.6      2.557      3.400
REMARK  Name = *****
REMARK                            x       y       z     vdW  Elec       q    Type
REMARK                         _______ _______ _______ _____ _____    ______ ____
ROOT
ATOM      1  C   LIG    1       26.052 -20.067   4.670  0.00  0.00    +0.149 A 
ATOM      2  C   LIG    1       25.912 -18.799   4.078  0.00  0.00    +0.147 A 
ATOM      3  N   LIG    1       24.930 -18.247   3.287  0.00  0.00    -0.231 NA
ATOM      4  C   LIG    1       25.336 -17.014   3.057  0.00  0.00    +0.203 A 
ATOM      5  N   LIG    1       26.553 -16.756   3.632  0.00  0.00    -0.288 N 
ATOM      6  C   LIG    1       26.934 -17.889   4.301  0.00  0.00    +0.169 A 
ATOM      7  N   LIG    1       28.051 -18.088   5.016  0.00  0.00    -0.198 NA
ATOM      8  C   LIG    1       28.077 -19.343   5.509  0.00  0.00    +0.226 A 
ATOM      9 CL   LIG    1       29.475 -19.742   6.415  0.00  0.00    -0.041 Cl
ATOM     10  N   LIG    1       27.171 -20.331   5.379  0.00  0.00    -0.201 NA
ENDROOT
BRANCH   5  11
ATOM     11  C1* LIG    1       27.284 -15.498   3.629  0.00  0.00    +0.225 C 
ATOM     12  O4* LIG    1       26.888 -14.727   4.789  0.00  0.00    -0.348 OA
ATOM     13  C4* LIG    1       26.288 -13.506   4.330  0.00  0.00    +0.175 C 
ATOM     14  C3* LIG    1       25.908 -13.731   2.872  0.00  0.00    +0.150 C 
ATOM     15  C2* LIG    1       27.032 -14.623   2.408  0.00  0.00    +0.088 C 
BRANCH  14  16
ATOM     16  O3* LIG    1       25.851 -12.532   2.122  0.00  0.00    -0.389 OA
ATOM     17  H3* LIG    1       26.689 -12.483   1.616  0.00  0.00    +0.210 HD
ENDBRANCH  14  16
BRANCH  13  18
ATOM     18  C5* LIG    1       25.088 -13.125   5.192  0.00  0.00    +0.190 C 
BRANCH  18  19
ATOM     19  O5* LIG    1       24.050 -12.585   4.381  0.00  0.00    -0.392 OA
ATOM     20  H5* LIG    1       24.376 -11.732   4.040  0.00  0.00    +0.209 HD
ENDBRANCH  18  19
ENDBRANCH  13  18
ENDBRANCH   5  11
BRANCH   1  21
ATOM     21  N   LIG    1       25.097 -21.067   4.550  0.00  0.00    -0.341 N 
ATOM     22  H   LIG    1       24.238 -20.879   5.053  0.00  0.00    +0.144 HD
ATOM     23  H   LIG    1       25.027 -21.437   3.611  0.00  0.00    +0.144 HD
ENDBRANCH   1  21
TORSDOF 5
ENDMDL
MODEL 7
REMARK VINA RESULT:      -1.2      3.471      5.843
REMARK  Name = *****
REMARK                            x       y       z     vdW  Elec       q    Type
REMARK                         _______ _______ _______ _____ _____    ______ ____
ROOT
ATOM      1  C   LIG    1       27.085 -14.079   4.296  0.00  0.00    +0.149 A 
ATOM      2  C   LIG    1       27.065 -15.472   4.107  0.00  0.00    +0.147 A 
ATOM      3  N   LIG    1       27.968 -16.465   4.415  0.00  0.00    -0.231 NA
ATOM      4  C   LIG    1       27.390 -17.582   4.019  0.00  0.00    +0.203 A 
ATOM      5  N   LIG    1       26.171 -17.352   3.437  0.00  0.00    -0.288 N 
ATOM      6  C   LIG    1       25.941 -16.003   3.493  0.00  0.00    +0.169 A 
ATOM      7  N   LIG    1       24.868 -15.331   3.050  0.00  0.00    -0.198 NA
ATOM      8  C   LIG    1       25.019 -14.009   3.269  0.00  0.00    +0.226 A 
ATOM      9 CL   LIG    1       23.730 -13.026   2.714  0.00  0.00    -0.041 Cl
ATOM     10  N   LIG    1       26.042 -13.349   3.846  0.00  0.00    -0.201 NA
ENDROOT
BRANCH   5  11
ATOM     11  C1* LIG    1       25.234 -18.343   2.929  0.00  0.00    +0.225 C 
ATOM     12  O4* LIG    1       23.979 -18.203   3.640  0.00  0.00    -0.348 OA
ATOM     13  C4* LIG    1       23.724 -19.431   4.339  0.00  0.00    +0.175 C 
ATOM     14  C3* LIG    1       25.054 -20.170   4.419  0.00  0.00    +0.150 C 
ATOM     15  C2* LIG    1       25.683 -19.788   3.102  0.00  0.00    +0.088 C 
BRANCH  14  16
ATOM     16  O3* LIG    1       24.905 -21.572   4.537  0.00  0.00    -0.389 OA
ATOM     17  H3* LIG    1       25.697 -21.895   5.016  0.00  0.00    +0.210 HD
ENDBRANCH  14  16
BRANCH  13  18
ATOM     18  C5* LIG    1       23.123 -19.164   5.716  0.00  0.00    +0.190 C 
BRANCH  18  19
ATOM     19  O5* LIG    1       22.996 -20.382   6.443  0.00  0.00    -0.392 OA
ATOM     20  H5* LIG    1       22.055 -20.631   6.410  0.00  0.00    +0.209 HD
ENDBRANCH  18  19
ENDBRANCH  13  18
ENDBRANCH   5  11
BRANCH   1  21
ATOM     21  N   LIG    1       28.134 -13.416   4.916  0.00  0.00    -0.341 N 
ATOM     22  H   LIG    1       28.286 -13.692   5.880  0.00  0.00    +0.144 HD
ATOM     23  H   LIG    1       28.944 -13.310   4.319  0.00  0.00    +0.144 HD
ENDBRANCH   1  21
TORSDOF 5
ENDMDL
MODEL 8
REMARK VINA RESULT:      -1.1      3.517      5.745
REMARK  Name = *****
REMARK                            x       y       z     vdW  Elec       q    Type
REMARK                         _______ _______ _______ _____ _____    ______ ____
ROOT
ATOM      1  C   LIG    1       28.362 -17.869   5.035  0.00  0.00    +0.149 A 
ATOM      2  C   LIG    1       27.482 -18.948   4.844  0.00  0.00    +0.147 A 
ATOM      3  N   LIG    1       27.468 -20.235   5.333  0.00  0.00    -0.231 NA
ATOM      4  C   LIG    1       26.381 -20.778   4.823  0.00  0.00    +0.203 A 
ATOM      5  N   LIG    1       25.711 -19.913   3.998  0.00  0.00    -0.288 N 
ATOM      6  C   LIG    1       26.398 -18.729   4.006  0.00  0.00    +0.169 A 
ATOM      7  N   LIG    1       26.101 -17.598   3.349  0.00  0.00    -0.198 NA
ATOM      8  C   LIG    1       27.029 -16.652   3.596  0.00  0.00    +0.226 A 
ATOM      9 CL   LIG    1       26.788 -15.163   2.785  0.00  0.00    -0.041 Cl
ATOM     10  N   LIG    1       28.126 -16.714   4.377  0.00  0.00    -0.201 NA
ENDROOT
BRANCH   5  11
ATOM     11  C1* LIG    1       24.454 -20.149   3.303  0.00  0.00    +0.225 C 
ATOM     12  O4* LIG    1       23.618 -18.975   3.443  0.00  0.00    -0.348 OA
ATOM     13  C4* LIG    1       22.425 -19.359   4.146  0.00  0.00    +0.175 C 
ATOM     14  C3* LIG    1       22.735 -20.682   4.835  0.00  0.00    +0.150 C 
ATOM     15  C2* LIG    1       23.652 -21.332   3.829  0.00  0.00    +0.088 C 
BRANCH  14  16
ATOM     16  O3* LIG    1       21.582 -21.467   5.072  0.00  0.00    -0.389 OA
ATOM     17  H3* LIG    1       21.789 -22.368   4.744  0.00  0.00    +0.210 HD
ENDBRANCH  14  16
BRANCH  13  18
ATOM     18  C5* LIG    1       21.996 -18.276   5.131  0.00  0.00    +0.190 C 
BRANCH  18  19
ATOM     19  O5* LIG    1       22.336 -16.989   4.626  0.00  0.00    -0.392 OA
ATOM     20  H5* LIG    1       23.107 -17.111   4.042  0.00  0.00    +0.209 HD
ENDBRANCH  18  19
ENDBRANCH  13  18
ENDBRANCH   5  11
BRANCH   1  21
ATOM     21  N   LIG    1       29.474 -17.939   5.863  0.00  0.00    -0.341 N 
ATOM     22  H   LIG    1       30.295 -17.473   5.493  0.00  0.00    +0.144 HD
ATOM     23  H   LIG    1       29.250 -17.799   6.840  0.00  0.00    +0.144 HD
ENDBRANCH   1  21
TORSDOF 5
ENDMDL
MODEL 9
REMARK VINA RESULT:      -1.0      1.652      2.184
REMARK  Name = *****
REMARK                            x       y       z     vdW  Elec       q    Type
REMARK                         _______ _______ _______ _____ _____    ______ ____
ROOT
ATOM      1  C   LIG    1       26.752 -20.441   5.461  0.00  0.00    +0.149 A 
ATOM      2  C   LIG    1       27.427 -19.252   5.135  0.00  0.00    +0.147 A 
ATOM      3  N   LIG    1       28.672 -18.769   5.468  0.00  0.00    -0.231 NA
ATOM      4  C   LIG    1       28.762 -17.609   4.847  0.00  0.00    +0.203 A 
ATOM      5  N   LIG    1       27.616 -17.304   4.159  0.00  0.00    -0.288 N 
ATOM      6  C   LIG    1       26.751 -18.352   4.324  0.00  0.00    +0.169 A 
ATOM      7  N   LIG    1       25.515 -18.489   3.820  0.00  0.00    -0.198 NA
ATOM      8  C   LIG    1       24.969 -19.655   4.222  0.00  0.00    +0.226 A 
ATOM      9 CL   LIG    1       23.371 -19.938   3.677  0.00  0.00    -0.041 Cl
ATOM     10  N   LIG    1       25.494 -20.620   5.002  0.00  0.00    -0.201 NA
ENDROOT
BRANCH   5  11
ATOM     11  C1* LIG    1       27.371 -16.137   3.324  0.00  0.00    +0.225 C 
ATOM     12  O4* LIG    1       27.856 -14.961   4.016  0.00  0.00    -0.348 OA
ATOM     13  C4* LIG    1       26.740 -14.087   4.246  0.00  0.00    +0.175 C 
ATOM     14  C3* LIG    1       25.485 -14.937   4.093  0.00  0.00    +0.150 C 
ATOM     15  C2* LIG    1       25.904 -15.888   3.000  0.00  0.00    +0.088 C 
BRANCH  14  16
ATOM     16  O3* LIG    1       24.346 -14.185   3.720  0.00  0.00    -0.389 OA
ATOM     17  H3* LIG    1       24.043 -14.549   2.862  0.00  0.00    +0.210 HD
ENDBRANCH  14  16
BRANCH  13  18
ATOM     18  C5* LIG    1       26.832 -13.429   5.620  0.00  0.00    +0.190 C 
BRANCH  18  19
ATOM     19  O5* LIG    1       25.862 -12.393   5.736  0.00  0.00    -0.392 OA
ATOM     20  H5* LIG    1       25.249 -12.662   6.444  0.00  0.00    +0.209 HD
ENDBRANCH  18  19
ENDBRANCH  13  18
ENDBRANCH   5  11
BRANCH   1  21
ATOM     21  N   LIG    1       27.315 -21.440   6.244  0.00  0.00    -0.341 N 
ATOM     22  H   LIG    1       26.744 -21.715   7.035  0.00  0.00    +0.144 HD
ATOM     23  H   LIG    1       27.755 -22.169   5.699  0.00  0.00    +0.144 HD
ENDBRANCH   1  21
TORSDOF 5
ENDMDL
