MODEL 1
REMARK VINA RESULT:      19.8      0.000      0.000
REMARK  Name = *****
REMARK                            x       y       z     vdW  Elec       q    Type
REMARK                         _______ _______ _______ _____ _____    ______ ____
ROOT
ATOM      1  C   LIG    1       25.065 -19.236   4.237  0.00  0.00    +0.182 C 
ATOM      2  C   LIG    1       24.046 -18.156   3.583  0.00  0.00    +0.021 C 
ATOM      3  C   LIG    1       24.936 -17.359   2.585  0.00  0.00    +0.005 C 
ATOM      4  C   LIG    1       25.743 -16.194   3.232  0.00  0.00    +0.018 C 
ATOM      5  C   LIG    1       24.825 -15.183   3.994  0.00  0.00    +0.086 C 
ATOM      6  C   LIG    1       24.099 -16.015   5.102  0.00  0.00    +0.137 C 
ATOM      7 CL   LIG    1       23.534 -14.587   2.822  0.00  0.00    -0.114 Cl
ATOM      8  C   LIG    1       25.629 -13.898   4.565  0.00  0.00    +0.029 C 
ATOM      9  C   LIG    1       26.721 -13.395   3.574  0.00  0.00    -0.054 C 
ATOM     10  C   LIG    1       27.455 -12.315   3.934  0.00  0.00    +0.051 C 
ATOM     11  C   LIG    1       28.196 -12.600   5.223  0.00  0.00    +0.179 C 
ATOM     12  C   LIG    1       27.562 -13.567   6.172  0.00  0.00    +0.047 C 
ATOM     13  O   LIG    1       29.226 -12.006   5.512  0.00  0.00    -0.288 OA
ATOM     14  C   LIG    1       27.503 -14.456   2.834  0.00  0.00    +0.032 C 
ATOM     15  C   LIG    1       24.660 -12.710   4.868  0.00  0.00    +0.022 C 
ATOM     16  C   LIG    1       26.382 -14.148   5.886  0.00  0.00    -0.011 C 
ATOM     17  C   LIG    1       26.611 -15.488   2.180  0.00  0.00    +0.010 C 
ATOM     18  C   LIG    1       25.809 -18.462   1.990  0.00  0.00    +0.012 C 
ATOM     19  C   LIG    1       22.900 -18.813   2.750  0.00  0.00    +0.016 C 
ATOM     20  C   LIG    1       23.328 -17.243   4.602  0.00  0.00    +0.044 C 
ATOM     21  C   LIG    1       26.254 -19.293   3.193  0.00  0.00    +0.038 C 
ATOM     22  C   LIG    1       26.748 -20.653   2.703  0.00  0.00    +0.012 C 
ENDROOT
BRANCH   1  23
ATOM     23  C   LIG    1       24.333 -20.603   4.390  0.00  0.00    +0.214 C 
ATOM     24  O   LIG    1       24.232 -21.372   3.427  0.00  0.00    -0.289 OA
BRANCH  23  25
ATOM     25  C   LIG    1       23.587 -20.945   5.675  0.00  0.00    +0.310 C 
BRANCH  25  26
ATOM     26  O   LIG    1       22.290 -20.408   5.894  0.00  0.00    -0.457 OA
BRANCH  26  27
ATOM     27  C   LIG    1       21.385 -20.541   4.891  0.00  0.00    +0.307 C 
ATOM     28  O   LIG    1       21.075 -21.553   4.290  0.00  0.00    -0.251 OA
BRANCH  27  30
ATOM     29  C   LIG    1       19.766 -19.402   3.450  0.00  0.00    +0.015 C 
ATOM     30  C   LIG    1       20.868 -19.188   4.481  0.00  0.00    +0.117 C 
ENDBRANCH  27  30
ENDBRANCH  26  27
ENDBRANCH  25  26
ENDBRANCH  23  25
ENDBRANCH   1  23
BRANCH   6  31
ATOM     31  O   LIG    1       23.189 -15.234   5.878  0.00  0.00    -0.390 OA
ATOM     32  H   LIG    1       23.710 -14.539   6.325  0.00  0.00    +0.210 HD
ENDBRANCH   6  31
BRANCH   1  33
ATOM     33  O   LIG    1       25.568 -18.627   5.461  0.00  0.00    -0.449 OA
BRANCH  33  34
ATOM     34  C   LIG    1       26.595 -19.198   6.145  0.00  0.00    +0.308 C 
ATOM     35  O   LIG    1       26.460 -19.992   7.062  0.00  0.00    -0.251 OA
BRANCH  34  36
ATOM     36  C   LIG    1       27.940 -18.807   5.575  0.00  0.00    +0.117 C 
ATOM     37  C   LIG    1       29.137 -19.364   6.322  0.00  0.00    +0.015 C 
ENDBRANCH  34  36
ENDBRANCH  33  34
ENDBRANCH   1  33
TORSDOF 9
ENDMDL
MODEL 2
REMARK VINA RESULT:      21.6      2.467      6.858
REMARK  Name = *****
REMARK                            x       y       z     vdW  Elec       q    Type
REMARK                         _______ _______ _______ _____ _____    ______ ____
ROOT
ATOM      1  C   LIG    1       23.871 -14.222   4.905  0.00  0.00    +0.182 C 
ATOM      2  C   LIG    1       23.525 -15.143   3.616  0.00  0.00    +0.021 C 
ATOM      3  C   LIG    1       22.855 -16.408   4.229  0.00  0.00    +0.005 C 
ATOM      4  C   LIG    1       23.858 -17.491   4.724  0.00  0.00    +0.018 C 
ATOM      5  C   LIG    1       24.844 -17.949   3.600  0.00  0.00    +0.086 C 
ATOM      6  C   LIG    1       25.617 -16.663   3.157  0.00  0.00    +0.137 C 
ATOM      7 CL   LIG    1       23.846 -18.511   2.157  0.00  0.00    -0.114 Cl
ATOM      8  C   LIG    1       25.812 -19.165   4.057  0.00  0.00    +0.029 C 
ATOM      9  C   LIG    1       25.070 -20.211   4.943  0.00  0.00    -0.054 C 
ATOM     10  C   LIG    1       25.771 -21.284   5.380  0.00  0.00    +0.051 C 
ATOM     11  C   LIG    1       26.949 -20.828   6.213  0.00  0.00    +0.179 C 
ATOM     12  C   LIG    1       27.533 -19.489   5.890  0.00  0.00    +0.047 C 
ATOM     13  O   LIG    1       27.451 -21.554   7.060  0.00  0.00    -0.288 OA
ATOM     14  C   LIG    1       24.083 -19.664   5.950  0.00  0.00    +0.032 C 
ATOM     15  C   LIG    1       26.411 -19.910   2.821  0.00  0.00    +0.022 C 
ATOM     16  C   LIG    1       27.030 -18.735   4.895  0.00  0.00    -0.011 C 
ATOM     17  C   LIG    1       23.108 -18.683   5.338  0.00  0.00    +0.010 C 
ATOM     18  C   LIG    1       21.998 -15.803   5.340  0.00  0.00    +0.012 C 
ATOM     19  C   LIG    1       22.480 -14.493   2.655  0.00  0.00    +0.016 C 
ATOM     20  C   LIG    1       24.735 -15.486   2.719  0.00  0.00    +0.044 C 
ATOM     21  C   LIG    1       22.916 -14.795   6.030  0.00  0.00    +0.038 C 
ATOM     22  C   LIG    1       22.065 -13.824   6.847  0.00  0.00    +0.012 C 
ENDROOT
BRANCH   1  23
ATOM     23  C   LIG    1       23.573 -12.731   4.564  0.00  0.00    +0.214 C 
ATOM     24  O   LIG    1       23.457 -11.892   5.465  0.00  0.00    -0.289 OA
BRANCH  23  25
ATOM     25  C   LIG    1       23.255 -12.310   3.134  0.00  0.00    +0.310 C 
BRANCH  25  26
ATOM     26  O   LIG    1       24.303 -12.234   2.178  0.00  0.00    -0.457 OA
BRANCH  26  27
ATOM     27  C   LIG    1       25.573 -12.366   2.638  0.00  0.00    +0.307 C 
ATOM     28  O   LIG    1       26.139 -11.695   3.483  0.00  0.00    -0.251 OA
BRANCH  27  30
ATOM     29  C   LIG    1       27.576 -13.774   2.602  0.00  0.00    +0.015 C 
ATOM     30  C   LIG    1       26.303 -13.416   1.844  0.00  0.00    +0.117 C 
ENDBRANCH  27  30
ENDBRANCH  26  27
ENDBRANCH  25  26
ENDBRANCH  23  25
ENDBRANCH   1  23
BRANCH   6  31
ATOM     31  O   LIG    1       26.547 -16.907   2.102  0.00  0.00    -0.390 OA
ATOM     32  H   LIG    1       26.029 -17.072   1.290  0.00  0.00    +0.210 HD
ENDBRANCH   6  31
BRANCH   1  33
ATOM     33  O   LIG    1       25.245 -14.543   5.273  0.00  0.00    -0.449 OA
BRANCH  33  34
ATOM     34  C   LIG    1       26.064 -13.586   5.786  0.00  0.00    +0.308 C 
ATOM     35  O   LIG    1       25.687 -12.501   6.200  0.00  0.00    -0.251 OA
BRANCH  34  36
ATOM     36  C   LIG    1       27.498 -14.059   5.876  0.00  0.00    +0.117 C 
ATOM     37  C   LIG    1       28.510 -13.161   5.191  0.00  0.00    +0.015 C 
ENDBRANCH  34  36
ENDBRANCH  33  34
ENDBRANCH   1  33
TORSDOF 9
ENDMDL
