MODEL 1
REMARK VINA RESULT:      -5.9      0.000      0.000
REMARK  Name = *****
REMARK                            x       y       z     vdW  Elec       q    Type
REMARK                         _______ _______ _______ _____ _____    ______ ____
ROOT
ATOM      1  O   LIG    1       25.525 -24.325   5.844  0.00  0.00    -0.248 OA
ATOM      2  C   LIG    1       24.746 -23.375   5.826  0.00  0.00    +0.339 C 
ATOM      3  C   LIG    1       23.674 -23.183   6.906  0.00  0.00    +0.254 C 
ATOM      4  C   LIG    1       23.290 -21.720   7.141  0.00  0.00    +0.186 C 
ATOM      5  C   LIG    1       23.080 -21.019   5.800  0.00  0.00    +0.189 C 
ATOM      6  C   LIG    1       24.341 -21.146   4.941  0.00  0.00    +0.233 C 
ATOM      7  O   LIG    1       24.724 -22.528   4.767  0.00  0.00    -0.455 OA
ENDROOT
BRANCH   3   8
ATOM      8  O   LIG    1       22.504 -23.941   6.589  0.00  0.00    -0.378 OA
ATOM      9  H   LIG    1       22.799 -24.866   6.440  0.00  0.00    +0.211 HD
ENDBRANCH   3   8
BRANCH   4  10
ATOM     10  O   LIG    1       24.259 -21.023   7.930  0.00  0.00    -0.386 OA
ATOM     11  H   LIG    1       24.483 -21.602   8.685  0.00  0.00    +0.210 HD
ENDBRANCH   4  10
BRANCH   5  12
ATOM     12  O   LIG    1       21.978 -21.655   5.128  0.00  0.00    -0.385 OA
ATOM     13  H   LIG    1       22.356 -22.316   4.517  0.00  0.00    +0.210 HD
ENDBRANCH   5  12
BRANCH   6  14
ATOM     14  C   LIG    1       25.566 -20.357   5.432  0.00  0.00    +0.203 C 
BRANCH  14  15
ATOM     15  O   LIG    1       26.569 -20.246   4.433  0.00  0.00    -0.391 OA
ATOM     16  H   LIG    1       26.813 -19.299   4.402  0.00  0.00    +0.210 HD
ENDBRANCH  14  15
ENDBRANCH   6  14
TORSDOF 5
ENDMDL
MODEL 2
REMARK VINA RESULT:      -5.7      5.721      7.431
REMARK  Name = *****
REMARK                            x       y       z     vdW  Elec       q    Type
REMARK                         _______ _______ _______ _____ _____    ______ ____
ROOT
ATOM      1  O   LIG    1       31.927 -22.113   9.048  0.00  0.00    -0.248 OA
ATOM      2  C   LIG    1       31.211 -21.147   8.797  0.00  0.00    +0.339 C 
ATOM      3  C   LIG    1       31.791 -19.747   8.557  0.00  0.00    +0.254 C 
ATOM      4  C   LIG    1       30.937 -18.876   7.631  0.00  0.00    +0.186 C 
ATOM      5  C   LIG    1       29.468 -18.977   8.037  0.00  0.00    +0.189 C 
ATOM      6  C   LIG    1       29.018 -20.440   8.017  0.00  0.00    +0.233 C 
ATOM      7  O   LIG    1       29.861 -21.262   8.855  0.00  0.00    -0.455 OA
ENDROOT
BRANCH   3   8
ATOM      8  O   LIG    1       31.994 -19.070   9.800  0.00  0.00    -0.378 OA
ATOM      9  H   LIG    1       32.911 -19.274  10.085  0.00  0.00    +0.211 HD
ENDBRANCH   3   8
BRANCH   4  10
ATOM     10  O   LIG    1       31.105 -19.220   6.253  0.00  0.00    -0.386 OA
ATOM     11  H   LIG    1       30.327 -18.872   5.775  0.00  0.00    +0.210 HD
ENDBRANCH   4  10
BRANCH   5  12
ATOM     12  O   LIG    1       29.334 -18.454   9.372  0.00  0.00    -0.385 OA
ATOM     13  H   LIG    1       29.829 -19.051   9.966  0.00  0.00    +0.210 HD
ENDBRANCH   5  12
BRANCH   6  14
ATOM     14  C   LIG    1       28.925 -21.091   6.627  0.00  0.00    +0.203 C 
BRANCH  14  15
ATOM     15  O   LIG    1       28.281 -20.248   5.683  0.00  0.00    -0.391 OA
ATOM     16  H   LIG    1       28.992 -19.725   5.261  0.00  0.00    +0.210 HD
ENDBRANCH  14  15
ENDBRANCH   6  14
TORSDOF 5
ENDMDL
MODEL 3
REMARK VINA RESULT:      -5.7      5.782      7.963
REMARK  Name = *****
REMARK                            x       y       z     vdW  Elec       q    Type
REMARK                         _______ _______ _______ _____ _____    ______ ____
ROOT
ATOM      1  O   LIG    1       30.471 -18.423  10.753  0.00  0.00    -0.248 OA
ATOM      2  C   LIG    1       30.415 -18.673   9.552  0.00  0.00    +0.339 C 
ATOM      3  C   LIG    1       31.670 -18.725   8.673  0.00  0.00    +0.254 C 
ATOM      4  C   LIG    1       31.545 -19.668   7.473  0.00  0.00    +0.186 C 
ATOM      5  C   LIG    1       30.201 -19.446   6.780  0.00  0.00    +0.189 C 
ATOM      6  C   LIG    1       29.058 -19.642   7.780  0.00  0.00    +0.233 C 
ATOM      7  O   LIG    1       29.213 -18.783   8.932  0.00  0.00    -0.455 OA
ENDROOT
BRANCH   3   8
ATOM      8  O   LIG    1       32.017 -17.414   8.218  0.00  0.00    -0.378 OA
ATOM      9  H   LIG    1       32.079 -17.463   7.240  0.00  0.00    +0.211 HD
ENDBRANCH   3   8
BRANCH   4  10
ATOM     10  O   LIG    1       31.703 -21.042   7.840  0.00  0.00    -0.386 OA
ATOM     11  H   LIG    1       32.307 -21.064   8.608  0.00  0.00    +0.210 HD
ENDBRANCH   4  10
BRANCH   5  12
ATOM     12  O   LIG    1       30.171 -18.098   6.278  0.00  0.00    -0.385 OA
ATOM     13  H   LIG    1       29.234 -17.829   6.231  0.00  0.00    +0.210 HD
ENDBRANCH   5  12
BRANCH   6  14
ATOM     14  C   LIG    1       28.838 -21.083   8.269  0.00  0.00    +0.203 C 
BRANCH  14  15
ATOM     15  O   LIG    1       27.501 -21.308   8.691  0.00  0.00    -0.391 OA
ATOM     16  H   LIG    1       27.562 -21.631   9.613  0.00  0.00    +0.210 HD
ENDBRANCH  14  15
ENDBRANCH   6  14
TORSDOF 5
ENDMDL
MODEL 4
REMARK VINA RESULT:      -5.5      1.629      2.869
REMARK  Name = *****
REMARK                            x       y       z     vdW  Elec       q    Type
REMARK                         _______ _______ _______ _____ _____    ______ ____
ROOT
ATOM      1  O   LIG    1       24.184 -24.464   6.224  0.00  0.00    -0.248 OA
ATOM      2  C   LIG    1       24.637 -23.322   6.233  0.00  0.00    +0.339 C 
ATOM      3  C   LIG    1       23.849 -22.131   5.673  0.00  0.00    +0.254 C 
ATOM      4  C   LIG    1       24.191 -20.797   6.341  0.00  0.00    +0.186 C 
ATOM      5  C   LIG    1       25.707 -20.652   6.460  0.00  0.00    +0.189 C 
ATOM      6  C   LIG    1       26.287 -21.840   7.232  0.00  0.00    +0.233 C 
ATOM      7  O   LIG    1       25.917 -23.097   6.622  0.00  0.00    -0.455 OA
ENDROOT
BRANCH   3   8
ATOM      8  O   LIG    1       24.041 -22.024   4.260  0.00  0.00    -0.378 OA
ATOM      9  H   LIG    1       23.236 -22.394   3.838  0.00  0.00    +0.211 HD
ENDBRANCH   3   8
BRANCH   4  10
ATOM     10  O   LIG    1       23.567 -20.653   7.621  0.00  0.00    -0.386 OA
ATOM     11  H   LIG    1       23.692 -21.497   8.096  0.00  0.00    +0.210 HD
ENDBRANCH   4  10
BRANCH   5  12
ATOM     12  O   LIG    1       26.262 -20.628   5.133  0.00  0.00    -0.385 OA
ATOM     13  H   LIG    1       25.582 -20.248   4.543  0.00  0.00    +0.210 HD
ENDBRANCH   5  12
BRANCH   6  14
ATOM     14  C   LIG    1       25.936 -21.900   8.728  0.00  0.00    +0.203 C 
BRANCH  14  15
ATOM     15  O   LIG    1       25.954 -20.616   9.335  0.00  0.00    -0.391 OA
ATOM     16  H   LIG    1       26.521 -20.702  10.128  0.00  0.00    +0.210 HD
ENDBRANCH  14  15
ENDBRANCH   6  14
TORSDOF 5
ENDMDL
MODEL 5
REMARK VINA RESULT:      -5.5      1.410      2.939
REMARK  Name = *****
REMARK                            x       y       z     vdW  Elec       q    Type
REMARK                         _______ _______ _______ _____ _____    ______ ____
ROOT
ATOM      1  O   LIG    1       23.231 -24.594   6.620  0.00  0.00    -0.248 OA
ATOM      2  C   LIG    1       23.713 -23.474   6.766  0.00  0.00    +0.339 C 
ATOM      3  C   LIG    1       25.207 -23.199   6.558  0.00  0.00    +0.254 C 
ATOM      4  C   LIG    1       25.514 -21.768   6.108  0.00  0.00    +0.186 C 
ATOM      5  C   LIG    1       24.721 -20.777   6.959  0.00  0.00    +0.189 C 
ATOM      6  C   LIG    1       23.225 -21.093   6.872  0.00  0.00    +0.233 C 
ATOM      7  O   LIG    1       22.953 -22.461   7.252  0.00  0.00    -0.455 OA
ENDROOT
BRANCH   3   8
ATOM      8  O   LIG    1       25.941 -23.495   7.749  0.00  0.00    -0.378 OA
ATOM      9  H   LIG    1       25.953 -22.671   8.284  0.00  0.00    +0.211 HD
ENDBRANCH   3   8
BRANCH   4  10
ATOM     10  O   LIG    1       25.247 -21.566   4.717  0.00  0.00    -0.386 OA
ATOM     11  H   LIG    1       25.954 -20.987   4.371  0.00  0.00    +0.210 HD
ENDBRANCH   4  10
BRANCH   5  12
ATOM     12  O   LIG    1       25.159 -20.907   8.324  0.00  0.00    -0.385 OA
ATOM     13  H   LIG    1       26.076 -20.575   8.365  0.00  0.00    +0.210 HD
ENDBRANCH   5  12
BRANCH   6  14
ATOM     14  C   LIG    1       22.563 -20.821   5.512  0.00  0.00    +0.203 C 
BRANCH  14  15
ATOM     15  O   LIG    1       22.953 -19.569   4.967  0.00  0.00    -0.391 OA
ATOM     16  H   LIG    1       23.397 -19.086   5.693  0.00  0.00    +0.210 HD
ENDBRANCH  14  15
ENDBRANCH   6  14
TORSDOF 5
ENDMDL
MODEL 6
REMARK VINA RESULT:      -5.4      1.651      3.837
REMARK  Name = *****
REMARK                            x       y       z     vdW  Elec       q    Type
REMARK                         _______ _______ _______ _____ _____    ______ ____
ROOT
ATOM      1  O   LIG    1       25.810 -20.774   9.241  0.00  0.00    -0.248 OA
ATOM      2  C   LIG    1       25.543 -21.228   8.131  0.00  0.00    +0.339 C 
ATOM      3  C   LIG    1       26.501 -22.164   7.383  0.00  0.00    +0.254 C 
ATOM      4  C   LIG    1       25.797 -23.134   6.431  0.00  0.00    +0.186 C 
ATOM      5  C   LIG    1       24.752 -22.384   5.608  0.00  0.00    +0.189 C 
ATOM      6  C   LIG    1       23.760 -21.680   6.538  0.00  0.00    +0.233 C 
ATOM      7  O   LIG    1       24.439 -20.804   7.466  0.00  0.00    -0.455 OA
ENDROOT
BRANCH   3   8
ATOM      8  O   LIG    1       27.478 -21.408   6.663  0.00  0.00    -0.378 OA
ATOM      9  H   LIG    1       28.300 -21.428   7.199  0.00  0.00    +0.211 HD
ENDBRANCH   3   8
BRANCH   4  10
ATOM     10  O   LIG    1       25.202 -24.237   7.120  0.00  0.00    -0.386 OA
ATOM     11  H   LIG    1       25.148 -24.976   6.484  0.00  0.00    +0.210 HD
ENDBRANCH   4  10
BRANCH   5  12
ATOM     12  O   LIG    1       25.432 -21.403   4.804  0.00  0.00    -0.385 OA
ATOM     13  H   LIG    1       25.125 -20.524   5.101  0.00  0.00    +0.210 HD
ENDBRANCH   5  12
BRANCH   6  14
ATOM     14  C   LIG    1       22.820 -22.601   7.332  0.00  0.00    +0.203 C 
BRANCH  14  15
ATOM     15  O   LIG    1       22.297 -23.652   6.533  0.00  0.00    -0.391 OA
ATOM     16  H   LIG    1       21.330 -23.505   6.498  0.00  0.00    +0.210 HD
ENDBRANCH  14  15
ENDBRANCH   6  14
TORSDOF 5
ENDMDL
MODEL 7
REMARK VINA RESULT:      -5.3      5.226      7.199
REMARK  Name = *****
REMARK                            x       y       z     vdW  Elec       q    Type
REMARK                         _______ _______ _______ _____ _____    ______ ____
ROOT
ATOM      1  O   LIG    1       27.275 -20.037   8.292  0.00  0.00    -0.248 OA
ATOM      2  C   LIG    1       28.454 -19.862   7.997  0.00  0.00    +0.339 C 
ATOM      3  C   LIG    1       28.988 -20.133   6.585  0.00  0.00    +0.254 C 
ATOM      4  C   LIG    1       30.193 -19.269   6.204  0.00  0.00    +0.186 C 
ATOM      5  C   LIG    1       31.200 -19.251   7.353  0.00  0.00    +0.189 C 
ATOM      6  C   LIG    1       30.524 -18.754   8.633  0.00  0.00    +0.233 C 
ATOM      7  O   LIG    1       29.360 -19.546   8.957  0.00  0.00    -0.455 OA
ENDROOT
BRANCH   3   8
ATOM      8  O   LIG    1       29.322 -21.515   6.433  0.00  0.00    -0.378 OA
ATOM      9  H   LIG    1       30.277 -21.599   6.648  0.00  0.00    +0.211 HD
ENDBRANCH   3   8
BRANCH   4  10
ATOM     10  O   LIG    1       29.814 -17.937   5.843  0.00  0.00    -0.386 OA
ATOM     11  H   LIG    1       30.025 -17.827   4.895  0.00  0.00    +0.210 HD
ENDBRANCH   4  10
BRANCH   5  12
ATOM     12  O   LIG    1       31.675 -20.594   7.554  0.00  0.00    -0.385 OA
ATOM     13  H   LIG    1       31.819 -20.709   8.513  0.00  0.00    +0.210 HD
ENDBRANCH   5  12
BRANCH   6  14
ATOM     14  C   LIG    1       30.126 -17.269   8.645  0.00  0.00    +0.203 C 
BRANCH  14  15
ATOM     15  O   LIG    1       30.146 -16.718   9.954  0.00  0.00    -0.391 OA
ATOM     16  H   LIG    1       31.025 -16.300  10.055  0.00  0.00    +0.210 HD
ENDBRANCH  14  15
ENDBRANCH   6  14
TORSDOF 5
ENDMDL
MODEL 8
REMARK VINA RESULT:      -5.3      3.630      6.089
REMARK  Name = *****
REMARK                            x       y       z     vdW  Elec       q    Type
REMARK                         _______ _______ _______ _____ _____    ______ ____
ROOT
ATOM      1  O   LIG    1       23.234 -24.828   6.725  0.00  0.00    -0.248 OA
ATOM      2  C   LIG    1       24.108 -25.555   6.259  0.00  0.00    +0.339 C 
ATOM      3  C   LIG    1       25.590 -25.368   6.605  0.00  0.00    +0.254 C 
ATOM      4  C   LIG    1       26.406 -26.661   6.538  0.00  0.00    +0.186 C 
ATOM      5  C   LIG    1       26.066 -27.422   5.257  0.00  0.00    +0.189 C 
ATOM      6  C   LIG    1       24.561 -27.695   5.195  0.00  0.00    +0.233 C 
ATOM      7  O   LIG    1       23.799 -26.473   5.309  0.00  0.00    -0.455 OA
ENDROOT
BRANCH   3   8
ATOM      8  O   LIG    1       26.182 -24.382   5.755  0.00  0.00    -0.378 OA
ATOM      9  H   LIG    1       26.654 -24.870   5.046  0.00  0.00    +0.211 HD
ENDBRANCH   3   8
BRANCH   4  10
ATOM     10  O   LIG    1       26.207 -27.491   7.687  0.00  0.00    -0.386 OA
ATOM     11  H   LIG    1       26.156 -26.899   8.462  0.00  0.00    +0.210 HD
ENDBRANCH   4  10
BRANCH   5  12
ATOM     12  O   LIG    1       26.451 -26.606   4.136  0.00  0.00    -0.385 OA
ATOM     13  H   LIG    1       26.117 -27.047   3.331  0.00  0.00    +0.210 HD
ENDBRANCH   5  12
BRANCH   6  14
ATOM     14  C   LIG    1       24.023 -28.706   6.221  0.00  0.00    +0.203 C 
BRANCH  14  15
ATOM     15  O   LIG    1       23.206 -29.698   5.618  0.00  0.00    -0.391 OA
ATOM     16  H   LIG    1       22.731 -30.137   6.352  0.00  0.00    +0.210 HD
ENDBRANCH  14  15
ENDBRANCH   6  14
TORSDOF 5
ENDMDL
MODEL 9
REMARK VINA RESULT:      -5.3      5.018      7.289
REMARK  Name = *****
REMARK                            x       y       z     vdW  Elec       q    Type
REMARK                         _______ _______ _______ _____ _____    ______ ____
ROOT
ATOM      1  O   LIG    1       29.720 -18.176   5.380  0.00  0.00    -0.248 OA
ATOM      2  C   LIG    1       29.924 -18.938   6.321  0.00  0.00    +0.339 C 
ATOM      3  C   LIG    1       30.845 -18.561   7.488  0.00  0.00    +0.254 C 
ATOM      4  C   LIG    1       30.474 -19.236   8.811  0.00  0.00    +0.186 C 
ATOM      5  C   LIG    1       30.198 -20.721   8.574  0.00  0.00    +0.189 C 
ATOM      6  C   LIG    1       29.099 -20.887   7.521  0.00  0.00    +0.233 C 
ATOM      7  O   LIG    1       29.438 -20.204   6.293  0.00  0.00    -0.455 OA
ENDROOT
BRANCH   3   8
ATOM      8  O   LIG    1       32.207 -18.856   7.165  0.00  0.00    -0.378 OA
ATOM      9  H   LIG    1       32.419 -19.713   7.593  0.00  0.00    +0.211 HD
ENDBRANCH   3   8
BRANCH   4  10
ATOM     10  O   LIG    1       29.355 -18.610   9.447  0.00  0.00    -0.386 OA
ATOM     11  H   LIG    1       28.551 -19.042   9.100  0.00  0.00    +0.210 HD
ENDBRANCH   4  10
BRANCH   5  12
ATOM     12  O   LIG    1       31.412 -21.332   8.099  0.00  0.00    -0.385 OA
ATOM     13  H   LIG    1       31.301 -21.485   7.141  0.00  0.00    +0.210 HD
ENDBRANCH   5  12
BRANCH   6  14
ATOM     14  C   LIG    1       27.690 -20.451   7.953  0.00  0.00    +0.203 C 
BRANCH  14  15
ATOM     15  O   LIG    1       27.056 -21.420   8.774  0.00  0.00    -0.391 OA
ATOM     16  H   LIG    1       27.584 -22.239   8.678  0.00  0.00    +0.210 HD
ENDBRANCH  14  15
ENDBRANCH   6  14
TORSDOF 5
ENDMDL
