MODEL 1
REMARK VINA RESULT:      -5.1      0.000      0.000
REMARK  Name = *****
REMARK                            x       y       z     vdW  Elec       q    Type
REMARK                         _______ _______ _______ _____ _____    ______ ____
ROOT
ATOM      1  C   LIG    1       23.716 -18.913   4.039  0.00  0.00    +0.004 A 
ATOM      2  S   LIG    1       25.207 -18.223   3.534  0.00  0.00    -0.089 S 
ATOM      3  C   LIG    1       24.628 -16.613   3.684  0.00  0.00    +0.060 A 
ATOM      4  C   LIG    1       23.317 -16.612   4.130  0.00  0.00    +0.020 A 
ATOM      5  C   LIG    1       22.788 -17.926   4.312  0.00  0.00    +0.013 A 
ENDROOT
BRANCH   1   7
ATOM      6  C   LIG    1       24.936 -21.113   4.295  0.00  0.00    +0.025 C 
ATOM      7  C   LIG    1       23.583 -20.422   4.137  0.00  0.00    +0.131 C 
BRANCH   7   8
ATOM      8  C   LIG    1       22.636 -20.808   5.274  0.00  0.00    +0.312 C 
ATOM      9  O   LIG    1       22.848 -20.614   6.460  0.00  0.00    -0.250 OA
BRANCH   8  10
ATOM     10  O   LIG    1       21.525 -21.463   4.848  0.00  0.00    -0.480 OA
ATOM     11  H   LIG    1       20.698 -20.964   4.980  0.00  0.00    +0.295 HD
ENDBRANCH   8  10
ENDBRANCH   7   8
ENDBRANCH   1   7
BRANCH   3  12
ATOM     12  C   LIG    1       25.527 -15.496   3.389  0.00  0.00    +0.200 C 
ATOM     13  O   LIG    1       26.737 -15.627   3.214  0.00  0.00    -0.286 OA
BRANCH  12  14
ATOM     14  C   LIG    1       24.978 -14.099   3.303  0.00  0.00    +0.023 A 
ATOM     15  C   LIG    1       25.025 -13.362   2.111  0.00  0.00    +0.012 A 
ATOM     16  C   LIG    1       24.483 -12.076   2.054  0.00  0.00    +0.001 A 
ATOM     17  C   LIG    1       23.939 -11.494   3.197  0.00  0.00    +0.000 A 
ATOM     18  C   LIG    1       23.931 -12.199   4.399  0.00  0.00    +0.001 A 
ATOM     19  C   LIG    1       24.444 -13.498   4.454  0.00  0.00    +0.012 A 
ENDBRANCH  12  14
ENDBRANCH   3  12
TORSDOF 5
ENDMDL
MODEL 2
REMARK VINA RESULT:      -5.1      1.965      7.100
REMARK  Name = *****
REMARK                            x       y       z     vdW  Elec       q    Type
REMARK                         _______ _______ _______ _____ _____    ______ ____
ROOT
ATOM      1  C   LIG    1       25.663 -15.293   3.680  0.00  0.00    +0.004 A 
ATOM      2  S   LIG    1       24.150 -16.022   4.046  0.00  0.00    -0.089 S 
ATOM      3  C   LIG    1       24.718 -17.606   3.702  0.00  0.00    +0.060 A 
ATOM      4  C   LIG    1       26.050 -17.571   3.330  0.00  0.00    +0.020 A 
ATOM      5  C   LIG    1       26.586 -16.247   3.296  0.00  0.00    +0.013 A 
ENDROOT
BRANCH   1   7
ATOM      6  C   LIG    1       24.609 -13.135   4.474  0.00  0.00    +0.025 C 
ATOM      7  C   LIG    1       25.824 -13.789   3.818  0.00  0.00    +0.131 C 
BRANCH   7   8
ATOM      8  C   LIG    1       27.106 -13.450   4.578  0.00  0.00    +0.312 C 
ATOM      9  O   LIG    1       28.214 -13.357   4.078  0.00  0.00    -0.250 OA
BRANCH   8  10
ATOM     10  O   LIG    1       26.916 -13.314   5.916  0.00  0.00    -0.480 OA
ATOM     11  H   LIG    1       25.989 -13.428   6.196  0.00  0.00    +0.295 HD
ENDBRANCH   8  10
ENDBRANCH   7   8
ENDBRANCH   1   7
BRANCH   3  12
ATOM     12  C   LIG    1       23.813 -18.745   3.869  0.00  0.00    +0.200 C 
ATOM     13  O   LIG    1       22.836 -18.947   3.150  0.00  0.00    -0.286 OA
BRANCH  12  14
ATOM     14  C   LIG    1       24.051 -19.732   4.978  0.00  0.00    +0.023 A 
ATOM     15  C   LIG    1       25.318 -20.285   5.211  0.00  0.00    +0.012 A 
ATOM     16  C   LIG    1       25.515 -21.180   6.266  0.00  0.00    +0.001 A 
ATOM     17  C   LIG    1       24.441 -21.572   7.062  0.00  0.00    +0.000 A 
ATOM     18  C   LIG    1       23.168 -21.066   6.808  0.00  0.00    +0.001 A 
ATOM     19  C   LIG    1       22.971 -20.146   5.773  0.00  0.00    +0.012 A 
ENDBRANCH  12  14
ENDBRANCH   3  12
TORSDOF 5
ENDMDL
MODEL 3
REMARK VINA RESULT:      -4.9      2.197      6.972
REMARK  Name = *****
REMARK                            x       y       z     vdW  Elec       q    Type
REMARK                         _______ _______ _______ _____ _____    ______ ____
ROOT
ATOM      1  C   LIG    1       24.442 -15.041   3.969  0.00  0.00    +0.004 A 
ATOM      2  S   LIG    1       25.152 -16.534   3.497  0.00  0.00    -0.089 S 
ATOM      3  C   LIG    1       23.774 -17.450   3.956  0.00  0.00    +0.060 A 
ATOM      4  C   LIG    1       22.783 -16.618   4.447  0.00  0.00    +0.020 A 
ATOM      5  C   LIG    1       23.172 -15.243   4.475  0.00  0.00    +0.013 A 
ENDROOT
BRANCH   1   7
ATOM      6  C   LIG    1       26.120 -13.788   2.553  0.00  0.00    +0.025 C 
ATOM      7  C   LIG    1       25.217 -13.749   3.784  0.00  0.00    +0.131 C 
BRANCH   7   8
ATOM      8  C   LIG    1       24.267 -12.552   3.729  0.00  0.00    +0.312 C 
ATOM      9  O   LIG    1       23.854 -11.940   4.700  0.00  0.00    -0.250 OA
BRANCH   8  10
ATOM     10  O   LIG    1       23.856 -12.251   2.470  0.00  0.00    -0.480 OA
ATOM     11  H   LIG    1       23.954 -11.309   2.239  0.00  0.00    +0.295 HD
ENDBRANCH   8  10
ENDBRANCH   7   8
ENDBRANCH   1   7
BRANCH   3  12
ATOM     12  C   LIG    1       23.777 -18.900   3.755  0.00  0.00    +0.200 C 
ATOM     13  O   LIG    1       23.539 -19.435   2.673  0.00  0.00    -0.286 OA
BRANCH  12  14
ATOM     14  C   LIG    1       24.066 -19.814   4.913  0.00  0.00    +0.023 A 
ATOM     15  C   LIG    1       23.044 -20.300   5.740  0.00  0.00    +0.012 A 
ATOM     16  C   LIG    1       23.340 -21.169   6.793  0.00  0.00    +0.001 A 
ATOM     17  C   LIG    1       24.662 -21.518   7.062  0.00  0.00    +0.000 A 
ATOM     18  C   LIG    1       25.690 -21.003   6.276  0.00  0.00    +0.001 A 
ATOM     19  C   LIG    1       25.396 -20.157   5.202  0.00  0.00    +0.012 A 
ENDBRANCH  12  14
ENDBRANCH   3  12
TORSDOF 5
ENDMDL
MODEL 4
REMARK VINA RESULT:      -4.9      2.122      7.043
REMARK  Name = *****
REMARK                            x       y       z     vdW  Elec       q    Type
REMARK                         _______ _______ _______ _____ _____    ______ ____
ROOT
ATOM      1  C   LIG    1       25.558 -15.258   3.677  0.00  0.00    +0.004 A 
ATOM      2  S   LIG    1       24.063 -16.008   4.074  0.00  0.00    -0.089 S 
ATOM      3  C   LIG    1       24.638 -17.582   3.697  0.00  0.00    +0.060 A 
ATOM      4  C   LIG    1       25.960 -17.528   3.290  0.00  0.00    +0.020 A 
ATOM      5  C   LIG    1       26.480 -16.198   3.258  0.00  0.00    +0.013 A 
ENDROOT
BRANCH   1   7
ATOM      6  C   LIG    1       27.105 -13.271   3.445  0.00  0.00    +0.025 C 
ATOM      7  C   LIG    1       25.708 -13.755   3.829  0.00  0.00    +0.131 C 
BRANCH   7   8
ATOM      8  C   LIG    1       24.634 -13.021   3.024  0.00  0.00    +0.312 C 
ATOM      9  O   LIG    1       24.507 -13.076   1.812  0.00  0.00    -0.250 OA
BRANCH   8  10
ATOM     10  O   LIG    1       23.841 -12.226   3.788  0.00  0.00    -0.480 OA
ATOM     11  H   LIG    1       23.014 -11.956   3.349  0.00  0.00    +0.295 HD
ENDBRANCH   8  10
ENDBRANCH   7   8
ENDBRANCH   1   7
BRANCH   3  12
ATOM     12  C   LIG    1       23.749 -18.732   3.873  0.00  0.00    +0.200 C 
ATOM     13  O   LIG    1       22.760 -18.939   3.173  0.00  0.00    -0.286 OA
BRANCH  12  14
ATOM     14  C   LIG    1       24.022 -19.724   4.969  0.00  0.00    +0.023 A 
ATOM     15  C   LIG    1       25.276 -20.332   5.117  0.00  0.00    +0.012 A 
ATOM     16  C   LIG    1       25.508 -21.230   6.161  0.00  0.00    +0.001 A 
ATOM     17  C   LIG    1       24.476 -21.571   7.033  0.00  0.00    +0.000 A 
ATOM     18  C   LIG    1       23.211 -21.011   6.866  0.00  0.00    +0.001 A 
ATOM     19  C   LIG    1       22.983 -20.087   5.841  0.00  0.00    +0.012 A 
ENDBRANCH  12  14
ENDBRANCH   3  12
TORSDOF 5
ENDMDL
MODEL 5
REMARK VINA RESULT:      -4.9      2.160      7.023
REMARK  Name = *****
REMARK                            x       y       z     vdW  Elec       q    Type
REMARK                         _______ _______ _______ _____ _____    ______ ____
ROOT
ATOM      1  C   LIG    1       25.382 -15.378   3.706  0.00  0.00    +0.004 A 
ATOM      2  S   LIG    1       24.162 -16.588   3.765  0.00  0.00    -0.089 S 
ATOM      3  C   LIG    1       25.269 -17.861   3.445  0.00  0.00    +0.060 A 
ATOM      4  C   LIG    1       26.554 -17.362   3.313  0.00  0.00    +0.020 A 
ATOM      5  C   LIG    1       26.616 -15.941   3.440  0.00  0.00    +0.013 A 
ENDROOT
BRANCH   1   7
ATOM      6  C   LIG    1       25.881 -13.277   5.021  0.00  0.00    +0.025 C 
ATOM      7  C   LIG    1       25.012 -13.926   3.946  0.00  0.00    +0.131 C 
BRANCH   7   8
ATOM      8  C   LIG    1       25.070 -13.130   2.642  0.00  0.00    +0.312 C 
ATOM      9  O   LIG    1       26.084 -12.660   2.152  0.00  0.00    -0.250 OA
BRANCH   8  10
ATOM     10  O   LIG    1       23.849 -12.929   2.080  0.00  0.00    -0.480 OA
ATOM     11  H   LIG    1       23.372 -13.752   1.869  0.00  0.00    +0.295 HD
ENDBRANCH   8  10
ENDBRANCH   7   8
ENDBRANCH   1   7
BRANCH   3  12
ATOM     12  C   LIG    1       24.782 -19.241   3.394  0.00  0.00    +0.200 C 
ATOM     13  O   LIG    1       24.606 -19.860   2.346  0.00  0.00    -0.286 OA
BRANCH  12  14
ATOM     14  C   LIG    1       24.453 -19.965   4.670  0.00  0.00    +0.023 A 
ATOM     15  C   LIG    1       23.131 -20.122   5.108  0.00  0.00    +0.012 A 
ATOM     16  C   LIG    1       22.854 -20.822   6.284  0.00  0.00    +0.001 A 
ATOM     17  C   LIG    1       23.896 -21.324   7.061  0.00  0.00    +0.000 A 
ATOM     18  C   LIG    1       25.216 -21.131   6.661  0.00  0.00    +0.001 A 
ATOM     19  C   LIG    1       25.497 -20.458   5.468  0.00  0.00    +0.012 A 
ENDBRANCH  12  14
ENDBRANCH   3  12
TORSDOF 5
ENDMDL
MODEL 6
REMARK VINA RESULT:      -4.9      1.796      2.453
REMARK  Name = *****
REMARK                            x       y       z     vdW  Elec       q    Type
REMARK                         _______ _______ _______ _____ _____    ______ ____
ROOT
ATOM      1  C   LIG    1       23.382 -18.316   4.253  0.00  0.00    +0.004 A 
ATOM      2  S   LIG    1       24.506 -17.156   3.666  0.00  0.00    -0.089 S 
ATOM      3  C   LIG    1       23.498 -15.826   4.070  0.00  0.00    +0.060 A 
ATOM      4  C   LIG    1       22.327 -16.271   4.661  0.00  0.00    +0.020 A 
ATOM      5  C   LIG    1       22.250 -17.695   4.746  0.00  0.00    +0.013 A 
ENDROOT
BRANCH   1   7
ATOM      6  C   LIG    1       25.232 -20.039   4.210  0.00  0.00    +0.025 C 
ATOM      7  C   LIG    1       23.725 -19.794   4.188  0.00  0.00    +0.131 C 
BRANCH   7   8
ATOM      8  C   LIG    1       23.029 -20.561   5.313  0.00  0.00    +0.312 C 
ATOM      9  O   LIG    1       23.378 -20.561   6.482  0.00  0.00    -0.250 OA
BRANCH   8  10
ATOM     10  O   LIG    1       21.986 -21.317   4.882  0.00  0.00    -0.480 OA
ATOM     11  H   LIG    1       22.246 -22.203   4.568  0.00  0.00    +0.295 HD
ENDBRANCH   8  10
ENDBRANCH   7   8
ENDBRANCH   1   7
BRANCH   3  12
ATOM     12  C   LIG    1       23.966 -14.464   3.808  0.00  0.00    +0.200 C 
ATOM     13  O   LIG    1       23.222 -13.543   3.477  0.00  0.00    -0.286 OA
BRANCH  12  14
ATOM     14  C   LIG    1       25.430 -14.143   3.925  0.00  0.00    +0.023 A 
ATOM     15  C   LIG    1       25.998 -13.729   5.137  0.00  0.00    +0.012 A 
ATOM     16  C   LIG    1       27.367 -13.462   5.222  0.00  0.00    +0.001 A 
ATOM     17  C   LIG    1       28.170 -13.554   4.087  0.00  0.00    +0.000 A 
ATOM     18  C   LIG    1       27.606 -13.917   2.865  0.00  0.00    +0.001 A 
ATOM     19  C   LIG    1       26.243 -14.215   2.782  0.00  0.00    +0.012 A 
ENDBRANCH  12  14
ENDBRANCH   3  12
TORSDOF 5
ENDMDL
MODEL 7
REMARK VINA RESULT:      -4.7      1.096      1.961
REMARK  Name = *****
REMARK                            x       y       z     vdW  Elec       q    Type
REMARK                         _______ _______ _______ _____ _____    ______ ____
ROOT
ATOM      1  C   LIG    1       23.578 -18.110   4.189  0.00  0.00    +0.004 A 
ATOM      2  S   LIG    1       23.733 -16.398   4.204  0.00  0.00    -0.089 S 
ATOM      3  C   LIG    1       25.303 -16.435   3.508  0.00  0.00    +0.060 A 
ATOM      4  C   LIG    1       25.689 -17.740   3.256  0.00  0.00    +0.020 A 
ATOM      5  C   LIG    1       24.713 -18.700   3.665  0.00  0.00    +0.013 A 
ENDROOT
BRANCH   1   7
ATOM      6  C   LIG    1       21.241 -18.885   3.611  0.00  0.00    +0.025 C 
ATOM      7  C   LIG    1       22.302 -18.753   4.702  0.00  0.00    +0.131 C 
BRANCH   7   8
ATOM      8  C   LIG    1       22.599 -20.108   5.344  0.00  0.00    +0.312 C 
ATOM      9  O   LIG    1       23.094 -20.268   6.448  0.00  0.00    -0.250 OA
BRANCH   8  10
ATOM     10  O   LIG    1       22.313 -21.160   4.533  0.00  0.00    -0.480 OA
ATOM     11  H   LIG    1       22.711 -22.001   4.824  0.00  0.00    +0.295 HD
ENDBRANCH   8  10
ENDBRANCH   7   8
ENDBRANCH   1   7
BRANCH   3  12
ATOM     12  C   LIG    1       25.997 -15.175   3.235  0.00  0.00    +0.200 C 
ATOM     13  O   LIG    1       27.199 -15.102   2.987  0.00  0.00    -0.286 OA
BRANCH  12  14
ATOM     14  C   LIG    1       25.233 -13.880   3.267  0.00  0.00    +0.023 A 
ATOM     15  C   LIG    1       24.679 -13.381   4.454  0.00  0.00    +0.012 A 
ATOM     16  C   LIG    1       23.998 -12.161   4.458  0.00  0.00    +0.001 A 
ATOM     17  C   LIG    1       23.817 -11.457   3.270  0.00  0.00    +0.000 A 
ATOM     18  C   LIG    1       24.321 -11.968   2.076  0.00  0.00    +0.001 A 
ATOM     19  C   LIG    1       25.031 -13.172   2.071  0.00  0.00    +0.012 A 
ENDBRANCH  12  14
ENDBRANCH   3  12
TORSDOF 5
ENDMDL
MODEL 8
REMARK VINA RESULT:      -4.5      2.366      2.721
REMARK  Name = *****
REMARK                            x       y       z     vdW  Elec       q    Type
REMARK                         _______ _______ _______ _____ _____    ______ ____
ROOT
ATOM      1  C   LIG    1       27.041 -18.580   4.438  0.00  0.00    +0.004 A 
ATOM      2  S   LIG    1       27.972 -17.145   4.609  0.00  0.00    -0.089 S 
ATOM      3  C   LIG    1       26.873 -16.202   3.687  0.00  0.00    +0.060 A 
ATOM      4  C   LIG    1       25.803 -16.976   3.272  0.00  0.00    +0.020 A 
ATOM      5  C   LIG    1       25.909 -18.340   3.682  0.00  0.00    +0.013 A 
ENDROOT
BRANCH   1   7
ATOM      6  C   LIG    1       28.743 -19.647   5.973  0.00  0.00    +0.025 C 
ATOM      7  C   LIG    1       27.512 -19.864   5.095  0.00  0.00    +0.131 C 
BRANCH   7   8
ATOM      8  C   LIG    1       26.380 -20.512   5.891  0.00  0.00    +0.312 C 
ATOM      9  O   LIG    1       26.126 -20.283   7.062  0.00  0.00    -0.250 OA
BRANCH   8  10
ATOM     10  O   LIG    1       25.690 -21.443   5.182  0.00  0.00    -0.480 OA
ATOM     11  H   LIG    1       26.249 -22.149   4.809  0.00  0.00    +0.295 HD
ENDBRANCH   8  10
ENDBRANCH   7   8
ENDBRANCH   1   7
BRANCH   3  12
ATOM     12  C   LIG    1       27.141 -14.776   3.490  0.00  0.00    +0.200 C 
ATOM     13  O   LIG    1       28.273 -14.301   3.424  0.00  0.00    -0.286 OA
BRANCH  12  14
ATOM     14  C   LIG    1       25.995 -13.810   3.372  0.00  0.00    +0.023 A 
ATOM     15  C   LIG    1       25.684 -13.181   2.159  0.00  0.00    +0.012 A 
ATOM     16  C   LIG    1       24.596 -12.308   2.073  0.00  0.00    +0.001 A 
ATOM     17  C   LIG    1       23.844 -12.015   3.209  0.00  0.00    +0.000 A 
ATOM     18  C   LIG    1       24.174 -12.597   4.431  0.00  0.00    +0.001 A 
ATOM     19  C   LIG    1       25.242 -13.495   4.515  0.00  0.00    +0.012 A 
ENDBRANCH  12  14
ENDBRANCH   3  12
TORSDOF 5
ENDMDL
MODEL 9
REMARK VINA RESULT:      -4.4      2.110      2.580
REMARK  Name = *****
REMARK                            x       y       z     vdW  Elec       q    Type
REMARK                         _______ _______ _______ _____ _____    ______ ____
ROOT
ATOM      1  C   LIG    1       23.596 -18.619   4.255  0.00  0.00    +0.004 A 
ATOM      2  S   LIG    1       24.648 -17.376   3.704  0.00  0.00    -0.089 S 
ATOM      3  C   LIG    1       23.531 -16.127   4.080  0.00  0.00    +0.060 A 
ATOM      4  C   LIG    1       22.380 -16.659   4.634  0.00  0.00    +0.020 A 
ATOM      5  C   LIG    1       22.407 -18.086   4.714  0.00  0.00    +0.013 A 
ENDROOT
BRANCH   1   7
ATOM      6  C   LIG    1       24.418 -20.502   2.781  0.00  0.00    +0.025 C 
ATOM      7  C   LIG    1       24.050 -20.067   4.198  0.00  0.00    +0.131 C 
BRANCH   7   8
ATOM      8  C   LIG    1       25.211 -20.308   5.163  0.00  0.00    +0.312 C 
ATOM      9  O   LIG    1       25.101 -20.444   6.371  0.00  0.00    -0.250 OA
BRANCH   8  10
ATOM     10  O   LIG    1       26.425 -20.299   4.555  0.00  0.00    -0.480 OA
ATOM     11  H   LIG    1       26.561 -19.540   3.958  0.00  0.00    +0.295 HD
ENDBRANCH   8  10
ENDBRANCH   7   8
ENDBRANCH   1   7
BRANCH   3  12
ATOM     12  C   LIG    1       23.904 -14.732   3.834  0.00  0.00    +0.200 C 
ATOM     13  O   LIG    1       23.092 -13.851   3.559  0.00  0.00    -0.286 OA
BRANCH  12  14
ATOM     14  C   LIG    1       25.350 -14.324   3.897  0.00  0.00    +0.023 A 
ATOM     15  C   LIG    1       26.199 -14.448   2.789  0.00  0.00    +0.012 A 
ATOM     16  C   LIG    1       27.531 -14.035   2.870  0.00  0.00    +0.001 A 
ATOM     17  C   LIG    1       28.041 -13.547   4.071  0.00  0.00    +0.000 A 
ATOM     18  C   LIG    1       27.218 -13.464   5.192  0.00  0.00    +0.001 A 
ATOM     19  C   LIG    1       25.876 -13.847   5.108  0.00  0.00    +0.012 A 
ENDBRANCH  12  14
ENDBRANCH   3  12
TORSDOF 5
ENDMDL
