MODEL 1
REMARK VINA RESULT:      -8.4      0.000      0.000
REMARK  Name = *****
REMARK                            x       y       z     vdW  Elec       q    Type
REMARK                         _______ _______ _______ _____ _____    ______ ____
ROOT
ATOM      1  C   LIG    1       27.596 -21.248   6.983  0.00  0.00    -0.008 A 
ATOM      2  C   LIG    1       28.884 -20.905   7.459  0.00  0.00    +0.008 A 
ATOM      3  C   LIG    1       29.531 -19.765   6.934  0.00  0.00    +0.091 A 
ATOM      4  N   LIG    1       30.725 -19.306   7.513  0.00  0.00    -0.319 N 
ATOM      5  H   LIG    1       31.110 -18.430   7.179  0.00  0.00    +0.169 HD
ATOM      6  C   LIG    1       31.339 -19.903   8.578  0.00  0.00    +0.249 C 
ATOM      7  C   LIG    1       30.764 -21.201   9.003  0.00  0.00    +0.071 C 
ATOM      8  O   LIG    1       32.315 -19.436   9.137  0.00  0.00    -0.268 OA
ATOM      9  C   LIG    1       28.978 -19.042   5.877  0.00  0.00    +0.141 A 
ATOM     10  C   LIG    1       27.746 -19.403   5.357  0.00  0.00    +0.048 A 
ATOM     11  C   LIG    1       29.621 -21.665   8.482  0.00  0.00    +0.015 C 
ATOM     12  C   LIG    1       27.050 -20.473   5.928  0.00  0.00    +0.010 A 
ENDROOT
BRANCH   9  13
ATOM     13  O   LIG    1       29.667 -17.973   5.373  0.00  0.00    -0.505 OA
ATOM     14  H   LIG    1       29.325 -17.160   5.783  0.00  0.00    +0.292 HD
ENDBRANCH   9  13
BRANCH   1  15
ATOM     15  C   LIG    1       26.718 -22.283   7.686  0.00  0.00    +0.162 C 
BRANCH  15  16
ATOM     16  O   LIG    1       26.120 -21.542   8.759  0.00  0.00    -0.386 OA
ATOM     17  H   LIG    1       25.388 -21.030   8.383  0.00  0.00    +0.210 HD
ENDBRANCH  15  16
BRANCH  15  18
ATOM     18  C   LIG    1       25.624 -23.014   6.812  0.00  0.00    +0.087 C 
BRANCH  18  20
ATOM     19  C   LIG    1       24.633 -25.369   6.300  0.00  0.00    +0.005 C 
ATOM     20  C   LIG    1       25.779 -24.560   6.898  0.00  0.00    +0.018 C 
ENDBRANCH  18  20
BRANCH  18  21
ATOM     21  N   LIG    1       24.198 -22.688   7.107  0.00  0.00    -0.308 NA
ATOM     22  H   LIG    1       23.693 -23.564   7.247  0.00  0.00    +0.122 HD
BRANCH  21  23
ATOM     23  C   LIG    1       23.465 -21.878   6.120  0.00  0.00    +0.048 C 
ATOM     24  C   LIG    1       24.221 -21.866   4.779  0.00  0.00    +0.024 C 
ATOM     25  C   LIG    1       23.280 -20.426   6.567  0.00  0.00    +0.024 C 
ENDBRANCH  21  23
ENDBRANCH  18  21
ENDBRANCH  15  18
ENDBRANCH   1  15
TORSDOF 7
ENDMDL
MODEL 2
REMARK VINA RESULT:      -8.1      0.733      2.078
REMARK  Name = *****
REMARK                            x       y       z     vdW  Elec       q    Type
REMARK                         _______ _______ _______ _____ _____    ______ ____
ROOT
ATOM      1  C   LIG    1       27.426 -21.065   7.084  0.00  0.00    -0.008 A 
ATOM      2  C   LIG    1       28.751 -20.824   7.519  0.00  0.00    +0.008 A 
ATOM      3  C   LIG    1       29.497 -19.789   6.914  0.00  0.00    +0.091 A 
ATOM      4  N   LIG    1       30.742 -19.417   7.446  0.00  0.00    -0.319 N 
ATOM      5  H   LIG    1       31.204 -18.606   7.052  0.00  0.00    +0.169 HD
ATOM      6  C   LIG    1       31.315 -20.006   8.538  0.00  0.00    +0.249 C 
ATOM      7  C   LIG    1       30.623 -21.212   9.051  0.00  0.00    +0.071 C 
ATOM      8  O   LIG    1       32.344 -19.606   9.052  0.00  0.00    -0.268 OA
ATOM      9  C   LIG    1       28.996 -19.080   5.822  0.00  0.00    +0.141 A 
ATOM     10  C   LIG    1       27.724 -19.347   5.343  0.00  0.00    +0.048 A 
ATOM     11  C   LIG    1       29.429 -21.590   8.578  0.00  0.00    +0.015 C 
ATOM     12  C   LIG    1       26.938 -20.306   5.991  0.00  0.00    +0.010 A 
ENDROOT
BRANCH   9  13
ATOM     13  O   LIG    1       29.777 -18.118   5.242  0.00  0.00    -0.505 OA
ATOM     14  H   LIG    1       29.212 -17.546   4.695  0.00  0.00    +0.292 HD
ENDBRANCH   9  13
BRANCH   1  15
ATOM     15  C   LIG    1       26.464 -21.963   7.863  0.00  0.00    +0.162 C 
BRANCH  15  16
ATOM     16  O   LIG    1       26.239 -21.236   9.079  0.00  0.00    -0.386 OA
ATOM     17  H   LIG    1       27.106 -21.048   9.467  0.00  0.00    +0.210 HD
ENDBRANCH  15  16
BRANCH  15  18
ATOM     18  C   LIG    1       25.102 -22.344   7.159  0.00  0.00    +0.087 C 
BRANCH  18  20
ATOM     19  C   LIG    1       23.229 -21.080   5.862  0.00  0.00    +0.005 C 
ATOM     20  C   LIG    1       24.151 -21.115   7.076  0.00  0.00    +0.018 C 
ENDBRANCH  18  20
BRANCH  18  21
ATOM     21  N   LIG    1       25.194 -22.935   5.791  0.00  0.00    -0.308 NA
ATOM     22  H   LIG    1       24.553 -22.425   5.180  0.00  0.00    +0.122 HD
BRANCH  21  23
ATOM     23  C   LIG    1       24.928 -24.376   5.651  0.00  0.00    +0.048 C 
ATOM     24  C   LIG    1       23.655 -24.756   6.429  0.00  0.00    +0.024 C 
ATOM     25  C   LIG    1       26.074 -25.243   6.176  0.00  0.00    +0.024 C 
ENDBRANCH  21  23
ENDBRANCH  18  21
ENDBRANCH  15  18
ENDBRANCH   1  15
TORSDOF 7
ENDMDL
MODEL 3
REMARK VINA RESULT:      -8.0      2.158      6.881
REMARK  Name = *****
REMARK                            x       y       z     vdW  Elec       q    Type
REMARK                         _______ _______ _______ _____ _____    ______ ____
ROOT
ATOM      1  C   LIG    1       25.973 -21.673   7.211  0.00  0.00    -0.008 A 
ATOM      2  C   LIG    1       24.824 -21.450   6.416  0.00  0.00    +0.008 A 
ATOM      3  C   LIG    1       23.954 -22.529   6.146  0.00  0.00    +0.091 A 
ATOM      4  N   LIG    1       22.722 -22.296   5.513  0.00  0.00    -0.319 N 
ATOM      5  H   LIG    1       22.078 -23.073   5.426  0.00  0.00    +0.169 HD
ATOM      6  C   LIG    1       22.287 -21.064   5.113  0.00  0.00    +0.249 C 
ATOM      7  C   LIG    1       23.279 -19.968   5.223  0.00  0.00    +0.071 C 
ATOM      8  O   LIG    1       21.175 -20.860   4.662  0.00  0.00    -0.268 OA
ATOM      9  C   LIG    1       24.265 -23.828   6.548  0.00  0.00    +0.141 A 
ATOM     10  C   LIG    1       25.419 -24.073   7.274  0.00  0.00    +0.048 A 
ATOM     11  C   LIG    1       24.458 -20.149   5.832  0.00  0.00    +0.015 C 
ATOM     12  C   LIG    1       26.244 -23.001   7.628  0.00  0.00    +0.010 A 
ENDROOT
BRANCH   9  13
ATOM     13  O   LIG    1       23.411 -24.845   6.222  0.00  0.00    -0.505 OA
ATOM     14  H   LIG    1       23.482 -25.541   6.898  0.00  0.00    +0.292 HD
ENDBRANCH   9  13
BRANCH   1  15
ATOM     15  C   LIG    1       26.806 -20.524   7.779  0.00  0.00    +0.162 C 
BRANCH  15  16
ATOM     16  O   LIG    1       26.393 -20.459   9.152  0.00  0.00    -0.386 OA
ATOM     17  H   LIG    1       26.108 -21.348   9.409  0.00  0.00    +0.210 HD
ENDBRANCH  15  16
BRANCH  15  18
ATOM     18  C   LIG    1       28.376 -20.639   7.654  0.00  0.00    +0.087 C 
BRANCH  18  20
ATOM     19  C   LIG    1       28.329 -19.219   5.470  0.00  0.00    +0.005 C 
ATOM     20  C   LIG    1       28.834 -20.472   6.177  0.00  0.00    +0.018 C 
ENDBRANCH  18  20
BRANCH  18  21
ATOM     21  N   LIG    1       29.188 -19.702   8.486  0.00  0.00    -0.308 NA
ATOM     22  H   LIG    1       28.919 -18.747   8.243  0.00  0.00    +0.122 HD
BRANCH  21  23
ATOM     23  C   LIG    1       30.654 -19.811   8.403  0.00  0.00    +0.048 C 
ATOM     24  C   LIG    1       31.110 -21.191   8.910  0.00  0.00    +0.024 C 
ATOM     25  C   LIG    1       31.374 -18.745   9.231  0.00  0.00    +0.024 C 
ENDBRANCH  21  23
ENDBRANCH  18  21
ENDBRANCH  15  18
ENDBRANCH   1  15
TORSDOF 7
ENDMDL
MODEL 4
REMARK VINA RESULT:      -7.8      2.277      6.162
REMARK  Name = *****
REMARK                            x       y       z     vdW  Elec       q    Type
REMARK                         _______ _______ _______ _____ _____    ______ ____
ROOT
ATOM      1  C   LIG    1       25.878 -20.909   6.617  0.00  0.00    -0.008 A 
ATOM      2  C   LIG    1       25.594 -22.263   6.319  0.00  0.00    +0.008 A 
ATOM      3  C   LIG    1       24.927 -22.578   5.115  0.00  0.00    +0.091 A 
ATOM      4  N   LIG    1       24.794 -23.918   4.716  0.00  0.00    -0.319 N 
ATOM      5  H   LIG    1       24.402 -24.105   3.801  0.00  0.00    +0.169 HD
ATOM      6  C   LIG    1       25.267 -24.981   5.432  0.00  0.00    +0.249 C 
ATOM      7  C   LIG    1       25.793 -24.662   6.781  0.00  0.00    +0.071 C 
ATOM      8  O   LIG    1       25.239 -26.129   5.026  0.00  0.00    -0.268 OA
ATOM      9  C   LIG    1       24.442 -21.577   4.274  0.00  0.00    +0.141 A 
ATOM     10  C   LIG    1       24.656 -20.244   4.583  0.00  0.00    +0.048 A 
ATOM     11  C   LIG    1       25.947 -23.396   7.191  0.00  0.00    +0.015 C 
ATOM     12  C   LIG    1       25.395 -19.918   5.725  0.00  0.00    +0.010 A 
ENDROOT
BRANCH   9  13
ATOM     13  O   LIG    1       23.762 -21.935   3.142  0.00  0.00    -0.505 OA
ATOM     14  H   LIG    1       23.340 -21.142   2.768  0.00  0.00    +0.292 HD
ENDBRANCH   9  13
BRANCH   1  15
ATOM     15  C   LIG    1       26.830 -20.505   7.743  0.00  0.00    +0.162 C 
BRANCH  15  16
ATOM     16  O   LIG    1       26.294 -21.177   8.892  0.00  0.00    -0.386 OA
ATOM     17  H   LIG    1       26.551 -22.109   8.826  0.00  0.00    +0.210 HD
ENDBRANCH  15  16
BRANCH  15  18
ATOM     18  C   LIG    1       28.362 -20.834   7.545  0.00  0.00    +0.087 C 
BRANCH  18  20
ATOM     19  C   LIG    1       28.990 -18.956   5.853  0.00  0.00    +0.005 C 
ATOM     20  C   LIG    1       28.838 -20.451   6.114  0.00  0.00    +0.018 C 
ENDBRANCH  18  20
BRANCH  18  21
ATOM     21  N   LIG    1       29.314 -20.218   8.516  0.00  0.00    -0.308 NA
ATOM     22  H   LIG    1       29.169 -19.207   8.506  0.00  0.00    +0.122 HD
BRANCH  21  23
ATOM     23  C   LIG    1       30.749 -20.486   8.328  0.00  0.00    +0.048 C 
ATOM     24  C   LIG    1       31.158 -21.747   9.111  0.00  0.00    +0.024 C 
ATOM     25  C   LIG    1       31.633 -19.332   8.804  0.00  0.00    +0.024 C 
ENDBRANCH  21  23
ENDBRANCH  18  21
ENDBRANCH  15  18
ENDBRANCH   1  15
TORSDOF 7
ENDMDL
MODEL 5
REMARK VINA RESULT:      -7.7      2.262      6.636
REMARK  Name = *****
REMARK                            x       y       z     vdW  Elec       q    Type
REMARK                         _______ _______ _______ _____ _____    ______ ____
ROOT
ATOM      1  C   LIG    1       26.444 -21.405   7.074  0.00  0.00    -0.008 A 
ATOM      2  C   LIG    1       25.785 -21.229   5.834  0.00  0.00    +0.008 A 
ATOM      3  C   LIG    1       24.945 -22.255   5.349  0.00  0.00    +0.091 A 
ATOM      4  N   LIG    1       24.146 -22.032   4.216  0.00  0.00    -0.319 N 
ATOM      5  H   LIG    1       23.482 -22.751   3.954  0.00  0.00    +0.169 HD
ATOM      6  C   LIG    1       24.124 -20.861   3.513  0.00  0.00    +0.249 C 
ATOM      7  C   LIG    1       25.141 -19.858   3.908  0.00  0.00    +0.071 C 
ATOM      8  O   LIG    1       23.351 -20.643   2.598  0.00  0.00    -0.268 OA
ATOM      9  C   LIG    1       24.846 -23.481   6.008  0.00  0.00    +0.141 A 
ATOM     10  C   LIG    1       25.535 -23.692   7.192  0.00  0.00    +0.048 A 
ATOM     11  C   LIG    1       25.912 -20.030   4.990  0.00  0.00    +0.015 C 
ATOM     12  C   LIG    1       26.298 -22.652   7.733  0.00  0.00    +0.010 A 
ENDROOT
BRANCH   9  13
ATOM     13  O   LIG    1       24.054 -24.459   5.473  0.00  0.00    -0.505 OA
ATOM     14  H   LIG    1       23.127 -24.264   5.690  0.00  0.00    +0.292 HD
ENDBRANCH   9  13
BRANCH   1  15
ATOM     15  C   LIG    1       27.137 -20.251   7.799  0.00  0.00    +0.162 C 
BRANCH  15  16
ATOM     16  O   LIG    1       26.662 -20.371   9.148  0.00  0.00    -0.386 OA
ATOM     17  H   LIG    1       26.236 -21.237   9.228  0.00  0.00    +0.210 HD
ENDBRANCH  15  16
BRANCH  15  18
ATOM     18  C   LIG    1       28.714 -20.207   7.745  0.00  0.00    +0.087 C 
BRANCH  18  20
ATOM     19  C   LIG    1       29.306 -18.616   5.768  0.00  0.00    +0.005 C 
ATOM     20  C   LIG    1       29.220 -20.050   6.282  0.00  0.00    +0.018 C 
ENDBRANCH  18  20
BRANCH  18  21
ATOM     21  N   LIG    1       29.387 -19.159   8.569  0.00  0.00    -0.308 NA
ATOM     22  H   LIG    1       29.472 -18.314   8.002  0.00  0.00    +0.122 HD
BRANCH  21  23
ATOM     23  C   LIG    1       30.709 -19.479   9.132  0.00  0.00    +0.048 C 
ATOM     24  C   LIG    1       31.780 -18.554   8.526  0.00  0.00    +0.024 C 
ATOM     25  C   LIG    1       31.132 -20.925   8.864  0.00  0.00    +0.024 C 
ENDBRANCH  21  23
ENDBRANCH  18  21
ENDBRANCH  15  18
ENDBRANCH   1  15
TORSDOF 7
ENDMDL
MODEL 6
REMARK VINA RESULT:      -7.6      1.183      2.368
REMARK  Name = *****
REMARK                            x       y       z     vdW  Elec       q    Type
REMARK                         _______ _______ _______ _____ _____    ______ ____
ROOT
ATOM      1  C   LIG    1       26.962 -21.166   6.859  0.00  0.00    -0.008 A 
ATOM      2  C   LIG    1       28.310 -20.781   7.053  0.00  0.00    +0.008 A 
ATOM      3  C   LIG    1       28.845 -19.732   6.274  0.00  0.00    +0.091 A 
ATOM      4  N   LIG    1       30.118 -19.216   6.569  0.00  0.00    -0.319 N 
ATOM      5  H   LIG    1       30.430 -18.399   6.058  0.00  0.00    +0.169 HD
ATOM      6  C   LIG    1       30.913 -19.673   7.581  0.00  0.00    +0.249 C 
ATOM      7  C   LIG    1       30.434 -20.894   8.271  0.00  0.00    +0.071 C 
ATOM      8  O   LIG    1       31.967 -19.150   7.893  0.00  0.00    -0.268 OA
ATOM      9  C   LIG    1       28.109 -19.149   5.242  0.00  0.00    +0.141 A 
ATOM     10  C   LIG    1       26.808 -19.559   4.998  0.00  0.00    +0.048 A 
ATOM     11  C   LIG    1       29.221 -21.407   8.025  0.00  0.00    +0.015 C 
ATOM     12  C   LIG    1       26.233 -20.532   5.821  0.00  0.00    +0.010 A 
ENDROOT
BRANCH   9  13
ATOM     13  O   LIG    1       28.689 -18.168   4.486  0.00  0.00    -0.505 OA
ATOM     14  H   LIG    1       28.049 -17.869   3.818  0.00  0.00    +0.292 HD
ENDBRANCH   9  13
BRANCH   1  15
ATOM     15  C   LIG    1       26.229 -22.085   7.837  0.00  0.00    +0.162 C 
BRANCH  15  16
ATOM     16  O   LIG    1       25.493 -21.173   8.665  0.00  0.00    -0.386 OA
ATOM     17  H   LIG    1       24.677 -20.949   8.192  0.00  0.00    +0.210 HD
ENDBRANCH  15  16
BRANCH  15  18
ATOM     18  C   LIG    1       25.288 -23.192   7.220  0.00  0.00    +0.087 C 
BRANCH  18  20
ATOM     19  C   LIG    1       22.707 -23.205   6.859  0.00  0.00    +0.005 C 
ATOM     20  C   LIG    1       24.047 -22.553   6.532  0.00  0.00    +0.018 C 
ENDBRANCH  18  20
BRANCH  18  21
ATOM     21  N   LIG    1       25.909 -24.134   6.242  0.00  0.00    -0.308 NA
ATOM     22  H   LIG    1       25.972 -23.661   5.340  0.00  0.00    +0.122 HD
BRANCH  21  23
ATOM     23  C   LIG    1       25.254 -25.438   6.041  0.00  0.00    +0.048 C 
ATOM     24  C   LIG    1       25.935 -26.511   6.910  0.00  0.00    +0.024 C 
ATOM     25  C   LIG    1       25.308 -25.908   4.586  0.00  0.00    +0.024 C 
ENDBRANCH  21  23
ENDBRANCH  18  21
ENDBRANCH  15  18
ENDBRANCH   1  15
TORSDOF 7
ENDMDL
MODEL 7
REMARK VINA RESULT:      -7.4      2.450      6.489
REMARK  Name = *****
REMARK                            x       y       z     vdW  Elec       q    Type
REMARK                         _______ _______ _______ _____ _____    ______ ____
ROOT
ATOM      1  C   LIG    1       25.367 -21.487   6.045  0.00  0.00    -0.008 A 
ATOM      2  C   LIG    1       25.087 -22.858   6.258  0.00  0.00    +0.008 A 
ATOM      3  C   LIG    1       23.749 -23.304   6.202  0.00  0.00    +0.091 A 
ATOM      4  N   LIG    1       23.466 -24.679   6.233  0.00  0.00    -0.319 N 
ATOM      5  H   LIG    1       22.506 -24.970   6.090  0.00  0.00    +0.169 HD
ATOM      6  C   LIG    1       24.417 -25.655   6.328  0.00  0.00    +0.249 C 
ATOM      7  C   LIG    1       25.798 -25.181   6.580  0.00  0.00    +0.071 C 
ATOM      8  O   LIG    1       24.167 -26.844   6.249  0.00  0.00    -0.268 OA
ATOM      9  C   LIG    1       22.692 -22.405   6.057  0.00  0.00    +0.141 A 
ATOM     10  C   LIG    1       22.946 -21.051   5.910  0.00  0.00    +0.048 A 
ATOM     11  C   LIG    1       26.109 -23.878   6.544  0.00  0.00    +0.015 C 
ATOM     12  C   LIG    1       24.271 -20.605   5.871  0.00  0.00    +0.010 A 
ENDROOT
BRANCH   9  13
ATOM     13  O   LIG    1       21.411 -22.883   6.054  0.00  0.00    -0.505 OA
ATOM     14  H   LIG    1       20.801 -22.144   6.217  0.00  0.00    +0.292 HD
ENDBRANCH   9  13
BRANCH   1  15
ATOM     15  C   LIG    1       26.788 -20.972   5.811  0.00  0.00    +0.162 C 
BRANCH  15  16
ATOM     16  O   LIG    1       26.626 -20.006   4.763  0.00  0.00    -0.386 OA
ATOM     17  H   LIG    1       25.970 -20.360   4.144  0.00  0.00    +0.210 HD
ENDBRANCH  15  16
BRANCH  15  18
ATOM     18  C   LIG    1       27.546 -20.355   7.052  0.00  0.00    +0.087 C 
BRANCH  18  20
ATOM     19  C   LIG    1       25.892 -20.405   9.065  0.00  0.00    +0.005 C 
ATOM     20  C   LIG    1       27.098 -21.037   8.377  0.00  0.00    +0.018 C 
ENDBRANCH  18  20
BRANCH  18  21
ATOM     21  N   LIG    1       29.038 -20.385   7.012  0.00  0.00    -0.308 NA
ATOM     22  H   LIG    1       29.366 -20.955   7.793  0.00  0.00    +0.122 HD
BRANCH  21  23
ATOM     23  C   LIG    1       29.746 -19.094   7.044  0.00  0.00    +0.048 C 
ATOM     24  C   LIG    1       29.540 -18.344   5.716  0.00  0.00    +0.024 C 
ATOM     25  C   LIG    1       31.252 -19.253   7.265  0.00  0.00    +0.024 C 
ENDBRANCH  21  23
ENDBRANCH  18  21
ENDBRANCH  15  18
ENDBRANCH   1  15
TORSDOF 7
ENDMDL
MODEL 8
REMARK VINA RESULT:      -7.1      2.303      6.672
REMARK  Name = *****
REMARK                            x       y       z     vdW  Elec       q    Type
REMARK                         _______ _______ _______ _____ _____    ______ ____
ROOT
ATOM      1  C   LIG    1       27.333 -20.736   6.983  0.00  0.00    -0.008 A 
ATOM      2  C   LIG    1       26.294 -20.479   6.056  0.00  0.00    +0.008 A 
ATOM      3  C   LIG    1       24.959 -20.751   6.427  0.00  0.00    +0.091 A 
ATOM      4  N   LIG    1       23.903 -20.342   5.596  0.00  0.00    -0.319 N 
ATOM      5  H   LIG    1       22.956 -20.462   5.938  0.00  0.00    +0.169 HD
ATOM      6  C   LIG    1       24.071 -19.687   4.410  0.00  0.00    +0.249 C 
ATOM      7  C   LIG    1       25.470 -19.574   3.933  0.00  0.00    +0.071 C 
ATOM      8  O   LIG    1       23.147 -19.245   3.751  0.00  0.00    -0.268 OA
ATOM      9  C   LIG    1       24.657 -21.374   7.638  0.00  0.00    +0.141 A 
ATOM     10  C   LIG    1       25.669 -21.688   8.530  0.00  0.00    +0.048 A 
ATOM     11  C   LIG    1       26.504 -19.941   4.702  0.00  0.00    +0.015 C 
ATOM     12  C   LIG    1       26.987 -21.341   8.217  0.00  0.00    +0.010 A 
ENDROOT
BRANCH   9  13
ATOM     13  O   LIG    1       23.351 -21.657   7.930  0.00  0.00    -0.505 OA
ATOM     14  H   LIG    1       22.838 -21.652   7.103  0.00  0.00    +0.292 HD
ENDBRANCH   9  13
BRANCH   1  15
ATOM     15  C   LIG    1       28.756 -20.215   6.775  0.00  0.00    +0.162 C 
BRANCH  15  16
ATOM     16  O   LIG    1       28.568 -19.038   5.976  0.00  0.00    -0.386 OA
ATOM     17  H   LIG    1       29.431 -18.606   5.892  0.00  0.00    +0.210 HD
ENDBRANCH  15  16
BRANCH  15  18
ATOM     18  C   LIG    1       29.607 -19.905   8.068  0.00  0.00    +0.087 C 
BRANCH  18  20
ATOM     19  C   LIG    1       30.939 -21.867   9.145  0.00  0.00    +0.005 C 
ATOM     20  C   LIG    1       30.908 -20.756   8.101  0.00  0.00    +0.018 C 
ENDBRANCH  18  20
BRANCH  18  21
ATOM     21  N   LIG    1       29.995 -18.481   8.292  0.00  0.00    -0.308 NA
ATOM     22  H   LIG    1       30.393 -18.119   7.424  0.00  0.00    +0.122 HD
BRANCH  21  23
ATOM     23  C   LIG    1       30.931 -18.193   9.391  0.00  0.00    +0.048 C 
ATOM     24  C   LIG    1       30.190 -17.500  10.549  0.00  0.00    +0.024 C 
ATOM     25  C   LIG    1       32.086 -17.285   8.963  0.00  0.00    +0.024 C 
ENDBRANCH  21  23
ENDBRANCH  18  21
ENDBRANCH  15  18
ENDBRANCH   1  15
TORSDOF 7
ENDMDL
MODEL 9
REMARK VINA RESULT:      -6.9      2.082      6.060
REMARK  Name = *****
REMARK                            x       y       z     vdW  Elec       q    Type
REMARK                         _______ _______ _______ _____ _____    ______ ____
ROOT
ATOM      1  C   LIG    1       29.642 -19.655   6.702  0.00  0.00    -0.008 A 
ATOM      2  C   LIG    1       28.422 -20.371   6.741  0.00  0.00    +0.008 A 
ATOM      3  C   LIG    1       27.408 -20.054   5.812  0.00  0.00    +0.091 A 
ATOM      4  N   LIG    1       26.265 -20.865   5.716  0.00  0.00    -0.319 N 
ATOM      5  H   LIG    1       25.605 -20.670   4.972  0.00  0.00    +0.169 HD
ATOM      6  C   LIG    1       26.044 -21.971   6.487  0.00  0.00    +0.249 C 
ATOM      7  C   LIG    1       27.013 -22.190   7.586  0.00  0.00    +0.071 C 
ATOM      8  O   LIG    1       25.101 -22.725   6.323  0.00  0.00    -0.268 OA
ATOM      9  C   LIG    1       27.539 -18.976   4.937  0.00  0.00    +0.141 A 
ATOM     10  C   LIG    1       28.703 -18.225   4.929  0.00  0.00    +0.048 A 
ATOM     11  C   LIG    1       28.121 -21.445   7.702  0.00  0.00    +0.015 C 
ATOM     12  C   LIG    1       29.754 -18.584   5.780  0.00  0.00    +0.010 A 
ENDROOT
BRANCH   9  13
ATOM     13  O   LIG    1       26.509 -18.682   4.087  0.00  0.00    -0.505 OA
ATOM     14  H   LIG    1       26.803 -18.840   3.174  0.00  0.00    +0.292 HD
ENDBRANCH   9  13
BRANCH   1  15
ATOM     15  C   LIG    1       30.881 -20.114   7.473  0.00  0.00    +0.162 C 
BRANCH  15  16
ATOM     16  O   LIG    1       31.950 -19.387   6.850  0.00  0.00    -0.386 OA
ATOM     17  H   LIG    1       31.965 -18.502   7.245  0.00  0.00    +0.210 HD
ENDBRANCH  15  16
BRANCH  15  18
ATOM     18  C   LIG    1       30.876 -19.904   9.038  0.00  0.00    +0.087 C 
BRANCH  18  20
ATOM     19  C   LIG    1       31.517 -22.428   8.983  0.00  0.00    +0.005 C 
ATOM     20  C   LIG    1       30.943 -21.266   9.786  0.00  0.00    +0.018 C 
ENDBRANCH  18  20
BRANCH  18  21
ATOM     21  N   LIG    1       31.944 -19.027   9.602  0.00  0.00    -0.308 NA
ATOM     22  H   LIG    1       32.375 -19.515  10.389  0.00  0.00    +0.122 HD
BRANCH  21  23
ATOM     23  C   LIG    1       31.556 -17.678  10.046  0.00  0.00    +0.048 C 
ATOM     24  C   LIG    1       30.045 -17.467   9.838  0.00  0.00    +0.024 C 
ATOM     25  C   LIG    1       32.292 -16.571   9.288  0.00  0.00    +0.024 C 
ENDBRANCH  21  23
ENDBRANCH  18  21
ENDBRANCH  15  18
ENDBRANCH   1  15
TORSDOF 7
ENDMDL
