MODEL 1
REMARK VINA RESULT:      -4.6      0.000      0.000
REMARK  Name = *****
REMARK                            x       y       z     vdW  Elec       q    Type
REMARK                         _______ _______ _______ _____ _____    ______ ____
ROOT
ATOM      1  C   LIG    1       31.332 -21.926   9.240  0.00  0.00    +0.372 C 
ATOM      2  O   LIG    1       30.707 -22.345  10.192  0.00  0.00    -0.242 OA
ENDROOT
BRANCH   1   4
ATOM      3  C   LIG    1       30.143 -20.208   7.734  0.00  0.00    +0.099 C 
ATOM      4  C   LIG    1       31.223 -20.493   8.729  0.00  0.00    +0.236 C 
ATOM      5  O   LIG    1       32.023 -19.670   9.166  0.00  0.00    -0.285 OA
ENDBRANCH   1   4
BRANCH   1   6
ATOM      6  O   LIG    1       32.203 -22.627   8.489  0.00  0.00    -0.475 OA
ATOM      7  H   LIG    1       31.965 -22.522   7.537  0.00  0.00    +0.295 HD
ENDBRANCH   1   6
TORSDOF 2
ENDMDL
MODEL 2
REMARK VINA RESULT:      -4.4      2.758      4.231
REMARK  Name = *****
REMARK                            x       y       z     vdW  Elec       q    Type
REMARK                         _______ _______ _______ _____ _____    ______ ____
ROOT
ATOM      1  C   LIG    1       32.452 -17.192   9.663  0.00  0.00    +0.372 C 
ATOM      2  O   LIG    1       32.942 -17.146  10.773  0.00  0.00    -0.242 OA
ENDROOT
BRANCH   1   4
ATOM      3  C   LIG    1       30.264 -18.045   8.606  0.00  0.00    +0.099 C 
ATOM      4  C   LIG    1       31.615 -18.366   9.163  0.00  0.00    +0.236 C 
ATOM      5  O   LIG    1       32.103 -19.490   9.248  0.00  0.00    -0.285 OA
ENDBRANCH   1   4
BRANCH   1   6
ATOM      6  O   LIG    1       32.556 -16.249   8.707  0.00  0.00    -0.475 OA
ATOM      7  H   LIG    1       32.624 -16.690   7.826  0.00  0.00    +0.295 HD
ENDBRANCH   1   6
TORSDOF 2
ENDMDL
MODEL 3
REMARK VINA RESULT:      -4.3      1.163      1.179
REMARK  Name = *****
REMARK                            x       y       z     vdW  Elec       q    Type
REMARK                         _______ _______ _______ _____ _____    ______ ____
ROOT
ATOM      1  C   LIG    1       30.990 -21.182   8.896  0.00  0.00    +0.372 C 
ATOM      2  O   LIG    1       29.856 -21.593   8.759  0.00  0.00    -0.242 OA
ENDROOT
BRANCH   1   4
ATOM      3  C   LIG    1       30.965 -19.266   7.176  0.00  0.00    +0.099 C 
ATOM      4  C   LIG    1       31.427 -19.774   8.505  0.00  0.00    +0.236 C 
ATOM      5  O   LIG    1       32.124 -19.152   9.302  0.00  0.00    -0.285 OA
ENDBRANCH   1   4
BRANCH   1   6
ATOM      6  O   LIG    1       32.031 -21.873   9.400  0.00  0.00    -0.475 OA
ATOM      7  H   LIG    1       31.863 -22.059  10.354  0.00  0.00    +0.295 HD
ENDBRANCH   1   6
TORSDOF 2
ENDMDL
MODEL 4
REMARK VINA RESULT:      -4.3      1.358      1.443
REMARK  Name = *****
REMARK                            x       y       z     vdW  Elec       q    Type
REMARK                         _______ _______ _______ _____ _____    ______ ____
ROOT
ATOM      1  C   LIG    1       31.171 -21.109   8.825  0.00  0.00    +0.372 C 
ATOM      2  O   LIG    1       31.967 -21.818   9.405  0.00  0.00    -0.242 OA
ENDROOT
BRANCH   1   4
ATOM      3  C   LIG    1       30.000 -18.862   8.365  0.00  0.00    +0.099 C 
ATOM      4  C   LIG    1       31.198 -19.585   8.894  0.00  0.00    +0.236 C 
ATOM      5  O   LIG    1       32.195 -19.055   9.378  0.00  0.00    -0.285 OA
ENDBRANCH   1   4
BRANCH   1   6
ATOM      6  O   LIG    1       30.155 -21.525   8.044  0.00  0.00    -0.475 OA
ATOM      7  H   LIG    1       30.476 -21.607   7.114  0.00  0.00    +0.295 HD
ENDBRANCH   1   6
TORSDOF 2
ENDMDL
MODEL 5
REMARK VINA RESULT:      -4.2      1.562      3.239
REMARK  Name = *****
REMARK                            x       y       z     vdW  Elec       q    Type
REMARK                         _______ _______ _______ _____ _____    ______ ____
ROOT
ATOM      1  C   LIG    1       31.785 -18.543   8.938  0.00  0.00    +0.372 C 
ATOM      2  O   LIG    1       31.895 -17.776   8.004  0.00  0.00    -0.242 OA
ENDROOT
BRANCH   1   4
ATOM      3  C   LIG    1       30.187 -20.326   7.990  0.00  0.00    +0.099 C 
ATOM      4  C   LIG    1       31.421 -20.015   8.778  0.00  0.00    +0.236 C 
ATOM      5  O   LIG    1       32.160 -20.845   9.301  0.00  0.00    -0.285 OA
ENDBRANCH   1   4
BRANCH   1   6
ATOM      6  O   LIG    1       31.960 -18.242  10.240  0.00  0.00    -0.475 OA
ATOM      7  H   LIG    1       32.507 -18.946  10.663  0.00  0.00    +0.295 HD
ENDBRANCH   1   6
TORSDOF 2
ENDMDL
MODEL 6
REMARK VINA RESULT:      -4.2      2.566      3.560
REMARK  Name = *****
REMARK                            x       y       z     vdW  Elec       q    Type
REMARK                         _______ _______ _______ _____ _____    ______ ____
ROOT
ATOM      1  C   LIG    1       31.777 -18.631   8.832  0.00  0.00    +0.372 C 
ATOM      2  O   LIG    1       31.611 -18.222   7.701  0.00  0.00    -0.242 OA
ENDROOT
BRANCH   1   4
ATOM      3  C   LIG    1       30.285 -17.191  10.359  0.00  0.00    +0.099 C 
ATOM      4  C   LIG    1       31.642 -17.752  10.071  0.00  0.00    +0.236 C 
ATOM      5  O   LIG    1       32.648 -17.565  10.750  0.00  0.00    -0.285 OA
ENDBRANCH   1   4
BRANCH   1   6
ATOM      6  O   LIG    1       32.101 -19.890   9.184  0.00  0.00    -0.475 OA
ATOM      7  H   LIG    1       31.431 -20.512   8.810  0.00  0.00    +0.295 HD
ENDBRANCH   1   6
TORSDOF 2
ENDMDL
MODEL 7
REMARK VINA RESULT:      -4.2      2.472      3.227
REMARK  Name = *****
REMARK                            x       y       z     vdW  Elec       q    Type
REMARK                         _______ _______ _______ _____ _____    ______ ____
ROOT
ATOM      1  C   LIG    1       31.622 -18.733   8.557  0.00  0.00    +0.372 C 
ATOM      2  O   LIG    1       32.152 -19.564   9.265  0.00  0.00    -0.242 OA
ENDROOT
BRANCH   1   4
ATOM      3  C   LIG    1       29.987 -18.778   6.568  0.00  0.00    +0.099 C 
ATOM      4  C   LIG    1       30.189 -18.853   8.049  0.00  0.00    +0.236 C 
ATOM      5  O   LIG    1       29.300 -19.004   8.883  0.00  0.00    -0.285 OA
ENDBRANCH   1   4
BRANCH   1   6
ATOM      6  O   LIG    1       32.185 -17.594   8.108  0.00  0.00    -0.475 OA
ATOM      7  H   LIG    1       31.705 -17.294   7.300  0.00  0.00    +0.295 HD
ENDBRANCH   1   6
TORSDOF 2
ENDMDL
MODEL 8
REMARK VINA RESULT:      -4.2      2.598      3.624
REMARK  Name = *****
REMARK                            x       y       z     vdW  Elec       q    Type
REMARK                         _______ _______ _______ _____ _____    ______ ____
ROOT
ATOM      1  C   LIG    1       31.715 -18.619   8.919  0.00  0.00    +0.372 C 
ATOM      2  O   LIG    1       32.186 -19.716   9.135  0.00  0.00    -0.242 OA
ENDROOT
BRANCH   1   4
ATOM      3  C   LIG    1       30.437 -17.014  10.476  0.00  0.00    +0.099 C 
ATOM      4  C   LIG    1       30.385 -18.146   9.499  0.00  0.00    +0.236 C 
ATOM      5  O   LIG    1       29.365 -18.720   9.127  0.00  0.00    -0.285 OA
ENDBRANCH   1   4
BRANCH   1   6
ATOM      6  O   LIG    1       32.262 -17.654   8.154  0.00  0.00    -0.475 OA
ATOM      7  H   LIG    1       32.279 -16.809   8.664  0.00  0.00    +0.295 HD
ENDBRANCH   1   6
TORSDOF 2
ENDMDL
MODEL 9
REMARK VINA RESULT:      -3.9      2.270      3.227
REMARK  Name = *****
REMARK                            x       y       z     vdW  Elec       q    Type
REMARK                         _______ _______ _______ _____ _____    ______ ____
ROOT
ATOM      1  C   LIG    1       30.821 -19.247   7.407  0.00  0.00    +0.372 C 
ATOM      2  O   LIG    1       30.526 -18.425   6.564  0.00  0.00    -0.242 OA
ENDROOT
BRANCH   1   4
ATOM      3  C   LIG    1       31.863 -17.475   8.959  0.00  0.00    +0.099 C 
ATOM      4  C   LIG    1       31.661 -18.923   8.638  0.00  0.00    +0.236 C 
ATOM      5  O   LIG    1       32.111 -19.865   9.284  0.00  0.00    -0.285 OA
ENDBRANCH   1   4
BRANCH   1   6
ATOM      6  O   LIG    1       30.474 -20.548   7.406  0.00  0.00    -0.475 OA
ATOM      7  H   LIG    1       30.479 -20.883   6.477  0.00  0.00    +0.295 HD
ENDBRANCH   1   6
TORSDOF 2
ENDMDL
