MODEL 1
REMARK VINA RESULT:      -3.6      0.000      0.000
REMARK  Name = *****
REMARK                            x       y       z     vdW  Elec       q    Type
REMARK                         _______ _______ _______ _____ _____    ______ ____
ROOT
ATOM      1  C   LIG    1       25.002 -12.231   4.353  0.00  0.00    +0.019 C 
ATOM      2  C   LIG    1       25.481 -13.770   4.227  0.00  0.00    +0.033 C 
ATOM      3  C   LIG    1       26.938 -13.026   3.781  0.00  0.00    +0.140 C 
ATOM      4  O   LIG    1       27.127 -11.842   3.377  0.00  0.00    -0.297 OA
ATOM      5  C   LIG    1       28.184 -13.820   3.928  0.00  0.00    +0.075 C 
ATOM      6  C   LIG    1       27.641 -15.191   4.045  0.00  0.00    +0.016 C 
ATOM      7  C   LIG    1       26.225 -15.068   3.480  0.00  0.00    +0.029 C 
ATOM      8  C   LIG    1       25.605 -16.502   3.473  0.00  0.00    -0.062 C 
ATOM      9  C   LIG    1       24.104 -16.621   3.417  0.00  0.00    +0.045 C 
ATOM     10  C   LIG    1       23.583 -17.907   4.067  0.00  0.00    -0.037 A 
ATOM     11  C   LIG    1       24.244 -19.102   3.730  0.00  0.00    -0.036 A 
ATOM     12  C   LIG    1       25.559 -18.989   2.998  0.00  0.00    +0.062 C 
ATOM     13  C   LIG    1       23.675 -20.333   4.083  0.00  0.00    +0.049 A 
ATOM     14  C   LIG    1       22.535 -20.362   4.883  0.00  0.00    +0.117 A 
ATOM     15  C   LIG    1       21.970 -19.188   5.359  0.00  0.00    +0.045 A 
ATOM     16  C   LIG    1       22.478 -17.965   4.930  0.00  0.00    +0.008 A 
ATOM     17  C   LIG    1       23.431 -15.399   3.969  0.00  0.00    +0.013 C 
ATOM     18  C   LIG    1       26.277 -17.672   3.302  0.00  0.00    -0.022 C 
ATOM     19  C   LIG    1       24.066 -14.087   3.552  0.00  0.00    +0.015 C 
ENDROOT
BRANCH  14  20
ATOM     20  O   LIG    1       21.986 -21.570   5.198  0.00  0.00    -0.507 OA
ATOM     21  H   LIG    1       22.286 -22.219   4.538  0.00  0.00    +0.292 HD
ENDBRANCH  14  20
TORSDOF 1
ENDMDL
MODEL 2
REMARK VINA RESULT:      -3.3      0.792      6.795
REMARK  Name = *****
REMARK                            x       y       z     vdW  Elec       q    Type
REMARK                         _______ _______ _______ _____ _____    ______ ____
ROOT
ATOM      1  C   LIG    1       24.729 -21.293   4.081  0.00  0.00    +0.019 C 
ATOM      2  C   LIG    1       24.314 -19.746   4.306  0.00  0.00    +0.033 C 
ATOM      3  C   LIG    1       22.772 -20.435   4.462  0.00  0.00    +0.140 C 
ATOM      4  O   LIG    1       22.375 -21.572   4.075  0.00  0.00    -0.297 OA
ATOM      5  C   LIG    1       21.745 -19.653   5.195  0.00  0.00    +0.075 C 
ATOM      6  C   LIG    1       22.349 -18.304   5.189  0.00  0.00    +0.016 C 
ATOM      7  C   LIG    1       23.385 -18.377   4.065  0.00  0.00    +0.029 C 
ATOM      8  C   LIG    1       24.011 -16.953   3.919  0.00  0.00    -0.062 C 
ATOM      9  C   LIG    1       25.350 -16.836   3.239  0.00  0.00    +0.045 C 
ATOM     10  C   LIG    1       26.156 -15.623   3.715  0.00  0.00    -0.037 A 
ATOM     11  C   LIG    1       25.473 -14.398   3.798  0.00  0.00    -0.036 A 
ATOM     12  C   LIG    1       23.967 -14.431   3.690  0.00  0.00    +0.062 C 
ATOM     13  C   LIG    1       26.195 -13.211   3.980  0.00  0.00    +0.049 A 
ATOM     14  C   LIG    1       27.566 -13.267   4.217  0.00  0.00    +0.117 A 
ATOM     15  C   LIG    1       28.224 -14.486   4.301  0.00  0.00    +0.045 A 
ATOM     16  C   LIG    1       27.525 -15.657   4.025  0.00  0.00    +0.008 A 
ATOM     17  C   LIG    1       26.135 -18.110   3.342  0.00  0.00    +0.013 C 
ATOM     18  C   LIG    1       23.384 -15.768   4.155  0.00  0.00    -0.022 C 
ATOM     19  C   LIG    1       25.323 -19.372   3.123  0.00  0.00    +0.015 C 
ENDROOT
BRANCH  14  20
ATOM     20  O   LIG    1       28.253 -12.099   4.371  0.00  0.00    -0.507 OA
ATOM     21  H   LIG    1       28.145 -11.576   3.558  0.00  0.00    +0.292 HD
ENDBRANCH  14  20
TORSDOF 1
ENDMDL
MODEL 3
REMARK VINA RESULT:      -3.2      1.189      6.393
REMARK  Name = *****
REMARK                            x       y       z     vdW  Elec       q    Type
REMARK                         _______ _______ _______ _____ _____    ______ ____
ROOT
ATOM      1  C   LIG    1       21.145 -19.525   4.436  0.00  0.00    +0.019 C 
ATOM      2  C   LIG    1       22.595 -18.987   3.966  0.00  0.00    +0.033 C 
ATOM      3  C   LIG    1       22.999 -20.621   4.172  0.00  0.00    +0.140 C 
ATOM      4  O   LIG    1       22.384 -21.508   4.831  0.00  0.00    -0.297 OA
ATOM      5  C   LIG    1       24.195 -21.125   3.450  0.00  0.00    +0.075 C 
ATOM      6  C   LIG    1       24.877 -19.861   3.100  0.00  0.00    +0.016 C 
ATOM      7  C   LIG    1       24.258 -18.840   4.057  0.00  0.00    +0.029 C 
ATOM      8  C   LIG    1       24.996 -17.483   3.825  0.00  0.00    -0.062 C 
ATOM      9  C   LIG    1       24.307 -16.219   4.271  0.00  0.00    +0.045 C 
ATOM     10  C   LIG    1       24.723 -14.993   3.453  0.00  0.00    -0.037 A 
ATOM     11  C   LIG    1       26.099 -14.818   3.224  0.00  0.00    -0.036 A 
ATOM     12  C   LIG    1       27.012 -15.976   3.549  0.00  0.00    +0.062 C 
ATOM     13  C   LIG    1       26.568 -13.603   2.707  0.00  0.00    +0.049 A 
ATOM     14  C   LIG    1       25.659 -12.632   2.294  0.00  0.00    +0.117 A 
ATOM     15  C   LIG    1       24.292 -12.862   2.363  0.00  0.00    +0.045 A 
ATOM     16  C   LIG    1       23.828 -14.028   2.965  0.00  0.00    +0.008 A 
ATOM     17  C   LIG    1       22.817 -16.389   4.315  0.00  0.00    +0.013 C 
ATOM     18  C   LIG    1       26.294 -17.323   3.448  0.00  0.00    -0.022 C 
ATOM     19  C   LIG    1       22.349 -17.708   4.895  0.00  0.00    +0.015 C 
ENDROOT
BRANCH  14  20
ATOM     20  O   LIG    1       26.137 -11.449   1.813  0.00  0.00    -0.507 OA
ATOM     21  H   LIG    1       25.396 -10.967   1.406  0.00  0.00    +0.292 HD
ENDBRANCH  14  20
TORSDOF 1
ENDMDL
MODEL 4
REMARK VINA RESULT:      -1.9      1.030      2.758
REMARK  Name = *****
REMARK                            x       y       z     vdW  Elec       q    Type
REMARK                         _______ _______ _______ _____ _____    ______ ____
ROOT
ATOM      1  C   LIG    1       27.661 -14.000   2.070  0.00  0.00    +0.019 C 
ATOM      2  C   LIG    1       26.166 -14.389   2.548  0.00  0.00    +0.033 C 
ATOM      3  C   LIG    1       25.991 -12.702   2.557  0.00  0.00    +0.140 C 
ATOM      4  O   LIG    1       26.894 -11.817   2.587  0.00  0.00    -0.297 OA
ATOM      5  C   LIG    1       24.613 -12.157   2.461  0.00  0.00    +0.075 C 
ATOM      6  C   LIG    1       23.807 -13.347   2.806  0.00  0.00    +0.016 C 
ATOM      7  C   LIG    1       24.805 -14.268   3.510  0.00  0.00    +0.029 C 
ATOM      8  C   LIG    1       24.010 -15.520   4.003  0.00  0.00    -0.062 C 
ATOM      9  C   LIG    1       24.786 -16.776   4.303  0.00  0.00    +0.045 C 
ATOM     10  C   LIG    1       23.956 -18.049   4.116  0.00  0.00    -0.037 A 
ATOM     11  C   LIG    1       22.665 -18.053   4.673  0.00  0.00    -0.036 A 
ATOM     12  C   LIG    1       22.107 -16.734   5.150  0.00  0.00    +0.062 C 
ATOM     13  C   LIG    1       21.950 -19.256   4.760  0.00  0.00    +0.049 A 
ATOM     14  C   LIG    1       22.465 -20.408   4.170  0.00  0.00    +0.117 A 
ATOM     15  C   LIG    1       23.664 -20.376   3.473  0.00  0.00    +0.045 A 
ATOM     16  C   LIG    1       24.418 -19.206   3.469  0.00  0.00    +0.008 A 
ATOM     17  C   LIG    1       26.074 -16.825   3.536  0.00  0.00    +0.013 C 
ATOM     18  C   LIG    1       22.707 -15.547   4.394  0.00  0.00    -0.022 C 
ATOM     19  C   LIG    1       26.826 -15.510   3.478  0.00  0.00    +0.015 C 
ENDROOT
BRANCH  14  20
ATOM     20  O   LIG    1       21.763 -21.572   4.284  0.00  0.00    -0.507 OA
ATOM     21  H   LIG    1       20.819 -21.367   4.171  0.00  0.00    +0.292 HD
ENDBRANCH  14  20
TORSDOF 1
ENDMDL
