MODEL 1
REMARK VINA RESULT:      -4.8      0.000      0.000
REMARK  Name = *****
REMARK                            x       y       z     vdW  Elec       q    Type
REMARK                         _______ _______ _______ _____ _____    ______ ____
ROOT
ATOM      1  C   LIG    1       25.961 -20.573   6.868  0.00  0.00    +0.105 C 
ATOM      2  N   LIG    1       26.608 -20.670   5.567  0.00  0.00    -0.299 NA
ATOM      3  C   LIG    1       25.690 -20.725   4.419  0.00  0.00    +0.119 C 
ATOM      4  C   LIG    1       24.472 -19.809   4.442  0.00  0.00    -0.027 A 
ATOM      5  C   LIG    1       24.451 -18.476   3.961  0.00  0.00    -0.010 A 
ATOM      6  C   LIG    1       23.203 -17.803   3.939  0.00  0.00    +0.007 A 
ATOM      7  C   LIG    1       22.038 -18.379   4.446  0.00  0.00    +0.000 A 
ATOM      8  C   LIG    1       22.075 -19.662   4.962  0.00  0.00    +0.000 A 
ATOM      9  C   LIG    1       25.659 -17.762   3.336  0.00  0.00    +0.179 C 
ATOM     10  O   LIG    1       26.939 -18.325   3.622  0.00  0.00    -0.366 OA
ATOM     11  C   LIG    1       27.326 -18.304   4.994  0.00  0.00    +0.176 C 
ATOM     12  C   LIG    1       23.275 -20.370   4.949  0.00  0.00    +0.005 A 
ATOM     13  C   LIG    1       27.720 -19.724   5.403  0.00  0.00    +0.112 C 
ENDROOT
BRANCH   9  14
ATOM     14  C   LIG    1       25.758 -16.240   3.479  0.00  0.00    -0.015 A 
ATOM     15  C   LIG    1       24.653 -15.431   3.799  0.00  0.00    +0.006 A 
ATOM     16  C   LIG    1       24.796 -14.050   3.947  0.00  0.00    +0.000 A 
ATOM     17  C   LIG    1       26.045 -13.455   3.791  0.00  0.00    +0.000 A 
ATOM     18  C   LIG    1       27.155 -14.241   3.493  0.00  0.00    +0.000 A 
ATOM     19  C   LIG    1       27.014 -15.622   3.344  0.00  0.00    +0.006 A 
ENDBRANCH   9  14
TORSDOF 1
ENDMDL
MODEL 2
REMARK VINA RESULT:      -2.7      0.951      1.592
REMARK  Name = *****
REMARK                            x       y       z     vdW  Elec       q    Type
REMARK                         _______ _______ _______ _____ _____    ______ ____
ROOT
ATOM      1  C   LIG    1       25.293 -20.306   6.187  0.00  0.00    +0.105 C 
ATOM      2  N   LIG    1       25.863 -20.293   4.847  0.00  0.00    -0.299 NA
ATOM      3  C   LIG    1       24.936 -19.884   3.781  0.00  0.00    +0.119 C 
ATOM      4  C   LIG    1       23.996 -18.719   4.069  0.00  0.00    -0.027 A 
ATOM      5  C   LIG    1       24.309 -17.353   3.855  0.00  0.00    -0.010 A 
ATOM      6  C   LIG    1       23.276 -16.402   4.054  0.00  0.00    +0.007 A 
ATOM      7  C   LIG    1       22.014 -16.761   4.526  0.00  0.00    +0.000 A 
ATOM      8  C   LIG    1       21.731 -18.091   4.784  0.00  0.00    +0.000 A 
ATOM      9  C   LIG    1       25.645 -16.849   3.289  0.00  0.00    +0.179 C 
ATOM     10  O   LIG    1       26.743 -17.758   3.367  0.00  0.00    -0.366 OA
ATOM     11  C   LIG    1       27.154 -18.114   4.686  0.00  0.00    +0.176 C 
ATOM     12  C   LIG    1       22.706 -19.057   4.546  0.00  0.00    +0.005 A 
ATOM     13  C   LIG    1       27.177 -19.640   4.785  0.00  0.00    +0.112 C 
ENDROOT
BRANCH   9  14
ATOM     14  C   LIG    1       26.137 -15.461   3.714  0.00  0.00    -0.015 A 
ATOM     15  C   LIG    1       27.480 -15.061   3.599  0.00  0.00    +0.006 A 
ATOM     16  C   LIG    1       27.878 -13.775   3.973  0.00  0.00    +0.000 A 
ATOM     17  C   LIG    1       26.941 -12.865   4.455  0.00  0.00    +0.000 A 
ATOM     18  C   LIG    1       25.603 -13.237   4.558  0.00  0.00    +0.000 A 
ATOM     19  C   LIG    1       25.204 -14.522   4.185  0.00  0.00    +0.006 A 
ENDBRANCH   9  14
TORSDOF 1
ENDMDL
