MODEL 1
REMARK VINA RESULT:      13.7      0.000      0.000
REMARK  Name = *****
REMARK                            x       y       z     vdW  Elec       q    Type
REMARK                         _______ _______ _______ _____ _____    ______ ____
ROOT
ATOM      1  C   LIG    1       26.837 -13.313   3.152  0.00  0.00    +0.176 C 
ATOM      2  C   LIG    1       26.075 -14.215   4.205  0.00  0.00    +0.018 C 
ATOM      3  C   LIG    1       26.168 -13.646   5.633  0.00  0.00    +0.016 C 
ATOM      4  C   LIG    1       26.786 -15.582   4.086  0.00  0.00    +0.007 C 
ATOM      5  C   LIG    1       26.064 -16.770   4.784  0.00  0.00    +0.021 C 
ATOM      6  C   LIG    1       24.509 -16.824   4.727  0.00  0.00    +0.007 C 
ATOM      7  C   LIG    1       23.838 -15.442   4.625  0.00  0.00    +0.006 C 
ATOM      8  C   LIG    1       23.895 -17.964   3.820  0.00  0.00    +0.001 C 
ATOM      9  C   LIG    1       24.145 -17.764   2.306  0.00  0.00    +0.017 C 
ATOM     10  C   LIG    1       24.570 -19.297   4.217  0.00  0.00    -0.020 C 
ATOM     11  C   LIG    1       23.882 -20.421   4.510  0.00  0.00    +0.052 C 
ATOM     12  C   LIG    1       22.408 -20.508   4.520  0.00  0.00    +0.160 C 
ATOM     13  O   LIG    1       21.828 -21.561   4.751  0.00  0.00    -0.292 OA
ATOM     14  C   LIG    1       21.651 -19.265   4.279  0.00  0.00    +0.064 C 
ATOM     15  C   LIG    1       21.679 -18.168   5.316  0.00  0.00    +0.016 C 
ATOM     16  C   LIG    1       26.031 -19.249   4.286  0.00  0.00    +0.041 C 
ATOM     17 CL   LIG    1       26.949 -20.700   4.019  0.00  0.00    -0.084 Cl
ATOM     18  C   LIG    1       22.366 -17.974   3.985  0.00  0.00    +0.011 C 
ATOM     19  C   LIG    1       26.704 -18.109   4.510  0.00  0.00    -0.003 C 
ATOM     20  C   LIG    1       27.115 -15.710   2.590  0.00  0.00    +0.009 C 
ATOM     21  C   LIG    1       24.583 -14.389   3.817  0.00  0.00    +0.011 C 
ATOM     22  C   LIG    1       27.020 -14.303   1.979  0.00  0.00    +0.057 C 
ENDROOT
BRANCH   1  23
ATOM     23  C   LIG    1       28.234 -12.821   3.660  0.00  0.00    +0.174 C 
ATOM     24  O   LIG    1       29.269 -13.023   3.019  0.00  0.00    -0.293 OA
ATOM     25  C   LIG    1       28.316 -12.130   5.009  0.00  0.00    +0.090 C 
ENDBRANCH   1  23
BRANCH   1  26
ATOM     26  O   LIG    1       25.987 -12.199   2.790  0.00  0.00    -0.450 OA
BRANCH  26  28
ATOM     27  C   LIG    1       23.825 -11.533   3.483  0.00  0.00    +0.136 C 
ATOM     28  C   LIG    1       24.655 -12.434   2.614  0.00  0.00    +0.305 C 
ATOM     29  O   LIG    1       24.181 -13.216   1.812  0.00  0.00    -0.251 OA
ENDBRANCH  26  28
ENDBRANCH   1  26
TORSDOF 3
ENDMDL
MODEL 2
REMARK VINA RESULT:      15.9      2.495      7.311
REMARK  Name = *****
REMARK                            x       y       z     vdW  Elec       q    Type
REMARK                         _______ _______ _______ _____ _____    ______ ____
ROOT
ATOM      1  C   LIG    1       22.369 -18.995   3.226  0.00  0.00    +0.176 C 
ATOM      2  C   LIG    1       23.505 -18.320   4.096  0.00  0.00    +0.018 C 
ATOM      3  C   LIG    1       23.772 -19.089   5.403  0.00  0.00    +0.016 C 
ATOM      4  C   LIG    1       22.953 -16.902   4.367  0.00  0.00    +0.007 C 
ATOM      5  C   LIG    1       23.980 -15.889   4.949  0.00  0.00    +0.021 C 
ATOM      6  C   LIG    1       25.445 -15.940   4.424  0.00  0.00    +0.007 C 
ATOM      7  C   LIG    1       25.892 -17.336   3.953  0.00  0.00    +0.006 C 
ATOM      8  C   LIG    1       25.891 -14.724   3.517  0.00  0.00    +0.001 C 
ATOM      9  C   LIG    1       25.186 -14.675   2.141  0.00  0.00    +0.017 C 
ATOM     10  C   LIG    1       25.522 -13.421   4.262  0.00  0.00    -0.020 C 
ATOM     11  C   LIG    1       26.389 -12.407   4.462  0.00  0.00    +0.052 C 
ATOM     12  C   LIG    1       27.801 -12.430   4.029  0.00  0.00    +0.160 C 
ATOM     13  O   LIG    1       28.541 -11.469   4.197  0.00  0.00    -0.292 OA
ATOM     14  C   LIG    1       28.306 -13.674   3.418  0.00  0.00    +0.064 C 
ATOM     15  C   LIG    1       28.458 -14.910   4.273  0.00  0.00    +0.016 C 
ATOM     16  C   LIG    1       24.150 -13.372   4.769  0.00  0.00    +0.041 C 
ATOM     17 CL   LIG    1       23.367 -11.834   4.976  0.00  0.00    -0.084 Cl
ATOM     18  C   LIG    1       27.392 -14.851   3.204  0.00  0.00    +0.011 C 
ATOM     19  C   LIG    1       23.446 -14.480   5.049  0.00  0.00    -0.003 C 
ATOM     20  C   LIG    1       22.216 -16.527   3.073  0.00  0.00    +0.009 C 
ATOM     21  C   LIG    1       24.826 -18.198   3.292  0.00  0.00    +0.011 C 
ATOM     22  C   LIG    1       21.964 -17.829   2.296  0.00  0.00    +0.057 C 
ENDROOT
BRANCH   1  23
ATOM     23  C   LIG    1       21.137 -19.455   4.076  0.00  0.00    +0.174 C 
ATOM     24  O   LIG    1       21.251 -20.255   5.009  0.00  0.00    -0.293 OA
ATOM     25  C   LIG    1       19.759 -18.945   3.696  0.00  0.00    +0.090 C 
ENDBRANCH   1  23
BRANCH   1  26
ATOM     26  O   LIG    1       22.941 -20.100   2.488  0.00  0.00    -0.450 OA
BRANCH  26  28
ATOM     27  C   LIG    1       23.824 -21.571   4.117  0.00  0.00    +0.136 C 
ATOM     28  C   LIG    1       24.094 -20.660   2.954  0.00  0.00    +0.305 C 
ATOM     29  O   LIG    1       25.195 -20.509   2.461  0.00  0.00    -0.251 OA
ENDBRANCH  26  28
ENDBRANCH   1  26
TORSDOF 3
ENDMDL
MODEL 3
REMARK VINA RESULT:      16.4      1.864      6.898
REMARK  Name = *****
REMARK                            x       y       z     vdW  Elec       q    Type
REMARK                         _______ _______ _______ _____ _____    ______ ____
ROOT
ATOM      1  C   LIG    1       22.190 -19.328   4.707  0.00  0.00    +0.176 C 
ATOM      2  C   LIG    1       23.050 -18.515   3.657  0.00  0.00    +0.018 C 
ATOM      3  C   LIG    1       22.820 -19.002   2.215  0.00  0.00    +0.016 C 
ATOM      4  C   LIG    1       24.504 -18.760   4.120  0.00  0.00    +0.007 C 
ATOM      5  C   LIG    1       25.575 -17.843   3.462  0.00  0.00    +0.021 C 
ATOM      6  C   LIG    1       25.207 -16.354   3.195  0.00  0.00    +0.007 C 
ATOM      7  C   LIG    1       23.705 -16.115   2.953  0.00  0.00    +0.006 C 
ATOM      8  C   LIG    1       25.943 -15.291   4.106  0.00  0.00    +0.001 C 
ATOM      9  C   LIG    1       25.519 -15.339   5.593  0.00  0.00    +0.017 C 
ATOM     10  C   LIG    1       27.457 -15.597   4.056  0.00  0.00    -0.020 C 
ATOM     11  C   LIG    1       28.395 -14.665   3.789  0.00  0.00    +0.052 C 
ATOM     12  C   LIG    1       28.093 -13.253   3.479  0.00  0.00    +0.160 C 
ATOM     13  O   LIG    1       28.981 -12.433   3.284  0.00  0.00    -0.292 OA
ATOM     14  C   LIG    1       26.672 -12.868   3.373  0.00  0.00    +0.064 C 
ATOM     15  C   LIG    1       25.849 -13.388   2.218  0.00  0.00    +0.016 C 
ATOM     16  C   LIG    1       27.809 -16.998   4.293  0.00  0.00    +0.041 C 
ATOM     17 CL   LIG    1       29.368 -17.389   4.954  0.00  0.00    -0.084 Cl
ATOM     18  C   LIG    1       25.583 -13.876   3.623  0.00  0.00    +0.011 C 
ATOM     19  C   LIG    1       26.953 -18.005   4.055  0.00  0.00    -0.003 C 
ATOM     20  C   LIG    1       24.415 -18.789   5.653  0.00  0.00    +0.009 C 
ATOM     21  C   LIG    1       22.746 -16.996   3.741  0.00  0.00    +0.011 C 
ATOM     22  C   LIG    1       22.941 -19.016   6.021  0.00  0.00    +0.057 C 
ENDROOT
BRANCH   1  23
ATOM     23  C   LIG    1       22.192 -20.871   4.441  0.00  0.00    +0.174 C 
ATOM     24  O   LIG    1       21.200 -21.571   4.662  0.00  0.00    -0.293 OA
ATOM     25  C   LIG    1       23.473 -21.524   3.956  0.00  0.00    +0.090 C 
ENDBRANCH   1  23
BRANCH   1  26
ATOM     26  O   LIG    1       20.843 -18.798   4.717  0.00  0.00    -0.450 OA
BRANCH  26  28
ATOM     27  C   LIG    1       19.640 -17.845   2.917  0.00  0.00    +0.136 C 
ATOM     28  C   LIG    1       20.027 -19.089   3.664  0.00  0.00    +0.305 C 
ATOM     29  O   LIG    1       19.702 -20.208   3.318  0.00  0.00    -0.251 OA
ENDBRANCH  26  28
ENDBRANCH   1  26
TORSDOF 3
ENDMDL
