MODEL 1
REMARK VINA RESULT:      -8.9      0.000      0.000
REMARK  Name = *****
REMARK                            x       y       z     vdW  Elec       q    Type
REMARK                         _______ _______ _______ _____ _____    ______ ____
ROOT
ATOM      1  C   LIG    1       31.072 -21.073   8.717  0.00  0.00    +0.124 A 
ATOM      2  C   LIG    1       29.783 -21.574   8.589  0.00  0.00    +0.091 A 
ATOM      3  C   LIG    1       28.923 -21.040   7.630  0.00  0.00    +0.132 A 
ATOM      4  O   LIG    1       27.673 -21.595   7.580  0.00  0.00    -0.481 OA
ATOM      5  C   LIG    1       26.695 -20.831   6.858  0.00  0.00    +0.232 C 
ATOM      6  C   LIG    1       27.231 -20.365   5.488  0.00  0.00    +0.164 C 
ATOM      7  C   LIG    1       28.444 -19.463   5.722  0.00  0.00    +0.078 C 
ATOM      8  C   LIG    1       29.358 -20.023   6.773  0.00  0.00    +0.038 A 
ATOM      9  C   LIG    1       30.657 -19.525   6.933  0.00  0.00    +0.127 A 
ATOM     10  C   LIG    1       31.522 -20.043   7.898  0.00  0.00    +0.091 A 
ENDROOT
BRANCH   5  11
ATOM     11  C   LIG    1       25.438 -21.687   6.810  0.00  0.00    -0.001 A 
ATOM     12  C   LIG    1       25.474 -23.055   6.495  0.00  0.00    +0.056 A 
ATOM     13  C   LIG    1       24.299 -23.796   6.495  0.00  0.00    +0.159 A 
ATOM     14  C   LIG    1       23.079 -23.207   6.814  0.00  0.00    +0.158 A 
ATOM     15  C   LIG    1       23.019 -21.861   7.144  0.00  0.00    +0.049 A 
ATOM     16  C   LIG    1       24.197 -21.107   7.147  0.00  0.00    +0.011 A 
BRANCH  13  17
ATOM     17  O   LIG    1       24.351 -25.125   6.182  0.00  0.00    -0.503 OA
ATOM     18  H   LIG    1       24.978 -25.174   5.434  0.00  0.00    +0.292 HD
ENDBRANCH  13  17
BRANCH  14  19
ATOM     19  O   LIG    1       21.964 -23.999   6.795  0.00  0.00    -0.503 OA
ATOM     20  H   LIG    1       21.281 -23.543   6.274  0.00  0.00    +0.292 HD
ENDBRANCH  14  19
ENDBRANCH   5  11
BRANCH   1  21
ATOM     21  O   LIG    1       31.875 -21.622   9.675  0.00  0.00    -0.506 OA
ATOM     22  H   LIG    1       32.204 -20.918  10.257  0.00  0.00    +0.292 HD
ENDBRANCH   1  21
BRANCH   6  23
ATOM     23  O   LIG    1       26.260 -19.638   4.726  0.00  0.00    -0.388 OA
ATOM     24  H   LIG    1       26.022 -18.833   5.219  0.00  0.00    +0.210 HD
ENDBRANCH   6  23
BRANCH   9  25
ATOM     25  O   LIG    1       31.068 -18.509   6.116  0.00  0.00    -0.506 OA
ATOM     26  H   LIG    1       30.485 -17.741   6.240  0.00  0.00    +0.292 HD
ENDBRANCH   9  25
TORSDOF 6
ENDMDL
MODEL 2
REMARK VINA RESULT:      -8.4      1.595      6.848
REMARK  Name = *****
REMARK                            x       y       z     vdW  Elec       q    Type
REMARK                         _______ _______ _______ _____ _____    ______ ____
ROOT
ATOM      1  C   LIG    1       25.074 -25.999   5.770  0.00  0.00    +0.124 A 
ATOM      2  C   LIG    1       26.154 -25.186   6.088  0.00  0.00    +0.091 A 
ATOM      3  C   LIG    1       25.935 -23.931   6.656  0.00  0.00    +0.132 A 
ATOM      4  O   LIG    1       27.059 -23.201   6.933  0.00  0.00    -0.481 OA
ATOM      5  C   LIG    1       26.834 -21.805   7.181  0.00  0.00    +0.232 C 
ATOM      6  C   LIG    1       25.678 -21.581   8.179  0.00  0.00    +0.164 C 
ATOM      7  C   LIG    1       24.397 -22.158   7.575  0.00  0.00    +0.078 C 
ATOM      8  C   LIG    1       24.635 -23.497   6.939  0.00  0.00    +0.038 A 
ATOM      9  C   LIG    1       23.563 -24.329   6.595  0.00  0.00    +0.127 A 
ATOM     10  C   LIG    1       23.770 -25.580   6.013  0.00  0.00    +0.091 A 
ENDROOT
BRANCH   5  11
ATOM     11  C   LIG    1       28.177 -21.225   7.598  0.00  0.00    -0.001 A 
ATOM     12  C   LIG    1       29.019 -21.869   8.519  0.00  0.00    +0.056 A 
ATOM     13  C   LIG    1       30.249 -21.309   8.841  0.00  0.00    +0.159 A 
ATOM     14  C   LIG    1       30.672 -20.119   8.256  0.00  0.00    +0.158 A 
ATOM     15  C   LIG    1       29.866 -19.472   7.330  0.00  0.00    +0.049 A 
ATOM     16  C   LIG    1       28.625 -20.029   6.999  0.00  0.00    +0.011 A 
BRANCH  13  17
ATOM     17  O   LIG    1       31.054 -21.947   9.743  0.00  0.00    -0.503 OA
ATOM     18  H   LIG    1       31.020 -21.381  10.540  0.00  0.00    +0.292 HD
ENDBRANCH  13  17
BRANCH  14  19
ATOM     19  O   LIG    1       31.895 -19.630   8.620  0.00  0.00    -0.503 OA
ATOM     20  H   LIG    1       32.572 -20.102   8.106  0.00  0.00    +0.292 HD
ENDBRANCH  14  19
ENDBRANCH   5  11
BRANCH   1  21
ATOM     21  O   LIG    1       25.338 -27.214   5.207  0.00  0.00    -0.506 OA
ATOM     22  H   LIG    1       25.778 -27.081   4.352  0.00  0.00    +0.292 HD
ENDBRANCH   1  21
BRANCH   6  23
ATOM     23  O   LIG    1       25.460 -20.198   8.480  0.00  0.00    -0.388 OA
ATOM     24  H   LIG    1       25.282 -20.114   9.433  0.00  0.00    +0.210 HD
ENDBRANCH   6  23
BRANCH   9  25
ATOM     25  O   LIG    1       22.293 -23.887   6.842  0.00  0.00    -0.506 OA
ATOM     26  H   LIG    1       22.102 -23.973   7.791  0.00  0.00    +0.292 HD
ENDBRANCH   9  25
TORSDOF 6
ENDMDL
MODEL 3
REMARK VINA RESULT:      -8.2      1.755      6.698
REMARK  Name = *****
REMARK                            x       y       z     vdW  Elec       q    Type
REMARK                         _______ _______ _______ _____ _____    ______ ____
ROOT
ATOM      1  C   LIG    1       23.776 -21.820   6.548  0.00  0.00    +0.124 A 
ATOM      2  C   LIG    1       24.951 -21.474   7.203  0.00  0.00    +0.091 A 
ATOM      3  C   LIG    1       25.937 -20.758   6.526  0.00  0.00    +0.132 A 
ATOM      4  O   LIG    1       27.061 -20.465   7.250  0.00  0.00    -0.481 OA
ATOM      5  C   LIG    1       28.195 -20.050   6.475  0.00  0.00    +0.232 C 
ATOM      6  C   LIG    1       27.817 -18.970   5.440  0.00  0.00    +0.164 C 
ATOM      7  C   LIG    1       26.788 -19.561   4.476  0.00  0.00    +0.078 C 
ATOM      8  C   LIG    1       25.739 -20.355   5.200  0.00  0.00    +0.038 A 
ATOM      9  C   LIG    1       24.552 -20.729   4.558  0.00  0.00    +0.127 A 
ATOM     10  C   LIG    1       23.565 -21.458   5.222  0.00  0.00    +0.091 A 
ENDROOT
BRANCH   5  11
ATOM     11  C   LIG    1       29.269 -19.647   7.476  0.00  0.00    -0.001 A 
ATOM     12  C   LIG    1       30.234 -20.553   7.946  0.00  0.00    +0.056 A 
ATOM     13  C   LIG    1       31.210 -20.123   8.836  0.00  0.00    +0.159 A 
ATOM     14  C   LIG    1       31.258 -18.800   9.265  0.00  0.00    +0.158 A 
ATOM     15  C   LIG    1       30.327 -17.882   8.802  0.00  0.00    +0.049 A 
ATOM     16  C   LIG    1       29.340 -18.305   7.905  0.00  0.00    +0.011 A 
BRANCH  13  17
ATOM     17  O   LIG    1       32.138 -21.018   9.288  0.00  0.00    -0.503 OA
ATOM     18  H   LIG    1       32.656 -20.518   9.950  0.00  0.00    +0.292 HD
ENDBRANCH  13  17
BRANCH  14  19
ATOM     19  O   LIG    1       32.249 -18.449  10.140  0.00  0.00    -0.503 OA
ATOM     20  H   LIG    1       33.064 -18.906   9.868  0.00  0.00    +0.292 HD
ENDBRANCH  14  19
ENDBRANCH   5  11
BRANCH   1  21
ATOM     21  O   LIG    1       22.844 -22.528   7.249  0.00  0.00    -0.506 OA
ATOM     22  H   LIG    1       22.326 -21.918   7.799  0.00  0.00    +0.292 HD
ENDBRANCH   1  21
BRANCH   6  23
ATOM     23  O   LIG    1       28.940 -18.504   4.683  0.00  0.00    -0.388 OA
ATOM     24  H   LIG    1       29.746 -18.645   5.209  0.00  0.00    +0.210 HD
ENDBRANCH   6  23
BRANCH   9  25
ATOM     25  O   LIG    1       24.376 -20.363   3.253  0.00  0.00    -0.506 OA
ATOM     26  H   LIG    1       23.898 -21.067   2.784  0.00  0.00    +0.292 HD
ENDBRANCH   9  25
TORSDOF 6
ENDMDL
MODEL 4
REMARK VINA RESULT:      -7.9      1.601      1.692
REMARK  Name = *****
REMARK                            x       y       z     vdW  Elec       q    Type
REMARK                         _______ _______ _______ _____ _____    ______ ____
ROOT
ATOM      1  C   LIG    1       30.795 -21.538   9.122  0.00  0.00    +0.124 A 
ATOM      2  C   LIG    1       29.476 -21.679   8.712  0.00  0.00    +0.091 A 
ATOM      3  C   LIG    1       28.975 -20.868   7.695  0.00  0.00    +0.132 A 
ATOM      4  O   LIG    1       27.664 -21.076   7.361  0.00  0.00    -0.481 OA
ATOM      5  C   LIG    1       27.059 -20.032   6.583  0.00  0.00    +0.232 C 
ATOM      6  C   LIG    1       27.951 -19.615   5.395  0.00  0.00    +0.164 C 
ATOM      7  C   LIG    1       29.273 -19.077   5.945  0.00  0.00    +0.078 C 
ATOM      8  C   LIG    1       29.801 -19.934   7.059  0.00  0.00    +0.038 A 
ATOM      9  C   LIG    1       31.123 -19.802   7.500  0.00  0.00    +0.127 A 
ATOM     10  C   LIG    1       31.630 -20.598   8.528  0.00  0.00    +0.091 A 
ENDROOT
BRANCH   5  11
ATOM     11  C   LIG    1       25.669 -20.528   6.213  0.00  0.00    -0.001 A 
ATOM     12  C   LIG    1       25.334 -20.911   4.904  0.00  0.00    +0.056 A 
ATOM     13  C   LIG    1       24.058 -21.386   4.628  0.00  0.00    +0.159 A 
ATOM     14  C   LIG    1       23.101 -21.501   5.632  0.00  0.00    +0.158 A 
ATOM     15  C   LIG    1       23.413 -21.146   6.936  0.00  0.00    +0.049 A 
ATOM     16  C   LIG    1       24.696 -20.666   7.224  0.00  0.00    +0.011 A 
BRANCH  13  17
ATOM     17  O   LIG    1       23.747 -21.750   3.348  0.00  0.00    -0.503 OA
ATOM     18  H   LIG    1       23.139 -21.049   3.037  0.00  0.00    +0.292 HD
ENDBRANCH  13  17
BRANCH  14  19
ATOM     19  O   LIG    1       21.868 -21.978   5.286  0.00  0.00    -0.503 OA
ATOM     20  H   LIG    1       21.997 -22.773   4.740  0.00  0.00    +0.292 HD
ENDBRANCH  14  19
ENDBRANCH   5  11
BRANCH   1  21
ATOM     21  O   LIG    1       31.238 -22.348  10.127  0.00  0.00    -0.506 OA
ATOM     22  H   LIG    1       30.864 -22.044  10.970  0.00  0.00    +0.292 HD
ENDBRANCH   1  21
BRANCH   6  23
ATOM     23  O   LIG    1       27.352 -18.605   4.574  0.00  0.00    -0.388 OA
ATOM     24  H   LIG    1       27.709 -17.740   4.840  0.00  0.00    +0.210 HD
ENDBRANCH   6  23
BRANCH   9  25
ATOM     25  O   LIG    1       31.918 -18.865   6.900  0.00  0.00    -0.506 OA
ATOM     26  H   LIG    1       32.355 -18.329   7.583  0.00  0.00    +0.292 HD
ENDBRANCH   9  25
TORSDOF 6
ENDMDL
MODEL 5
REMARK VINA RESULT:      -7.7      1.910      7.310
REMARK  Name = *****
REMARK                            x       y       z     vdW  Elec       q    Type
REMARK                         _______ _______ _______ _____ _____    ______ ____
ROOT
ATOM      1  C   LIG    1       22.279 -19.642   4.571  0.00  0.00    +0.124 A 
ATOM      2  C   LIG    1       23.615 -19.447   4.895  0.00  0.00    +0.091 A 
ATOM      3  C   LIG    1       24.312 -20.433   5.591  0.00  0.00    +0.132 A 
ATOM      4  O   LIG    1       25.622 -20.152   5.868  0.00  0.00    -0.481 OA
ATOM      5  C   LIG    1       26.227 -20.986   6.866  0.00  0.00    +0.232 C 
ATOM      6  C   LIG    1       25.948 -22.482   6.607  0.00  0.00    +0.164 C 
ATOM      7  C   LIG    1       24.438 -22.711   6.666  0.00  0.00    +0.078 C 
ATOM      8  C   LIG    1       23.684 -21.635   5.939  0.00  0.00    +0.038 A 
ATOM      9  C   LIG    1       22.332 -21.801   5.614  0.00  0.00    +0.127 A 
ATOM     10  C   LIG    1       21.622 -20.814   4.930  0.00  0.00    +0.091 A 
ENDROOT
BRANCH   5  11
ATOM     11  C   LIG    1       27.698 -20.596   6.913  0.00  0.00    -0.001 A 
ATOM     12  C   LIG    1       28.233 -19.590   6.091  0.00  0.00    +0.056 A 
ATOM     13  C   LIG    1       29.576 -19.253   6.197  0.00  0.00    +0.159 A 
ATOM     14  C   LIG    1       30.407 -19.890   7.114  0.00  0.00    +0.158 A 
ATOM     15  C   LIG    1       29.898 -20.875   7.949  0.00  0.00    +0.049 A 
ATOM     16  C   LIG    1       28.546 -21.221   7.850  0.00  0.00    +0.011 A 
BRANCH  13  17
ATOM     17  O   LIG    1       30.082 -18.276   5.387  0.00  0.00    -0.503 OA
ATOM     18  H   LIG    1       30.694 -18.749   4.788  0.00  0.00    +0.292 HD
ENDBRANCH  13  17
BRANCH  14  19
ATOM     19  O   LIG    1       31.717 -19.503   7.163  0.00  0.00    -0.503 OA
ATOM     20  H   LIG    1       32.216 -20.057   6.538  0.00  0.00    +0.292 HD
ENDBRANCH  14  19
ENDBRANCH   5  11
BRANCH   1  21
ATOM     21  O   LIG    1       21.637 -18.644   3.896  0.00  0.00    -0.506 OA
ATOM     22  H   LIG    1       21.861 -17.790   4.300  0.00  0.00    +0.292 HD
ENDBRANCH   1  21
BRANCH   6  23
ATOM     23  O   LIG    1       26.579 -23.341   7.564  0.00  0.00    -0.388 OA
ATOM     24  H   LIG    1       27.539 -23.186   7.532  0.00  0.00    +0.210 HD
ENDBRANCH   6  23
BRANCH   9  25
ATOM     25  O   LIG    1       21.712 -22.962   5.985  0.00  0.00    -0.506 OA
ATOM     26  H   LIG    1       21.919 -23.657   5.338  0.00  0.00    +0.292 HD
ENDBRANCH   9  25
TORSDOF 6
ENDMDL
MODEL 6
REMARK VINA RESULT:      -7.7      1.911      6.918
REMARK  Name = *****
REMARK                            x       y       z     vdW  Elec       q    Type
REMARK                         _______ _______ _______ _____ _____    ______ ____
ROOT
ATOM      1  C   LIG    1       24.414 -20.399   3.484  0.00  0.00    +0.124 A 
ATOM      2  C   LIG    1       25.599 -20.178   4.173  0.00  0.00    +0.091 A 
ATOM      3  C   LIG    1       25.715 -20.585   5.502  0.00  0.00    +0.132 A 
ATOM      4  O   LIG    1       26.918 -20.324   6.100  0.00  0.00    -0.481 OA
ATOM      5  C   LIG    1       26.920 -20.416   7.532  0.00  0.00    +0.232 C 
ATOM      6  C   LIG    1       26.243 -21.713   8.023  0.00  0.00    +0.164 C 
ATOM      7  C   LIG    1       24.786 -21.706   7.561  0.00  0.00    +0.078 C 
ATOM      8  C   LIG    1       24.656 -21.243   6.139  0.00  0.00    +0.038 A 
ATOM      9  C   LIG    1       23.466 -21.439   5.426  0.00  0.00    +0.127 A 
ATOM     10  C   LIG    1       23.335 -21.024   4.101  0.00  0.00    +0.091 A 
ENDROOT
BRANCH   5  11
ATOM     11  C   LIG    1       28.365 -20.229   7.969  0.00  0.00    -0.001 A 
ATOM     12  C   LIG    1       29.271 -21.299   8.041  0.00  0.00    +0.056 A 
ATOM     13  C   LIG    1       30.588 -21.067   8.416  0.00  0.00    +0.159 A 
ATOM     14  C   LIG    1       31.034 -19.783   8.714  0.00  0.00    +0.158 A 
ATOM     15  C   LIG    1       30.163 -18.705   8.634  0.00  0.00    +0.049 A 
ATOM     16  C   LIG    1       28.835 -18.930   8.256  0.00  0.00    +0.011 A 
BRANCH  13  17
ATOM     17  O   LIG    1       31.456 -22.120   8.486  0.00  0.00    -0.503 OA
ATOM     18  H   LIG    1       31.055 -22.721   9.145  0.00  0.00    +0.292 HD
ENDBRANCH  13  17
BRANCH  14  19
ATOM     19  O   LIG    1       32.345 -19.630   9.074  0.00  0.00    -0.503 OA
ATOM     20  H   LIG    1       32.376 -19.481  10.034  0.00  0.00    +0.292 HD
ENDBRANCH  14  19
ENDBRANCH   5  11
BRANCH   1  21
ATOM     21  O   LIG    1       24.345 -19.976   2.188  0.00  0.00    -0.506 OA
ATOM     22  H   LIG    1       25.194 -19.577   1.937  0.00  0.00    +0.292 HD
ENDBRANCH   1  21
BRANCH   6  23
ATOM     23  O   LIG    1       26.271 -21.853   9.448  0.00  0.00    -0.388 OA
ATOM     24  H   LIG    1       26.049 -22.774   9.672  0.00  0.00    +0.210 HD
ENDBRANCH   6  23
BRANCH   9  25
ATOM     25  O   LIG    1       22.422 -22.053   6.061  0.00  0.00    -0.506 OA
ATOM     26  H   LIG    1       22.148 -22.831   5.549  0.00  0.00    +0.292 HD
ENDBRANCH   9  25
TORSDOF 6
ENDMDL
MODEL 7
REMARK VINA RESULT:      -7.5      2.548      7.255
REMARK  Name = *****
REMARK                            x       y       z     vdW  Elec       q    Type
REMARK                         _______ _______ _______ _____ _____    ______ ____
ROOT
ATOM      1  C   LIG    1       25.012 -21.263   7.629  0.00  0.00    +0.124 A 
ATOM      2  C   LIG    1       26.058 -20.677   8.329  0.00  0.00    +0.091 A 
ATOM      3  C   LIG    1       27.122 -20.102   7.635  0.00  0.00    +0.132 A 
ATOM      4  O   LIG    1       28.107 -19.552   8.410  0.00  0.00    -0.481 OA
ATOM      5  C   LIG    1       29.341 -19.284   7.727  0.00  0.00    +0.232 C 
ATOM      6  C   LIG    1       29.108 -18.547   6.391  0.00  0.00    +0.164 C 
ATOM      7  C   LIG    1       28.262 -19.442   5.485  0.00  0.00    +0.078 C 
ATOM      8  C   LIG    1       27.130 -20.083   6.236  0.00  0.00    +0.038 A 
ATOM      9  C   LIG    1       26.071 -20.694   5.553  0.00  0.00    +0.127 A 
ATOM     10  C   LIG    1       25.008 -21.284   6.238  0.00  0.00    +0.091 A 
ENDROOT
BRANCH   5  11
ATOM     11  C   LIG    1       30.230 -18.557   8.726  0.00  0.00    -0.001 A 
ATOM     12  C   LIG    1       31.226 -17.652   8.324  0.00  0.00    +0.056 A 
ATOM     13  C   LIG    1       31.989 -16.993   9.280  0.00  0.00    +0.159 A 
ATOM     14  C   LIG    1       31.777 -17.205  10.639  0.00  0.00    +0.158 A 
ATOM     15  C   LIG    1       30.788 -18.081  11.062  0.00  0.00    +0.049 A 
ATOM     16  C   LIG    1       30.014 -18.749  10.107  0.00  0.00    +0.011 A 
BRANCH  13  17
ATOM     17  O   LIG    1       32.956 -16.119   8.871  0.00  0.00    -0.503 OA
ATOM     18  H   LIG    1       32.614 -15.240   9.130  0.00  0.00    +0.292 HD
ENDBRANCH  13  17
BRANCH  14  19
ATOM     19  O   LIG    1       32.564 -16.519  11.521  0.00  0.00    -0.503 OA
ATOM     20  H   LIG    1       33.493 -16.679  11.281  0.00  0.00    +0.292 HD
ENDBRANCH  14  19
ENDBRANCH   5  11
BRANCH   1  21
ATOM     21  O   LIG    1       23.997 -21.819   8.351  0.00  0.00    -0.506 OA
ATOM     22  H   LIG    1       23.234 -21.218   8.346  0.00  0.00    +0.292 HD
ENDBRANCH   1  21
BRANCH   6  23
ATOM     23  O   LIG    1       30.326 -18.226   5.710  0.00  0.00    -0.388 OA
ATOM     24  H   LIG    1       30.984 -17.949   6.370  0.00  0.00    +0.210 HD
ENDBRANCH   6  23
BRANCH   9  25
ATOM     25  O   LIG    1       26.098 -20.702   4.187  0.00  0.00    -0.506 OA
ATOM     26  H   LIG    1       26.891 -21.175   3.884  0.00  0.00    +0.292 HD
ENDBRANCH   9  25
TORSDOF 6
ENDMDL
MODEL 8
REMARK VINA RESULT:      -7.4      2.061      3.290
REMARK  Name = *****
REMARK                            x       y       z     vdW  Elec       q    Type
REMARK                         _______ _______ _______ _____ _____    ______ ____
ROOT
ATOM      1  C   LIG    1       30.982 -18.492   8.131  0.00  0.00    +0.124 A 
ATOM      2  C   LIG    1       29.713 -18.484   7.567  0.00  0.00    +0.091 A 
ATOM      3  C   LIG    1       29.002 -19.677   7.441  0.00  0.00    +0.132 A 
ATOM      4  O   LIG    1       27.762 -19.572   6.871  0.00  0.00    -0.481 OA
ATOM      5  C   LIG    1       27.189 -20.810   6.426  0.00  0.00    +0.232 C 
ATOM      6  C   LIG    1       27.292 -21.909   7.504  0.00  0.00    +0.164 C 
ATOM      7  C   LIG    1       28.771 -22.163   7.798  0.00  0.00    +0.078 C 
ATOM      8  C   LIG    1       29.544 -20.880   7.908  0.00  0.00    +0.038 A 
ATOM      9  C   LIG    1       30.832 -20.863   8.459  0.00  0.00    +0.127 A 
ATOM     10  C   LIG    1       31.557 -19.677   8.577  0.00  0.00    +0.091 A 
ENDROOT
BRANCH   5  11
ATOM     11  C   LIG    1       25.776 -20.482   5.963  0.00  0.00    -0.001 A 
ATOM     12  C   LIG    1       25.498 -20.037   4.661  0.00  0.00    +0.056 A 
ATOM     13  C   LIG    1       24.186 -19.781   4.282  0.00  0.00    +0.159 A 
ATOM     14  C   LIG    1       23.133 -19.969   5.172  0.00  0.00    +0.158 A 
ATOM     15  C   LIG    1       23.379 -20.424   6.459  0.00  0.00    +0.049 A 
ATOM     16  C   LIG    1       24.698 -20.685   6.849  0.00  0.00    +0.011 A 
BRANCH  13  17
ATOM     17  O   LIG    1       23.933 -19.344   3.013  0.00  0.00    -0.503 OA
ATOM     18  H   LIG    1       24.719 -18.810   2.779  0.00  0.00    +0.292 HD
ENDBRANCH  13  17
BRANCH  14  19
ATOM     19  O   LIG    1       21.868 -19.699   4.728  0.00  0.00    -0.503 OA
ATOM     20  H   LIG    1       21.394 -20.544   4.642  0.00  0.00    +0.292 HD
ENDBRANCH  14  19
ENDBRANCH   5  11
BRANCH   1  21
ATOM     21  O   LIG    1       31.642 -17.301   8.226  0.00  0.00    -0.506 OA
ATOM     22  H   LIG    1       32.269 -17.342   8.966  0.00  0.00    +0.292 HD
ENDBRANCH   1  21
BRANCH   6  23
ATOM     23  O   LIG    1       26.687 -23.144   7.104  0.00  0.00    -0.388 OA
ATOM     24  H   LIG    1       26.514 -23.675   7.900  0.00  0.00    +0.210 HD
ENDBRANCH   6  23
BRANCH   9  25
ATOM     25  O   LIG    1       31.372 -22.045   8.884  0.00  0.00    -0.506 OA
ATOM     26  H   LIG    1       30.728 -22.760   8.746  0.00  0.00    +0.292 HD
ENDBRANCH   9  25
TORSDOF 6
ENDMDL
MODEL 9
REMARK VINA RESULT:      -7.3      4.157      5.956
REMARK  Name = *****
REMARK                            x       y       z     vdW  Elec       q    Type
REMARK                         _______ _______ _______ _____ _____    ______ ____
ROOT
ATOM      1  C   LIG    1       25.265 -18.813   3.636  0.00  0.00    +0.124 A 
ATOM      2  C   LIG    1       25.557 -20.094   4.086  0.00  0.00    +0.091 A 
ATOM      3  C   LIG    1       24.566 -20.856   4.702  0.00  0.00    +0.132 A 
ATOM      4  O   LIG    1       24.948 -22.105   5.114  0.00  0.00    -0.481 OA
ATOM      5  C   LIG    1       24.055 -22.740   6.041  0.00  0.00    +0.232 C 
ATOM      6  C   LIG    1       22.587 -22.656   5.572  0.00  0.00    +0.164 C 
ATOM      7  C   LIG    1       22.191 -21.181   5.483  0.00  0.00    +0.078 C 
ATOM      8  C   LIG    1       23.268 -20.353   4.843  0.00  0.00    +0.038 A 
ATOM      9  C   LIG    1       23.002 -19.053   4.395  0.00  0.00    +0.127 A 
ATOM     10  C   LIG    1       23.991 -18.276   3.790  0.00  0.00    +0.091 A 
ENDROOT
BRANCH   5  11
ATOM     11  C   LIG    1       24.592 -24.148   6.251  0.00  0.00    -0.001 A 
ATOM     12  C   LIG    1       23.941 -25.283   5.742  0.00  0.00    +0.056 A 
ATOM     13  C   LIG    1       24.492 -26.543   5.938  0.00  0.00    +0.159 A 
ATOM     14  C   LIG    1       25.692 -26.704   6.624  0.00  0.00    +0.158 A 
ATOM     15  C   LIG    1       26.365 -25.597   7.121  0.00  0.00    +0.049 A 
ATOM     16  C   LIG    1       25.817 -24.323   6.929  0.00  0.00    +0.011 A 
BRANCH  13  17
ATOM     17  O   LIG    1       23.842 -27.638   5.440  0.00  0.00    -0.503 OA
ATOM     18  H   LIG    1       23.946 -28.318   6.135  0.00  0.00    +0.292 HD
ENDBRANCH  13  17
BRANCH  14  19
ATOM     19  O   LIG    1       26.175 -27.974   6.775  0.00  0.00    -0.503 OA
ATOM     20  H   LIG    1       26.370 -28.327   5.891  0.00  0.00    +0.292 HD
ENDBRANCH  14  19
ENDBRANCH   5  11
BRANCH   1  21
ATOM     21  O   LIG    1       26.270 -18.101   3.047  0.00  0.00    -0.506 OA
ATOM     22  H   LIG    1       27.110 -18.571   3.175  0.00  0.00    +0.292 HD
ENDBRANCH   1  21
BRANCH   6  23
ATOM     23  O   LIG    1       21.679 -23.322   6.456  0.00  0.00    -0.388 OA
ATOM     24  H   LIG    1       21.617 -22.807   7.279  0.00  0.00    +0.210 HD
ENDBRANCH   6  23
BRANCH   9  25
ATOM     25  O   LIG    1       21.742 -18.552   4.565  0.00  0.00    -0.506 OA
ATOM     26  H   LIG    1       21.772 -17.583   4.513  0.00  0.00    +0.292 HD
ENDBRANCH   9  25
TORSDOF 6
ENDMDL
