MODEL 1
REMARK VINA RESULT:      -7.4      0.000      0.000
REMARK  Name = *****
REMARK                            x       y       z     vdW  Elec       q    Type
REMARK                         _______ _______ _______ _____ _____    ______ ____
ROOT
ATOM      1  N   LIG    1       25.460 -21.591   5.263  0.00  0.00    -0.297 N 
ATOM      2  C   LIG    1       24.806 -22.782   5.678  0.00  0.00    +0.050 A 
ATOM      3  C   LIG    1       23.446 -22.795   6.044  0.00  0.00    +0.034 A 
ATOM      4  C   LIG    1       22.863 -23.964   6.560  0.00  0.00    +0.019 A 
ATOM      5  C   LIG    1       23.609 -25.133   6.705  0.00  0.00    +0.030 A 
ATOM      6  C   LIG    1       24.925 -25.155   6.247  0.00  0.00    +0.107 A 
ATOM      7  S   LIG    1       22.405 -21.355   5.966  0.00  0.00    -0.086 S 
ATOM      8  C   LIG    1       23.420 -20.209   5.055  0.00  0.00    +0.034 A 
ATOM      9  C   LIG    1       22.787 -19.038   4.602  0.00  0.00    +0.017 A 
ATOM     10  C   LIG    1       23.495 -18.078   3.886  0.00  0.00    +0.001 A 
ATOM     11  C   LIG    1       24.839 -18.285   3.609  0.00  0.00    +0.002 A 
ATOM     12  C   LIG    1       25.477 -19.440   4.069  0.00  0.00    +0.024 A 
ATOM     13  C   LIG    1       25.507 -24.003   5.722  0.00  0.00    +0.053 A 
ATOM     14  C   LIG    1       24.793 -20.419   4.819  0.00  0.00    +0.048 A 
ENDROOT
BRANCH   6  15
ATOM     15  S   LIG    1       25.911 -26.622   6.472  0.00  0.00    +0.060 S 
ATOM     16  O   LIG    1       26.336 -26.629   7.851  0.00  0.00    -0.153 OA
ATOM     17  O   LIG    1       26.885 -26.678   5.391  0.00  0.00    -0.153 OA
BRANCH  15  18
ATOM     18  N   LIG    1       24.780 -27.874   6.244  0.00  0.00    -0.183 NA
ATOM     19  C   LIG    1       24.741 -28.883   7.325  0.00  0.00    +0.131 C 
ATOM     20  C   LIG    1       24.756 -28.492   4.902  0.00  0.00    +0.131 C 
ENDBRANCH  15  18
ENDBRANCH   6  15
BRANCH   1  21
ATOM     21  C   LIG    1       26.830 -21.396   5.821  0.00  0.00    +0.129 C 
BRANCH  21  23
ATOM     22  C   LIG    1       26.212 -20.780   8.256  0.00  0.00    +0.026 C 
ATOM     23  C   LIG    1       26.939 -20.342   6.972  0.00  0.00    +0.071 C 
BRANCH  23  24
ATOM     24  N   LIG    1       28.334 -19.945   7.322  0.00  0.00    -0.304 NA
ATOM     25  C   LIG    1       29.002 -19.241   6.230  0.00  0.00    +0.105 C 
ATOM     26  C   LIG    1       29.173 -21.039   7.816  0.00  0.00    +0.105 C 
ENDBRANCH  23  24
ENDBRANCH  21  23
ENDBRANCH   1  21
TORSDOF 5
ENDMDL
MODEL 2
REMARK VINA RESULT:      -6.9      3.212      6.460
REMARK  Name = *****
REMARK                            x       y       z     vdW  Elec       q    Type
REMARK                         _______ _______ _______ _____ _____    ______ ____
ROOT
ATOM      1  N   LIG    1       25.879 -21.090   6.918  0.00  0.00    -0.297 N 
ATOM      2  C   LIG    1       27.182 -20.552   6.741  0.00  0.00    +0.050 A 
ATOM      3  C   LIG    1       27.546 -19.855   5.573  0.00  0.00    +0.034 A 
ATOM      4  C   LIG    1       28.874 -19.439   5.381  0.00  0.00    +0.019 A 
ATOM      5  C   LIG    1       29.850 -19.691   6.344  0.00  0.00    +0.030 A 
ATOM      6  C   LIG    1       29.473 -20.286   7.547  0.00  0.00    +0.107 A 
ATOM      7  S   LIG    1       26.410 -19.527   4.243  0.00  0.00    -0.086 S 
ATOM      8  C   LIG    1       24.846 -19.972   4.970  0.00  0.00    +0.034 A 
ATOM      9  C   LIG    1       23.696 -19.596   4.254  0.00  0.00    +0.017 A 
ATOM     10  C   LIG    1       22.426 -19.902   4.736  0.00  0.00    +0.001 A 
ATOM     11  C   LIG    1       22.297 -20.580   5.939  0.00  0.00    +0.002 A 
ATOM     12  C   LIG    1       23.438 -20.970   6.648  0.00  0.00    +0.024 A 
ATOM     13  C   LIG    1       28.155 -20.691   7.750  0.00  0.00    +0.053 A 
ATOM     14  C   LIG    1       24.737 -20.696   6.174  0.00  0.00    +0.048 A 
ENDROOT
BRANCH   6  15
ATOM     15  S   LIG    1       30.714 -20.666   8.768  0.00  0.00    +0.060 S 
ATOM     16  O   LIG    1       31.926 -20.972   8.047  0.00  0.00    -0.153 OA
ATOM     17  O   LIG    1       30.143 -21.621   9.707  0.00  0.00    -0.153 OA
BRANCH  15  18
ATOM     18  N   LIG    1       30.919 -19.178   9.571  0.00  0.00    -0.183 NA
ATOM     19  C   LIG    1       29.674 -18.414   9.795  0.00  0.00    +0.131 C 
ATOM     20  C   LIG    1       32.019 -18.322   9.082  0.00  0.00    +0.131 C 
ENDBRANCH  15  18
ENDBRANCH   6  15
BRANCH   1  21
ATOM     21  C   LIG    1       25.838 -22.460   7.511  0.00  0.00    +0.129 C 
BRANCH  21  23
ATOM     22  C   LIG    1       26.363 -24.961   7.119  0.00  0.00    +0.026 C 
ATOM     23  C   LIG    1       25.912 -23.635   6.482  0.00  0.00    +0.071 C 
BRANCH  23  24
ATOM     24  N   LIG    1       24.652 -23.874   5.718  0.00  0.00    -0.304 NA
ATOM     25  C   LIG    1       23.562 -24.332   6.576  0.00  0.00    +0.105 C 
ATOM     26  C   LIG    1       24.799 -24.756   4.560  0.00  0.00    +0.105 C 
ENDBRANCH  23  24
ENDBRANCH  21  23
ENDBRANCH   1  21
TORSDOF 5
ENDMDL
MODEL 3
REMARK VINA RESULT:      -5.5      4.206      9.584
REMARK  Name = *****
REMARK                            x       y       z     vdW  Elec       q    Type
REMARK                         _______ _______ _______ _____ _____    ______ ____
ROOT
ATOM      1  N   LIG    1       24.077 -29.950   8.922  0.00  0.00    -0.297 N 
ATOM      2  C   LIG    1       24.466 -29.711   7.577  0.00  0.00    +0.050 A 
ATOM      3  C   LIG    1       24.471 -30.735   6.611  0.00  0.00    +0.034 A 
ATOM      4  C   LIG    1       24.972 -30.490   5.321  0.00  0.00    +0.019 A 
ATOM      5  C   LIG    1       25.457 -29.231   4.968  0.00  0.00    +0.030 A 
ATOM      6  C   LIG    1       25.356 -28.187   5.886  0.00  0.00    +0.107 A 
ATOM      7  S   LIG    1       23.940 -32.398   6.955  0.00  0.00    -0.086 S 
ATOM      8  C   LIG    1       23.175 -32.222   8.553  0.00  0.00    +0.034 A 
ATOM      9  C   LIG    1       22.425 -33.320   9.010  0.00  0.00    +0.017 A 
ATOM     10  C   LIG    1       21.791 -33.284  10.248  0.00  0.00    +0.001 A 
ATOM     11  C   LIG    1       21.897 -32.147  11.036  0.00  0.00    +0.002 A 
ATOM     12  C   LIG    1       22.653 -31.058  10.594  0.00  0.00    +0.024 A 
ATOM     13  C   LIG    1       24.848 -28.419   7.163  0.00  0.00    +0.053 A 
ATOM     14  C   LIG    1       23.326 -31.074   9.355  0.00  0.00    +0.048 A 
ENDROOT
BRANCH   6  15
ATOM     15  S   LIG    1       26.017 -26.585   5.474  0.00  0.00    +0.060 S 
ATOM     16  O   LIG    1       25.583 -26.290   4.129  0.00  0.00    -0.153 OA
ATOM     17  O   LIG    1       27.432 -26.581   5.818  0.00  0.00    -0.153 OA
BRANCH  15  18
ATOM     18  N   LIG    1       25.198 -25.551   6.551  0.00  0.00    -0.183 NA
ATOM     19  C   LIG    1       23.806 -25.228   6.168  0.00  0.00    +0.131 C 
ATOM     20  C   LIG    1       25.944 -24.358   7.001  0.00  0.00    +0.131 C 
ENDBRANCH  15  18
ENDBRANCH   6  15
BRANCH   1  21
ATOM     21  C   LIG    1       24.935 -29.295   9.953  0.00  0.00    +0.129 C 
BRANCH  21  23
ATOM     22  C   LIG    1       27.083 -30.689   9.590  0.00  0.00    +0.026 C 
ATOM     23  C   LIG    1       26.023 -30.216  10.599  0.00  0.00    +0.071 C 
BRANCH  23  24
ATOM     24  N   LIG    1       26.715 -29.624  11.781  0.00  0.00    -0.304 NA
ATOM     25  C   LIG    1       28.149 -29.454  11.556  0.00  0.00    +0.105 C 
ATOM     26  C   LIG    1       26.473 -30.326  13.043  0.00  0.00    +0.105 C 
ENDBRANCH  23  24
ENDBRANCH  21  23
ENDBRANCH   1  21
TORSDOF 5
ENDMDL
MODEL 4
REMARK VINA RESULT:      -5.4      3.608      6.038
REMARK  Name = *****
REMARK                            x       y       z     vdW  Elec       q    Type
REMARK                         _______ _______ _______ _____ _____    ______ ____
ROOT
ATOM      1  N   LIG    1       25.695 -20.582   6.663  0.00  0.00    -0.297 N 
ATOM      2  C   LIG    1       26.970 -19.993   6.453  0.00  0.00    +0.050 A 
ATOM      3  C   LIG    1       27.327 -19.412   5.221  0.00  0.00    +0.034 A 
ATOM      4  C   LIG    1       28.635 -18.944   5.011  0.00  0.00    +0.019 A 
ATOM      5  C   LIG    1       29.597 -19.028   6.018  0.00  0.00    +0.030 A 
ATOM      6  C   LIG    1       29.220 -19.504   7.272  0.00  0.00    +0.107 A 
ATOM      7  S   LIG    1       26.213 -19.303   3.839  0.00  0.00    -0.086 S 
ATOM      8  C   LIG    1       24.656 -19.753   4.578  0.00  0.00    +0.034 A 
ATOM      9  C   LIG    1       23.508 -19.527   3.799  0.00  0.00    +0.017 A 
ATOM     10  C   LIG    1       22.244 -19.850   4.285  0.00  0.00    +0.001 A 
ATOM     11  C   LIG    1       22.119 -20.394   5.555  0.00  0.00    +0.002 A 
ATOM     12  C   LIG    1       23.259 -20.635   6.328  0.00  0.00    +0.024 A 
ATOM     13  C   LIG    1       27.921 -19.959   7.492  0.00  0.00    +0.053 A 
ATOM     14  C   LIG    1       24.554 -20.341   5.854  0.00  0.00    +0.048 A 
ENDROOT
BRANCH   6  15
ATOM     15  S   LIG    1       30.445 -19.671   8.555  0.00  0.00    +0.060 S 
ATOM     16  O   LIG    1       30.005 -18.850   9.658  0.00  0.00    -0.153 OA
ATOM     17  O   LIG    1       31.756 -19.470   7.953  0.00  0.00    -0.153 OA
BRANCH  15  18
ATOM     18  N   LIG    1       30.302 -21.307   9.002  0.00  0.00    -0.183 NA
ATOM     19  C   LIG    1       31.585 -22.025   9.161  0.00  0.00    +0.131 C 
ATOM     20  C   LIG    1       29.308 -22.102   8.252  0.00  0.00    +0.131 C 
ENDBRANCH  15  18
ENDBRANCH   6  15
BRANCH   1  21
ATOM     21  C   LIG    1       25.713 -21.875   7.407  0.00  0.00    +0.129 C 
BRANCH  21  23
ATOM     22  C   LIG    1       26.341 -24.382   7.301  0.00  0.00    +0.026 C 
ATOM     23  C   LIG    1       25.839 -23.156   6.518  0.00  0.00    +0.071 C 
BRANCH  23  24
ATOM     24  N   LIG    1       24.593 -23.531   5.787  0.00  0.00    -0.304 NA
ATOM     25  C   LIG    1       23.537 -23.987   6.689  0.00  0.00    +0.105 C 
ATOM     26  C   LIG    1       24.790 -24.491   4.700  0.00  0.00    +0.105 C 
ENDBRANCH  23  24
ENDBRANCH  21  23
ENDBRANCH   1  21
TORSDOF 5
ENDMDL
MODEL 5
REMARK VINA RESULT:      -5.2      6.318      9.442
REMARK  Name = *****
REMARK                            x       y       z     vdW  Elec       q    Type
REMARK                         _______ _______ _______ _____ _____    ______ ____
ROOT
ATOM      1  N   LIG    1       24.211 -29.806   7.244  0.00  0.00    -0.297 N 
ATOM      2  C   LIG    1       24.251 -30.220   8.602  0.00  0.00    +0.050 A 
ATOM      3  C   LIG    1       25.185 -29.692   9.514  0.00  0.00    +0.034 A 
ATOM      4  C   LIG    1       25.274 -30.209  10.817  0.00  0.00    +0.019 A 
ATOM      5  C   LIG    1       24.432 -31.237  11.239  0.00  0.00    +0.030 A 
ATOM      6  C   LIG    1       23.435 -31.690  10.376  0.00  0.00    +0.107 A 
ATOM      7  S   LIG    1       26.356 -28.425   9.080  0.00  0.00    -0.086 S 
ATOM      8  C   LIG    1       25.759 -27.894   7.488  0.00  0.00    +0.034 A 
ATOM      9  C   LIG    1       26.326 -26.716   6.970  0.00  0.00    +0.017 A 
ATOM     10  C   LIG    1       25.930 -26.221   5.731  0.00  0.00    +0.001 A 
ATOM     11  C   LIG    1       24.960 -26.896   5.004  0.00  0.00    +0.002 A 
ATOM     12  C   LIG    1       24.403 -28.075   5.508  0.00  0.00    +0.024 A 
ATOM     13  C   LIG    1       23.334 -31.174   9.086  0.00  0.00    +0.053 A 
ATOM     14  C   LIG    1       24.801 -28.615   6.748  0.00  0.00    +0.048 A 
ENDROOT
BRANCH   6  15
ATOM     15  S   LIG    1       22.384 -33.039  10.876  0.00  0.00    +0.060 S 
ATOM     16  O   LIG    1       23.012 -33.652  12.023  0.00  0.00    -0.153 OA
ATOM     17  O   LIG    1       22.068 -33.825   9.691  0.00  0.00    -0.153 OA
BRANCH  15  18
ATOM     18  N   LIG    1       20.969 -32.244  11.389  0.00  0.00    -0.183 NA
ATOM     19  C   LIG    1       19.927 -32.092  10.351  0.00  0.00    +0.131 C 
ATOM     20  C   LIG    1       21.166 -31.003  12.167  0.00  0.00    +0.131 C 
ENDBRANCH  15  18
ENDBRANCH   6  15
BRANCH   1  21
ATOM     21  C   LIG    1       24.020 -30.907   6.255  0.00  0.00    +0.129 C 
BRANCH  21  23
ATOM     22  C   LIG    1       26.319 -32.034   6.615  0.00  0.00    +0.026 C 
ATOM     23  C   LIG    1       25.331 -31.446   5.593  0.00  0.00    +0.071 C 
BRANCH  23  24
ATOM     24  N   LIG    1       25.114 -32.444   4.505  0.00  0.00    -0.304 NA
ATOM     25  C   LIG    1       24.092 -33.429   4.852  0.00  0.00    +0.105 C 
ATOM     26  C   LIG    1       26.331 -33.110   4.038  0.00  0.00    +0.105 C 
ENDBRANCH  23  24
ENDBRANCH  21  23
ENDBRANCH   1  21
TORSDOF 5
ENDMDL
MODEL 6
REMARK VINA RESULT:      -5.1      8.255      9.621
REMARK  Name = *****
REMARK                            x       y       z     vdW  Elec       q    Type
REMARK                         _______ _______ _______ _____ _____    ______ ____
ROOT
ATOM      1  N   LIG    1       23.206 -29.162  12.047  0.00  0.00    -0.297 N 
ATOM      2  C   LIG    1       22.729 -30.172  11.169  0.00  0.00    +0.050 A 
ATOM      3  C   LIG    1       21.449 -30.740  11.313  0.00  0.00    +0.034 A 
ATOM      4  C   LIG    1       21.056 -31.816  10.500  0.00  0.00    +0.019 A 
ATOM      5  C   LIG    1       21.914 -32.332   9.529  0.00  0.00    +0.030 A 
ATOM      6  C   LIG    1       23.140 -31.706   9.311  0.00  0.00    +0.107 A 
ATOM      7  S   LIG    1       20.287 -30.216  12.554  0.00  0.00    -0.086 S 
ATOM      8  C   LIG    1       21.046 -28.726  13.170  0.00  0.00    +0.034 A 
ATOM      9  C   LIG    1       20.252 -27.921  14.005  0.00  0.00    +0.017 A 
ATOM     10  C   LIG    1       20.755 -26.739  14.542  0.00  0.00    +0.001 A 
ATOM     11  C   LIG    1       22.052 -26.351  14.242  0.00  0.00    +0.002 A 
ATOM     12  C   LIG    1       22.852 -27.155  13.424  0.00  0.00    +0.024 A 
ATOM     13  C   LIG    1       23.532 -30.629  10.105  0.00  0.00    +0.053 A 
ATOM     14  C   LIG    1       22.379 -28.370  12.886  0.00  0.00    +0.048 A 
ENDROOT
BRANCH   6  15
ATOM     15  S   LIG    1       24.272 -32.381   8.113  0.00  0.00    +0.060 S 
ATOM     16  O   LIG    1       24.132 -33.816   8.172  0.00  0.00    -0.153 OA
ATOM     17  O   LIG    1       25.569 -31.749   8.314  0.00  0.00    -0.153 OA
BRANCH  15  18
ATOM     18  N   LIG    1       23.628 -31.831   6.635  0.00  0.00    -0.183 NA
ATOM     19  C   LIG    1       23.249 -32.897   5.685  0.00  0.00    +0.131 C 
ATOM     20  C   LIG    1       24.362 -30.731   5.976  0.00  0.00    +0.131 C 
ENDBRANCH  15  18
ENDBRANCH   6  15
BRANCH   1  21
ATOM     21  C   LIG    1       24.624 -29.323  12.484  0.00  0.00    +0.129 C 
BRANCH  21  23
ATOM     22  C   LIG    1       26.490 -27.554  12.751  0.00  0.00    +0.026 C 
ATOM     23  C   LIG    1       25.653 -28.389  11.766  0.00  0.00    +0.071 C 
BRANCH  23  24
ATOM     24  N   LIG    1       26.576 -29.088  10.825  0.00  0.00    -0.304 NA
ATOM     25  C   LIG    1       27.931 -29.204  11.359  0.00  0.00    +0.105 C 
ATOM     26  C   LIG    1       26.604 -28.529   9.472  0.00  0.00    +0.105 C 
ENDBRANCH  23  24
ENDBRANCH  21  23
ENDBRANCH   1  21
TORSDOF 5
ENDMDL
MODEL 7
REMARK VINA RESULT:      -5.1      7.849     10.596
REMARK  Name = *****
REMARK                            x       y       z     vdW  Elec       q    Type
REMARK                         _______ _______ _______ _____ _____    ______ ____
ROOT
ATOM      1  N   LIG    1       23.589 -31.074  10.330  0.00  0.00    -0.297 N 
ATOM      2  C   LIG    1       23.691 -30.065  11.324  0.00  0.00    +0.050 A 
ATOM      3  C   LIG    1       22.552 -29.463  11.892  0.00  0.00    +0.034 A 
ATOM      4  C   LIG    1       22.691 -28.388  12.786  0.00  0.00    +0.019 A 
ATOM      5  C   LIG    1       23.951 -27.908  13.140  0.00  0.00    +0.030 A 
ATOM      6  C   LIG    1       25.083 -28.568  12.663  0.00  0.00    +0.107 A 
ATOM      7  S   LIG    1       20.890 -29.940  11.475  0.00  0.00    -0.086 S 
ATOM      8  C   LIG    1       21.153 -31.439  10.550  0.00  0.00    +0.034 A 
ATOM      9  C   LIG    1       20.012 -32.213  10.278  0.00  0.00    +0.017 A 
ATOM     10  C   LIG    1       20.111 -33.399   9.557  0.00  0.00    +0.001 A 
ATOM     11  C   LIG    1       21.354 -33.825   9.111  0.00  0.00    +0.002 A 
ATOM     12  C   LIG    1       22.490 -33.052   9.366  0.00  0.00    +0.024 A 
ATOM     13  C   LIG    1       24.953 -29.643  11.786  0.00  0.00    +0.053 A 
ATOM     14  C   LIG    1       22.418 -31.834  10.071  0.00  0.00    +0.048 A 
ENDROOT
BRANCH   6  15
ATOM     15  S   LIG    1       26.702 -27.938  13.060  0.00  0.00    +0.060 S 
ATOM     16  O   LIG    1       26.674 -27.572  14.456  0.00  0.00    -0.153 OA
ATOM     17  O   LIG    1       27.067 -26.965  12.040  0.00  0.00    -0.153 OA
BRANCH  15  18
ATOM     18  N   LIG    1       27.694 -29.310  12.876  0.00  0.00    -0.183 NA
ATOM     19  C   LIG    1       28.457 -29.694  14.083  0.00  0.00    +0.131 C 
ATOM     20  C   LIG    1       28.523 -29.352  11.654  0.00  0.00    +0.131 C 
ENDBRANCH  15  18
ENDBRANCH   6  15
BRANCH   1  21
ATOM     21  C   LIG    1       24.552 -30.943   9.197  0.00  0.00    +0.129 C 
BRANCH  21  23
ATOM     22  C   LIG    1       25.502 -28.842   8.026  0.00  0.00    +0.026 C 
ATOM     23  C   LIG    1       24.276 -29.753   8.220  0.00  0.00    +0.071 C 
BRANCH  23  24
ATOM     24  N   LIG    1       23.759 -30.155   6.880  0.00  0.00    -0.304 NA
ATOM     25  C   LIG    1       24.198 -31.494   6.495  0.00  0.00    +0.105 C 
ATOM     26  C   LIG    1       24.035 -29.197   5.808  0.00  0.00    +0.105 C 
ENDBRANCH  23  24
ENDBRANCH  21  23
ENDBRANCH   1  21
TORSDOF 5
ENDMDL
MODEL 8
REMARK VINA RESULT:      -5.0      5.735     10.987
REMARK  Name = *****
REMARK                            x       y       z     vdW  Elec       q    Type
REMARK                         _______ _______ _______ _____ _____    ______ ____
ROOT
ATOM      1  N   LIG    1       24.238 -31.543  10.727  0.00  0.00    -0.297 N 
ATOM      2  C   LIG    1       24.951 -30.550  10.005  0.00  0.00    +0.050 A 
ATOM      3  C   LIG    1       25.871 -29.689  10.635  0.00  0.00    +0.034 A 
ATOM      4  C   LIG    1       26.470 -28.643   9.913  0.00  0.00    +0.019 A 
ATOM      5  C   LIG    1       26.182 -28.446   8.563  0.00  0.00    +0.030 A 
ATOM      6  C   LIG    1       25.355 -29.358   7.910  0.00  0.00    +0.107 A 
ATOM      7  S   LIG    1       26.275 -29.796  12.364  0.00  0.00    -0.086 S 
ATOM      8  C   LIG    1       25.530 -31.346  12.826  0.00  0.00    +0.034 A 
ATOM      9  C   LIG    1       25.877 -31.853  14.091  0.00  0.00    +0.017 A 
ATOM     10  C   LIG    1       25.345 -33.055  14.547  0.00  0.00    +0.001 A 
ATOM     11  C   LIG    1       24.466 -33.763  13.739  0.00  0.00    +0.002 A 
ATOM     12  C   LIG    1       24.106 -33.256  12.487  0.00  0.00    +0.024 A 
ATOM     13  C   LIG    1       24.767 -30.406   8.616  0.00  0.00    +0.053 A 
ATOM     14  C   LIG    1       24.609 -32.030  12.008  0.00  0.00    +0.048 A 
ENDROOT
BRANCH   6  15
ATOM     15  S   LIG    1       24.932 -29.095   6.200  0.00  0.00    +0.060 S 
ATOM     16  O   LIG    1       23.497 -29.217   6.103  0.00  0.00    -0.153 OA
ATOM     17  O   LIG    1       25.808 -29.928   5.387  0.00  0.00    -0.153 OA
BRANCH  15  18
ATOM     18  N   LIG    1       25.358 -27.465   5.953  0.00  0.00    -0.183 NA
ATOM     19  C   LIG    1       24.226 -26.514   5.973  0.00  0.00    +0.131 C 
ATOM     20  C   LIG    1       26.291 -27.198   4.839  0.00  0.00    +0.131 C 
ENDBRANCH  15  18
ENDBRANCH   6  15
BRANCH   1  21
ATOM     21  C   LIG    1       22.795 -31.669  10.368  0.00  0.00    +0.129 C 
BRANCH  21  23
ATOM     22  C   LIG    1       20.388 -30.746  10.579  0.00  0.00    +0.026 C 
ATOM     23  C   LIG    1       21.882 -30.492  10.846  0.00  0.00    +0.071 C 
BRANCH  23  24
ATOM     24  N   LIG    1       22.055 -30.114  12.279  0.00  0.00    -0.304 NA
ATOM     25  C   LIG    1       20.848 -30.355  13.067  0.00  0.00    +0.105 C 
ATOM     26  C   LIG    1       22.544 -28.751  12.495  0.00  0.00    +0.105 C 
ENDBRANCH  23  24
ENDBRANCH  21  23
ENDBRANCH   1  21
TORSDOF 5
ENDMDL
MODEL 9
REMARK VINA RESULT:      -5.0      3.642      6.476
REMARK  Name = *****
REMARK                            x       y       z     vdW  Elec       q    Type
REMARK                         _______ _______ _______ _____ _____    ______ ____
ROOT
ATOM      1  N   LIG    1       25.913 -20.576   5.769  0.00  0.00    -0.297 N 
ATOM      2  C   LIG    1       27.058 -19.739   5.701  0.00  0.00    +0.050 A 
ATOM      3  C   LIG    1       27.185 -18.729   4.729  0.00  0.00    +0.034 A 
ATOM      4  C   LIG    1       28.380 -17.999   4.617  0.00  0.00    +0.019 A 
ATOM      5  C   LIG    1       29.454 -18.247   5.472  0.00  0.00    +0.030 A 
ATOM      6  C   LIG    1       29.296 -19.171   6.503  0.00  0.00    +0.107 A 
ATOM      7  S   LIG    1       25.914 -18.360   3.539  0.00  0.00    -0.086 S 
ATOM      8  C   LIG    1       24.533 -19.293   4.168  0.00  0.00    +0.034 A 
ATOM      9  C   LIG    1       23.282 -19.023   3.587  0.00  0.00    +0.017 A 
ATOM     10  C   LIG    1       22.141 -19.703   4.005  0.00  0.00    +0.001 A 
ATOM     11  C   LIG    1       22.242 -20.652   5.012  0.00  0.00    +0.002 A 
ATOM     12  C   LIG    1       23.486 -20.935   5.583  0.00  0.00    +0.024 A 
ATOM     13  C   LIG    1       28.109 -19.890   6.628  0.00  0.00    +0.053 A 
ATOM     14  C   LIG    1       24.663 -20.281   5.164  0.00  0.00    +0.048 A 
ENDROOT
BRANCH   6  15
ATOM     15  S   LIG    1       30.672 -19.540   7.572  0.00  0.00    +0.060 S 
ATOM     16  O   LIG    1       31.833 -19.672   6.725  0.00  0.00    -0.153 OA
ATOM     17  O   LIG    1       30.272 -20.622   8.462  0.00  0.00    -0.153 OA
BRANCH  15  18
ATOM     18  N   LIG    1       30.827 -18.115   8.492  0.00  0.00    -0.183 NA
ATOM     19  C   LIG    1       32.219 -17.714   8.790  0.00  0.00    +0.131 C 
ATOM     20  C   LIG    1       29.949 -18.006   9.675  0.00  0.00    +0.131 C 
ENDBRANCH  15  18
ENDBRANCH   6  15
BRANCH   1  21
ATOM     21  C   LIG    1       26.200 -22.020   6.016  0.00  0.00    +0.129 C 
BRANCH  21  23
ATOM     22  C   LIG    1       25.507 -24.174   7.268  0.00  0.00    +0.026 C 
ATOM     23  C   LIG    1       25.501 -22.635   7.273  0.00  0.00    +0.071 C 
BRANCH  23  24
ATOM     24  N   LIG    1       26.039 -22.157   8.580  0.00  0.00    -0.304 NA
ATOM     25  C   LIG    1       25.465 -20.874   8.980  0.00  0.00    +0.105 C 
ATOM     26  C   LIG    1       27.500 -22.112   8.657  0.00  0.00    +0.105 C 
ENDBRANCH  23  24
ENDBRANCH  21  23
ENDBRANCH   1  21
TORSDOF 5
ENDMDL
