MODEL 1
REMARK VINA RESULT:      -2.3      0.000      0.000
REMARK  Name = *****
REMARK                            x       y       z     vdW  Elec       q    Type
REMARK                         _______ _______ _______ _____ _____    ______ ____
ROOT
ATOM      1  C   LIG    1       26.335 -14.513   2.755  0.00  0.00    +0.063 C 
ATOM      2  C   LIG    1       25.459 -15.655   3.285  0.00  0.00    -0.030 A 
ATOM      3  C   LIG    1       24.262 -15.434   4.020  0.00  0.00    -0.020 A 
ATOM      4  C   LIG    1       23.511 -16.555   4.442  0.00  0.00    +0.089 A 
ATOM      5  C   LIG    1       23.948 -17.852   4.152  0.00  0.00    +0.177 A 
ATOM      6  C   LIG    1       25.125 -18.053   3.449  0.00  0.00    +0.160 A 
ATOM      7 CL   LIG    1       22.021 -16.401   5.316  0.00  0.00    -0.079 Cl
ATOM      8  C   LIG    1       23.834 -14.017   4.352  0.00  0.00    +0.052 C 
ATOM      9  C   LIG    1       23.476 -13.185   3.119  0.00  0.00    +0.085 C 
ATOM     10  N   LIG    1       24.630 -12.592   2.443  0.00  0.00    -0.315 NA
ATOM     11  H   LIG    1       24.290 -11.955   1.722  0.00  0.00    +0.122 HD
ATOM     12  C   LIG    1       25.878 -16.976   3.016  0.00  0.00    +0.053 A 
ATOM     13  C   LIG    1       25.501 -13.590   1.812  0.00  0.00    +0.093 C 
ENDROOT
BRANCH   1  17
ATOM     14  C   LIG    1       28.757 -12.433   5.711  0.00  0.00    +0.117 A 
ATOM     15  C   LIG    1       27.662 -13.183   6.111  0.00  0.00    +0.045 A 
ATOM     16  C   LIG    1       26.900 -13.863   5.157  0.00  0.00    +0.008 A 
ATOM     17  C   LIG    1       27.224 -13.811   3.789  0.00  0.00    -0.038 A 
ATOM     18  C   LIG    1       28.328 -13.018   3.415  0.00  0.00    +0.008 A 
ATOM     19  C   LIG    1       29.097 -12.344   4.370  0.00  0.00    +0.045 A 
BRANCH  14  20
ATOM     20  O   LIG    1       29.473 -11.787   6.674  0.00  0.00    -0.507 OA
ATOM     21  H   LIG    1       28.983 -10.992   6.938  0.00  0.00    +0.292 HD
ENDBRANCH  14  20
ENDBRANCH   1  17
BRANCH   6  22
ATOM     22  O   LIG    1       25.553 -19.318   3.171  0.00  0.00    -0.503 OA
ATOM     23  H   LIG    1       26.336 -19.449   3.742  0.00  0.00    +0.292 HD
ENDBRANCH   6  22
BRANCH   5  24
ATOM     24  O   LIG    1       23.256 -18.973   4.540  0.00  0.00    -0.502 OA
ATOM     25  H   LIG    1       22.499 -18.661   5.072  0.00  0.00    +0.292 HD
ENDBRANCH   5  24
TORSDOF 4
ENDMDL
