MODEL 1
REMARK VINA RESULT:      -2.4      0.000      0.000
REMARK  Name = *****
REMARK                            x       y       z     vdW  Elec       q    Type
REMARK                         _______ _______ _______ _____ _____    ______ ____
ROOT
ATOM      1  C   LIG    1       25.699 -15.046   3.365  0.00  0.00    +0.106 C 
ENDROOT
BRANCH   1   2
ATOM      2  C   LIG    1       24.234 -14.434   3.390  0.00  0.00    +0.026 C 
ATOM      3  C   LIG    1       23.751 -13.847   4.736  0.00  0.00    +0.007 C 
ATOM      4  C   LIG    1       24.087 -12.377   4.995  0.00  0.00    +0.000 C 
ATOM      5  C   LIG    1       23.832 -11.447   3.814  0.00  0.00    +0.000 C 
ATOM      6  C   LIG    1       24.341 -12.006   2.499  0.00  0.00    +0.000 C 
ATOM      7  C   LIG    1       23.866 -13.437   2.263  0.00  0.00    +0.007 C 
ENDBRANCH   1   2
BRANCH   1   8
ATOM      8  C   LIG    1       26.774 -14.174   4.036  0.00  0.00    -0.015 A 
ATOM      9  C   LIG    1       27.782 -13.536   3.291  0.00  0.00    +0.006 A 
ATOM     10  C   LIG    1       28.711 -12.674   3.880  0.00  0.00    +0.000 A 
ATOM     11  C   LIG    1       28.686 -12.469   5.261  0.00  0.00    +0.000 A 
ATOM     12  C   LIG    1       27.733 -13.111   6.028  0.00  0.00    +0.000 A 
ATOM     13  C   LIG    1       26.782 -13.945   5.431  0.00  0.00    +0.006 A 
ENDBRANCH   1   8
BRANCH   1  14
ATOM     14  O   LIG    1       26.121 -15.215   1.983  0.00  0.00    -0.382 OA
ATOM     15  H   LIG    1       26.280 -14.334   1.612  0.00  0.00    +0.211 HD
ENDBRANCH   1  14
BRANCH   1  16
ATOM     16  C   LIG    1       25.750 -16.531   3.947  0.00  0.00    +0.124 C 
BRANCH  16  21
ATOM     17  C   LIG    1       24.399 -20.566   6.253  0.00  0.00    +0.192 C 
ATOM     18  N   LIG    1       24.585 -20.073   4.821  0.00  0.00    +0.241 N 
ATOM     19  C   LIG    1       26.063 -19.639   4.641  0.00  0.00    +0.148 C 
ATOM     20  C   LIG    1       26.283 -18.888   3.310  0.00  0.00    +0.135 C 
ATOM     21  N   LIG    1       25.424 -17.711   3.094  0.00  0.00    -0.289 NA
ATOM     22  C   LIG    1       24.004 -18.107   3.268  0.00  0.00    +0.135 C 
ATOM     23  C   LIG    1       23.663 -18.858   4.582  0.00  0.00    +0.148 C 
ATOM     24  C   LIG    1       24.232 -21.214   3.873  0.00  0.00    +0.192 C 
ENDBRANCH  16  21
ENDBRANCH   1  16
TORSDOF 5
ENDMDL
MODEL 2
REMARK VINA RESULT:      -0.4      2.092      7.107
REMARK  Name = *****
REMARK                            x       y       z     vdW  Elec       q    Type
REMARK                         _______ _______ _______ _____ _____    ______ ____
ROOT
ATOM      1  C   LIG    1       25.407 -19.367   3.835  0.00  0.00    +0.106 C 
ENDROOT
BRANCH   1   2
ATOM      2  C   LIG    1       26.363 -20.461   4.477  0.00  0.00    +0.026 C 
ATOM      3  C   LIG    1       27.873 -20.134   4.503  0.00  0.00    +0.007 C 
ATOM      4  C   LIG    1       28.378 -19.356   5.721  0.00  0.00    +0.000 C 
ATOM      5  C   LIG    1       27.854 -19.860   7.062  0.00  0.00    +0.000 C 
ATOM      6  C   LIG    1       26.364 -20.145   7.047  0.00  0.00    +0.000 C 
ATOM      7  C   LIG    1       25.961 -21.022   5.865  0.00  0.00    +0.007 C 
ENDBRANCH   1   2
BRANCH   1   8
ATOM      8  C   LIG    1       23.910 -19.567   4.127  0.00  0.00    -0.015 A 
ATOM      9  C   LIG    1       22.976 -18.532   3.946  0.00  0.00    +0.006 A 
ATOM     10  C   LIG    1       21.603 -18.727   4.126  0.00  0.00    +0.000 A 
ATOM     11  C   LIG    1       21.132 -19.970   4.553  0.00  0.00    +0.000 A 
ATOM     12  C   LIG    1       22.028 -20.998   4.779  0.00  0.00    +0.000 A 
ATOM     13  C   LIG    1       23.396 -20.810   4.562  0.00  0.00    +0.006 A 
ENDBRANCH   1   8
BRANCH   1  14
ATOM     14  O   LIG    1       25.545 -19.405   2.388  0.00  0.00    -0.382 OA
ATOM     15  H   LIG    1       25.807 -18.520   2.091  0.00  0.00    +0.211 HD
ENDBRANCH   1  14
BRANCH   1  16
ATOM     16  C   LIG    1       25.849 -17.879   4.206  0.00  0.00    +0.124 C 
BRANCH  16  21
ATOM     17  C   LIG    1       26.518 -13.317   5.674  0.00  0.00    +0.192 C 
ATOM     18  N   LIG    1       26.557 -14.120   4.377  0.00  0.00    +0.241 N 
ATOM     19  C   LIG    1       25.159 -14.754   4.153  0.00  0.00    +0.148 C 
ATOM     20  C   LIG    1       25.176 -15.791   3.009  0.00  0.00    +0.135 C 
ATOM     21  N   LIG    1       26.163 -16.876   3.147  0.00  0.00    -0.289 NA
ATOM     22  C   LIG    1       27.507 -16.286   3.368  0.00  0.00    +0.135 C 
ATOM     23  C   LIG    1       27.612 -15.239   4.508  0.00  0.00    +0.148 C 
ATOM     24  C   LIG    1       26.914 -13.171   3.238  0.00  0.00    +0.192 C 
ENDBRANCH  16  21
ENDBRANCH   1  16
TORSDOF 5
ENDMDL
