MODEL 1
REMARK VINA RESULT:      -6.0      0.000      0.000
REMARK  Name = *****
REMARK                            x       y       z     vdW  Elec       q    Type
REMARK                         _______ _______ _______ _____ _____    ______ ____
ROOT
ATOM      1  C   LIG    1       23.347 -19.722   4.227  0.00  0.00    +0.121 A 
ATOM      2  C   LIG    1       22.729 -18.496   4.504  0.00  0.00    +0.054 A 
ATOM      3  C   LIG    1       23.389 -17.277   4.252  0.00  0.00    -0.014 A 
ATOM      4  C   LIG    1       24.690 -17.305   3.708  0.00  0.00    -0.017 A 
ATOM      5  C   LIG    1       25.365 -16.107   3.442  0.00  0.00    +0.013 A 
ATOM      6  C   LIG    1       24.781 -14.864   3.727  0.00  0.00    -0.033 A 
ATOM      7  C   LIG    1       23.488 -14.839   4.267  0.00  0.00    +0.005 A 
ATOM      8  C   LIG    1       25.303 -18.533   3.445  0.00  0.00    +0.012 A 
ATOM      9  C   LIG    1       22.799 -16.029   4.522  0.00  0.00    +0.009 A 
ATOM     10  C   LIG    1       24.639 -19.732   3.703  0.00  0.00    +0.046 A 
ENDROOT
BRANCH   1  12
ATOM     11  C   LIG    1       22.785 -21.404   5.799  0.00  0.00    +0.277 C 
ATOM     12  O   LIG    1       22.604 -20.838   4.504  0.00  0.00    -0.495 OA
ENDBRANCH   1  12
BRANCH   6  13
ATOM     13  C   LIG    1       25.557 -13.574   3.502  0.00  0.00    +0.124 C 
ATOM     14  C   LIG    1       24.861 -12.694   2.457  0.00  0.00    +0.024 C 
BRANCH  13  15
ATOM     15  C   LIG    1       27.025 -13.784   3.114  0.00  0.00    +0.312 C 
ATOM     16  O   LIG    1       27.949 -13.745   3.912  0.00  0.00    -0.250 OA
BRANCH  15  17
ATOM     17  O   LIG    1       27.246 -14.098   1.814  0.00  0.00    -0.480 OA
ATOM     18  H   LIG    1       27.978 -14.729   1.663  0.00  0.00    +0.295 HD
ENDBRANCH  15  17
ENDBRANCH  13  15
ENDBRANCH   6  13
TORSDOF 4
ENDMDL
MODEL 2
REMARK VINA RESULT:      -5.7      1.192      6.345
REMARK  Name = *****
REMARK                            x       y       z     vdW  Elec       q    Type
REMARK                         _______ _______ _______ _____ _____    ______ ____
ROOT
ATOM      1  C   LIG    1       26.509 -13.609   3.542  0.00  0.00    +0.121 A 
ATOM      2  C   LIG    1       26.936 -14.928   3.339  0.00  0.00    +0.054 A 
ATOM      3  C   LIG    1       26.043 -16.009   3.471  0.00  0.00    -0.014 A 
ATOM      4  C   LIG    1       24.699 -15.745   3.810  0.00  0.00    -0.017 A 
ATOM      5  C   LIG    1       23.789 -16.802   3.941  0.00  0.00    +0.013 A 
ATOM      6  C   LIG    1       24.190 -18.134   3.764  0.00  0.00    -0.033 A 
ATOM      7  C   LIG    1       25.525 -18.393   3.428  0.00  0.00    +0.005 A 
ATOM      8  C   LIG    1       24.285 -14.428   4.021  0.00  0.00    +0.012 A 
ATOM      9  C   LIG    1       26.439 -17.344   3.279  0.00  0.00    +0.009 A 
ATOM     10  C   LIG    1       25.182 -13.368   3.890  0.00  0.00    +0.046 A 
ENDROOT
BRANCH   1  12
ATOM     11  C   LIG    1       28.780 -12.982   3.807  0.00  0.00    +0.277 C 
ATOM     12  O   LIG    1       27.465 -12.643   3.375  0.00  0.00    -0.495 OA
ENDBRANCH   1  12
BRANCH   6  13
ATOM     13  C   LIG    1       23.206 -19.275   3.984  0.00  0.00    +0.124 C 
ATOM     14  C   LIG    1       21.929 -18.769   4.666  0.00  0.00    +0.024 C 
BRANCH  13  15
ATOM     15  C   LIG    1       23.783 -20.460   4.767  0.00  0.00    +0.312 C 
ATOM     16  O   LIG    1       23.949 -20.456   5.978  0.00  0.00    -0.250 OA
BRANCH  15  17
ATOM     17  O   LIG    1       24.041 -21.571   4.037  0.00  0.00    -0.480 OA
ATOM     18  H   LIG    1       24.796 -21.492   3.421  0.00  0.00    +0.295 HD
ENDBRANCH  15  17
ENDBRANCH  13  15
ENDBRANCH   6  13
TORSDOF 4
ENDMDL
MODEL 3
REMARK VINA RESULT:      -5.7      1.588      1.803
REMARK  Name = *****
REMARK                            x       y       z     vdW  Elec       q    Type
REMARK                         _______ _______ _______ _____ _____    ______ ____
ROOT
ATOM      1  C   LIG    1       23.642 -19.986   4.105  0.00  0.00    +0.121 A 
ATOM      2  C   LIG    1       22.890 -18.844   4.408  0.00  0.00    +0.054 A 
ATOM      3  C   LIG    1       23.421 -17.553   4.218  0.00  0.00    -0.014 A 
ATOM      4  C   LIG    1       24.732 -17.423   3.710  0.00  0.00    -0.017 A 
ATOM      5  C   LIG    1       25.281 -16.151   3.506  0.00  0.00    +0.013 A 
ATOM      6  C   LIG    1       24.561 -14.988   3.818  0.00  0.00    -0.033 A 
ATOM      7  C   LIG    1       23.260 -15.120   4.321  0.00  0.00    +0.005 A 
ATOM      8  C   LIG    1       25.478 -18.568   3.421  0.00  0.00    +0.012 A 
ATOM      9  C   LIG    1       22.696 -16.386   4.515  0.00  0.00    +0.009 A 
ATOM     10  C   LIG    1       24.939 -19.840   3.618  0.00  0.00    +0.046 A 
ENDROOT
BRANCH   1  12
ATOM     11  C   LIG    1       22.698 -21.489   5.677  0.00  0.00    +0.277 C 
ATOM     12  O   LIG    1       23.015 -21.184   4.321  0.00  0.00    -0.495 OA
ENDBRANCH   1  12
BRANCH   6  13
ATOM     13  C   LIG    1       25.200 -13.616   3.660  0.00  0.00    +0.124 C 
ATOM     14  C   LIG    1       26.078 -13.281   4.872  0.00  0.00    +0.024 C 
BRANCH  13  15
ATOM     15  C   LIG    1       24.199 -12.482   3.409  0.00  0.00    +0.312 C 
ATOM     16  O   LIG    1       23.787 -11.736   4.285  0.00  0.00    -0.250 OA
BRANCH  15  17
ATOM     17  O   LIG    1       23.840 -12.297   2.116  0.00  0.00    -0.480 OA
ATOM     18  H   LIG    1       23.959 -13.079   1.541  0.00  0.00    +0.295 HD
ENDBRANCH  15  17
ENDBRANCH  13  15
ENDBRANCH   6  13
TORSDOF 4
ENDMDL
MODEL 4
REMARK VINA RESULT:      -5.6      1.603      2.451
REMARK  Name = *****
REMARK                            x       y       z     vdW  Elec       q    Type
REMARK                         _______ _______ _______ _____ _____    ______ ____
ROOT
ATOM      1  C   LIG    1       23.172 -19.631   4.287  0.00  0.00    +0.121 A 
ATOM      2  C   LIG    1       24.430 -19.189   3.861  0.00  0.00    +0.054 A 
ATOM      3  C   LIG    1       24.729 -17.815   3.778  0.00  0.00    -0.014 A 
ATOM      4  C   LIG    1       23.736 -16.879   4.137  0.00  0.00    -0.017 A 
ATOM      5  C   LIG    1       24.009 -15.507   4.070  0.00  0.00    +0.013 A 
ATOM      6  C   LIG    1       25.253 -15.033   3.629  0.00  0.00    -0.033 A 
ATOM      7  C   LIG    1       26.237 -15.965   3.273  0.00  0.00    +0.005 A 
ATOM      8  C   LIG    1       22.479 -17.329   4.551  0.00  0.00    +0.012 A 
ATOM      9  C   LIG    1       25.980 -17.338   3.351  0.00  0.00    +0.009 A 
ATOM     10  C   LIG    1       22.198 -18.693   4.624  0.00  0.00    +0.046 A 
ENDROOT
BRANCH   1  12
ATOM     11  C   LIG    1       22.976 -21.569   5.637  0.00  0.00    +0.277 C 
ATOM     12  O   LIG    1       23.003 -20.989   4.336  0.00  0.00    -0.495 OA
ENDBRANCH   1  12
BRANCH   6  13
ATOM     13  C   LIG    1       25.508 -13.539   3.491  0.00  0.00    +0.124 C 
ATOM     14  C   LIG    1       26.133 -12.972   4.771  0.00  0.00    +0.024 C 
BRANCH  13  15
ATOM     15  C   LIG    1       24.267 -12.723   3.109  0.00  0.00    +0.312 C 
ATOM     16  O   LIG    1       23.685 -11.976   3.880  0.00  0.00    -0.250 OA
BRANCH  15  17
ATOM     17  O   LIG    1       23.882 -12.820   1.814  0.00  0.00    -0.480 OA
ATOM     18  H   LIG    1       23.602 -13.714   1.535  0.00  0.00    +0.295 HD
ENDBRANCH  15  17
ENDBRANCH  13  15
ENDBRANCH   6  13
TORSDOF 4
ENDMDL
MODEL 5
REMARK VINA RESULT:      -5.5      0.836      1.854
REMARK  Name = *****
REMARK                            x       y       z     vdW  Elec       q    Type
REMARK                         _______ _______ _______ _____ _____    ______ ____
ROOT
ATOM      1  C   LIG    1       23.051 -19.609   4.281  0.00  0.00    +0.121 A 
ATOM      2  C   LIG    1       24.323 -19.210   3.851  0.00  0.00    +0.054 A 
ATOM      3  C   LIG    1       24.669 -17.846   3.775  0.00  0.00    -0.014 A 
ATOM      4  C   LIG    1       23.711 -16.878   4.144  0.00  0.00    -0.017 A 
ATOM      5  C   LIG    1       24.032 -15.517   4.084  0.00  0.00    +0.013 A 
ATOM      6  C   LIG    1       25.290 -15.084   3.639  0.00  0.00    -0.033 A 
ATOM      7  C   LIG    1       26.240 -16.047   3.274  0.00  0.00    +0.005 A 
ATOM      8  C   LIG    1       22.441 -17.286   4.561  0.00  0.00    +0.012 A 
ATOM      9  C   LIG    1       25.934 -17.411   3.345  0.00  0.00    +0.009 A 
ATOM     10  C   LIG    1       22.112 -18.640   4.628  0.00  0.00    +0.046 A 
ENDROOT
BRANCH   1  12
ATOM     11  C   LIG    1       22.709 -21.534   5.622  0.00  0.00    +0.277 C 
ATOM     12  O   LIG    1       22.835 -20.961   4.323  0.00  0.00    -0.495 OA
ENDBRANCH   1  12
BRANCH   6  13
ATOM     13  C   LIG    1       25.597 -13.598   3.509  0.00  0.00    +0.124 C 
ATOM     14  C   LIG    1       25.266 -13.095   2.099  0.00  0.00    +0.024 C 
BRANCH  13  15
ATOM     15  C   LIG    1       27.036 -13.220   3.875  0.00  0.00    +0.312 C 
ATOM     16  O   LIG    1       27.450 -13.165   5.023  0.00  0.00    -0.250 OA
BRANCH  15  17
ATOM     17  O   LIG    1       27.870 -13.014   2.827  0.00  0.00    -0.480 OA
ATOM     18  H   LIG    1       28.789 -12.786   3.072  0.00  0.00    +0.295 HD
ENDBRANCH  15  17
ENDBRANCH  13  15
ENDBRANCH   6  13
TORSDOF 4
ENDMDL
MODEL 6
REMARK VINA RESULT:      -5.2      1.588      5.993
REMARK  Name = *****
REMARK                            x       y       z     vdW  Elec       q    Type
REMARK                         _______ _______ _______ _____ _____    ______ ____
ROOT
ATOM      1  C   LIG    1       24.948 -13.680   3.656  0.00  0.00    +0.121 A 
ATOM      2  C   LIG    1       23.790 -14.322   4.111  0.00  0.00    +0.054 A 
ATOM      3  C   LIG    1       23.703 -15.728   4.142  0.00  0.00    -0.014 A 
ATOM      4  C   LIG    1       24.808 -16.489   3.708  0.00  0.00    -0.017 A 
ATOM      5  C   LIG    1       24.750 -17.888   3.735  0.00  0.00    +0.013 A 
ATOM      6  C   LIG    1       23.597 -18.561   4.166  0.00  0.00    -0.033 A 
ATOM      7  C   LIG    1       22.501 -17.803   4.597  0.00  0.00    +0.005 A 
ATOM      8  C   LIG    1       25.956 -15.840   3.245  0.00  0.00    +0.012 A 
ATOM      9  C   LIG    1       22.554 -16.404   4.589  0.00  0.00    +0.009 A 
ATOM     10  C   LIG    1       26.026 -14.447   3.217  0.00  0.00    +0.046 A 
ENDROOT
BRANCH   1  12
ATOM     11  C   LIG    1       23.803 -11.697   3.043  0.00  0.00    +0.277 C 
ATOM     12  O   LIG    1       24.918 -12.311   3.683  0.00  0.00    -0.495 OA
ENDBRANCH   1  12
BRANCH   6  13
ATOM     13  C   LIG    1       23.524 -20.081   4.118  0.00  0.00    +0.124 C 
ATOM     14  C   LIG    1       22.265 -20.588   4.832  0.00  0.00    +0.024 C 
BRANCH  13  15
ATOM     15  C   LIG    1       24.764 -20.787   4.678  0.00  0.00    +0.312 C 
ATOM     16  O   LIG    1       24.732 -21.572   5.613  0.00  0.00    -0.250 OA
BRANCH  15  17
ATOM     17  O   LIG    1       25.921 -20.545   4.016  0.00  0.00    -0.480 OA
ATOM     18  H   LIG    1       26.680 -21.090   4.304  0.00  0.00    +0.295 HD
ENDBRANCH  15  17
ENDBRANCH  13  15
ENDBRANCH   6  13
TORSDOF 4
ENDMDL
MODEL 7
REMARK VINA RESULT:      -5.1      1.451      6.193
REMARK  Name = *****
REMARK                            x       y       z     vdW  Elec       q    Type
REMARK                         _______ _______ _______ _____ _____    ______ ____
ROOT
ATOM      1  C   LIG    1       25.003 -14.286   3.541  0.00  0.00    +0.121 A 
ATOM      2  C   LIG    1       23.791 -14.815   4.001  0.00  0.00    +0.054 A 
ATOM      3  C   LIG    1       23.605 -16.206   4.123  0.00  0.00    -0.014 A 
ATOM      4  C   LIG    1       24.666 -17.069   3.776  0.00  0.00    -0.017 A 
ATOM      5  C   LIG    1       24.509 -18.455   3.894  0.00  0.00    +0.013 A 
ATOM      6  C   LIG    1       23.301 -19.017   4.334  0.00  0.00    -0.033 A 
ATOM      7  C   LIG    1       22.249 -18.158   4.678  0.00  0.00    +0.005 A 
ATOM      8  C   LIG    1       25.868 -16.533   3.307  0.00  0.00    +0.012 A 
ATOM      9  C   LIG    1       22.400 -16.771   4.578  0.00  0.00    +0.009 A 
ATOM     10  C   LIG    1       26.036 -15.153   3.188  0.00  0.00    +0.046 A 
ENDROOT
BRANCH   1  12
ATOM     11  C   LIG    1       24.480 -12.321   2.324  0.00  0.00    +0.277 C 
ATOM     12  O   LIG    1       25.068 -12.920   3.475  0.00  0.00    -0.495 OA
ENDBRANCH   1  12
BRANCH   6  13
ATOM     13  C   LIG    1       23.123 -20.528   4.385  0.00  0.00    +0.124 C 
ATOM     14  C   LIG    1       21.654 -20.896   4.625  0.00  0.00    +0.024 C 
BRANCH  13  15
ATOM     15  C   LIG    1       24.013 -21.231   5.417  0.00  0.00    +0.312 C 
ATOM     16  O   LIG    1       25.165 -21.572   5.196  0.00  0.00    -0.250 OA
BRANCH  15  17
ATOM     17  O   LIG    1       23.466 -21.393   6.645  0.00  0.00    -0.480 OA
ATOM     18  H   LIG    1       22.695 -20.821   6.830  0.00  0.00    +0.295 HD
ENDBRANCH  15  17
ENDBRANCH  13  15
ENDBRANCH   6  13
TORSDOF 4
ENDMDL
MODEL 8
REMARK VINA RESULT:      -4.4      1.312      6.449
REMARK  Name = *****
REMARK                            x       y       z     vdW  Elec       q    Type
REMARK                         _______ _______ _______ _____ _____    ______ ____
ROOT
ATOM      1  C   LIG    1       24.716 -14.201   3.620  0.00  0.00    +0.121 A 
ATOM      2  C   LIG    1       25.613 -15.241   3.347  0.00  0.00    +0.054 A 
ATOM      3  C   LIG    1       25.252 -16.586   3.560  0.00  0.00    -0.014 A 
ATOM      4  C   LIG    1       23.963 -16.876   4.054  0.00  0.00    -0.017 A 
ATOM      5  C   LIG    1       23.577 -18.205   4.268  0.00  0.00    +0.013 A 
ATOM      6  C   LIG    1       24.459 -19.268   4.023  0.00  0.00    -0.033 A 
ATOM      7  C   LIG    1       25.739 -18.977   3.533  0.00  0.00    +0.005 A 
ATOM      8  C   LIG    1       23.079 -15.831   4.334  0.00  0.00    +0.012 A 
ATOM      9  C   LIG    1       26.129 -17.654   3.301  0.00  0.00    +0.009 A 
ATOM     10  C   LIG    1       23.451 -14.504   4.121  0.00  0.00    +0.046 A 
ENDROOT
BRANCH   1  12
ATOM     11  C   LIG    1       24.708 -12.333   2.161  0.00  0.00    +0.277 C 
ATOM     12  O   LIG    1       25.176 -12.937   3.364  0.00  0.00    -0.495 OA
ENDBRANCH   1  12
BRANCH   6  13
ATOM     13  C   LIG    1       24.050 -20.701   4.332  0.00  0.00    +0.124 C 
ATOM     14  C   LIG    1       23.690 -21.455   3.047  0.00  0.00    +0.024 C 
BRANCH  13  15
ATOM     15  C   LIG    1       22.908 -20.823   5.348  0.00  0.00    +0.312 C 
ATOM     16  O   LIG    1       23.008 -20.501   6.522  0.00  0.00    -0.250 OA
BRANCH  15  17
ATOM     17  O   LIG    1       21.724 -21.249   4.845  0.00  0.00    -0.480 OA
ATOM     18  H   LIG    1       21.107 -21.620   5.507  0.00  0.00    +0.295 HD
ENDBRANCH  15  17
ENDBRANCH  13  15
ENDBRANCH   6  13
TORSDOF 4
ENDMDL
