MODEL 1
REMARK VINA RESULT:      -9.4      0.000      0.000
REMARK  Name = *****
REMARK                            x       y       z     vdW  Elec       q    Type
REMARK                         _______ _______ _______ _____ _____    ______ ____
ROOT
ATOM      1  C   LIG    1       27.198 -21.796   8.053  0.00  0.00    +0.044 C 
ATOM      2  C   LIG    1       26.589 -22.549   6.873  0.00  0.00    +0.006 C 
ATOM      3  C   LIG    1       25.643 -21.572   6.176  0.00  0.00    -0.001 C 
ATOM      4  C   LIG    1       24.638 -22.473   5.440  0.00  0.00    +0.034 C 
ATOM      5  C   LIG    1       24.797 -23.828   6.102  0.00  0.00    -0.073 C 
ATOM      6  C   LIG    1       24.351 -24.990   5.595  0.00  0.00    -0.027 C 
ATOM      7  C   LIG    1       25.062 -20.752   7.330  0.00  0.00    +0.036 C 
ATOM      8  C   LIG    1       25.674 -23.687   7.311  0.00  0.00    +0.035 C 
ATOM      9  C   LIG    1       26.176 -20.682   8.385  0.00  0.00    +0.122 C 
ENDROOT
BRANCH   1  11
ATOM     10  C   LIG    1       28.878 -19.930   7.834  0.00  0.00    +0.000 C 
ATOM     11  C   LIG    1       28.535 -21.217   7.652  0.00  0.00    -0.022 C 
BRANCH  10  12
ATOM     12  C   LIG    1       30.198 -19.291   7.476  0.00  0.00    +0.141 C 
BRANCH  12  13
ATOM     13  C   LIG    1       30.918 -18.623   8.676  0.00  0.00    +0.030 C 
ATOM     14  C   LIG    1       32.221 -17.910   8.280  0.00  0.00    +0.011 C 
BRANCH  13  15
ATOM     15  C   LIG    1       29.973 -17.658   9.431  0.00  0.00    +0.095 C 
BRANCH  15  18
ATOM     16  C   LIG    1       31.992 -16.105  12.680  0.00  0.00    +0.106 C 
ATOM     17  C   LIG    1       31.191 -16.658  11.585  0.00  0.00    -0.106 C 
ATOM     18  C   LIG    1       30.599 -17.107  10.649  0.00  0.00    -0.102 C 
ENDBRANCH  15  18
ENDBRANCH  13  15
ENDBRANCH  12  13
BRANCH  12  19
ATOM     19  O   LIG    1       29.985 -18.303   6.465  0.00  0.00    -0.388 OA
ATOM     20  H   LIG    1       30.814 -17.798   6.390  0.00  0.00    +0.210 HD
ENDBRANCH  12  19
ENDBRANCH  10  12
ENDBRANCH   1  11
BRANCH   9  21
ATOM     21  O   LIG    1       25.631 -20.855   9.689  0.00  0.00    -0.391 OA
ATOM     22  H   LIG    1       24.952 -20.172   9.828  0.00  0.00    +0.210 HD
ENDBRANCH   9  21
BRANCH   6  23
ATOM     23  C   LIG    1       24.640 -26.350   6.176  0.00  0.00    +0.028 C 
BRANCH  23  24
ATOM     24  C   LIG    1       25.321 -27.289   5.174  0.00  0.00    +0.015 C 
BRANCH  24  25
ATOM     25  C   LIG    1       25.430 -28.724   5.702  0.00  0.00    +0.121 C 
BRANCH  25  26
ATOM     26  C   LIG    1       24.123 -29.254   6.252  0.00  0.00    +0.305 C 
ATOM     27  O   LIG    1       23.929 -29.543   7.422  0.00  0.00    -0.251 OA
BRANCH  26  28
ATOM     28  O   LIG    1       23.151 -29.361   5.317  0.00  0.00    -0.481 OA
ATOM     29  H   LIG    1       23.185 -30.171   4.775  0.00  0.00    +0.295 HD
ENDBRANCH  26  28
ENDBRANCH  25  26
ENDBRANCH  24  25
ENDBRANCH  23  24
ENDBRANCH   6  23
TORSDOF 12
ENDMDL
MODEL 2
REMARK VINA RESULT:      -9.4      2.295      9.525
REMARK  Name = *****
REMARK                            x       y       z     vdW  Elec       q    Type
REMARK                         _______ _______ _______ _____ _____    ______ ____
ROOT
ATOM      1  C   LIG    1       24.622 -23.105   5.798  0.00  0.00    +0.044 C 
ATOM      2  C   LIG    1       25.765 -22.533   6.632  0.00  0.00    +0.006 C 
ATOM      3  C   LIG    1       25.181 -22.207   8.006  0.00  0.00    -0.001 C 
ATOM      4  C   LIG    1       26.115 -21.125   8.572  0.00  0.00    +0.034 C 
ATOM      5  C   LIG    1       26.865 -20.608   7.359  0.00  0.00    -0.073 C 
ATOM      6  C   LIG    1       27.993 -19.879   7.404  0.00  0.00    -0.027 C 
ATOM      7  C   LIG    1       23.758 -21.740   7.688  0.00  0.00    +0.036 C 
ATOM      8  C   LIG    1       26.251 -21.183   6.117  0.00  0.00    +0.035 C 
ATOM      9  C   LIG    1       23.335 -22.535   6.443  0.00  0.00    +0.122 C 
ENDROOT
BRANCH   1  11
ATOM     10  C   LIG    1       25.399 -25.384   5.056  0.00  0.00    +0.000 C 
ATOM     11  C   LIG    1       24.649 -24.614   5.863  0.00  0.00    -0.022 C 
BRANCH  10  12
ATOM     12  C   LIG    1       25.488 -26.892   5.079  0.00  0.00    +0.141 C 
BRANCH  12  13
ATOM     13  C   LIG    1       24.881 -27.537   6.352  0.00  0.00    +0.030 C 
ATOM     14  C   LIG    1       24.166 -28.868   6.074  0.00  0.00    +0.011 C 
BRANCH  13  15
ATOM     15  C   LIG    1       25.950 -27.708   7.458  0.00  0.00    +0.095 C 
BRANCH  15  18
ATOM     16  C   LIG    1       24.996 -30.552  10.294  0.00  0.00    +0.106 C 
ATOM     17  C   LIG    1       25.337 -29.618   9.218  0.00  0.00    -0.106 C 
ATOM     18  C   LIG    1       25.613 -28.801   8.391  0.00  0.00    -0.102 C 
ENDBRANCH  15  18
ENDBRANCH  13  15
ENDBRANCH  12  13
BRANCH  12  19
ATOM     19  O   LIG    1       26.859 -27.285   4.979  0.00  0.00    -0.388 OA
ATOM     20  H   LIG    1       27.221 -27.264   5.881  0.00  0.00    +0.210 HD
ENDBRANCH  12  19
ENDBRANCH  10  12
ENDBRANCH   1  11
BRANCH   9  21
ATOM     21  O   LIG    1       22.634 -21.691   5.536  0.00  0.00    -0.391 OA
ATOM     22  H   LIG    1       21.969 -21.189   6.038  0.00  0.00    +0.210 HD
ENDBRANCH   9  21
BRANCH   6  23
ATOM     23  C   LIG    1       28.819 -19.496   6.203  0.00  0.00    +0.028 C 
BRANCH  23  24
ATOM     24  C   LIG    1       30.209 -18.975   6.583  0.00  0.00    +0.015 C 
BRANCH  24  25
ATOM     25  C   LIG    1       30.250 -18.407   8.006  0.00  0.00    +0.121 C 
BRANCH  25  26
ATOM     26  C   LIG    1       31.637 -18.425   8.611  0.00  0.00    +0.305 C 
ATOM     27  O   LIG    1       32.105 -19.357   9.247  0.00  0.00    -0.251 OA
BRANCH  26  28
ATOM     28  O   LIG    1       32.347 -17.302   8.362  0.00  0.00    -0.481 OA
ATOM     29  H   LIG    1       33.137 -17.177   8.921  0.00  0.00    +0.295 HD
ENDBRANCH  26  28
ENDBRANCH  25  26
ENDBRANCH  24  25
ENDBRANCH  23  24
ENDBRANCH   6  23
TORSDOF 12
ENDMDL
MODEL 3
REMARK VINA RESULT:      -9.2      2.280     10.010
REMARK  Name = *****
REMARK                            x       y       z     vdW  Elec       q    Type
REMARK                         _______ _______ _______ _____ _____    ______ ____
ROOT
ATOM      1  C   LIG    1       24.829 -23.481   6.174  0.00  0.00    +0.044 C 
ATOM      2  C   LIG    1       25.869 -22.747   7.015  0.00  0.00    +0.006 C 
ATOM      3  C   LIG    1       25.128 -22.173   8.222  0.00  0.00    -0.001 C 
ATOM      4  C   LIG    1       25.997 -20.992   8.680  0.00  0.00    +0.034 C 
ATOM      5  C   LIG    1       26.892 -20.704   7.490  0.00  0.00    -0.073 C 
ATOM      6  C   LIG    1       28.014 -19.965   7.530  0.00  0.00    -0.027 C 
ATOM      7  C   LIG    1       23.758 -21.795   7.654  0.00  0.00    +0.036 C 
ATOM      8  C   LIG    1       26.426 -21.512   6.315  0.00  0.00    +0.035 C 
ATOM      9  C   LIG    1       23.479 -22.817   6.541  0.00  0.00    +0.122 C 
ENDROOT
BRANCH   1  11
ATOM     10  C   LIG    1       25.872 -25.772   6.297  0.00  0.00    +0.000 C 
ATOM     11  C   LIG    1       24.834 -24.950   6.527  0.00  0.00    -0.022 C 
BRANCH  10  12
ATOM     12  C   LIG    1       25.951 -27.241   6.641  0.00  0.00    +0.141 C 
BRANCH  12  13
ATOM     13  C   LIG    1       24.609 -27.998   6.472  0.00  0.00    +0.030 C 
ATOM     14  C   LIG    1       24.291 -28.350   5.011  0.00  0.00    +0.011 C 
BRANCH  13  15
ATOM     15  C   LIG    1       24.562 -29.262   7.364  0.00  0.00    +0.095 C 
BRANCH  15  18
ATOM     16  C   LIG    1       26.445 -32.624   5.883  0.00  0.00    +0.106 C 
ATOM     17  C   LIG    1       25.816 -31.378   6.330  0.00  0.00    -0.106 C 
ATOM     18  C   LIG    1       25.273 -30.400   6.752  0.00  0.00    -0.102 C 
ENDBRANCH  15  18
ENDBRANCH  13  15
ENDBRANCH  12  13
BRANCH  12  19
ATOM     19  O   LIG    1       26.389 -27.385   7.994  0.00  0.00    -0.388 OA
ATOM     20  H   LIG    1       27.323 -27.657   7.956  0.00  0.00    +0.210 HD
ENDBRANCH  12  19
ENDBRANCH  10  12
ENDBRANCH   1  11
BRANCH   9  21
ATOM     21  O   LIG    1       22.900 -22.170   5.413  0.00  0.00    -0.391 OA
ATOM     22  H   LIG    1       22.171 -21.607   5.726  0.00  0.00    +0.210 HD
ENDBRANCH   9  21
BRANCH   6  23
ATOM     23  C   LIG    1       28.981 -19.805   6.386  0.00  0.00    +0.028 C 
BRANCH  23  24
ATOM     24  C   LIG    1       30.060 -18.754   6.666  0.00  0.00    +0.015 C 
BRANCH  24  25
ATOM     25  C   LIG    1       30.194 -18.439   8.160  0.00  0.00    +0.121 C 
BRANCH  25  26
ATOM     26  C   LIG    1       31.626 -18.479   8.648  0.00  0.00    +0.305 C 
ATOM     27  O   LIG    1       32.127 -19.414   9.253  0.00  0.00    -0.251 OA
BRANCH  26  28
ATOM     28  O   LIG    1       32.334 -17.372   8.328  0.00  0.00    -0.481 OA
ATOM     29  H   LIG    1       32.742 -17.383   7.441  0.00  0.00    +0.295 HD
ENDBRANCH  26  28
ENDBRANCH  25  26
ENDBRANCH  24  25
ENDBRANCH  23  24
ENDBRANCH   6  23
TORSDOF 12
ENDMDL
MODEL 4
REMARK VINA RESULT:      -8.9      2.128      9.433
REMARK  Name = *****
REMARK                            x       y       z     vdW  Elec       q    Type
REMARK                         _______ _______ _______ _____ _____    ______ ____
ROOT
ATOM      1  C   LIG    1       24.571 -21.996   5.513  0.00  0.00    +0.044 C 
ATOM      2  C   LIG    1       25.734 -21.793   6.481  0.00  0.00    +0.006 C 
ATOM      3  C   LIG    1       25.118 -21.420   7.829  0.00  0.00    -0.001 C 
ATOM      4  C   LIG    1       26.232 -20.654   8.560  0.00  0.00    +0.034 C 
ATOM      5  C   LIG    1       27.202 -20.266   7.461  0.00  0.00    -0.073 C 
ATOM      6  C   LIG    1       28.466 -19.855   7.658  0.00  0.00    -0.027 C 
ATOM      7  C   LIG    1       23.894 -20.586   7.445  0.00  0.00    +0.036 C 
ATOM      8  C   LIG    1       26.588 -20.580   6.128  0.00  0.00    +0.035 C 
ATOM      9  C   LIG    1       23.410 -21.160   6.105  0.00  0.00    +0.122 C 
ENDROOT
BRANCH   1  11
ATOM     10  C   LIG    1       24.909 -24.431   6.068  0.00  0.00    +0.000 C 
ATOM     11  C   LIG    1       24.216 -23.462   5.445  0.00  0.00    -0.022 C 
BRANCH  10  12
ATOM     12  C   LIG    1       24.599 -25.909   6.058  0.00  0.00    +0.141 C 
BRANCH  12  13
ATOM     13  C   LIG    1       25.650 -26.765   5.306  0.00  0.00    +0.030 C 
ATOM     14  C   LIG    1       27.055 -26.680   5.922  0.00  0.00    +0.011 C 
BRANCH  13  15
ATOM     15  C   LIG    1       25.191 -28.239   5.186  0.00  0.00    +0.095 C 
BRANCH  15  18
ATOM     16  C   LIG    1       24.100 -30.104   8.703  0.00  0.00    +0.106 C 
ATOM     17  C   LIG    1       24.481 -29.353   7.504  0.00  0.00    -0.106 C 
ATOM     18  C   LIG    1       24.797 -28.805   6.491  0.00  0.00    -0.102 C 
ENDBRANCH  15  18
ENDBRANCH  13  15
ENDBRANCH  12  13
BRANCH  12  19
ATOM     19  O   LIG    1       23.322 -26.119   5.452  0.00  0.00    -0.388 OA
ATOM     20  H   LIG    1       22.783 -26.604   6.100  0.00  0.00    +0.210 HD
ENDBRANCH  12  19
ENDBRANCH  10  12
ENDBRANCH   1  11
BRANCH   9  21
ATOM     21  O   LIG    1       23.033 -20.107   5.225  0.00  0.00    -0.391 OA
ATOM     22  H   LIG    1       22.256 -20.398   4.717  0.00  0.00    +0.210 HD
ENDBRANCH   9  21
BRANCH   6  23
ATOM     23  C   LIG    1       29.474 -19.616   6.563  0.00  0.00    +0.028 C 
BRANCH  23  24
ATOM     24  C   LIG    1       30.816 -19.105   7.097  0.00  0.00    +0.015 C 
BRANCH  24  25
ATOM     25  C   LIG    1       30.649 -18.195   8.319  0.00  0.00    +0.121 C 
BRANCH  25  26
ATOM     26  C   LIG    1       31.199 -18.804   9.591  0.00  0.00    +0.305 C 
ATOM     27  O   LIG    1       30.816 -18.524  10.716  0.00  0.00    -0.251 OA
BRANCH  26  28
ATOM     28  O   LIG    1       32.159 -19.732   9.372  0.00  0.00    -0.481 OA
ATOM     29  H   LIG    1       32.265 -20.395  10.080  0.00  0.00    +0.295 HD
ENDBRANCH  26  28
ENDBRANCH  25  26
ENDBRANCH  24  25
ENDBRANCH  23  24
ENDBRANCH   6  23
TORSDOF 12
ENDMDL
MODEL 5
REMARK VINA RESULT:      -8.9      3.106      6.089
REMARK  Name = *****
REMARK                            x       y       z     vdW  Elec       q    Type
REMARK                         _______ _______ _______ _____ _____    ______ ____
ROOT
ATOM      1  C   LIG    1       26.784 -21.841   6.796  0.00  0.00    +0.044 C 
ATOM      2  C   LIG    1       25.617 -20.858   6.738  0.00  0.00    +0.006 C 
ATOM      3  C   LIG    1       24.560 -21.379   7.711  0.00  0.00    -0.001 C 
ATOM      4  C   LIG    1       23.241 -20.779   7.199  0.00  0.00    +0.034 C 
ATOM      5  C   LIG    1       23.552 -20.349   5.779  0.00  0.00    -0.073 C 
ATOM      6  C   LIG    1       22.803 -19.506   5.047  0.00  0.00    -0.027 C 
ATOM      7  C   LIG    1       24.678 -22.900   7.587  0.00  0.00    +0.036 C 
ATOM      8  C   LIG    1       24.904 -20.870   5.390  0.00  0.00    +0.035 C 
ATOM      9  C   LIG    1       26.158 -23.172   7.279  0.00  0.00    +0.122 C 
ENDROOT
BRANCH   1  11
ATOM     10  C   LIG    1       29.141 -21.282   7.492  0.00  0.00    +0.000 C 
ATOM     11  C   LIG    1       27.826 -21.337   7.767  0.00  0.00    -0.022 C 
BRANCH  10  12
ATOM     12  C   LIG    1       30.230 -20.775   8.406  0.00  0.00    +0.141 C 
BRANCH  12  13
ATOM     13  C   LIG    1       30.697 -19.331   8.085  0.00  0.00    +0.030 C 
ATOM     14  C   LIG    1       30.794 -19.047   6.578  0.00  0.00    +0.011 C 
BRANCH  13  15
ATOM     15  C   LIG    1       29.799 -18.283   8.785  0.00  0.00    +0.095 C 
BRANCH  15  18
ATOM     16  C   LIG    1       31.563 -16.372  11.990  0.00  0.00    +0.106 C 
ATOM     17  C   LIG    1       30.959 -17.139  10.898  0.00  0.00    -0.106 C 
ATOM     18  C   LIG    1       30.449 -17.700   9.974  0.00  0.00    -0.102 C 
ENDBRANCH  15  18
ENDBRANCH  13  15
ENDBRANCH  12  13
BRANCH  12  19
ATOM     19  O   LIG    1       31.360 -21.647   8.324  0.00  0.00    -0.388 OA
ATOM     20  H   LIG    1       31.565 -21.923   9.234  0.00  0.00    +0.210 HD
ENDBRANCH  12  19
ENDBRANCH  10  12
ENDBRANCH   1  11
BRANCH   9  21
ATOM     21  O   LIG    1       26.276 -24.186   6.286  0.00  0.00    -0.391 OA
ATOM     22  H   LIG    1       27.205 -24.226   6.001  0.00  0.00    +0.210 HD
ENDBRANCH   9  21
BRANCH   6  23
ATOM     23  C   LIG    1       23.191 -18.962   3.696  0.00  0.00    +0.028 C 
BRANCH  23  24
ATOM     24  C   LIG    1       24.153 -17.773   3.791  0.00  0.00    +0.015 C 
BRANCH  24  25
ATOM     25  C   LIG    1       25.554 -18.115   3.272  0.00  0.00    +0.121 C 
BRANCH  25  26
ATOM     26  C   LIG    1       26.532 -16.967   3.407  0.00  0.00    +0.305 C 
ATOM     27  O   LIG    1       26.292 -15.811   3.093  0.00  0.00    -0.251 OA
BRANCH  26  28
ATOM     28  O   LIG    1       27.719 -17.332   3.942  0.00  0.00    -0.481 OA
ATOM     29  H   LIG    1       28.506 -16.991   3.477  0.00  0.00    +0.295 HD
ENDBRANCH  26  28
ENDBRANCH  25  26
ENDBRANCH  24  25
ENDBRANCH  23  24
ENDBRANCH   6  23
TORSDOF 12
ENDMDL
MODEL 6
REMARK VINA RESULT:      -8.8      1.336      2.081
REMARK  Name = *****
REMARK                            x       y       z     vdW  Elec       q    Type
REMARK                         _______ _______ _______ _____ _____    ______ ____
ROOT
ATOM      1  C   LIG    1       27.173 -21.650   7.802  0.00  0.00    +0.044 C 
ATOM      2  C   LIG    1       26.447 -22.455   6.728  0.00  0.00    +0.006 C 
ATOM      3  C   LIG    1       25.348 -21.549   6.173  0.00  0.00    -0.001 C 
ATOM      4  C   LIG    1       24.305 -22.519   5.598  0.00  0.00    +0.034 C 
ATOM      5  C   LIG    1       24.645 -23.853   6.235  0.00  0.00    -0.073 C 
ATOM      6  C   LIG    1       24.203 -25.047   5.805  0.00  0.00    -0.027 C 
ATOM      7  C   LIG    1       24.892 -20.749   7.396  0.00  0.00    +0.036 C 
ATOM      8  C   LIG    1       25.679 -23.642   7.301  0.00  0.00    +0.035 C 
ATOM      9  C   LIG    1       26.142 -20.596   8.276  0.00  0.00    +0.122 C 
ENDROOT
BRANCH   1  11
ATOM     10  C   LIG    1       28.544 -19.665   7.073  0.00  0.00    +0.000 C 
ATOM     11  C   LIG    1       28.397 -20.994   7.206  0.00  0.00    -0.022 C 
BRANCH  10  12
ATOM     12  C   LIG    1       29.744 -18.944   6.505  0.00  0.00    +0.141 C 
BRANCH  12  13
ATOM     13  C   LIG    1       30.531 -18.115   7.553  0.00  0.00    +0.030 C 
ATOM     14  C   LIG    1       29.701 -17.769   8.799  0.00  0.00    +0.011 C 
BRANCH  13  15
ATOM     15  C   LIG    1       31.851 -18.818   7.949  0.00  0.00    +0.095 C 
BRANCH  15  18
ATOM     16  C   LIG    1       31.111 -22.541   9.571  0.00  0.00    +0.106 C 
ATOM     17  C   LIG    1       31.395 -21.187   9.090  0.00  0.00    -0.106 C 
ATOM     18  C   LIG    1       31.612 -20.106   8.628  0.00  0.00    -0.102 C 
ENDBRANCH  15  18
ENDBRANCH  13  15
ENDBRANCH  12  13
BRANCH  12  19
ATOM     19  O   LIG    1       29.318 -18.070   5.458  0.00  0.00    -0.388 OA
ATOM     20  H   LIG    1       29.136 -18.631   4.684  0.00  0.00    +0.210 HD
ENDBRANCH  12  19
ENDBRANCH  10  12
ENDBRANCH   1  11
BRANCH   9  21
ATOM     21  O   LIG    1       25.806 -20.784   9.646  0.00  0.00    -0.391 OA
ATOM     22  H   LIG    1       26.617 -20.684  10.175  0.00  0.00    +0.210 HD
ENDBRANCH   9  21
BRANCH   6  23
ATOM     23  C   LIG    1       24.660 -26.378   6.343  0.00  0.00    +0.028 C 
BRANCH  23  24
ATOM     24  C   LIG    1       25.413 -27.212   5.300  0.00  0.00    +0.015 C 
BRANCH  24  25
ATOM     25  C   LIG    1       25.443 -28.702   5.656  0.00  0.00    +0.121 C 
BRANCH  25  26
ATOM     26  C   LIG    1       24.130 -29.203   6.219  0.00  0.00    +0.305 C 
ATOM     27  O   LIG    1       23.922 -29.426   7.402  0.00  0.00    -0.251 OA
BRANCH  26  28
ATOM     28  O   LIG    1       23.170 -29.365   5.281  0.00  0.00    -0.481 OA
ATOM     29  H   LIG    1       23.343 -28.921   4.429  0.00  0.00    +0.295 HD
ENDBRANCH  26  28
ENDBRANCH  25  26
ENDBRANCH  24  25
ENDBRANCH  23  24
ENDBRANCH   6  23
TORSDOF 12
ENDMDL
MODEL 7
REMARK VINA RESULT:      -8.5      1.443      2.162
REMARK  Name = *****
REMARK                            x       y       z     vdW  Elec       q    Type
REMARK                         _______ _______ _______ _____ _____    ______ ____
ROOT
ATOM      1  C   LIG    1       25.353 -21.660   7.854  0.00  0.00    +0.044 C 
ATOM      2  C   LIG    1       25.540 -22.781   6.835  0.00  0.00    +0.006 C 
ATOM      3  C   LIG    1       25.170 -22.198   5.472  0.00  0.00    -0.001 C 
ATOM      4  C   LIG    1       24.778 -23.419   4.626  0.00  0.00    +0.034 C 
ATOM      5  C   LIG    1       24.527 -24.514   5.646  0.00  0.00    -0.073 C 
ATOM      6  C   LIG    1       24.459 -25.827   5.366  0.00  0.00    -0.027 C 
ATOM      7  C   LIG    1       24.027 -21.232   5.795  0.00  0.00    +0.036 C 
ATOM      8  C   LIG    1       24.543 -23.919   7.023  0.00  0.00    +0.035 C 
ATOM      9  C   LIG    1       24.325 -20.701   7.205  0.00  0.00    +0.122 C 
ENDROOT
BRANCH   1  11
ATOM     10  C   LIG    1       27.855 -21.430   7.652  0.00  0.00    +0.000 C 
ATOM     11  C   LIG    1       26.674 -20.968   8.098  0.00  0.00    -0.022 C 
BRANCH  10  12
ATOM     12  C   LIG    1       29.205 -20.781   7.843  0.00  0.00    +0.141 C 
BRANCH  12  13
ATOM     13  C   LIG    1       29.725 -20.033   6.589  0.00  0.00    +0.030 C 
ATOM     14  C   LIG    1       28.611 -19.335   5.794  0.00  0.00    +0.011 C 
BRANCH  13  15
ATOM     15  C   LIG    1       30.847 -19.032   6.957  0.00  0.00    +0.095 C 
BRANCH  15  18
ATOM     16  C   LIG    1       30.406 -17.018  10.533  0.00  0.00    +0.106 C 
ATOM     17  C   LIG    1       30.470 -17.773   9.279  0.00  0.00    -0.106 C 
ATOM     18  C   LIG    1       30.589 -18.359   8.244  0.00  0.00    -0.102 C 
ENDBRANCH  15  18
ENDBRANCH  13  15
ENDBRANCH  12  13
BRANCH  12  19
ATOM     19  O   LIG    1       30.161 -21.780   8.207  0.00  0.00    -0.388 OA
ATOM     20  H   LIG    1       30.821 -21.341   8.771  0.00  0.00    +0.210 HD
ENDBRANCH  12  19
ENDBRANCH  10  12
ENDBRANCH   1  11
BRANCH   9  21
ATOM     21  O   LIG    1       23.126 -20.637   7.971  0.00  0.00    -0.391 OA
ATOM     22  H   LIG    1       22.448 -21.168   7.520  0.00  0.00    +0.210 HD
ENDBRANCH   9  21
BRANCH   6  23
ATOM     23  C   LIG    1       24.362 -26.922   6.396  0.00  0.00    +0.028 C 
BRANCH  23  24
ATOM     24  C   LIG    1       25.546 -27.893   6.340  0.00  0.00    +0.015 C 
BRANCH  24  25
ATOM     25  C   LIG    1       25.272 -29.095   5.430  0.00  0.00    +0.121 C 
BRANCH  25  26
ATOM     26  C   LIG    1       24.519 -30.208   6.128  0.00  0.00    +0.305 C 
ATOM     27  O   LIG    1       24.983 -30.911   7.012  0.00  0.00    -0.251 OA
BRANCH  26  28
ATOM     28  O   LIG    1       23.245 -30.346   5.698  0.00  0.00    -0.481 OA
ATOM     29  H   LIG    1       23.053 -31.180   5.229  0.00  0.00    +0.295 HD
ENDBRANCH  26  28
ENDBRANCH  25  26
ENDBRANCH  24  25
ENDBRANCH  23  24
ENDBRANCH   6  23
TORSDOF 12
ENDMDL
MODEL 8
REMARK VINA RESULT:      -8.4      2.802     10.050
REMARK  Name = *****
REMARK                            x       y       z     vdW  Elec       q    Type
REMARK                         _______ _______ _______ _____ _____    ______ ____
ROOT
ATOM      1  C   LIG    1       25.874 -27.208   6.590  0.00  0.00    +0.044 C 
ATOM      2  C   LIG    1       25.057 -25.942   6.831  0.00  0.00    +0.006 C 
ATOM      3  C   LIG    1       24.352 -25.622   5.513  0.00  0.00    -0.001 C 
ATOM      4  C   LIG    1       24.071 -24.113   5.585  0.00  0.00    +0.034 C 
ATOM      5  C   LIG    1       24.991 -23.614   6.683  0.00  0.00    -0.073 C 
ATOM      6  C   LIG    1       24.878 -22.428   7.305  0.00  0.00    -0.027 C 
ATOM      7  C   LIG    1       25.369 -26.047   4.451  0.00  0.00    +0.036 C 
ATOM      8  C   LIG    1       25.929 -24.717   7.080  0.00  0.00    +0.035 C 
ATOM      9  C   LIG    1       26.130 -27.233   5.063  0.00  0.00    +0.122 C 
ENDROOT
BRANCH   1  11
ATOM     10  C   LIG    1       25.044 -29.577   6.358  0.00  0.00    +0.000 C 
ATOM     11  C   LIG    1       25.085 -28.417   7.036  0.00  0.00    -0.022 C 
BRANCH  10  12
ATOM     12  C   LIG    1       24.294 -30.826   6.755  0.00  0.00    +0.141 C 
BRANCH  12  13
ATOM     13  C   LIG    1       25.198 -32.075   6.919  0.00  0.00    +0.030 C 
ATOM     14  C   LIG    1       26.532 -31.961   6.166  0.00  0.00    +0.011 C 
BRANCH  13  15
ATOM     15  C   LIG    1       25.437 -32.402   8.413  0.00  0.00    +0.095 C 
BRANCH  15  18
ATOM     16  C   LIG    1       27.385 -29.419  10.498  0.00  0.00    +0.106 C 
ATOM     17  C   LIG    1       26.778 -30.488   9.701  0.00  0.00    -0.106 C 
ATOM     18  C   LIG    1       26.221 -31.353   9.093  0.00  0.00    -0.102 C 
ENDBRANCH  15  18
ENDBRANCH  13  15
ENDBRANCH  12  13
BRANCH  12  19
ATOM     19  O   LIG    1       23.298 -31.110   5.771  0.00  0.00    -0.388 OA
ATOM     20  H   LIG    1       22.901 -30.258   5.522  0.00  0.00    +0.210 HD
ENDBRANCH  12  19
ENDBRANCH  10  12
ENDBRANCH   1  11
BRANCH   9  21
ATOM     21  O   LIG    1       27.520 -27.130   4.772  0.00  0.00    -0.391 OA
ATOM     22  H   LIG    1       27.963 -26.728   5.539  0.00  0.00    +0.210 HD
ENDBRANCH   9  21
BRANCH   6  23
ATOM     23  C   LIG    1       25.696 -21.998   8.495  0.00  0.00    +0.028 C 
BRANCH  23  24
ATOM     24  C   LIG    1       26.313 -20.607   8.317  0.00  0.00    +0.015 C 
BRANCH  24  25
ATOM     25  C   LIG    1       27.250 -20.535   7.105  0.00  0.00    +0.121 C 
BRANCH  25  26
ATOM     26  C   LIG    1       28.668 -20.156   7.475  0.00  0.00    +0.305 C 
ATOM     27  O   LIG    1       28.983 -19.554   8.489  0.00  0.00    -0.251 OA
BRANCH  26  28
ATOM     28  O   LIG    1       29.588 -20.574   6.575  0.00  0.00    -0.481 OA
ATOM     29  H   LIG    1       29.951 -21.465   6.736  0.00  0.00    +0.295 HD
ENDBRANCH  26  28
ENDBRANCH  25  26
ENDBRANCH  24  25
ENDBRANCH  23  24
ENDBRANCH   6  23
TORSDOF 12
ENDMDL
MODEL 9
REMARK VINA RESULT:      -8.3      3.695     10.111
REMARK  Name = *****
REMARK                            x       y       z     vdW  Elec       q    Type
REMARK                         _______ _______ _______ _____ _____    ______ ____
ROOT
ATOM      1  C   LIG    1       28.002 -20.011   7.489  0.00  0.00    +0.044 C 
ATOM      2  C   LIG    1       29.216 -19.086   7.454  0.00  0.00    +0.006 C 
ATOM      3  C   LIG    1       30.402 -19.941   7.006  0.00  0.00    -0.001 C 
ATOM      4  C   LIG    1       31.634 -19.204   7.555  0.00  0.00    +0.034 C 
ATOM      5  C   LIG    1       31.071 -18.272   8.611  0.00  0.00    -0.073 C 
ATOM      6  C   LIG    1       31.724 -17.223   9.140  0.00  0.00    -0.027 C 
ATOM      7  C   LIG    1       30.120 -21.304   7.642  0.00  0.00    +0.036 C 
ATOM      8  C   LIG    1       29.625 -18.600   8.840  0.00  0.00    +0.035 C 
ATOM      9  C   LIG    1       28.589 -21.431   7.678  0.00  0.00    +0.122 C 
ENDROOT
BRANCH   1  11
ATOM     10  C   LIG    1       25.981 -20.341   6.019  0.00  0.00    +0.000 C 
ATOM     11  C   LIG    1       27.239 -19.898   6.189  0.00  0.00    -0.022 C 
BRANCH  10  12
ATOM     12  C   LIG    1       25.156 -20.243   4.758  0.00  0.00    +0.141 C 
BRANCH  12  13
ATOM     13  C   LIG    1       24.155 -21.412   4.572  0.00  0.00    +0.030 C 
ATOM     14  C   LIG    1       24.597 -22.707   5.272  0.00  0.00    +0.011 C 
BRANCH  13  15
ATOM     15  C   LIG    1       22.729 -21.007   5.017  0.00  0.00    +0.095 C 
BRANCH  15  18
ATOM     16  C   LIG    1       22.178 -16.933   4.640  0.00  0.00    +0.106 C 
ATOM     17  C   LIG    1       22.311 -18.391   4.695  0.00  0.00    -0.106 C 
ATOM     18  C   LIG    1       22.466 -19.572   4.796  0.00  0.00    -0.102 C 
ENDBRANCH  15  18
ENDBRANCH  13  15
ENDBRANCH  12  13
BRANCH  12  19
ATOM     19  O   LIG    1       26.027 -20.205   3.626  0.00  0.00    -0.388 OA
ATOM     20  H   LIG    1       26.314 -21.121   3.464  0.00  0.00    +0.210 HD
ENDBRANCH  12  19
ENDBRANCH  10  12
ENDBRANCH   1  11
BRANCH   9  21
ATOM     21  O   LIG    1       28.171 -22.000   8.914  0.00  0.00    -0.391 OA
ATOM     22  H   LIG    1       28.217 -21.310   9.598  0.00  0.00    +0.210 HD
ENDBRANCH   9  21
BRANCH   6  23
ATOM     23  C   LIG    1       31.113 -16.211  10.074  0.00  0.00    +0.028 C 
BRANCH  23  24
ATOM     24  C   LIG    1       31.223 -16.623  11.546  0.00  0.00    +0.015 C 
BRANCH  24  25
ATOM     25  C   LIG    1       32.545 -16.176  12.179  0.00  0.00    +0.121 C 
BRANCH  25  26
ATOM     26  C   LIG    1       32.504 -16.168  13.693  0.00  0.00    +0.305 C 
ATOM     27  O   LIG    1       32.091 -15.240  14.370  0.00  0.00    -0.251 OA
BRANCH  26  28
ATOM     28  O   LIG    1       32.952 -17.316  14.249  0.00  0.00    -0.481 OA
ATOM     29  H   LIG    1       33.434 -17.209  15.091  0.00  0.00    +0.295 HD
ENDBRANCH  26  28
ENDBRANCH  25  26
ENDBRANCH  24  25
ENDBRANCH  23  24
ENDBRANCH   6  23
TORSDOF 12
ENDMDL
