MODEL 1
REMARK VINA RESULT:       4.4      0.000      0.000
REMARK  Name = *****
REMARK                            x       y       z     vdW  Elec       q    Type
REMARK                         _______ _______ _______ _____ _____    ______ ____
ROOT
ATOM      1  C   LIG    1       23.800 -21.214   4.847  0.00  0.00    +0.002 C 
ATOM      2  C   LIG    1       25.004 -20.344   5.366  0.00  0.00    -0.022 C 
ATOM      3  C   LIG    1       25.176 -19.295   4.245  0.00  0.00    +0.021 C 
ATOM      4  C   LIG    1       26.453 -18.471   4.290  0.00  0.00    -0.066 C 
ATOM      5  C   LIG    1       27.575 -18.989   5.160  0.00  0.00    +0.031 C 
ATOM      6  C   LIG    1       27.610 -20.496   5.414  0.00  0.00    +0.005 C 
ATOM      7  C   LIG    1       26.491 -17.259   3.703  0.00  0.00    -0.001 C 
ATOM      8  C   LIG    1       24.992 -20.112   2.961  0.00  0.00    +0.009 C 
ATOM      9  C   LIG    1       24.771 -19.715   6.747  0.00  0.00    +0.012 C 
ATOM     10  C   LIG    1       26.272 -21.237   5.435  0.00  0.00    +0.008 C 
ATOM     11  C   LIG    1       24.004 -21.233   3.311  0.00  0.00    +0.005 C 
ENDROOT
BRANCH   7  12
ATOM     12  C   LIG    1       27.580 -16.301   3.802  0.00  0.00    -0.001 C 
ATOM     13  C   LIG    1       27.472 -14.980   3.581  0.00  0.00    -0.065 C 
ATOM     14  C   LIG    1       26.188 -14.259   3.218  0.00  0.00    +0.062 C 
ATOM     15  C   LIG    1       25.844 -13.211   4.284  0.00  0.00    +0.121 C 
ATOM     16  C   LIG    1       26.973 -12.194   4.449  0.00  0.00    +0.063 C 
ATOM     17  C   LIG    1       28.345 -12.842   4.673  0.00  0.00    +0.121 C 
ATOM     18  C   LIG    1       28.645 -14.032   3.741  0.00  0.00    +0.062 C 
BRANCH  15  19
ATOM     19  O   LIG    1       25.549 -13.825   5.539  0.00  0.00    -0.391 OA
ATOM     20  H   LIG    1       26.328 -13.734   6.116  0.00  0.00    +0.210 HD
ENDBRANCH  15  19
BRANCH  17  21
ATOM     21  O   LIG    1       29.354 -11.842   4.499  0.00  0.00    -0.391 OA
ATOM     22  H   LIG    1       29.734 -11.946   3.608  0.00  0.00    +0.210 HD
ENDBRANCH  17  21
ENDBRANCH   7  12
BRANCH   1  24
ATOM     23  C   LIG    1       21.302 -21.572   4.423  0.00  0.00    +0.012 C 
ATOM     24  C   LIG    1       22.344 -20.818   5.272  0.00  0.00    +0.012 C 
BRANCH  24  25
ATOM     25  C   LIG    1       22.039 -19.333   5.227  0.00  0.00    -0.027 C 
ATOM     26  C   LIG    1       21.741 -18.657   4.107  0.00  0.00    -0.025 C 
BRANCH  26  27
ATOM     27  C   LIG    1       21.358 -17.181   4.079  0.00  0.00    +0.039 C 
ATOM     28  C   LIG    1       20.760 -16.863   2.702  0.00  0.00    +0.014 C 
BRANCH  27  29
ATOM     29  C   LIG    1       22.531 -16.216   4.470  0.00  0.00    +0.067 C 
ATOM     30  C   LIG    1       22.360 -15.679   5.899  0.00  0.00    +0.041 C 
ATOM     31  C   LIG    1       22.703 -15.022   3.520  0.00  0.00    +0.041 C 
BRANCH  29  32
ATOM     32  O   LIG    1       23.764 -16.951   4.487  0.00  0.00    -0.389 OA
ATOM     33  H   LIG    1       24.443 -16.394   4.905  0.00  0.00    +0.210 HD
ENDBRANCH  29  32
ENDBRANCH  27  29
ENDBRANCH  26  27
ENDBRANCH  24  25
ENDBRANCH   1  24
TORSDOF 8
ENDMDL
MODEL 2
REMARK VINA RESULT:       5.8      2.256      7.757
REMARK  Name = *****
REMARK                            x       y       z     vdW  Elec       q    Type
REMARK                         _______ _______ _______ _____ _____    ______ ____
ROOT
ATOM      1  C   LIG    1       26.880 -12.687   4.199  0.00  0.00    +0.002 C 
ATOM      2  C   LIG    1       25.685 -13.413   4.921  0.00  0.00    -0.022 C 
ATOM      3  C   LIG    1       25.295 -14.516   3.912  0.00  0.00    +0.021 C 
ATOM      4  C   LIG    1       23.973 -15.220   4.170  0.00  0.00    -0.066 C 
ATOM      5  C   LIG    1       23.011 -14.551   5.123  0.00  0.00    +0.031 C 
ATOM      6  C   LIG    1       23.125 -13.033   5.264  0.00  0.00    +0.005 C 
ATOM      7  C   LIG    1       23.769 -16.461   3.686  0.00  0.00    -0.001 C 
ATOM      8  C   LIG    1       25.382 -13.804   2.556  0.00  0.00    +0.009 C 
ATOM      9  C   LIG    1       26.038 -13.967   6.309  0.00  0.00    +0.012 C 
ATOM     10  C   LIG    1       24.509 -12.411   5.070  0.00  0.00    +0.008 C 
ATOM     11  C   LIG    1       26.490 -12.752   2.701  0.00  0.00    +0.005 C 
ENDROOT
BRANCH   7  12
ATOM     12  C   LIG    1       22.629 -17.312   3.985  0.00  0.00    -0.001 C 
ATOM     13  C   LIG    1       22.591 -18.644   3.812  0.00  0.00    -0.065 C 
ATOM     14  C   LIG    1       23.741 -19.490   3.300  0.00  0.00    +0.062 C 
ATOM     15  C   LIG    1       24.149 -20.530   4.352  0.00  0.00    +0.121 C 
ATOM     16  C   LIG    1       22.975 -21.434   4.726  0.00  0.00    +0.063 C 
ATOM     17  C   LIG    1       21.711 -20.657   5.116  0.00  0.00    +0.121 C 
ATOM     18  C   LIG    1       21.378 -19.476   4.183  0.00  0.00    +0.062 C 
BRANCH  15  19
ATOM     19  O   LIG    1       24.677 -19.904   5.522  0.00  0.00    -0.391 OA
ATOM     20  H   LIG    1       24.071 -19.190   5.788  0.00  0.00    +0.210 HD
ENDBRANCH  15  19
BRANCH  17  21
ATOM     21  O   LIG    1       20.606 -21.567   5.136  0.00  0.00    -0.391 OA
ATOM     22  H   LIG    1       20.032 -21.365   4.375  0.00  0.00    +0.210 HD
ENDBRANCH  17  21
ENDBRANCH   7  12
BRANCH   1  24
ATOM     23  C   LIG    1       29.369 -12.259   3.789  0.00  0.00    +0.012 C 
ATOM     24  C   LIG    1       28.342 -13.178   4.479  0.00  0.00    +0.012 C 
BRANCH  24  25
ATOM     25  C   LIG    1       28.625 -14.617   4.092  0.00  0.00    -0.027 C 
ATOM     26  C   LIG    1       28.049 -15.682   4.670  0.00  0.00    -0.025 C 
BRANCH  26  27
ATOM     27  C   LIG    1       28.277 -17.122   4.224  0.00  0.00    +0.039 C 
ATOM     28  C   LIG    1       27.068 -17.567   3.390  0.00  0.00    +0.014 C 
BRANCH  27  29
ATOM     29  C   LIG    1       28.601 -18.106   5.401  0.00  0.00    +0.067 C 
ATOM     30  C   LIG    1       27.337 -18.832   5.887  0.00  0.00    +0.041 C 
ATOM     31  C   LIG    1       29.271 -17.437   6.610  0.00  0.00    +0.041 C 
BRANCH  29  32
ATOM     32  O   LIG    1       29.474 -19.142   4.926  0.00  0.00    -0.389 OA
ATOM     33  H   LIG    1       30.019 -18.773   4.209  0.00  0.00    +0.210 HD
ENDBRANCH  29  32
ENDBRANCH  27  29
ENDBRANCH  26  27
ENDBRANCH  24  25
ENDBRANCH   1  24
TORSDOF 8
ENDMDL
