MODEL 1
REMARK VINA RESULT:      -7.8      0.000      0.000
REMARK  Name = *****
REMARK                            x       y       z     vdW  Elec       q    Type
REMARK                         _______ _______ _______ _____ _____    ______ ____
ROOT
ATOM      1  C   LIG    1       24.774 -19.914   4.161  0.00  0.00    +0.332 C 
ATOM      2  O   LIG    1       24.102 -19.182   3.476  0.00  0.00    -0.246 OA
ENDROOT
BRANCH   1   3
ATOM      3  C   LIG    1       26.177 -19.645   4.564  0.00  0.00    +0.092 C 
ATOM      4  C   LIG    1       26.772 -20.369   5.522  0.00  0.00    +0.015 C 
BRANCH   4   5
ATOM      5  C   LIG    1       28.117 -20.111   6.081  0.00  0.00    -0.025 A 
ATOM      6  C   LIG    1       28.621 -20.966   7.071  0.00  0.00    +0.011 A 
ATOM      7  C   LIG    1       29.869 -20.729   7.667  0.00  0.00    +0.046 A 
ATOM      8  C   LIG    1       30.635 -19.631   7.281  0.00  0.00    +0.120 A 
ATOM      9  C   LIG    1       30.143 -18.773   6.301  0.00  0.00    +0.046 A 
ATOM     10  C   LIG    1       28.903 -19.016   5.700  0.00  0.00    +0.011 A 
BRANCH   8  11
ATOM     11  O   LIG    1       31.835 -19.277   7.831  0.00  0.00    -0.495 OA
ATOM     12  C   LIG    1       31.808 -18.113   8.649  0.00  0.00    +0.277 C 
ENDBRANCH   8  11
ENDBRANCH   4   5
ENDBRANCH   1   3
BRANCH   1  13
ATOM     13  O   LIG    1       24.434 -21.156   4.603  0.00  0.00    -0.461 OA
BRANCH  13  14
ATOM     14  C   LIG    1       23.186 -21.254   5.326  0.00  0.00    +0.236 C 
BRANCH  14  15
ATOM     15  C   LIG    1       23.318 -21.735   6.794  0.00  0.00    +0.026 C 
BRANCH  15  16
ATOM     16  C   LIG    1       23.874 -20.617   7.699  0.00  0.00    +0.003 C 
ATOM     17  C   LIG    1       25.159 -20.965   8.437  0.00  0.00    +0.004 C 
ENDBRANCH  15  16
BRANCH  15  18
ATOM     18  C   LIG    1       24.122 -23.068   6.882  0.00  0.00    +0.007 C 
BRANCH  18  19
ATOM     19  C   LIG    1       23.282 -24.351   6.668  0.00  0.00    +0.000 C 
BRANCH  19  21
ATOM     20  C   LIG    1       25.175 -25.000   5.064  0.00  0.00    +0.004 C 
ATOM     21  C   LIG    1       24.099 -25.491   6.031  0.00  0.00    -0.003 C 
ENDBRANCH  19  21
ENDBRANCH  18  19
ENDBRANCH  15  18
ENDBRANCH  14  15
ENDBRANCH  13  14
ENDBRANCH   1  13
TORSDOF 10
ENDMDL
MODEL 2
REMARK VINA RESULT:      -7.8      1.449      2.202
REMARK  Name = *****
REMARK                            x       y       z     vdW  Elec       q    Type
REMARK                         _______ _______ _______ _____ _____    ______ ____
ROOT
ATOM      1  C   LIG    1       25.786 -19.798   4.252  0.00  0.00    +0.332 C 
ATOM      2  O   LIG    1       25.329 -19.146   3.346  0.00  0.00    -0.246 OA
ENDROOT
BRANCH   1   3
ATOM      3  C   LIG    1       27.034 -19.469   4.986  0.00  0.00    +0.092 C 
ATOM      4  C   LIG    1       27.651 -20.384   5.746  0.00  0.00    +0.015 C 
BRANCH   4   5
ATOM      5  C   LIG    1       28.825 -20.132   6.609  0.00  0.00    -0.025 A 
ATOM      6  C   LIG    1       29.216 -21.109   7.535  0.00  0.00    +0.011 A 
ATOM      7  C   LIG    1       30.291 -20.891   8.410  0.00  0.00    +0.046 A 
ATOM      8  C   LIG    1       30.995 -19.689   8.373  0.00  0.00    +0.120 A 
ATOM      9  C   LIG    1       30.614 -18.709   7.460  0.00  0.00    +0.046 A 
ATOM     10  C   LIG    1       29.548 -18.932   6.580  0.00  0.00    +0.011 A 
BRANCH   8  11
ATOM     11  O   LIG    1       32.019 -19.351   9.212  0.00  0.00    -0.495 OA
ATOM     12  C   LIG    1       32.006 -18.006   9.676  0.00  0.00    +0.277 C 
ENDBRANCH   8  11
ENDBRANCH   4   5
ENDBRANCH   1   3
BRANCH   1  13
ATOM     13  O   LIG    1       25.329 -20.998   4.705  0.00  0.00    -0.461 OA
BRANCH  13  14
ATOM     14  C   LIG    1       23.957 -21.317   4.384  0.00  0.00    +0.236 C 
BRANCH  14  15
ATOM     15  C   LIG    1       22.947 -21.092   5.538  0.00  0.00    +0.026 C 
BRANCH  15  16
ATOM     16  C   LIG    1       22.613 -19.596   5.704  0.00  0.00    +0.003 C 
ATOM     17  C   LIG    1       22.153 -18.894   4.434  0.00  0.00    +0.004 C 
ENDBRANCH  15  16
BRANCH  15  18
ATOM     18  C   LIG    1       23.431 -21.774   6.854  0.00  0.00    +0.007 C 
BRANCH  18  19
ATOM     19  C   LIG    1       24.423 -20.936   7.696  0.00  0.00    +0.000 C 
BRANCH  19  21
ATOM     20  C   LIG    1       25.896 -23.030   7.555  0.00  0.00    +0.004 C 
ATOM     21  C   LIG    1       25.501 -21.803   8.375  0.00  0.00    -0.003 C 
ENDBRANCH  19  21
ENDBRANCH  18  19
ENDBRANCH  15  18
ENDBRANCH  14  15
ENDBRANCH  13  14
ENDBRANCH   1  13
TORSDOF 10
ENDMDL
MODEL 3
REMARK VINA RESULT:      -7.7      2.065      3.728
REMARK  Name = *****
REMARK                            x       y       z     vdW  Elec       q    Type
REMARK                         _______ _______ _______ _____ _____    ______ ____
ROOT
ATOM      1  C   LIG    1       25.382 -22.457   7.711  0.00  0.00    +0.332 C 
ATOM      2  O   LIG    1       25.461 -23.637   7.472  0.00  0.00    -0.246 OA
ENDROOT
BRANCH   1   3
ATOM      3  C   LIG    1       26.541 -21.565   7.966  0.00  0.00    +0.092 C 
ATOM      4  C   LIG    1       27.516 -21.423   7.058  0.00  0.00    +0.015 C 
BRANCH   4   5
ATOM      5  C   LIG    1       28.767 -20.659   7.255  0.00  0.00    -0.025 A 
ATOM      6  C   LIG    1       29.739 -21.153   8.136  0.00  0.00    +0.011 A 
ATOM      7  C   LIG    1       30.916 -20.436   8.394  0.00  0.00    +0.046 A 
ATOM      8  C   LIG    1       31.142 -19.209   7.774  0.00  0.00    +0.120 A 
ATOM      9  C   LIG    1       30.183 -18.706   6.899  0.00  0.00    +0.046 A 
ATOM     10  C   LIG    1       29.013 -19.428   6.634  0.00  0.00    +0.011 A 
BRANCH   8  11
ATOM     11  O   LIG    1       32.225 -18.404   7.993  0.00  0.00    -0.495 OA
ATOM     12  C   LIG    1       31.999 -17.308   8.871  0.00  0.00    +0.277 C 
ENDBRANCH   8  11
ENDBRANCH   4   5
ENDBRANCH   1   3
BRANCH   1  13
ATOM     13  O   LIG    1       24.241 -21.739   7.901  0.00  0.00    -0.461 OA
BRANCH  13  14
ATOM     14  C   LIG    1       23.325 -21.693   6.785  0.00  0.00    +0.236 C 
BRANCH  14  15
ATOM     15  C   LIG    1       23.590 -20.553   5.769  0.00  0.00    +0.026 C 
BRANCH  15  16
ATOM     16  C   LIG    1       22.281 -20.082   5.104  0.00  0.00    +0.003 C 
ATOM     17  C   LIG    1       22.231 -18.601   4.757  0.00  0.00    +0.004 C 
ENDBRANCH  15  16
BRANCH  15  18
ATOM     18  C   LIG    1       24.700 -20.952   4.749  0.00  0.00    +0.007 C 
BRANCH  18  19
ATOM     19  C   LIG    1       25.733 -19.841   4.441  0.00  0.00    +0.000 C 
BRANCH  19  21
ATOM     20  C   LIG    1       25.905 -17.536   3.331  0.00  0.00    +0.004 C 
ATOM     21  C   LIG    1       25.295 -18.935   3.275  0.00  0.00    -0.003 C 
ENDBRANCH  19  21
ENDBRANCH  18  19
ENDBRANCH  15  18
ENDBRANCH  14  15
ENDBRANCH  13  14
ENDBRANCH   1  13
TORSDOF 10
ENDMDL
MODEL 4
REMARK VINA RESULT:      -7.7      1.921      3.504
REMARK  Name = *****
REMARK                            x       y       z     vdW  Elec       q    Type
REMARK                         _______ _______ _______ _____ _____    ______ ____
ROOT
ATOM      1  C   LIG    1       26.320 -22.593   6.922  0.00  0.00    +0.332 C 
ATOM      2  O   LIG    1       26.236 -23.782   7.114  0.00  0.00    -0.246 OA
ENDROOT
BRANCH   1   3
ATOM      3  C   LIG    1       27.250 -21.685   7.639  0.00  0.00    +0.092 C 
ATOM      4  C   LIG    1       28.391 -21.274   7.068  0.00  0.00    +0.015 C 
BRANCH   4   5
ATOM      5  C   LIG    1       29.440 -20.470   7.732  0.00  0.00    -0.025 A 
ATOM      6  C   LIG    1       30.475 -21.125   8.415  0.00  0.00    +0.011 A 
ATOM      7  C   LIG    1       31.461 -20.403   9.103  0.00  0.00    +0.046 A 
ATOM      8  C   LIG    1       31.430 -19.010   9.120  0.00  0.00    +0.120 A 
ATOM      9  C   LIG    1       30.405 -18.348   8.448  0.00  0.00    +0.046 A 
ATOM     10  C   LIG    1       29.428 -19.069   7.753  0.00  0.00    +0.011 A 
BRANCH   8  11
ATOM     11  O   LIG    1       32.305 -18.211   9.800  0.00  0.00    -0.495 OA
ATOM     12  C   LIG    1       32.267 -16.832   9.450  0.00  0.00    +0.277 C 
ENDBRANCH   8  11
ENDBRANCH   4   5
ENDBRANCH   1   3
BRANCH   1  13
ATOM     13  O   LIG    1       25.528 -21.840   6.111  0.00  0.00    -0.461 OA
BRANCH  13  14
ATOM     14  C   LIG    1       24.843 -20.734   6.741  0.00  0.00    +0.236 C 
BRANCH  14  15
ATOM     15  C   LIG    1       23.300 -20.868   6.798  0.00  0.00    +0.026 C 
BRANCH  15  16
ATOM     16  C   LIG    1       22.878 -22.142   7.556  0.00  0.00    +0.003 C 
ATOM     17  C   LIG    1       22.549 -23.338   6.673  0.00  0.00    +0.004 C 
ENDBRANCH  15  16
BRANCH  15  18
ATOM     18  C   LIG    1       22.670 -20.748   5.376  0.00  0.00    +0.007 C 
BRANCH  18  19
ATOM     19  C   LIG    1       22.456 -19.299   4.878  0.00  0.00    +0.000 C 
BRANCH  19  21
ATOM     20  C   LIG    1       24.335 -20.052   3.304  0.00  0.00    +0.004 C 
ATOM     21  C   LIG    1       23.475 -18.890   3.798  0.00  0.00    -0.003 C 
ENDBRANCH  19  21
ENDBRANCH  18  19
ENDBRANCH  15  18
ENDBRANCH  14  15
ENDBRANCH  13  14
ENDBRANCH   1  13
TORSDOF 10
ENDMDL
MODEL 5
REMARK VINA RESULT:      -7.5      2.843      7.956
REMARK  Name = *****
REMARK                            x       y       z     vdW  Elec       q    Type
REMARK                         _______ _______ _______ _____ _____    ______ ____
ROOT
ATOM      1  C   LIG    1       26.613 -20.828   8.511  0.00  0.00    +0.332 C 
ATOM      2  O   LIG    1       25.834 -20.542   9.388  0.00  0.00    -0.246 OA
ENDROOT
BRANCH   1   3
ATOM      3  C   LIG    1       26.529 -22.046   7.668  0.00  0.00    +0.092 C 
ATOM      4  C   LIG    1       25.407 -22.779   7.623  0.00  0.00    +0.015 C 
BRANCH   4   5
ATOM      5  C   LIG    1       25.253 -24.068   6.914  0.00  0.00    -0.025 A 
ATOM      6  C   LIG    1       23.972 -24.483   6.521  0.00  0.00    +0.011 A 
ATOM      7  C   LIG    1       23.772 -25.722   5.894  0.00  0.00    +0.046 A 
ATOM      8  C   LIG    1       24.852 -26.568   5.648  0.00  0.00    +0.120 A 
ATOM      9  C   LIG    1       26.128 -26.168   6.037  0.00  0.00    +0.046 A 
ATOM     10  C   LIG    1       26.327 -24.927   6.653  0.00  0.00    +0.011 A 
BRANCH   8  11
ATOM     11  O   LIG    1       24.764 -27.815   5.095  0.00  0.00    -0.495 OA
ATOM     12  C   LIG    1       24.369 -28.849   5.988  0.00  0.00    +0.277 C 
ENDBRANCH   8  11
ENDBRANCH   4   5
ENDBRANCH   1   3
BRANCH   1  13
ATOM     13  O   LIG    1       27.761 -20.169   8.195  0.00  0.00    -0.461 OA
BRANCH  13  14
ATOM     14  C   LIG    1       28.889 -20.995   7.828  0.00  0.00    +0.236 C 
BRANCH  14  15
ATOM     15  C   LIG    1       30.243 -20.248   7.730  0.00  0.00    +0.026 C 
BRANCH  15  16
ATOM     16  C   LIG    1       31.218 -20.714   8.829  0.00  0.00    +0.003 C 
ATOM     17  C   LIG    1       31.068 -22.169   9.250  0.00  0.00    +0.004 C 
ENDBRANCH  15  16
BRANCH  15  18
ATOM     18  C   LIG    1       30.034 -18.703   7.694  0.00  0.00    +0.007 C 
BRANCH  18  19
ATOM     19  C   LIG    1       31.051 -17.887   8.529  0.00  0.00    +0.000 C 
BRANCH  19  21
ATOM     20  C   LIG    1       30.560 -17.681  11.037  0.00  0.00    +0.004 C 
ATOM     21  C   LIG    1       30.376 -17.072   9.648  0.00  0.00    -0.003 C 
ENDBRANCH  19  21
ENDBRANCH  18  19
ENDBRANCH  15  18
ENDBRANCH  14  15
ENDBRANCH  13  14
ENDBRANCH   1  13
TORSDOF 10
ENDMDL
MODEL 6
REMARK VINA RESULT:      -7.3      1.928      3.205
REMARK  Name = *****
REMARK                            x       y       z     vdW  Elec       q    Type
REMARK                         _______ _______ _______ _____ _____    ______ ____
ROOT
ATOM      1  C   LIG    1       26.740 -21.194   7.442  0.00  0.00    +0.332 C 
ATOM      2  O   LIG    1       27.049 -22.348   7.273  0.00  0.00    -0.246 OA
ENDROOT
BRANCH   1   3
ATOM      3  C   LIG    1       27.644 -20.147   7.981  0.00  0.00    +0.092 C 
ATOM      4  C   LIG    1       28.924 -20.072   7.590  0.00  0.00    +0.015 C 
BRANCH   4   5
ATOM      5  C   LIG    1       29.938 -19.150   8.146  0.00  0.00    -0.025 A 
ATOM      6  C   LIG    1       29.573 -18.276   9.180  0.00  0.00    +0.011 A 
ATOM      7  C   LIG    1       30.487 -17.348   9.702  0.00  0.00    +0.046 A 
ATOM      8  C   LIG    1       31.784 -17.279   9.198  0.00  0.00    +0.120 A 
ATOM      9  C   LIG    1       32.157 -18.140   8.169  0.00  0.00    +0.046 A 
ATOM     10  C   LIG    1       31.248 -19.073   7.657  0.00  0.00    +0.011 A 
BRANCH   8  11
ATOM     11  O   LIG    1       32.736 -16.381   9.594  0.00  0.00    -0.495 OA
ATOM     12  C   LIG    1       32.896 -16.247  11.001  0.00  0.00    +0.277 C 
ENDBRANCH   8  11
ENDBRANCH   4   5
ENDBRANCH   1   3
BRANCH   1  13
ATOM     13  O   LIG    1       25.503 -20.649   7.285  0.00  0.00    -0.461 OA
BRANCH  13  14
ATOM     14  C   LIG    1       25.000 -20.594   5.931  0.00  0.00    +0.236 C 
BRANCH  14  15
ATOM     15  C   LIG    1       23.526 -21.041   5.762  0.00  0.00    +0.026 C 
BRANCH  15  16
ATOM     16  C   LIG    1       22.608 -19.838   5.465  0.00  0.00    +0.003 C 
ATOM     17  C   LIG    1       22.989 -19.026   4.234  0.00  0.00    +0.004 C 
ENDBRANCH  15  16
BRANCH  15  18
ATOM     18  C   LIG    1       23.054 -21.902   6.974  0.00  0.00    +0.007 C 
BRANCH  18  19
ATOM     19  C   LIG    1       22.844 -23.404   6.664  0.00  0.00    +0.000 C 
BRANCH  19  21
ATOM     20  C   LIG    1       24.056 -25.580   6.059  0.00  0.00    +0.004 C 
ATOM     21  C   LIG    1       24.157 -24.207   6.720  0.00  0.00    -0.003 C 
ENDBRANCH  19  21
ENDBRANCH  18  19
ENDBRANCH  15  18
ENDBRANCH  14  15
ENDBRANCH  13  14
ENDBRANCH   1  13
TORSDOF 10
ENDMDL
MODEL 7
REMARK VINA RESULT:      -7.3      2.604      4.783
REMARK  Name = *****
REMARK                            x       y       z     vdW  Elec       q    Type
REMARK                         _______ _______ _______ _____ _____    ______ ____
ROOT
ATOM      1  C   LIG    1       28.493 -20.460   7.155  0.00  0.00    +0.332 C 
ATOM      2  O   LIG    1       28.891 -20.458   6.015  0.00  0.00    -0.246 OA
ENDROOT
BRANCH   1   3
ATOM      3  C   LIG    1       29.022 -19.594   8.238  0.00  0.00    +0.092 C 
ATOM      4  C   LIG    1       29.981 -18.691   7.993  0.00  0.00    +0.015 C 
BRANCH   4   5
ATOM      5  C   LIG    1       30.660 -17.864   9.014  0.00  0.00    -0.025 A 
ATOM      6  C   LIG    1       31.987 -17.463   8.798  0.00  0.00    +0.011 A 
ATOM      7  C   LIG    1       32.687 -16.724   9.762  0.00  0.00    +0.046 A 
ATOM      8  C   LIG    1       32.072 -16.371  10.962  0.00  0.00    +0.120 A 
ATOM      9  C   LIG    1       30.756 -16.765  11.189  0.00  0.00    +0.046 A 
ATOM     10  C   LIG    1       30.055 -17.494  10.222  0.00  0.00    +0.011 A 
BRANCH   8  11
ATOM     11  O   LIG    1       32.676 -15.701  11.989  0.00  0.00    -0.495 OA
ATOM     12  C   LIG    1       32.491 -16.273  13.279  0.00  0.00    +0.277 C 
ENDBRANCH   8  11
ENDBRANCH   4   5
ENDBRANCH   1   3
BRANCH   1  13
ATOM     13  O   LIG    1       27.578 -21.311   7.696  0.00  0.00    -0.461 OA
BRANCH  13  14
ATOM     14  C   LIG    1       26.484 -21.700   6.836  0.00  0.00    +0.236 C 
BRANCH  14  15
ATOM     15  C   LIG    1       25.494 -20.562   6.482  0.00  0.00    +0.026 C 
BRANCH  15  16
ATOM     16  C   LIG    1       24.087 -20.851   7.043  0.00  0.00    +0.003 C 
ATOM     17  C   LIG    1       23.781 -22.322   7.287  0.00  0.00    +0.004 C 
ENDBRANCH  15  16
BRANCH  15  18
ATOM     18  C   LIG    1       25.507 -20.257   4.953  0.00  0.00    +0.007 C 
BRANCH  18  19
ATOM     19  C   LIG    1       24.140 -20.416   4.244  0.00  0.00    +0.000 C 
BRANCH  19  21
ATOM     20  C   LIG    1       22.291 -18.664   4.537  0.00  0.00    +0.004 C 
ATOM     21  C   LIG    1       23.555 -19.068   3.781  0.00  0.00    -0.003 C 
ENDBRANCH  19  21
ENDBRANCH  18  19
ENDBRANCH  15  18
ENDBRANCH  14  15
ENDBRANCH  13  14
ENDBRANCH   1  13
TORSDOF 10
ENDMDL
MODEL 8
REMARK VINA RESULT:      -7.3      2.031      4.181
REMARK  Name = *****
REMARK                            x       y       z     vdW  Elec       q    Type
REMARK                         _______ _______ _______ _____ _____    ______ ____
ROOT
ATOM      1  C   LIG    1       24.224 -21.289   7.230  0.00  0.00    +0.332 C 
ATOM      2  O   LIG    1       23.325 -21.309   8.035  0.00  0.00    -0.246 OA
ENDROOT
BRANCH   1   3
ATOM      3  C   LIG    1       25.579 -20.743   7.490  0.00  0.00    +0.092 C 
ATOM      4  C   LIG    1       26.562 -20.875   6.588  0.00  0.00    +0.015 C 
BRANCH   4   5
ATOM      5  C   LIG    1       27.972 -20.477   6.792  0.00  0.00    -0.025 A 
ATOM      6  C   LIG    1       28.741 -21.149   7.752  0.00  0.00    +0.011 A 
ATOM      7  C   LIG    1       30.065 -20.770   8.016  0.00  0.00    +0.046 A 
ATOM      8  C   LIG    1       30.645 -19.710   7.321  0.00  0.00    +0.120 A 
ATOM      9  C   LIG    1       29.890 -19.032   6.367  0.00  0.00    +0.046 A 
ATOM     10  C   LIG    1       28.572 -19.418   6.098  0.00  0.00    +0.011 A 
BRANCH   8  11
ATOM     11  O   LIG    1       31.904 -19.224   7.535  0.00  0.00    -0.495 OA
ATOM     12  C   LIG    1       31.996 -18.173   8.491  0.00  0.00    +0.277 C 
ENDBRANCH   8  11
ENDBRANCH   4   5
ENDBRANCH   1   3
BRANCH   1  13
ATOM     13  O   LIG    1       24.153 -21.651   5.920  0.00  0.00    -0.461 OA
BRANCH  13  14
ATOM     14  C   LIG    1       22.894 -21.400   5.258  0.00  0.00    +0.236 C 
BRANCH  14  15
ATOM     15  C   LIG    1       22.885 -20.170   4.315  0.00  0.00    +0.026 C 
BRANCH  15  16
ATOM     16  C   LIG    1       24.154 -20.128   3.440  0.00  0.00    +0.003 C 
ATOM     17  C   LIG    1       25.157 -19.044   3.810  0.00  0.00    +0.004 C 
ENDBRANCH  15  16
BRANCH  15  18
ATOM     18  C   LIG    1       22.629 -18.852   5.108  0.00  0.00    +0.007 C 
BRANCH  18  19
ATOM     19  C   LIG    1       22.125 -17.664   4.253  0.00  0.00    +0.000 C 
BRANCH  19  21
ATOM     20  C   LIG    1       23.205 -15.340   4.339  0.00  0.00    +0.004 C 
ATOM     21  C   LIG    1       22.231 -16.317   4.993  0.00  0.00    -0.003 C 
ENDBRANCH  19  21
ENDBRANCH  18  19
ENDBRANCH  15  18
ENDBRANCH  14  15
ENDBRANCH  13  14
ENDBRANCH   1  13
TORSDOF 10
ENDMDL
MODEL 9
REMARK VINA RESULT:      -7.2      2.664      7.813
REMARK  Name = *****
REMARK                            x       y       z     vdW  Elec       q    Type
REMARK                         _______ _______ _______ _____ _____    ______ ____
ROOT
ATOM      1  C   LIG    1       25.879 -21.285   8.342  0.00  0.00    +0.332 C 
ATOM      2  O   LIG    1       24.823 -20.706   8.425  0.00  0.00    -0.246 OA
ENDROOT
BRANCH   1   3
ATOM      3  C   LIG    1       26.055 -22.645   7.775  0.00  0.00    +0.092 C 
ATOM      4  C   LIG    1       25.077 -23.233   7.072  0.00  0.00    +0.015 C 
BRANCH   4   5
ATOM      5  C   LIG    1       25.101 -24.623   6.566  0.00  0.00    -0.025 A 
ATOM      6  C   LIG    1       26.333 -25.278   6.424  0.00  0.00    +0.011 A 
ATOM      7  C   LIG    1       26.408 -26.576   5.898  0.00  0.00    +0.046 A 
ATOM      8  C   LIG    1       25.249 -27.243   5.505  0.00  0.00    +0.120 A 
ATOM      9  C   LIG    1       24.020 -26.602   5.638  0.00  0.00    +0.046 A 
ATOM     10  C   LIG    1       23.946 -25.310   6.172  0.00  0.00    +0.011 A 
BRANCH   8  11
ATOM     11  O   LIG    1       25.211 -28.484   4.933  0.00  0.00    -0.495 OA
ATOM     12  C   LIG    1       25.110 -29.571   5.845  0.00  0.00    +0.277 C 
ENDBRANCH   8  11
ENDBRANCH   4   5
ENDBRANCH   1   3
BRANCH   1  13
ATOM     13  O   LIG    1       27.076 -20.871   8.839  0.00  0.00    -0.461 OA
BRANCH  13  14
ATOM     14  C   LIG    1       28.230 -21.117   8.005  0.00  0.00    +0.236 C 
BRANCH  14  15
ATOM     15  C   LIG    1       28.928 -19.845   7.461  0.00  0.00    +0.026 C 
BRANCH  15  16
ATOM     16  C   LIG    1       28.595 -19.619   5.972  0.00  0.00    +0.003 C 
ATOM     17  C   LIG    1       29.208 -18.369   5.358  0.00  0.00    +0.004 C 
ENDBRANCH  15  16
BRANCH  15  18
ATOM     18  C   LIG    1       30.458 -19.866   7.763  0.00  0.00    +0.007 C 
BRANCH  18  19
ATOM     19  C   LIG    1       30.875 -19.142   9.065  0.00  0.00    +0.000 C 
BRANCH  19  21
ATOM     20  C   LIG    1       30.530 -17.064  10.527  0.00  0.00    +0.004 C 
ATOM     21  C   LIG    1       30.254 -17.737   9.184  0.00  0.00    -0.003 C 
ENDBRANCH  19  21
ENDBRANCH  18  19
ENDBRANCH  15  18
ENDBRANCH  14  15
ENDBRANCH  13  14
ENDBRANCH   1  13
TORSDOF 10
ENDMDL
