MODEL 1
REMARK VINA RESULT:      -8.4      0.000      0.000
REMARK  Name = *****
REMARK                            x       y       z     vdW  Elec       q    Type
REMARK                         _______ _______ _______ _____ _____    ______ ____
ROOT
ATOM      1  C   LIG    1       24.861 -22.350   6.684  0.00  0.00    +0.144 C 
ATOM      2  C   LIG    1       25.069 -21.544   5.399  0.00  0.00    +0.239 C 
ATOM      3  O   LIG    1       24.265 -21.525   4.467  0.00  0.00    -0.274 OA
ATOM      4  N   LIG    1       26.243 -20.849   5.286  0.00  0.00    -0.239 N 
ATOM      5  H   LIG    1       26.390 -20.350   4.419  0.00  0.00    +0.159 HD
ATOM      6  C   LIG    1       27.165 -20.652   6.262  0.00  0.00    +0.312 C 
ATOM      7  O   LIG    1       28.155 -19.949   6.079  0.00  0.00    -0.252 OA
ATOM      8  N   LIG    1       26.920 -21.234   7.465  0.00  0.00    -0.239 N 
ATOM      9  H   LIG    1       27.560 -21.004   8.213  0.00  0.00    +0.159 HD
ATOM     10  C   LIG    1       25.788 -21.918   7.819  0.00  0.00    +0.239 C 
ATOM     11  O   LIG    1       25.600 -22.201   9.002  0.00  0.00    -0.274 OA
ENDROOT
BRANCH   1  12
ATOM     12  C   LIG    1       25.204 -23.836   6.373  0.00  0.00    -0.049 C 
ATOM     13  C   LIG    1       25.021 -24.327   4.931  0.00  0.00    +0.035 C 
ATOM     14  C   LIG    1       25.291 -25.839   4.733  0.00  0.00    -0.006 C 
ATOM     15  C   LIG    1       26.553 -26.218   5.505  0.00  0.00    +0.011 C 
ATOM     16  C   LIG    1       26.015 -26.148   6.933  0.00  0.00    +0.012 C 
ATOM     17  C   LIG    1       24.725 -26.970   6.832  0.00  0.00    +0.008 C 
ATOM     18  C   LIG    1       24.209 -26.704   5.409  0.00  0.00    +0.004 C 
ATOM     19  C   LIG    1       25.666 -24.720   7.287  0.00  0.00    -0.023 C 
ENDBRANCH   1  12
BRANCH   1  21
ATOM     20  C   LIG    1       22.456 -23.333   6.844  0.00  0.00    +0.005 C 
ATOM     21  C   LIG    1       23.384 -22.157   7.143  0.00  0.00    +0.026 C 
ENDBRANCH   1  21
TORSDOF 2
ENDMDL
MODEL 2
REMARK VINA RESULT:      -8.3      1.315      1.792
REMARK  Name = *****
REMARK                            x       y       z     vdW  Elec       q    Type
REMARK                         _______ _______ _______ _____ _____    ______ ____
ROOT
ATOM      1  C   LIG    1       24.429 -21.429   6.055  0.00  0.00    +0.144 C 
ATOM      2  C   LIG    1       24.948 -21.030   4.672  0.00  0.00    +0.239 C 
ATOM      3  O   LIG    1       24.316 -21.202   3.630  0.00  0.00    -0.274 OA
ATOM      4  N   LIG    1       26.205 -20.493   4.613  0.00  0.00    -0.239 N 
ATOM      5  H   LIG    1       26.556 -20.267   3.692  0.00  0.00    +0.159 HD
ATOM      6  C   LIG    1       26.974 -20.111   5.664  0.00  0.00    +0.312 C 
ATOM      7  O   LIG    1       28.064 -19.570   5.501  0.00  0.00    -0.252 OA
ATOM      8  N   LIG    1       26.462 -20.317   6.906  0.00  0.00    -0.239 N 
ATOM      9  H   LIG    1       26.996 -19.942   7.678  0.00  0.00    +0.159 HD
ATOM     10  C   LIG    1       25.207 -20.780   7.199  0.00  0.00    +0.239 C 
ATOM     11  O   LIG    1       24.793 -20.709   8.356  0.00  0.00    -0.274 OA
ENDROOT
BRANCH   1  12
ATOM     12  C   LIG    1       24.619 -22.967   6.208  0.00  0.00    -0.049 C 
ATOM     13  C   LIG    1       26.046 -23.523   6.137  0.00  0.00    +0.035 C 
ATOM     14  C   LIG    1       26.133 -25.068   6.200  0.00  0.00    -0.006 C 
ATOM     15  C   LIG    1       25.181 -25.570   7.283  0.00  0.00    +0.011 C 
ATOM     16  C   LIG    1       23.843 -25.328   6.587  0.00  0.00    +0.012 C 
ATOM     17  C   LIG    1       24.076 -25.963   5.211  0.00  0.00    +0.008 C 
ATOM     18  C   LIG    1       25.568 -25.723   4.925  0.00  0.00    +0.004 C 
ATOM     19  C   LIG    1       23.608 -23.844   6.413  0.00  0.00    -0.023 C 
ENDBRANCH   1  12
BRANCH   1  21
ATOM     20  C   LIG    1       22.616 -19.631   5.551  0.00  0.00    +0.005 C 
ATOM     21  C   LIG    1       22.935 -20.996   6.157  0.00  0.00    +0.026 C 
ENDBRANCH   1  21
TORSDOF 2
ENDMDL
MODEL 3
REMARK VINA RESULT:      -7.9      1.313      2.298
REMARK  Name = *****
REMARK                            x       y       z     vdW  Elec       q    Type
REMARK                         _______ _______ _______ _____ _____    ______ ____
ROOT
ATOM      1  C   LIG    1       25.248 -22.245   6.982  0.00  0.00    +0.144 C 
ATOM      2  C   LIG    1       23.817 -21.796   6.682  0.00  0.00    +0.239 C 
ATOM      3  O   LIG    1       22.846 -22.095   7.378  0.00  0.00    -0.274 OA
ATOM      4  N   LIG    1       23.624 -21.056   5.546  0.00  0.00    -0.239 N 
ATOM      5  H   LIG    1       22.671 -20.795   5.334  0.00  0.00    +0.159 HD
ATOM      6  C   LIG    1       24.589 -20.526   4.751  0.00  0.00    +0.312 C 
ATOM      7  O   LIG    1       24.310 -19.814   3.791  0.00  0.00    -0.252 OA
ATOM      8  N   LIG    1       25.877 -20.787   5.092  0.00  0.00    -0.239 N 
ATOM      9  H   LIG    1       26.588 -20.310   4.554  0.00  0.00    +0.159 HD
ATOM     10  C   LIG    1       26.302 -21.448   6.214  0.00  0.00    +0.239 C 
ATOM     11  O   LIG    1       27.495 -21.421   6.515  0.00  0.00    -0.274 OA
ENDROOT
BRANCH   1  12
ATOM     12  C   LIG    1       25.388 -23.725   6.520  0.00  0.00    -0.049 C 
ATOM     13  C   LIG    1       25.023 -24.059   5.068  0.00  0.00    +0.035 C 
ATOM     14  C   LIG    1       25.098 -25.567   4.723  0.00  0.00    -0.006 C 
ATOM     15  C   LIG    1       26.371 -26.148   5.333  0.00  0.00    +0.011 C 
ATOM     16  C   LIG    1       25.975 -26.152   6.808  0.00  0.00    +0.012 C 
ATOM     17  C   LIG    1       24.596 -26.818   6.770  0.00  0.00    +0.008 C 
ATOM     18  C   LIG    1       23.988 -26.370   5.431  0.00  0.00    +0.004 C 
ATOM     19  C   LIG    1       25.826 -24.733   7.310  0.00  0.00    -0.023 C 
ENDBRANCH   1  12
BRANCH   1  21
ATOM     20  C   LIG    1       25.771 -20.631   8.957  0.00  0.00    +0.005 C 
ATOM     21  C   LIG    1       25.502 -22.067   8.510  0.00  0.00    +0.026 C 
ENDBRANCH   1  21
TORSDOF 2
ENDMDL
MODEL 4
REMARK VINA RESULT:      -7.7      2.782      5.175
REMARK  Name = *****
REMARK                            x       y       z     vdW  Elec       q    Type
REMARK                         _______ _______ _______ _____ _____    ______ ____
ROOT
ATOM      1  C   LIG    1       24.568 -20.865   5.868  0.00  0.00    +0.144 C 
ATOM      2  C   LIG    1       23.809 -21.150   7.166  0.00  0.00    +0.239 C 
ATOM      3  O   LIG    1       23.549 -20.290   8.008  0.00  0.00    -0.274 OA
ATOM      4  N   LIG    1       23.448 -22.449   7.401  0.00  0.00    -0.239 N 
ATOM      5  H   LIG    1       22.981 -22.636   8.278  0.00  0.00    +0.159 HD
ATOM      6  C   LIG    1       23.534 -23.484   6.527  0.00  0.00    +0.312 C 
ATOM      7  O   LIG    1       23.114 -24.602   6.812  0.00  0.00    -0.252 OA
ATOM      8  N   LIG    1       24.066 -23.216   5.307  0.00  0.00    -0.239 N 
ATOM      9  H   LIG    1       24.036 -23.966   4.630  0.00  0.00    +0.159 HD
ATOM     10  C   LIG    1       24.434 -21.984   4.836  0.00  0.00    +0.239 C 
ATOM     11  O   LIG    1       24.692 -21.847   3.640  0.00  0.00    -0.274 OA
ENDROOT
BRANCH   1  12
ATOM     12  C   LIG    1       26.082 -20.763   6.216  0.00  0.00    -0.049 C 
ATOM     13  C   LIG    1       26.586 -21.519   7.452  0.00  0.00    +0.035 C 
ATOM     14  C   LIG    1       28.081 -21.283   7.778  0.00  0.00    -0.006 C 
ATOM     15  C   LIG    1       28.883 -21.342   6.481  0.00  0.00    +0.011 C 
ATOM     16  C   LIG    1       28.455 -20.018   5.850  0.00  0.00    +0.012 C 
ATOM     17  C   LIG    1       28.659 -19.031   7.005  0.00  0.00    +0.008 C 
ATOM     18  C   LIG    1       28.337 -19.845   8.269  0.00  0.00    +0.004 C 
ATOM     19  C   LIG    1       26.987 -20.063   5.492  0.00  0.00    -0.023 C 
ENDBRANCH   1  12
BRANCH   1  21
ATOM     20  C   LIG    1       22.502 -19.556   4.977  0.00  0.00    +0.005 C 
ATOM     21  C   LIG    1       24.003 -19.548   5.255  0.00  0.00    +0.026 C 
ENDBRANCH   1  21
TORSDOF 2
ENDMDL
MODEL 5
REMARK VINA RESULT:      -7.4      2.384      4.925
REMARK  Name = *****
REMARK                            x       y       z     vdW  Elec       q    Type
REMARK                         _______ _______ _______ _____ _____    ______ ____
ROOT
ATOM      1  C   LIG    1       24.379 -21.214   6.044  0.00  0.00    +0.144 C 
ATOM      2  C   LIG    1       23.713 -22.087   7.111  0.00  0.00    +0.239 C 
ATOM      3  O   LIG    1       23.189 -21.639   8.130  0.00  0.00    -0.274 OA
ATOM      4  N   LIG    1       23.754 -23.441   6.917  0.00  0.00    -0.239 N 
ATOM      5  H   LIG    1       23.345 -24.013   7.644  0.00  0.00    +0.159 HD
ATOM      6  C   LIG    1       24.164 -24.088   5.797  0.00  0.00    +0.312 C 
ATOM      7  O   LIG    1       24.093 -25.310   5.697  0.00  0.00    -0.252 OA
ATOM      8  N   LIG    1       24.617 -23.318   4.774  0.00  0.00    -0.239 N 
ATOM      9  H   LIG    1       24.829 -23.799   3.911  0.00  0.00    +0.159 HD
ATOM     10  C   LIG    1       24.609 -21.949   4.724  0.00  0.00    +0.239 C 
ATOM     11  O   LIG    1       24.840 -21.383   3.656  0.00  0.00    -0.274 OA
ENDROOT
BRANCH   1  12
ATOM     12  C   LIG    1       25.785 -20.807   6.575  0.00  0.00    -0.049 C 
ATOM     13  C   LIG    1       26.776 -20.190   5.579  0.00  0.00    +0.035 C 
ATOM     14  C   LIG    1       28.179 -19.907   6.169  0.00  0.00    -0.006 C 
ATOM     15  C   LIG    1       28.015 -19.284   7.553  0.00  0.00    +0.011 C 
ATOM     16  C   LIG    1       27.553 -20.510   8.337  0.00  0.00    +0.012 C 
ATOM     17  C   LIG    1       28.589 -21.563   7.928  0.00  0.00    +0.008 C 
ATOM     18  C   LIG    1       28.943 -21.210   6.474  0.00  0.00    +0.004 C 
ATOM     19  C   LIG    1       26.186 -20.949   7.860  0.00  0.00    -0.023 C 
ENDBRANCH   1  12
BRANCH   1  21
ATOM     20  C   LIG    1       22.182 -20.290   5.000  0.00  0.00    +0.005 C 
ATOM     21  C   LIG    1       23.459 -19.985   5.779  0.00  0.00    +0.026 C 
ENDBRANCH   1  21
TORSDOF 2
ENDMDL
MODEL 6
REMARK VINA RESULT:      -7.0      5.947      7.876
REMARK  Name = *****
REMARK                            x       y       z     vdW  Elec       q    Type
REMARK                         _______ _______ _______ _____ _____    ______ ____
ROOT
ATOM      1  C   LIG    1       24.662 -30.518   7.160  0.00  0.00    +0.144 C 
ATOM      2  C   LIG    1       24.180 -30.520   8.612  0.00  0.00    +0.239 C 
ATOM      3  O   LIG    1       23.015 -30.302   8.946  0.00  0.00    -0.274 OA
ATOM      4  N   LIG    1       25.124 -30.736   9.579  0.00  0.00    -0.239 N 
ATOM      5  H   LIG    1       24.805 -30.698  10.538  0.00  0.00    +0.159 HD
ATOM      6  C   LIG    1       26.410 -31.124   9.383  0.00  0.00    +0.312 C 
ATOM      7  O   LIG    1       27.160 -31.362  10.326  0.00  0.00    -0.252 OA
ATOM      8  N   LIG    1       26.816 -31.279   8.097  0.00  0.00    -0.239 N 
ATOM      9  H   LIG    1       27.742 -31.661   7.962  0.00  0.00    +0.159 HD
ATOM     10  C   LIG    1       26.029 -31.178   6.980  0.00  0.00    +0.239 C 
ATOM     11  O   LIG    1       26.468 -31.559   5.896  0.00  0.00    -0.274 OA
ENDROOT
BRANCH   1  12
ATOM     12  C   LIG    1       24.824 -29.035   6.715  0.00  0.00    -0.049 C 
ATOM     13  C   LIG    1       24.161 -28.604   5.402  0.00  0.00    +0.035 C 
ATOM     14  C   LIG    1       24.454 -27.141   4.989  0.00  0.00    -0.006 C 
ATOM     15  C   LIG    1       24.335 -26.249   6.221  0.00  0.00    +0.011 C 
ATOM     16  C   LIG    1       25.605 -26.659   6.964  0.00  0.00    +0.012 C 
ATOM     17  C   LIG    1       26.668 -26.558   5.864  0.00  0.00    +0.008 C 
ATOM     18  C   LIG    1       25.927 -26.950   4.576  0.00  0.00    +0.004 C 
ATOM     19  C   LIG    1       25.500 -28.097   7.420  0.00  0.00    -0.023 C 
ENDBRANCH   1  12
BRANCH   1  21
ATOM     20  C   LIG    1       23.421 -32.757   6.684  0.00  0.00    +0.005 C 
ATOM     21  C   LIG    1       23.617 -31.292   6.300  0.00  0.00    +0.026 C 
ENDBRANCH   1  21
TORSDOF 2
ENDMDL
MODEL 7
REMARK VINA RESULT:      -6.9      1.551      3.425
REMARK  Name = *****
REMARK                            x       y       z     vdW  Elec       q    Type
REMARK                         _______ _______ _______ _____ _____    ______ ____
ROOT
ATOM      1  C   LIG    1       25.745 -21.933   6.739  0.00  0.00    +0.144 C 
ATOM      2  C   LIG    1       24.833 -21.510   7.893  0.00  0.00    +0.239 C 
ATOM      3  O   LIG    1       25.037 -21.807   9.070  0.00  0.00    -0.274 OA
ATOM      4  N   LIG    1       23.710 -20.798   7.566  0.00  0.00    -0.239 N 
ATOM      5  H   LIG    1       23.092 -20.555   8.329  0.00  0.00    +0.159 HD
ATOM      6  C   LIG    1       23.407 -20.274   6.352  0.00  0.00    +0.312 C 
ATOM      7  O   LIG    1       22.404 -19.587   6.180  0.00  0.00    -0.252 OA
ATOM      8  N   LIG    1       24.287 -20.509   5.345  0.00  0.00    -0.239 N 
ATOM      9  H   LIG    1       24.105 -20.035   4.470  0.00  0.00    +0.159 HD
ATOM     10  C   LIG    1       25.498 -21.139   5.456  0.00  0.00    +0.239 C 
ATOM     11  O   LIG    1       26.293 -21.089   4.518  0.00  0.00    -0.274 OA
ENDROOT
BRANCH   1  12
ATOM     12  C   LIG    1       25.430 -23.421   6.406  0.00  0.00    -0.049 C 
ATOM     13  C   LIG    1       25.914 -24.493   7.390  0.00  0.00    +0.035 C 
ATOM     14  C   LIG    1       25.644 -25.947   6.932  0.00  0.00    -0.006 C 
ATOM     15  C   LIG    1       24.229 -26.029   6.365  0.00  0.00    +0.011 C 
ATOM     16  C   LIG    1       24.434 -25.285   5.046  0.00  0.00    +0.012 C 
ATOM     17  C   LIG    1       25.684 -25.969   4.482  0.00  0.00    +0.008 C 
ATOM     18  C   LIG    1       26.516 -26.335   5.722  0.00  0.00    +0.004 C 
ATOM     19  C   LIG    1       24.744 -23.830   5.313  0.00  0.00    -0.023 C 
ENDBRANCH   1  12
BRANCH   1  21
ATOM     20  C   LIG    1       27.587 -20.277   7.538  0.00  0.00    +0.005 C 
ATOM     21  C   LIG    1       27.223 -21.717   7.185  0.00  0.00    +0.026 C 
ENDBRANCH   1  21
TORSDOF 2
ENDMDL
MODEL 8
REMARK VINA RESULT:      -6.9      2.814      4.558
REMARK  Name = *****
REMARK                            x       y       z     vdW  Elec       q    Type
REMARK                         _______ _______ _______ _____ _____    ______ ____
ROOT
ATOM      1  C   LIG    1       24.572 -21.884   6.314  0.00  0.00    +0.144 C 
ATOM      2  C   LIG    1       24.418 -22.170   4.819  0.00  0.00    +0.239 C 
ATOM      3  O   LIG    1       24.796 -23.210   4.280  0.00  0.00    -0.274 OA
ATOM      4  N   LIG    1       23.865 -21.180   4.052  0.00  0.00    -0.239 N 
ATOM      5  H   LIG    1       23.802 -21.361   3.059  0.00  0.00    +0.159 HD
ATOM      6  C   LIG    1       23.276 -20.042   4.499  0.00  0.00    +0.312 C 
ATOM      7  O   LIG    1       22.744 -19.248   3.728  0.00  0.00    -0.252 OA
ATOM      8  N   LIG    1       23.265 -19.843   5.842  0.00  0.00    -0.239 N 
ATOM      9  H   LIG    1       22.740 -19.045   6.173  0.00  0.00    +0.159 HD
ATOM     10  C   LIG    1       23.702 -20.723   6.796  0.00  0.00    +0.239 C 
ATOM     11  O   LIG    1       23.431 -20.515   7.979  0.00  0.00    -0.274 OA
ENDROOT
BRANCH   1  12
ATOM     12  C   LIG    1       26.049 -21.465   6.568  0.00  0.00    -0.049 C 
ATOM     13  C   LIG    1       26.746 -22.018   7.818  0.00  0.00    +0.035 C 
ATOM     14  C   LIG    1       28.178 -21.473   8.043  0.00  0.00    -0.006 C 
ATOM     15  C   LIG    1       28.918 -21.468   6.708  0.00  0.00    +0.011 C 
ATOM     16  C   LIG    1       28.209 -20.301   6.022  0.00  0.00    +0.012 C 
ATOM     17  C   LIG    1       28.264 -19.213   7.099  0.00  0.00    +0.008 C 
ATOM     18  C   LIG    1       28.166 -19.981   8.428  0.00  0.00    +0.004 C 
ATOM     19  C   LIG    1       26.765 -20.657   5.751  0.00  0.00    -0.023 C 
ENDBRANCH   1  12
BRANCH   1  21
ATOM     20  C   LIG    1       22.755 -23.678   6.824  0.00  0.00    +0.005 C 
ATOM     21  C   LIG    1       24.169 -23.170   7.098  0.00  0.00    +0.026 C 
ENDBRANCH   1  21
TORSDOF 2
ENDMDL
MODEL 9
REMARK VINA RESULT:      -6.8      2.734      5.087
REMARK  Name = *****
REMARK                            x       y       z     vdW  Elec       q    Type
REMARK                         _______ _______ _______ _____ _____    ______ ____
ROOT
ATOM      1  C   LIG    1       24.397 -22.646   6.710  0.00  0.00    +0.144 C 
ATOM      2  C   LIG    1       25.851 -23.100   6.560  0.00  0.00    +0.239 C 
ATOM      3  O   LIG    1       26.819 -22.414   6.890  0.00  0.00    -0.274 OA
ATOM      4  N   LIG    1       26.063 -24.325   5.985  0.00  0.00    -0.239 N 
ATOM      5  H   LIG    1       27.026 -24.601   5.855  0.00  0.00    +0.159 HD
ATOM      6  C   LIG    1       25.120 -25.256   5.694  0.00  0.00    +0.312 C 
ATOM      7  O   LIG    1       25.423 -26.358   5.243  0.00  0.00    -0.252 OA
ATOM      8  N   LIG    1       23.830 -24.931   5.965  0.00  0.00    -0.239 N 
ATOM      9  H   LIG    1       23.146 -25.664   5.837  0.00  0.00    +0.159 HD
ATOM     10  C   LIG    1       23.395 -23.794   6.593  0.00  0.00    +0.239 C 
ATOM     11  O   LIG    1       22.227 -23.725   6.975  0.00  0.00    -0.274 OA
ENDROOT
BRANCH   1  12
ATOM     12  C   LIG    1       24.084 -21.665   5.542  0.00  0.00    -0.049 C 
ATOM     13  C   LIG    1       25.248 -21.223   4.647  0.00  0.00    +0.035 C 
ATOM     14  C   LIG    1       24.865 -20.173   3.575  0.00  0.00    -0.006 C 
ATOM     15  C   LIG    1       23.538 -20.580   2.940  0.00  0.00    +0.011 C 
ATOM     16  C   LIG    1       22.588 -20.259   4.093  0.00  0.00    +0.012 C 
ATOM     17  C   LIG    1       23.017 -18.839   4.477  0.00  0.00    +0.008 C 
ATOM     18  C   LIG    1       24.531 -18.808   4.208  0.00  0.00    +0.004 C 
ATOM     19  C   LIG    1       22.850 -21.187   5.257  0.00  0.00    -0.023 C 
ENDBRANCH   1  12
BRANCH   1  21
ATOM     20  C   LIG    1       24.970 -20.654   8.284  0.00  0.00    +0.005 C 
ATOM     21  C   LIG    1       24.238 -21.983   8.111  0.00  0.00    +0.026 C 
ENDBRANCH   1  21
TORSDOF 2
ENDMDL
