MODEL 1
REMARK VINA RESULT:      -3.9      0.000      0.000
REMARK  Name = *****
REMARK                            x       y       z     vdW  Elec       q    Type
REMARK                         _______ _______ _______ _____ _____    ______ ____
ROOT
ATOM      1  C   LIG    1       24.784 -20.957   5.496  0.00  0.00    +0.127 A 
ATOM      2  C   LIG    1       24.668 -19.836   4.650  0.00  0.00    +0.013 A 
ATOM      3  C   LIG    1       25.909 -19.237   4.051  0.00  0.00    +0.049 C 
ATOM      4  C   LIG    1       23.384 -19.312   4.414  0.00  0.00    +0.060 A 
ATOM      5  N   LIG    1       22.270 -19.855   4.982  0.00  0.00    -0.259 NA
ATOM      6  C   LIG    1       22.419 -20.953   5.749  0.00  0.00    +0.114 A 
ATOM      7  C   LIG    1       23.634 -21.553   6.003  0.00  0.00    +0.065 A 
ENDROOT
BRANCH   1   8
ATOM      8  O   LIG    1       26.057 -21.426   5.754  0.00  0.00    -0.491 OA
BRANCH   8   9
ATOM      9  C   LIG    1       26.699 -20.868   6.910  0.00  0.00    +0.231 C 
BRANCH   9  10
ATOM     10  C   LIG    1       28.127 -21.388   7.062  0.00  0.00    +0.069 C 
BRANCH  10  11
ATOM     11  C   LIG    1       29.113 -20.549   6.257  0.00  0.00    +0.163 C 
BRANCH  11  13
ATOM     12  C   LIG    1       29.254 -18.315   5.558  0.00  0.00    +0.193 C 
ATOM     13  O   LIG    1       29.044 -19.183   6.669  0.00  0.00    -0.383 OA
ENDBRANCH  11  13
ENDBRANCH  10  11
ENDBRANCH   9  10
ENDBRANCH   8   9
ENDBRANCH   1   8
BRANCH   4  14
ATOM     14  C   LIG    1       23.110 -18.197   3.426  0.00  0.00    +0.167 C 
BRANCH  14  15
ATOM     15  S   LIG    1       22.401 -16.694   4.137  0.00  0.00    +0.095 S 
ATOM     16  O   LIG    1       22.102 -16.749   5.601  0.00  0.00    -0.249 OA
BRANCH  15  17
ATOM     17  C   LIG    1       23.785 -15.666   4.018  0.00  0.00    +0.198 A 
ATOM     18  N   LIG    1       24.958 -16.061   3.412  0.00  0.00    -0.331 N 
ATOM     19  H   LIG    1       25.065 -16.943   2.924  0.00  0.00    +0.168 HD
ATOM     20  C   LIG    1       25.914 -15.159   3.743  0.00  0.00    +0.067 A 
ATOM     21  C   LIG    1       25.227 -14.141   4.394  0.00  0.00    +0.090 A 
ATOM     22  C   LIG    1       25.927 -13.016   4.854  0.00  0.00    +0.030 A 
ATOM     23  C   LIG    1       27.320 -12.996   4.712  0.00  0.00    +0.002 A 
ATOM     24  C   LIG    1       27.995 -14.047   4.089  0.00  0.00    +0.002 A 
ATOM     25  C   LIG    1       27.303 -15.149   3.563  0.00  0.00    +0.028 A 
ATOM     26  N   LIG    1       23.900 -14.458   4.543  0.00  0.00    -0.220 NA
ENDBRANCH  15  17
ENDBRANCH  14  15
ENDBRANCH   4  14
TORSDOF 8
ENDMDL
MODEL 2
REMARK VINA RESULT:      -2.0      1.322      1.929
REMARK  Name = *****
REMARK                            x       y       z     vdW  Elec       q    Type
REMARK                         _______ _______ _______ _____ _____    ______ ____
ROOT
ATOM      1  C   LIG    1       26.290 -20.734   5.850  0.00  0.00    +0.127 A 
ATOM      2  C   LIG    1       25.657 -20.052   4.792  0.00  0.00    +0.013 A 
ATOM      3  C   LIG    1       26.488 -19.522   3.658  0.00  0.00    +0.049 C 
ATOM      4  C   LIG    1       24.262 -19.882   4.853  0.00  0.00    +0.060 A 
ATOM      5  N   LIG    1       23.524 -20.351   5.899  0.00  0.00    -0.259 NA
ATOM      6  C   LIG    1       24.161 -21.037   6.868  0.00  0.00    +0.114 A 
ATOM      7  C   LIG    1       25.518 -21.281   6.870  0.00  0.00    +0.065 A 
ENDROOT
BRANCH   1   8
ATOM      8  O   LIG    1       27.665 -20.847   5.796  0.00  0.00    -0.491 OA
BRANCH   8   9
ATOM      9  C   LIG    1       28.341 -20.781   7.060  0.00  0.00    +0.231 C 
BRANCH   9  10
ATOM     10  C   LIG    1       29.431 -19.711   7.056  0.00  0.00    +0.069 C 
BRANCH  10  11
ATOM     11  C   LIG    1       29.474 -18.966   5.726  0.00  0.00    +0.163 C 
BRANCH  11  13
ATOM     12  C   LIG    1       28.644 -17.106   4.564  0.00  0.00    +0.193 C 
ATOM     13  O   LIG    1       28.794 -17.715   5.844  0.00  0.00    -0.383 OA
ENDBRANCH  11  13
ENDBRANCH  10  11
ENDBRANCH   9  10
ENDBRANCH   8   9
ENDBRANCH   1   8
BRANCH   4  14
ATOM     14  C   LIG    1       23.447 -19.285   3.723  0.00  0.00    +0.167 C 
BRANCH  14  15
ATOM     15  S   LIG    1       22.342 -17.937   4.199  0.00  0.00    +0.095 S 
ATOM     16  O   LIG    1       21.902 -17.933   5.627  0.00  0.00    -0.249 OA
BRANCH  15  17
ATOM     17  C   LIG    1       23.461 -16.624   4.088  0.00  0.00    +0.198 A 
ATOM     18  N   LIG    1       23.108 -15.320   4.358  0.00  0.00    -0.331 N 
ATOM     19  H   LIG    1       22.199 -15.049   4.718  0.00  0.00    +0.168 HD
ATOM     20  C   LIG    1       24.105 -14.524   3.902  0.00  0.00    +0.067 A 
ATOM     21  C   LIG    1       25.118 -15.403   3.534  0.00  0.00    +0.090 A 
ATOM     22  C   LIG    1       26.327 -14.898   3.035  0.00  0.00    +0.030 A 
ATOM     23  C   LIG    1       26.443 -13.515   2.846  0.00  0.00    +0.002 A 
ATOM     24  C   LIG    1       25.399 -12.652   3.185  0.00  0.00    +0.002 A 
ATOM     25  C   LIG    1       24.207 -13.134   3.749  0.00  0.00    +0.028 A 
ATOM     26  N   LIG    1       24.713 -16.706   3.673  0.00  0.00    -0.220 NA
ENDBRANCH  15  17
ENDBRANCH  14  15
ENDBRANCH   4  14
TORSDOF 8
ENDMDL
MODEL 3
REMARK VINA RESULT:      -1.9      2.404      4.501
REMARK  Name = *****
REMARK                            x       y       z     vdW  Elec       q    Type
REMARK                         _______ _______ _______ _____ _____    ______ ____
ROOT
ATOM      1  C   LIG    1       23.399 -20.769   5.088  0.00  0.00    +0.127 A 
ATOM      2  C   LIG    1       24.553 -20.398   4.370  0.00  0.00    +0.013 A 
ATOM      3  C   LIG    1       24.433 -20.061   2.911  0.00  0.00    +0.049 C 
ATOM      4  C   LIG    1       25.782 -20.375   5.054  0.00  0.00    +0.060 A 
ATOM      5  N   LIG    1       25.878 -20.703   6.374  0.00  0.00    -0.259 NA
ATOM      6  C   LIG    1       24.744 -21.009   7.036  0.00  0.00    +0.114 A 
ATOM      7  C   LIG    1       23.495 -21.021   6.453  0.00  0.00    +0.065 A 
ENDROOT
BRANCH   1   8
ATOM      8  O   LIG    1       22.211 -20.833   4.387  0.00  0.00    -0.491 OA
BRANCH   8   9
ATOM      9  C   LIG    1       21.282 -19.771   4.646  0.00  0.00    +0.231 C 
BRANCH   9  10
ATOM     10  C   LIG    1       21.641 -18.510   3.861  0.00  0.00    +0.069 C 
BRANCH  10  11
ATOM     11  C   LIG    1       22.129 -17.400   4.784  0.00  0.00    +0.163 C 
BRANCH  11  13
ATOM     12  C   LIG    1       22.976 -15.214   4.739  0.00  0.00    +0.193 C 
ATOM     13  O   LIG    1       22.912 -16.459   4.048  0.00  0.00    -0.383 OA
ENDBRANCH  11  13
ENDBRANCH  10  11
ENDBRANCH   9  10
ENDBRANCH   8   9
ENDBRANCH   1   8
BRANCH   4  14
ATOM     14  C   LIG    1       27.069 -19.871   4.435  0.00  0.00    +0.167 C 
BRANCH  14  15
ATOM     15  S   LIG    1       27.983 -18.669   5.427  0.00  0.00    +0.095 S 
ATOM     16  O   LIG    1       29.472 -18.804   5.398  0.00  0.00    -0.249 OA
BRANCH  15  17
ATOM     17  C   LIG    1       27.660 -17.252   4.493  0.00  0.00    +0.198 A 
ATOM     18  N   LIG    1       28.356 -16.074   4.660  0.00  0.00    -0.331 N 
ATOM     19  H   LIG    1       29.154 -15.979   5.277  0.00  0.00    +0.168 HD
ATOM     20  C   LIG    1       27.678 -15.102   4.004  0.00  0.00    +0.067 A 
ATOM     21  C   LIG    1       26.683 -15.776   3.304  0.00  0.00    +0.090 A 
ATOM     22  C   LIG    1       25.802 -15.056   2.485  0.00  0.00    +0.030 A 
ATOM     23  C   LIG    1       25.902 -13.659   2.466  0.00  0.00    +0.002 A 
ATOM     24  C   LIG    1       26.884 -12.998   3.206  0.00  0.00    +0.002 A 
ATOM     25  C   LIG    1       27.818 -13.707   3.978  0.00  0.00    +0.028 A 
ATOM     26  N   LIG    1       26.694 -17.116   3.601  0.00  0.00    -0.220 NA
ENDBRANCH  15  17
ENDBRANCH  14  15
ENDBRANCH   4  14
TORSDOF 8
ENDMDL
MODEL 4
REMARK VINA RESULT:      -1.1      1.439      2.197
REMARK  Name = *****
REMARK                            x       y       z     vdW  Elec       q    Type
REMARK                         _______ _______ _______ _____ _____    ______ ____
ROOT
ATOM      1  C   LIG    1       24.451 -19.914   4.631  0.00  0.00    +0.127 A 
ATOM      2  C   LIG    1       23.369 -19.053   4.357  0.00  0.00    +0.013 A 
ATOM      3  C   LIG    1       21.994 -19.429   4.832  0.00  0.00    +0.049 C 
ATOM      4  C   LIG    1       23.625 -17.875   3.632  0.00  0.00    +0.060 A 
ATOM      5  N   LIG    1       24.875 -17.558   3.191  0.00  0.00    -0.259 NA
ATOM      6  C   LIG    1       25.890 -18.386   3.512  0.00  0.00    +0.114 A 
ATOM      7  C   LIG    1       25.735 -19.540   4.249  0.00  0.00    +0.065 A 
ENDROOT
BRANCH   1   8
ATOM      8  O   LIG    1       24.170 -21.088   5.301  0.00  0.00    -0.491 OA
BRANCH   8   9
ATOM      9  C   LIG    1       24.431 -21.073   6.711  0.00  0.00    +0.231 C 
BRANCH   9  10
ATOM     10  C   LIG    1       25.841 -21.572   7.025  0.00  0.00    +0.069 C 
BRANCH  10  11
ATOM     11  C   LIG    1       26.842 -20.423   7.062  0.00  0.00    +0.163 C 
BRANCH  11  13
ATOM     12  C   LIG    1       29.056 -19.798   6.603  0.00  0.00    +0.193 C 
ATOM     13  O   LIG    1       28.092 -20.844   6.512  0.00  0.00    -0.383 OA
ENDBRANCH  11  13
ENDBRANCH  10  11
ENDBRANCH   9  10
ENDBRANCH   8   9
ENDBRANCH   1   8
BRANCH   4  14
ATOM     14  C   LIG    1       22.579 -16.807   3.387  0.00  0.00    +0.167 C 
BRANCH  14  15
ATOM     15  S   LIG    1       22.404 -15.583   4.705  0.00  0.00    +0.095 S 
ATOM     16  O   LIG    1       22.531 -16.110   6.098  0.00  0.00    -0.249 OA
BRANCH  15  17
ATOM     17  C   LIG    1       23.865 -14.699   4.443  0.00  0.00    +0.198 A 
ATOM     18  N   LIG    1       24.361 -14.435   3.184  0.00  0.00    -0.331 N 
ATOM     19  H   LIG    1       23.868 -14.665   2.329  0.00  0.00    +0.168 HD
ATOM     20  C   LIG    1       25.635 -13.997   3.330  0.00  0.00    +0.067 A 
ATOM     21  C   LIG    1       25.798 -13.838   4.702  0.00  0.00    +0.090 A 
ATOM     22  C   LIG    1       27.018 -13.363   5.205  0.00  0.00    +0.030 A 
ATOM     23  C   LIG    1       28.068 -13.142   4.305  0.00  0.00    +0.002 A 
ATOM     24  C   LIG    1       27.896 -13.345   2.934  0.00  0.00    +0.002 A 
ATOM     25  C   LIG    1       26.661 -13.755   2.407  0.00  0.00    +0.028 A 
ATOM     26  N   LIG    1       24.684 -14.259   5.383  0.00  0.00    -0.220 NA
ENDBRANCH  15  17
ENDBRANCH  14  15
ENDBRANCH   4  14
TORSDOF 8
ENDMDL
MODEL 5
REMARK VINA RESULT:      -1.0      1.963      3.373
REMARK  Name = *****
REMARK                            x       y       z     vdW  Elec       q    Type
REMARK                         _______ _______ _______ _____ _____    ______ ____
ROOT
ATOM      1  C   LIG    1       23.902 -19.499   4.078  0.00  0.00    +0.127 A 
ATOM      2  C   LIG    1       23.311 -18.228   4.224  0.00  0.00    +0.013 A 
ATOM      3  C   LIG    1       21.904 -18.128   4.741  0.00  0.00    +0.049 C 
ATOM      4  C   LIG    1       24.067 -17.099   3.860  0.00  0.00    +0.060 A 
ATOM      5  N   LIG    1       25.336 -17.208   3.374  0.00  0.00    -0.259 NA
ATOM      6  C   LIG    1       25.880 -18.438   3.292  0.00  0.00    +0.114 A 
ATOM      7  C   LIG    1       25.226 -19.594   3.660  0.00  0.00    +0.065 A 
ENDROOT
BRANCH   1   8
ATOM      8  O   LIG    1       23.126 -20.597   4.394  0.00  0.00    -0.491 OA
BRANCH   8   9
ATOM      9  C   LIG    1       22.783 -20.734   5.780  0.00  0.00    +0.231 C 
BRANCH   9  10
ATOM     10  C   LIG    1       23.817 -21.572   6.532  0.00  0.00    +0.069 C 
BRANCH  10  11
ATOM     11  C   LIG    1       24.978 -20.714   7.022  0.00  0.00    +0.163 C 
BRANCH  11  13
ATOM     12  C   LIG    1       27.275 -20.409   6.660  0.00  0.00    +0.193 C 
ATOM     13  O   LIG    1       26.219 -21.363   6.741  0.00  0.00    -0.383 OA
ENDBRANCH  11  13
ENDBRANCH  10  11
ENDBRANCH   9  10
ENDBRANCH   8   9
ENDBRANCH   1   8
BRANCH   4  14
ATOM     14  C   LIG    1       23.599 -15.676   4.090  0.00  0.00    +0.167 C 
BRANCH  14  15
ATOM     15  S   LIG    1       24.026 -14.504   2.783  0.00  0.00    +0.095 S 
ATOM     16  O   LIG    1       23.252 -13.225   2.782  0.00  0.00    -0.249 OA
BRANCH  15  17
ATOM     17  C   LIG    1       25.602 -14.054   3.334  0.00  0.00    +0.198 A 
ATOM     18  N   LIG    1       25.951 -14.047   4.667  0.00  0.00    -0.331 N 
ATOM     19  H   LIG    1       25.343 -14.381   5.407  0.00  0.00    +0.168 HD
ATOM     20  C   LIG    1       27.125 -13.380   4.778  0.00  0.00    +0.067 A 
ATOM     21  C   LIG    1       27.535 -13.166   3.467  0.00  0.00    +0.090 A 
ATOM     22  C   LIG    1       28.750 -12.512   3.218  0.00  0.00    +0.030 A 
ATOM     23  C   LIG    1       29.475 -12.017   4.310  0.00  0.00    +0.002 A 
ATOM     24  C   LIG    1       29.026 -12.207   5.618  0.00  0.00    +0.002 A 
ATOM     25  C   LIG    1       27.847 -12.920   5.888  0.00  0.00    +0.028 A 
ATOM     26  N   LIG    1       26.589 -13.607   2.577  0.00  0.00    -0.220 NA
ENDBRANCH  15  17
ENDBRANCH  14  15
ENDBRANCH   4  14
TORSDOF 8
ENDMDL
