MODEL 1
REMARK VINA RESULT:     -10.3      0.000      0.000
REMARK  Name = *****
REMARK                            x       y       z     vdW  Elec       q    Type
REMARK                         _______ _______ _______ _____ _____    ______ ____
ROOT
ATOM      1  C   LIG    1       27.976 -20.750   6.696  0.00  0.00    -0.046 A 
ATOM      2  C   LIG    1       27.067 -20.276   5.733  0.00  0.00    +0.005 A 
ATOM      3  C   LIG    1       25.728 -20.636   5.764  0.00  0.00    +0.029 A 
ATOM      4  C   LIG    1       25.278 -21.497   6.756  0.00  0.00    +0.113 A 
ATOM      5  C   LIG    1       26.160 -22.009   7.715  0.00  0.00    +0.029 A 
ATOM      6  C   LIG    1       27.508 -21.635   7.681  0.00  0.00    +0.005 A 
ENDROOT
BRANCH   4   7
ATOM      7  S   LIG    1       23.553 -21.922   6.809  0.00  0.00    +0.103 S 
ATOM      8  O   LIG    1       22.969 -21.479   5.552  0.00  0.00    -0.146 OA
ATOM      9  O   LIG    1       23.027 -21.418   8.055  0.00  0.00    -0.146 OA
BRANCH   7  10
ATOM     10  N   LIG    1       23.603 -23.526   6.824  0.00  0.00    -0.076 NA
ATOM     11  C   LIG    1       24.023 -24.224   5.833  0.00  0.00    +0.299 C 
BRANCH  11  12
ATOM     12  N   LIG    1       24.015 -25.578   5.764  0.00  0.00    -0.295 N 
ATOM     13  H   LIG    1       23.092 -25.953   5.571  0.00  0.00    +0.151 HD
BRANCH  12  14
ATOM     14  C   LIG    1       25.138 -26.346   5.244  0.00  0.00    +0.075 C 
ATOM     15  C   LIG    1       26.287 -26.370   6.258  0.00  0.00    +0.022 C 
ATOM     16  C   LIG    1       25.949 -27.178   7.510  0.00  0.00    +0.002 C 
ATOM     17  C   LIG    1       25.512 -28.596   7.155  0.00  0.00    +0.000 C 
ATOM     18  C   LIG    1       24.366 -28.606   6.146  0.00  0.00    +0.002 C 
ATOM     19  C   LIG    1       24.685 -27.772   4.903  0.00  0.00    +0.022 C 
ENDBRANCH  12  14
ENDBRANCH  11  12
BRANCH  11  20
ATOM     20  O   LIG    1       24.535 -23.732   4.694  0.00  0.00    -0.481 OA
ATOM     21  H   LIG    1       24.451 -24.363   3.949  0.00  0.00    +0.295 HD
ENDBRANCH  11  20
ENDBRANCH   7  10
ENDBRANCH   4   7
BRANCH   1  22
ATOM     22  C   LIG    1       29.429 -20.309   6.702  0.00  0.00    +0.054 C 
BRANCH  22  23
ATOM     23  C   LIG    1       29.612 -18.794   6.874  0.00  0.00    +0.109 C 
BRANCH  23  25
ATOM     24  C   LIG    1       31.422 -18.227   8.462  0.00  0.00    +0.264 C 
ATOM     25  N   LIG    1       30.085 -18.402   8.179  0.00  0.00    -0.310 N 
ATOM     26  H   LIG    1       29.419 -18.147   8.904  0.00  0.00    +0.149 HD
ATOM     27  O   LIG    1       32.325 -18.481   7.670  0.00  0.00    -0.269 OA
BRANCH  24  32
ATOM     28  C   LIG    1       32.306 -15.718  13.477  0.00  0.00    +0.067 C 
ATOM     29  C   LIG    1       32.121 -16.416  12.166  0.00  0.00    +0.056 A 
ATOM     30  N   LIG    1       32.907 -16.036  11.127  0.00  0.00    -0.256 NA
ATOM     31  C   LIG    1       32.680 -16.674   9.948  0.00  0.00    +0.144 A 
ATOM     32  C   LIG    1       31.716 -17.661   9.811  0.00  0.00    +0.143 A 
ATOM     33  N   LIG    1       30.949 -18.084  10.857  0.00  0.00    -0.247 NA
ATOM     34  C   LIG    1       31.182 -17.437  12.026  0.00  0.00    +0.134 A 
ENDBRANCH  24  32
ENDBRANCH  23  25
ENDBRANCH  22  23
ENDBRANCH   1  22
TORSDOF 9
ENDMDL
MODEL 2
REMARK VINA RESULT:      -9.8      3.232      9.203
REMARK  Name = *****
REMARK                            x       y       z     vdW  Elec       q    Type
REMARK                         _______ _______ _______ _____ _____    ______ ____
ROOT
ATOM      1  C   LIG    1       24.287 -25.344   6.201  0.00  0.00    -0.046 A 
ATOM      2  C   LIG    1       23.150 -24.634   6.626  0.00  0.00    +0.005 A 
ATOM      3  C   LIG    1       23.179 -23.258   6.794  0.00  0.00    +0.029 A 
ATOM      4  C   LIG    1       24.359 -22.568   6.557  0.00  0.00    +0.113 A 
ATOM      5  C   LIG    1       25.517 -23.245   6.159  0.00  0.00    +0.029 A 
ATOM      6  C   LIG    1       25.478 -24.633   5.983  0.00  0.00    +0.005 A 
ENDROOT
BRANCH   4   7
ATOM      7  S   LIG    1       24.375 -20.800   6.740  0.00  0.00    +0.103 S 
ATOM      8  O   LIG    1       23.740 -20.500   8.014  0.00  0.00    -0.146 OA
ATOM      9  O   LIG    1       23.832 -20.240   5.525  0.00  0.00    -0.146 OA
BRANCH   7  10
ATOM     10  N   LIG    1       25.945 -20.488   6.853  0.00  0.00    -0.076 NA
ATOM     11  C   LIG    1       26.574 -20.451   7.971  0.00  0.00    +0.299 C 
BRANCH  11  12
ATOM     12  N   LIG    1       27.879 -20.119   8.130  0.00  0.00    -0.295 N 
ATOM     13  H   LIG    1       28.103 -19.875   9.089  0.00  0.00    +0.151 HD
BRANCH  12  14
ATOM     14  C   LIG    1       28.949 -20.740   7.362  0.00  0.00    +0.075 C 
ATOM     15  C   LIG    1       29.401 -19.813   6.227  0.00  0.00    +0.022 C 
ATOM     16  C   LIG    1       30.111 -18.561   6.738  0.00  0.00    +0.002 C 
ATOM     17  C   LIG    1       31.285 -18.919   7.644  0.00  0.00    +0.000 C 
ATOM     18  C   LIG    1       30.867 -19.841   8.786  0.00  0.00    +0.002 C 
ATOM     19  C   LIG    1       30.126 -21.082   8.283  0.00  0.00    +0.022 C 
ENDBRANCH  12  14
ENDBRANCH  11  12
BRANCH  11  20
ATOM     20  O   LIG    1       26.044 -20.730   9.173  0.00  0.00    -0.481 OA
ATOM     21  H   LIG    1       26.733 -20.913   9.846  0.00  0.00    +0.295 HD
ENDBRANCH  11  20
ENDBRANCH   7  10
ENDBRANCH   4   7
BRANCH   1  22
ATOM     22  C   LIG    1       24.243 -26.843   5.956  0.00  0.00    +0.054 C 
BRANCH  22  23
ATOM     23  C   LIG    1       25.618 -27.521   6.045  0.00  0.00    +0.109 C 
BRANCH  23  25
ATOM     24  C   LIG    1       25.751 -28.923   8.080  0.00  0.00    +0.264 C 
ATOM     25  N   LIG    1       26.066 -27.769   7.395  0.00  0.00    -0.310 N 
ATOM     26  H   LIG    1       26.717 -27.127   7.839  0.00  0.00    +0.149 HD
ATOM     27  O   LIG    1       24.992 -29.785   7.649  0.00  0.00    -0.269 OA
BRANCH  24  32
ATOM     28  C   LIG    1       28.735 -29.497  12.875  0.00  0.00    +0.067 C 
ATOM     29  C   LIG    1       27.900 -29.371  11.639  0.00  0.00    +0.056 A 
ATOM     30  N   LIG    1       27.757 -30.468  10.854  0.00  0.00    -0.256 NA
ATOM     31  C   LIG    1       27.018 -30.297   9.725  0.00  0.00    +0.144 A 
ATOM     32  C   LIG    1       26.434 -29.084   9.396  0.00  0.00    +0.143 A 
ATOM     33  N   LIG    1       26.533 -27.983  10.198  0.00  0.00    -0.247 NA
ATOM     34  C   LIG    1       27.276 -28.166  11.319  0.00  0.00    +0.134 A 
ENDBRANCH  24  32
ENDBRANCH  23  25
ENDBRANCH  22  23
ENDBRANCH   1  22
TORSDOF 9
ENDMDL
MODEL 3
REMARK VINA RESULT:      -9.7      2.018     10.470
REMARK  Name = *****
REMARK                            x       y       z     vdW  Elec       q    Type
REMARK                         _______ _______ _______ _____ _____    ______ ____
ROOT
ATOM      1  C   LIG    1       25.620 -20.527   6.470  0.00  0.00    -0.046 A 
ATOM      2  C   LIG    1       26.613 -20.200   5.530  0.00  0.00    +0.005 A 
ATOM      3  C   LIG    1       27.948 -20.107   5.892  0.00  0.00    +0.029 A 
ATOM      4  C   LIG    1       28.311 -20.322   7.214  0.00  0.00    +0.113 A 
ATOM      5  C   LIG    1       27.346 -20.625   8.182  0.00  0.00    +0.029 A 
ATOM      6  C   LIG    1       26.002 -20.725   7.807  0.00  0.00    +0.005 A 
ENDROOT
BRANCH   4   7
ATOM      7  S   LIG    1       30.030 -20.237   7.659  0.00  0.00    +0.103 S 
ATOM      8  O   LIG    1       30.706 -19.504   6.601  0.00  0.00    -0.146 OA
ATOM      9  O   LIG    1       30.455 -21.579   7.979  0.00  0.00    -0.146 OA
BRANCH   7  10
ATOM     10  N   LIG    1       29.989 -19.327   8.981  0.00  0.00    -0.076 NA
ATOM     11  C   LIG    1       31.014 -19.126   9.725  0.00  0.00    +0.299 C 
BRANCH  11  12
ATOM     12  N   LIG    1       31.018 -18.432  10.890  0.00  0.00    -0.295 N 
ATOM     13  H   LIG    1       31.774 -18.710  11.506  0.00  0.00    +0.151 HD
BRANCH  12  14
ATOM     14  C   LIG    1       30.602 -17.039  10.977  0.00  0.00    +0.075 C 
ATOM     15  C   LIG    1       31.413 -16.303  12.050  0.00  0.00    +0.022 C 
ATOM     16  C   LIG    1       32.881 -16.134  11.665  0.00  0.00    +0.002 C 
ATOM     17  C   LIG    1       33.025 -15.445  10.312  0.00  0.00    +0.000 C 
ATOM     18  C   LIG    1       32.230 -16.155   9.220  0.00  0.00    +0.002 C 
ATOM     19  C   LIG    1       30.764 -16.357   9.613  0.00  0.00    +0.022 C 
ENDBRANCH  12  14
ENDBRANCH  11  12
BRANCH  11  20
ATOM     20  O   LIG    1       32.256 -19.574   9.480  0.00  0.00    -0.481 OA
ATOM     21  H   LIG    1       32.819 -19.556  10.282  0.00  0.00    +0.295 HD
ENDBRANCH  11  20
ENDBRANCH   7  10
ENDBRANCH   4   7
BRANCH   1  22
ATOM     22  C   LIG    1       24.165 -20.692   6.066  0.00  0.00    +0.054 C 
BRANCH  22  23
ATOM     23  C   LIG    1       23.971 -21.523   4.789  0.00  0.00    +0.109 C 
BRANCH  23  25
ATOM     24  C   LIG    1       24.056 -23.765   5.833  0.00  0.00    +0.264 C 
ATOM     25  N   LIG    1       24.486 -22.869   4.878  0.00  0.00    -0.310 N 
ATOM     26  H   LIG    1       25.117 -23.218   4.162  0.00  0.00    +0.149 HD
ATOM     27  O   LIG    1       23.283 -23.475   6.741  0.00  0.00    -0.269 OA
BRANCH  24  32
ATOM     28  C   LIG    1       25.626 -29.164   5.048  0.00  0.00    +0.067 C 
ATOM     29  C   LIG    1       25.257 -27.734   5.296  0.00  0.00    +0.056 A 
ATOM     30  N   LIG    1       24.502 -27.452   6.388  0.00  0.00    -0.256 NA
ATOM     31  C   LIG    1       24.164 -26.146   6.553  0.00  0.00    +0.144 A 
ATOM     32  C   LIG    1       24.571 -25.156   5.673  0.00  0.00    +0.143 A 
ATOM     33  N   LIG    1       25.367 -25.417   4.596  0.00  0.00    -0.247 NA
ATOM     34  C   LIG    1       25.694 -26.725   4.439  0.00  0.00    +0.134 A 
ENDBRANCH  24  32
ENDBRANCH  23  25
ENDBRANCH  22  23
ENDBRANCH   1  22
TORSDOF 9
ENDMDL
MODEL 4
REMARK VINA RESULT:      -9.6      1.986     10.251
REMARK  Name = *****
REMARK                            x       y       z     vdW  Elec       q    Type
REMARK                         _______ _______ _______ _____ _____    ______ ____
ROOT
ATOM      1  C   LIG    1       24.890 -21.082   7.315  0.00  0.00    -0.046 A 
ATOM      2  C   LIG    1       25.548 -20.694   6.134  0.00  0.00    +0.005 A 
ATOM      3  C   LIG    1       26.887 -20.335   6.138  0.00  0.00    +0.029 A 
ATOM      4  C   LIG    1       27.590 -20.339   7.334  0.00  0.00    +0.113 A 
ATOM      5  C   LIG    1       26.961 -20.695   8.533  0.00  0.00    +0.029 A 
ATOM      6  C   LIG    1       25.611 -21.063   8.521  0.00  0.00    +0.005 A 
ENDROOT
BRANCH   4   7
ATOM      7  S   LIG    1       29.315 -19.913   7.321  0.00  0.00    +0.103 S 
ATOM      8  O   LIG    1       29.497 -18.914   6.279  0.00  0.00    -0.146 OA
ATOM      9  O   LIG    1       30.060 -21.148   7.260  0.00  0.00    -0.146 OA
BRANCH   7  10
ATOM     10  N   LIG    1       29.499 -19.212   8.753  0.00  0.00    -0.076 NA
ATOM     11  C   LIG    1       30.615 -19.193   9.387  0.00  0.00    +0.299 C 
BRANCH  11  12
ATOM     12  N   LIG    1       30.807 -18.684  10.628  0.00  0.00    -0.295 N 
ATOM     13  H   LIG    1       31.595 -19.110  11.105  0.00  0.00    +0.151 HD
BRANCH  12  14
ATOM     14  C   LIG    1       30.535 -17.293  10.960  0.00  0.00    +0.075 C 
ATOM     15  C   LIG    1       31.512 -16.795  12.032  0.00  0.00    +0.022 C 
ATOM     16  C   LIG    1       32.945 -16.686  11.515  0.00  0.00    +0.002 C 
ATOM     17  C   LIG    1       33.021 -15.812  10.267  0.00  0.00    +0.000 C 
ATOM     18  C   LIG    1       32.060 -16.283   9.179  0.00  0.00    +0.002 C 
ATOM     19  C   LIG    1       30.628 -16.426   9.698  0.00  0.00    +0.022 C 
ENDBRANCH  12  14
ENDBRANCH  11  12
BRANCH  11  20
ATOM     20  O   LIG    1       31.780 -19.680   8.929  0.00  0.00    -0.481 OA
ATOM     21  H   LIG    1       32.372 -18.971   8.602  0.00  0.00    +0.295 HD
ENDBRANCH  11  20
ENDBRANCH   7  10
ENDBRANCH   4   7
BRANCH   1  22
ATOM     22  C   LIG    1       23.441 -21.536   7.307  0.00  0.00    +0.054 C 
BRANCH  22  23
ATOM     23  C   LIG    1       23.091 -22.454   6.126  0.00  0.00    +0.109 C 
BRANCH  23  25
ATOM     24  C   LIG    1       24.475 -24.451   5.656  0.00  0.00    +0.264 C 
ATOM     25  N   LIG    1       23.441 -23.839   6.331  0.00  0.00    -0.310 N 
ATOM     26  H   LIG    1       22.983 -24.373   7.065  0.00  0.00    +0.149 HD
ATOM     27  O   LIG    1       25.118 -23.911   4.762  0.00  0.00    -0.269 OA
BRANCH  24  32
ATOM     28  C   LIG    1       25.521 -29.609   7.783  0.00  0.00    +0.067 C 
ATOM     29  C   LIG    1       25.289 -28.259   7.180  0.00  0.00    +0.056 A 
ATOM     30  N   LIG    1       26.135 -27.255   7.523  0.00  0.00    -0.256 NA
ATOM     31  C   LIG    1       25.865 -26.040   6.977  0.00  0.00    +0.144 A 
ATOM     32  C   LIG    1       24.800 -25.833   6.114  0.00  0.00    +0.143 A 
ATOM     33  N   LIG    1       23.967 -26.842   5.726  0.00  0.00    -0.247 NA
ATOM     34  C   LIG    1       24.244 -28.048   6.280  0.00  0.00    +0.134 A 
ENDBRANCH  24  32
ENDBRANCH  23  25
ENDBRANCH  22  23
ENDBRANCH   1  22
TORSDOF 9
ENDMDL
MODEL 5
REMARK VINA RESULT:      -9.2      3.456     10.204
REMARK  Name = *****
REMARK                            x       y       z     vdW  Elec       q    Type
REMARK                         _______ _______ _______ _____ _____    ______ ____
ROOT
ATOM      1  C   LIG    1       24.482 -25.458   6.437  0.00  0.00    -0.046 A 
ATOM      2  C   LIG    1       23.275 -24.745   6.550  0.00  0.00    +0.005 A 
ATOM      3  C   LIG    1       23.259 -23.362   6.656  0.00  0.00    +0.029 A 
ATOM      4  C   LIG    1       24.461 -22.668   6.670  0.00  0.00    +0.113 A 
ATOM      5  C   LIG    1       25.682 -23.346   6.585  0.00  0.00    +0.029 A 
ATOM      6  C   LIG    1       25.689 -24.741   6.471  0.00  0.00    +0.005 A 
ENDROOT
BRANCH   4   7
ATOM      7  S   LIG    1       24.427 -20.893   6.768  0.00  0.00    +0.103 S 
ATOM      8  O   LIG    1       23.773 -20.550   8.020  0.00  0.00    -0.146 OA
ATOM      9  O   LIG    1       23.882 -20.407   5.523  0.00  0.00    -0.146 OA
BRANCH   7  10
ATOM     10  N   LIG    1       25.988 -20.534   6.879  0.00  0.00    -0.076 NA
ATOM     11  C   LIG    1       26.620 -20.493   7.994  0.00  0.00    +0.299 C 
BRANCH  11  12
ATOM     12  N   LIG    1       27.915 -20.122   8.153  0.00  0.00    -0.295 N 
ATOM     13  H   LIG    1       28.130 -19.861   9.109  0.00  0.00    +0.151 HD
BRANCH  12  14
ATOM     14  C   LIG    1       29.003 -20.721   7.393  0.00  0.00    +0.075 C 
ATOM     15  C   LIG    1       29.456 -19.779   6.272  0.00  0.00    +0.022 C 
ATOM     16  C   LIG    1       30.142 -18.521   6.802  0.00  0.00    +0.002 C 
ATOM     17  C   LIG    1       31.309 -18.868   7.720  0.00  0.00    +0.000 C 
ATOM     18  C   LIG    1       30.890 -19.805   8.850  0.00  0.00    +0.002 C 
ATOM     19  C   LIG    1       30.174 -21.053   8.328  0.00  0.00    +0.022 C 
ENDBRANCH  12  14
ENDBRANCH  11  12
BRANCH  11  20
ATOM     20  O   LIG    1       26.104 -20.803   9.195  0.00  0.00    -0.481 OA
ATOM     21  H   LIG    1       26.539 -21.587   9.590  0.00  0.00    +0.295 HD
ENDBRANCH  11  20
ENDBRANCH   7  10
ENDBRANCH   4   7
BRANCH   1  22
ATOM     22  C   LIG    1       24.501 -26.966   6.259  0.00  0.00    +0.054 C 
BRANCH  22  23
ATOM     23  C   LIG    1       25.780 -27.632   6.790  0.00  0.00    +0.109 C 
BRANCH  23  25
ATOM     24  C   LIG    1       26.113 -29.019   8.811  0.00  0.00    +0.264 C 
ATOM     25  N   LIG    1       25.544 -28.821   7.572  0.00  0.00    -0.310 N 
ATOM     26  H   LIG    1       24.861 -29.507   7.258  0.00  0.00    +0.149 HD
ATOM     27  O   LIG    1       26.936 -28.260   9.312  0.00  0.00    -0.269 OA
BRANCH  24  32
ATOM     28  C   LIG    1       24.576 -33.519  11.913  0.00  0.00    +0.067 C 
ATOM     29  C   LIG    1       24.953 -32.357  11.046  0.00  0.00    +0.056 A 
ATOM     30  N   LIG    1       26.034 -32.492  10.238  0.00  0.00    -0.256 NA
ATOM     31  C   LIG    1       26.358 -31.401   9.495  0.00  0.00    +0.144 A 
ATOM     32  C   LIG    1       25.628 -30.224   9.546  0.00  0.00    +0.143 A 
ATOM     33  N   LIG    1       24.513 -30.088  10.321  0.00  0.00    -0.247 NA
ATOM     34  C   LIG    1       24.203 -31.182  11.061  0.00  0.00    +0.134 A 
ENDBRANCH  24  32
ENDBRANCH  23  25
ENDBRANCH  22  23
ENDBRANCH   1  22
TORSDOF 9
ENDMDL
MODEL 6
REMARK VINA RESULT:      -9.1      2.356      3.460
REMARK  Name = *****
REMARK                            x       y       z     vdW  Elec       q    Type
REMARK                         _______ _______ _______ _____ _____    ______ ____
ROOT
ATOM      1  C   LIG    1       26.215 -21.581   7.007  0.00  0.00    -0.046 A 
ATOM      2  C   LIG    1       26.488 -22.741   7.753  0.00  0.00    +0.005 A 
ATOM      3  C   LIG    1       26.036 -23.987   7.345  0.00  0.00    +0.029 A 
ATOM      4  C   LIG    1       25.281 -24.090   6.185  0.00  0.00    +0.113 A 
ATOM      5  C   LIG    1       24.967 -22.954   5.431  0.00  0.00    +0.029 A 
ATOM      6  C   LIG    1       25.434 -21.701   5.845  0.00  0.00    +0.005 A 
ENDROOT
BRANCH   4   7
ATOM      7  S   LIG    1       24.738 -25.696   5.651  0.00  0.00    +0.103 S 
ATOM      8  O   LIG    1       25.328 -25.930   4.342  0.00  0.00    -0.146 OA
ATOM      9  O   LIG    1       23.303 -25.734   5.803  0.00  0.00    -0.146 OA
BRANCH   7  10
ATOM     10  N   LIG    1       25.445 -26.662   6.722  0.00  0.00    -0.076 NA
ATOM     11  C   LIG    1       25.232 -27.926   6.773  0.00  0.00    +0.299 C 
BRANCH  11  12
ATOM     12  N   LIG    1       25.741 -28.773   7.701  0.00  0.00    -0.295 N 
ATOM     13  H   LIG    1       26.094 -28.288   8.519  0.00  0.00    +0.151 HD
BRANCH  12  14
ATOM     14  C   LIG    1       25.200 -30.105   7.932  0.00  0.00    +0.075 C 
ATOM     15  C   LIG    1       26.326 -31.093   8.258  0.00  0.00    +0.022 C 
ATOM     16  C   LIG    1       26.978 -30.816   9.611  0.00  0.00    +0.002 C 
ATOM     17  C   LIG    1       25.942 -30.788  10.731  0.00  0.00    +0.000 C 
ATOM     18  C   LIG    1       24.807 -29.811  10.437  0.00  0.00    +0.002 C 
ATOM     19  C   LIG    1       24.170 -30.063   9.068  0.00  0.00    +0.022 C 
ENDBRANCH  12  14
ENDBRANCH  11  12
BRANCH  11  20
ATOM     20  O   LIG    1       24.464 -28.623   5.920  0.00  0.00    -0.481 OA
ATOM     21  H   LIG    1       24.384 -29.564   6.181  0.00  0.00    +0.295 HD
ENDBRANCH  11  20
ENDBRANCH   7  10
ENDBRANCH   4   7
BRANCH   1  22
ATOM     22  C   LIG    1       26.760 -20.224   7.416  0.00  0.00    +0.054 C 
BRANCH  22  23
ATOM     23  C   LIG    1       28.219 -19.996   6.995  0.00  0.00    +0.109 C 
BRANCH  23  25
ATOM     24  C   LIG    1       30.102 -18.531   7.653  0.00  0.00    +0.264 C 
ATOM     25  N   LIG    1       29.019 -19.316   7.985  0.00  0.00    -0.310 N 
ATOM     26  H   LIG    1       28.733 -19.326   8.961  0.00  0.00    +0.149 HD
ATOM     27  O   LIG    1       30.537 -18.419   6.512  0.00  0.00    -0.269 OA
BRANCH  24  32
ATOM     28  C   LIG    1       32.489 -16.041  12.162  0.00  0.00    +0.067 C 
ATOM     29  C   LIG    1       31.832 -16.644  10.959  0.00  0.00    +0.056 A 
ATOM     30  N   LIG    1       30.541 -17.044  11.074  0.00  0.00    -0.256 NA
ATOM     31  C   LIG    1       29.998 -17.617   9.967  0.00  0.00    +0.144 A 
ATOM     32  C   LIG    1       30.708 -17.774   8.787  0.00  0.00    +0.143 A 
ATOM     33  N   LIG    1       31.992 -17.338   8.643  0.00  0.00    -0.247 NA
ATOM     34  C   LIG    1       32.525 -16.772   9.756  0.00  0.00    +0.134 A 
ENDBRANCH  24  32
ENDBRANCH  23  25
ENDBRANCH  22  23
ENDBRANCH   1  22
TORSDOF 9
ENDMDL
MODEL 7
REMARK VINA RESULT:      -8.9      3.275      5.355
REMARK  Name = *****
REMARK                            x       y       z     vdW  Elec       q    Type
REMARK                         _______ _______ _______ _____ _____    ______ ____
ROOT
ATOM      1  C   LIG    1       24.300 -23.205   7.124  0.00  0.00    -0.046 A 
ATOM      2  C   LIG    1       25.649 -23.600   7.180  0.00  0.00    +0.005 A 
ATOM      3  C   LIG    1       26.066 -24.819   6.667  0.00  0.00    +0.029 A 
ATOM      4  C   LIG    1       25.131 -25.676   6.103  0.00  0.00    +0.113 A 
ATOM      5  C   LIG    1       23.777 -25.327   6.054  0.00  0.00    +0.029 A 
ATOM      6  C   LIG    1       23.364 -24.092   6.567  0.00  0.00    +0.005 A 
ENDROOT
BRANCH   4   7
ATOM      7  S   LIG    1       25.683 -27.219   5.415  0.00  0.00    +0.103 S 
ATOM      8  O   LIG    1       27.111 -27.089   5.174  0.00  0.00    -0.146 OA
ATOM      9  O   LIG    1       24.802 -27.536   4.317  0.00  0.00    -0.146 OA
BRANCH   7  10
ATOM     10  N   LIG    1       25.451 -28.234   6.637  0.00  0.00    -0.076 NA
ATOM     11  C   LIG    1       24.457 -29.043   6.697  0.00  0.00    +0.299 C 
BRANCH  11  12
ATOM     12  N   LIG    1       24.172 -29.865   7.737  0.00  0.00    -0.295 N 
ATOM     13  H   LIG    1       23.360 -29.559   8.262  0.00  0.00    +0.151 HD
BRANCH  12  14
ATOM     14  C   LIG    1       24.399 -31.302   7.690  0.00  0.00    +0.075 C 
ATOM     15  C   LIG    1       25.901 -31.610   7.736  0.00  0.00    +0.022 C 
ATOM     16  C   LIG    1       26.529 -31.269   9.086  0.00  0.00    +0.002 C 
ATOM     17  C   LIG    1       25.799 -31.966  10.230  0.00  0.00    +0.000 C 
ATOM     18  C   LIG    1       24.301 -31.678  10.213  0.00  0.00    +0.002 C 
ATOM     19  C   LIG    1       23.670 -31.986   8.853  0.00  0.00    +0.022 C 
ENDBRANCH  12  14
ENDBRANCH  11  12
BRANCH  11  20
ATOM     20  O   LIG    1       23.529 -29.210   5.741  0.00  0.00    -0.481 OA
ATOM     21  H   LIG    1       23.472 -28.436   5.143  0.00  0.00    +0.295 HD
ENDBRANCH  11  20
ENDBRANCH   7  10
ENDBRANCH   4   7
BRANCH   1  22
ATOM     22  C   LIG    1       23.848 -21.845   7.628  0.00  0.00    +0.054 C 
BRANCH  22  23
ATOM     23  C   LIG    1       24.473 -20.668   6.865  0.00  0.00    +0.109 C 
BRANCH  23  25
ATOM     24  C   LIG    1       26.795 -20.190   6.157  0.00  0.00    +0.264 C 
ATOM     25  N   LIG    1       25.873 -20.459   7.145  0.00  0.00    -0.310 N 
ATOM     26  H   LIG    1       26.195 -20.409   8.109  0.00  0.00    +0.149 HD
ATOM     27  O   LIG    1       26.532 -20.202   4.959  0.00  0.00    -0.269 OA
BRANCH  24  32
ATOM     28  C   LIG    1       31.839 -18.450   8.095  0.00  0.00    +0.067 C 
ATOM     29  C   LIG    1       30.537 -18.955   7.555  0.00  0.00    +0.056 A 
ATOM     30  N   LIG    1       30.209 -18.631   6.279  0.00  0.00    -0.256 NA
ATOM     31  C   LIG    1       29.004 -19.084   5.844  0.00  0.00    +0.144 A 
ATOM     32  C   LIG    1       28.161 -19.839   6.644  0.00  0.00    +0.143 A 
ATOM     33  N   LIG    1       28.496 -20.210   7.914  0.00  0.00    -0.247 NA
ATOM     34  C   LIG    1       29.699 -19.749   8.338  0.00  0.00    +0.134 A 
ENDBRANCH  24  32
ENDBRANCH  23  25
ENDBRANCH  22  23
ENDBRANCH   1  22
TORSDOF 9
ENDMDL
MODEL 8
REMARK VINA RESULT:      -8.8      3.420     10.851
REMARK  Name = *****
REMARK                            x       y       z     vdW  Elec       q    Type
REMARK                         _______ _______ _______ _____ _____    ______ ____
ROOT
ATOM      1  C   LIG    1       25.231 -25.925   6.312  0.00  0.00    -0.046 A 
ATOM      2  C   LIG    1       26.196 -24.908   6.431  0.00  0.00    +0.005 A 
ATOM      3  C   LIG    1       25.831 -23.581   6.600  0.00  0.00    +0.029 A 
ATOM      4  C   LIG    1       24.485 -23.245   6.632  0.00  0.00    +0.113 A 
ATOM      5  C   LIG    1       23.497 -24.227   6.491  0.00  0.00    +0.029 A 
ATOM      6  C   LIG    1       23.873 -25.565   6.329  0.00  0.00    +0.005 A 
ENDROOT
BRANCH   4   7
ATOM      7  S   LIG    1       24.028 -21.546   6.886  0.00  0.00    +0.103 S 
ATOM      8  O   LIG    1       23.388 -21.469   8.190  0.00  0.00    -0.146 OA
ATOM      9  O   LIG    1       23.305 -21.118   5.712  0.00  0.00    -0.146 OA
BRANCH   7  10
ATOM     10  N   LIG    1       25.458 -20.822   6.964  0.00  0.00    -0.076 NA
ATOM     11  C   LIG    1       26.137 -20.725   8.048  0.00  0.00    +0.299 C 
BRANCH  11  12
ATOM     12  N   LIG    1       27.311 -20.061   8.186  0.00  0.00    -0.295 N 
ATOM     13  H   LIG    1       27.335 -19.484   9.020  0.00  0.00    +0.151 HD
BRANCH  12  14
ATOM     14  C   LIG    1       28.586 -20.618   7.757  0.00  0.00    +0.075 C 
ATOM     15  C   LIG    1       28.666 -20.659   6.226  0.00  0.00    +0.022 C 
ATOM     16  C   LIG    1       28.744 -19.266   5.604  0.00  0.00    +0.002 C 
ATOM     17  C   LIG    1       29.903 -18.462   6.184  0.00  0.00    +0.000 C 
ATOM     18  C   LIG    1       29.851 -18.401   7.708  0.00  0.00    +0.002 C 
ATOM     19  C   LIG    1       29.741 -19.792   8.338  0.00  0.00    +0.022 C 
ENDBRANCH  12  14
ENDBRANCH  11  12
BRANCH  11  20
ATOM     20  O   LIG    1       25.797 -21.261   9.232  0.00  0.00    -0.481 OA
ATOM     21  H   LIG    1       25.029 -21.864   9.155  0.00  0.00    +0.295 HD
ENDBRANCH  11  20
ENDBRANCH   7  10
ENDBRANCH   4   7
BRANCH   1  22
ATOM     22  C   LIG    1       25.626 -27.386   6.190  0.00  0.00    +0.054 C 
BRANCH  22  23
ATOM     23  C   LIG    1       24.485 -28.293   5.705  0.00  0.00    +0.109 C 
BRANCH  23  25
ATOM     24  C   LIG    1       24.617 -30.445   6.920  0.00  0.00    +0.264 C 
ATOM     25  N   LIG    1       24.012 -29.227   6.698  0.00  0.00    -0.310 N 
ATOM     26  H   LIG    1       23.265 -28.955   7.334  0.00  0.00    +0.149 HD
ATOM     27  O   LIG    1       25.538 -30.882   6.236  0.00  0.00    -0.269 OA
BRANCH  24  32
ATOM     28  C   LIG    1       23.009 -33.225  11.600  0.00  0.00    +0.067 C 
ATOM     29  C   LIG    1       23.393 -32.526  10.334  0.00  0.00    +0.056 A 
ATOM     30  N   LIG    1       24.274 -33.144   9.508  0.00  0.00    -0.256 NA
ATOM     31  C   LIG    1       24.619 -32.456   8.387  0.00  0.00    +0.144 A 
ATOM     32  C   LIG    1       24.098 -31.206   8.093  0.00  0.00    +0.143 A 
ATOM     33  N   LIG    1       23.178 -30.591   8.891  0.00  0.00    -0.247 NA
ATOM     34  C   LIG    1       22.846 -31.285  10.009  0.00  0.00    +0.134 A 
ENDBRANCH  24  32
ENDBRANCH  23  25
ENDBRANCH  22  23
ENDBRANCH   1  22
TORSDOF 9
ENDMDL
MODEL 9
REMARK VINA RESULT:      -8.7      2.142     10.257
REMARK  Name = *****
REMARK                            x       y       z     vdW  Elec       q    Type
REMARK                         _______ _______ _______ _____ _____    ______ ____
ROOT
ATOM      1  C   LIG    1       27.347 -20.250   6.200  0.00  0.00    -0.046 A 
ATOM      2  C   LIG    1       28.673 -20.040   5.781  0.00  0.00    +0.005 A 
ATOM      3  C   LIG    1       29.747 -20.335   6.607  0.00  0.00    +0.029 A 
ATOM      4  C   LIG    1       29.509 -20.829   7.882  0.00  0.00    +0.113 A 
ATOM      5  C   LIG    1       28.202 -21.026   8.342  0.00  0.00    +0.029 A 
ATOM      6  C   LIG    1       27.124 -20.734   7.500  0.00  0.00    +0.005 A 
ENDROOT
BRANCH   4   7
ATOM      7  S   LIG    1       30.894 -21.239   8.919  0.00  0.00    +0.103 S 
ATOM      8  O   LIG    1       31.922 -21.794   8.052  0.00  0.00    -0.146 OA
ATOM      9  O   LIG    1       30.387 -22.026  10.017  0.00  0.00    -0.146 OA
BRANCH   7  10
ATOM     10  N   LIG    1       31.368 -19.794   9.431  0.00  0.00    -0.076 NA
ATOM     11  C   LIG    1       31.910 -18.921   8.663  0.00  0.00    +0.299 C 
BRANCH  11  12
ATOM     12  N   LIG    1       32.397 -17.718   9.058  0.00  0.00    -0.295 N 
ATOM     13  H   LIG    1       33.276 -17.488   8.607  0.00  0.00    +0.151 HD
BRANCH  12  14
ATOM     14  C   LIG    1       31.537 -16.593   9.394  0.00  0.00    +0.075 C 
ATOM     15  C   LIG    1       30.517 -16.998  10.465  0.00  0.00    +0.022 C 
ATOM     16  C   LIG    1       31.165 -17.272  11.821  0.00  0.00    +0.002 C 
ATOM     17  C   LIG    1       31.997 -16.082  12.289  0.00  0.00    +0.000 C 
ATOM     18  C   LIG    1       33.024 -15.654  11.245  0.00  0.00    +0.002 C 
ATOM     19  C   LIG    1       32.386 -15.409   9.876  0.00  0.00    +0.022 C 
ENDBRANCH  12  14
ENDBRANCH  11  12
BRANCH  11  20
ATOM     20  O   LIG    1       32.092 -19.052   7.339  0.00  0.00    -0.481 OA
ATOM     21  H   LIG    1       31.679 -18.320   6.836  0.00  0.00    +0.295 HD
ENDBRANCH  11  20
ENDBRANCH   7  10
ENDBRANCH   4   7
BRANCH   1  22
ATOM     22  C   LIG    1       26.170 -19.987   5.277  0.00  0.00    +0.054 C 
BRANCH  22  23
ATOM     23  C   LIG    1       24.938 -20.848   5.592  0.00  0.00    +0.109 C 
BRANCH  23  25
ATOM     24  C   LIG    1       24.762 -23.102   6.597  0.00  0.00    +0.264 C 
ATOM     25  N   LIG    1       25.195 -22.268   5.589  0.00  0.00    -0.310 N 
ATOM     26  H   LIG    1       25.625 -22.704   4.777  0.00  0.00    +0.149 HD
ATOM     27  O   LIG    1       24.215 -22.706   7.621  0.00  0.00    -0.269 OA
BRANCH  24  32
ATOM     28  C   LIG    1       25.446 -28.570   5.231  0.00  0.00    +0.067 C 
ATOM     29  C   LIG    1       25.262 -27.144   5.651  0.00  0.00    +0.056 A 
ATOM     30  N   LIG    1       23.999 -26.711   5.892  0.00  0.00    -0.256 NA
ATOM     31  C   LIG    1       23.878 -25.402   6.237  0.00  0.00    +0.144 A 
ATOM     32  C   LIG    1       24.972 -24.558   6.349  0.00  0.00    +0.143 A 
ATOM     33  N   LIG    1       26.251 -24.990   6.152  0.00  0.00    -0.247 NA
ATOM     34  C   LIG    1       26.359 -26.297   5.804  0.00  0.00    +0.134 A 
ENDBRANCH  24  32
ENDBRANCH  23  25
ENDBRANCH  22  23
ENDBRANCH   1  22
TORSDOF 9
ENDMDL
