MODEL 1
REMARK VINA RESULT:      -7.8      0.000      0.000
REMARK  Name = *****
REMARK                            x       y       z     vdW  Elec       q    Type
REMARK                         _______ _______ _______ _____ _____    ______ ____
ROOT
ATOM      1  C   LIG    1       24.024 -19.320   4.030  0.00  0.00    +0.162 A 
ATOM      2  C   LIG    1       24.135 -20.437   4.840  0.00  0.00    +0.167 A 
ATOM      3  O   LIG    1       23.081 -21.158   5.388  0.00  0.00    -0.484 OA
ATOM      4  C   LIG    1       23.750 -22.371   5.748  0.00  0.00    +0.191 C 
ATOM      5  C   LIG    1       25.165 -22.019   6.274  0.00  0.00    +0.056 C 
ATOM      6  C   LIG    1       25.298 -21.417   7.692  0.00  0.00    +0.035 C 
ATOM      7  C   LIG    1       26.757 -21.127   8.128  0.00  0.00    +0.086 C 
ATOM      8  N   LIG    1       27.497 -20.075   7.401  0.00  0.00    -0.301 NA
ATOM      9  C   LIG    1       27.752 -20.390   5.981  0.00  0.00    +0.119 C 
ATOM     10  C   LIG    1       26.528 -20.134   5.139  0.00  0.00    -0.025 A 
ATOM     11  C   LIG    1       26.437 -19.014   4.301  0.00  0.00    +0.009 A 
ATOM     12  C   LIG    1       28.771 -19.817   8.081  0.00  0.00    +0.105 C 
ATOM     13  C   LIG    1       25.926 -23.317   6.183  0.00  0.00    -0.013 C 
ATOM     14  C   LIG    1       25.311 -24.478   6.493  0.00  0.00    +0.001 C 
ATOM     15  C   LIG    1       23.844 -24.594   6.856  0.00  0.00    +0.141 C 
ATOM     16  C   LIG    1       23.017 -23.295   6.707  0.00  0.00    +0.081 C 
ATOM     17  C   LIG    1       25.379 -20.891   5.318  0.00  0.00    +0.016 A 
ATOM     18  C   LIG    1       25.206 -18.630   3.738  0.00  0.00    +0.050 A 
ENDROOT
BRANCH   1  20
ATOM     19  C   LIG    1       21.993 -18.136   4.371  0.00  0.00    +0.277 C 
ATOM     20  O   LIG    1       22.900 -18.773   3.484  0.00  0.00    -0.491 OA
ENDBRANCH   1  20
BRANCH  15  21
ATOM     21  O   LIG    1       23.312 -25.581   5.977  0.00  0.00    -0.388 OA
ATOM     22  H   LIG    1       22.386 -25.344   5.800  0.00  0.00    +0.210 HD
ENDBRANCH  15  21
TORSDOF 2
ENDMDL
MODEL 2
REMARK VINA RESULT:      -7.5      2.789      4.637
REMARK  Name = *****
REMARK                            x       y       z     vdW  Elec       q    Type
REMARK                         _______ _______ _______ _____ _____    ______ ____
ROOT
ATOM      1  C   LIG    1       27.392 -21.569   8.207  0.00  0.00    +0.162 A 
ATOM      2  C   LIG    1       26.612 -22.456   7.485  0.00  0.00    +0.167 A 
ATOM      3  O   LIG    1       27.068 -23.573   6.796  0.00  0.00    -0.484 OA
ATOM      4  C   LIG    1       25.843 -24.292   6.620  0.00  0.00    +0.191 C 
ATOM      5  C   LIG    1       24.708 -23.276   6.333  0.00  0.00    +0.056 C 
ATOM      6  C   LIG    1       24.636 -22.624   4.933  0.00  0.00    +0.035 C 
ATOM      7  C   LIG    1       23.449 -21.644   4.746  0.00  0.00    +0.086 C 
ATOM      8  N   LIG    1       23.454 -20.398   5.539  0.00  0.00    -0.301 NA
ATOM      9  C   LIG    1       23.335 -20.610   6.995  0.00  0.00    +0.119 C 
ATOM     10  C   LIG    1       24.656 -21.017   7.596  0.00  0.00    -0.025 A 
ATOM     11  C   LIG    1       25.426 -20.119   8.348  0.00  0.00    +0.009 A 
ATOM     12  C   LIG    1       22.368 -19.525   5.081  0.00  0.00    +0.105 C 
ATOM     13  C   LIG    1       23.444 -24.044   6.620  0.00  0.00    -0.013 C 
ATOM     14  C   LIG    1       23.353 -25.343   6.264  0.00  0.00    +0.001 C 
ATOM     15  C   LIG    1       24.489 -26.141   5.655  0.00  0.00    +0.141 C 
ATOM     16  C   LIG    1       25.853 -25.414   5.594  0.00  0.00    +0.081 C 
ATOM     17  C   LIG    1       25.241 -22.228   7.255  0.00  0.00    +0.016 A 
ATOM     18  C   LIG    1       26.766 -20.406   8.668  0.00  0.00    +0.050 A 
ENDROOT
BRANCH   1  20
ATOM     19  C   LIG    1       29.617 -20.862   7.767  0.00  0.00    +0.277 C 
ATOM     20  O   LIG    1       28.716 -21.660   8.520  0.00  0.00    -0.491 OA
ENDBRANCH   1  20
BRANCH  15  21
ATOM     21  O   LIG    1       24.622 -27.298   6.475  0.00  0.00    -0.388 OA
ATOM     22  H   LIG    1       24.130 -27.132   7.297  0.00  0.00    +0.210 HD
ENDBRANCH  15  21
TORSDOF 2
ENDMDL
MODEL 3
REMARK VINA RESULT:      -7.0      2.422      4.351
REMARK  Name = *****
REMARK                            x       y       z     vdW  Elec       q    Type
REMARK                         _______ _______ _______ _____ _____    ______ ____
ROOT
ATOM      1  C   LIG    1       24.960 -18.956   3.890  0.00  0.00    +0.162 A 
ATOM      2  C   LIG    1       25.708 -19.640   4.833  0.00  0.00    +0.167 A 
ATOM      3  O   LIG    1       27.083 -19.837   4.800  0.00  0.00    -0.484 OA
ATOM      4  C   LIG    1       27.329 -20.209   6.160  0.00  0.00    +0.191 C 
ATOM      5  C   LIG    1       26.155 -21.095   6.651  0.00  0.00    +0.056 C 
ATOM      6  C   LIG    1       26.081 -22.561   6.165  0.00  0.00    +0.035 C 
ATOM      7  C   LIG    1       24.883 -23.363   6.736  0.00  0.00    +0.086 C 
ATOM      8  N   LIG    1       23.524 -22.955   6.327  0.00  0.00    -0.301 NA
ATOM      9  C   LIG    1       23.131 -21.611   6.797  0.00  0.00    +0.119 C 
ATOM     10  C   LIG    1       23.733 -20.535   5.930  0.00  0.00    -0.025 A 
ATOM     11  C   LIG    1       22.960 -19.829   4.997  0.00  0.00    +0.009 A 
ATOM     12  C   LIG    1       22.553 -23.944   6.808  0.00  0.00    +0.105 C 
ATOM     13  C   LIG    1       26.259 -21.046   8.153  0.00  0.00    -0.013 C 
ATOM     14  C   LIG    1       27.473 -21.069   8.743  0.00  0.00    +0.001 C 
ATOM     15  C   LIG    1       28.787 -21.055   7.987  0.00  0.00    +0.141 C 
ATOM     16  C   LIG    1       28.672 -20.857   6.458  0.00  0.00    +0.081 C 
ATOM     17  C   LIG    1       25.107 -20.349   5.891  0.00  0.00    +0.016 A 
ATOM     18  C   LIG    1       23.568 -19.033   4.009  0.00  0.00    +0.050 A 
ENDROOT
BRANCH   1  20
ATOM     19  C   LIG    1       26.026 -16.980   3.112  0.00  0.00    +0.277 C 
ATOM     20  O   LIG    1       25.397 -18.221   2.827  0.00  0.00    -0.491 OA
ENDBRANCH   1  20
BRANCH  15  21
ATOM     21  O   LIG    1       29.530 -19.970   8.536  0.00  0.00    -0.388 OA
ATOM     22  H   LIG    1       30.305 -19.830   7.966  0.00  0.00    +0.210 HD
ENDBRANCH  15  21
TORSDOF 2
ENDMDL
MODEL 4
REMARK VINA RESULT:      -6.0      1.592      4.735
REMARK  Name = *****
REMARK                            x       y       z     vdW  Elec       q    Type
REMARK                         _______ _______ _______ _____ _____    ______ ____
ROOT
ATOM      1  C   LIG    1       25.199 -24.903   5.308  0.00  0.00    +0.162 A 
ATOM      2  C   LIG    1       24.847 -23.569   5.199  0.00  0.00    +0.167 A 
ATOM      3  O   LIG    1       24.381 -22.937   4.053  0.00  0.00    -0.484 OA
ATOM      4  C   LIG    1       23.812 -21.752   4.618  0.00  0.00    +0.191 C 
ATOM      5  C   LIG    1       24.717 -21.275   5.784  0.00  0.00    +0.056 C 
ATOM      6  C   LIG    1       26.056 -20.582   5.444  0.00  0.00    +0.035 C 
ATOM      7  C   LIG    1       26.869 -20.123   6.681  0.00  0.00    +0.086 C 
ATOM      8  N   LIG    1       27.413 -21.167   7.574  0.00  0.00    -0.301 NA
ATOM      9  C   LIG    1       26.381 -21.959   8.272  0.00  0.00    +0.119 C 
ATOM     10  C   LIG    1       25.799 -23.014   7.365  0.00  0.00    -0.025 A 
ATOM     11  C   LIG    1       26.142 -24.367   7.502  0.00  0.00    +0.009 A 
ATOM     12  C   LIG    1       28.305 -20.548   8.560  0.00  0.00    +0.105 C 
ATOM     13  C   LIG    1       23.835 -20.348   6.580  0.00  0.00    -0.013 C 
ATOM     14  C   LIG    1       22.987 -19.515   5.940  0.00  0.00    +0.001 C 
ATOM     15  C   LIG    1       22.782 -19.496   4.439  0.00  0.00    +0.141 C 
ATOM     16  C   LIG    1       23.506 -20.616   3.655  0.00  0.00    +0.081 C 
ATOM     17  C   LIG    1       25.064 -22.653   6.246  0.00  0.00    +0.016 A 
ATOM     18  C   LIG    1       25.823 -25.298   6.497  0.00  0.00    +0.050 A 
ENDROOT
BRANCH   1  20
ATOM     19  C   LIG    1       25.831 -27.070   4.566  0.00  0.00    +0.277 C 
ATOM     20  O   LIG    1       25.041 -25.903   4.394  0.00  0.00    -0.491 OA
ENDBRANCH   1  20
BRANCH  15  21
ATOM     21  O   LIG    1       21.378 -19.635   4.245  0.00  0.00    -0.388 OA
ATOM     22  H   LIG    1       21.242 -20.028   3.366  0.00  0.00    +0.210 HD
ENDBRANCH  15  21
TORSDOF 2
ENDMDL
MODEL 5
REMARK VINA RESULT:      -6.0      6.365      9.377
REMARK  Name = *****
REMARK                            x       y       z     vdW  Elec       q    Type
REMARK                         _______ _______ _______ _____ _____    ______ ____
ROOT
ATOM      1  C   LIG    1       25.677 -27.075   6.622  0.00  0.00    +0.162 A 
ATOM      2  C   LIG    1       25.760 -28.027   7.624  0.00  0.00    +0.167 A 
ATOM      3  O   LIG    1       26.605 -27.982   8.726  0.00  0.00    -0.484 OA
ATOM      4  C   LIG    1       25.981 -28.950   9.576  0.00  0.00    +0.191 C 
ATOM      5  C   LIG    1       25.463 -30.119   8.699  0.00  0.00    +0.056 C 
ATOM      6  C   LIG    1       26.486 -31.133   8.139  0.00  0.00    +0.035 C 
ATOM      7  C   LIG    1       25.859 -32.275   7.298  0.00  0.00    +0.086 C 
ATOM      8  N   LIG    1       25.223 -31.914   6.015  0.00  0.00    -0.301 NA
ATOM      9  C   LIG    1       24.025 -31.063   6.154  0.00  0.00    +0.119 C 
ATOM     10  C   LIG    1       24.406 -29.623   6.389  0.00  0.00    -0.025 A 
ATOM     11  C   LIG    1       24.292 -28.661   5.375  0.00  0.00    +0.009 A 
ATOM     12  C   LIG    1       24.871 -33.138   5.285  0.00  0.00    +0.105 C 
ATOM     13  C   LIG    1       24.456 -30.820   9.575  0.00  0.00    -0.013 C 
ATOM     14  C   LIG    1       24.701 -30.964  10.894  0.00  0.00    +0.001 C 
ATOM     15  C   LIG    1       25.908 -30.384  11.605  0.00  0.00    +0.141 C 
ATOM     16  C   LIG    1       26.804 -29.461  10.747  0.00  0.00    +0.081 C 
ATOM     17  C   LIG    1       25.065 -29.249   7.551  0.00  0.00    +0.016 A 
ATOM     18  C   LIG    1       24.899 -27.399   5.504  0.00  0.00    +0.050 A 
ENDROOT
BRANCH   1  20
ATOM     19  C   LIG    1       25.424 -24.716   6.500  0.00  0.00    +0.277 C 
ATOM     20  O   LIG    1       26.275 -25.851   6.559  0.00  0.00    -0.491 OA
ENDBRANCH   1  20
BRANCH  15  21
ATOM     21  O   LIG    1       25.382 -29.631  12.694  0.00  0.00    -0.388 OA
ATOM     22  H   LIG    1       25.279 -30.238  13.446  0.00  0.00    +0.210 HD
ENDBRANCH  15  21
TORSDOF 2
ENDMDL
MODEL 6
REMARK VINA RESULT:      -5.7      2.740      5.698
REMARK  Name = *****
REMARK                            x       y       z     vdW  Elec       q    Type
REMARK                         _______ _______ _______ _____ _____    ______ ____
ROOT
ATOM      1  C   LIG    1       25.583 -25.130   6.560  0.00  0.00    +0.162 A 
ATOM      2  C   LIG    1       25.969 -23.822   6.796  0.00  0.00    +0.167 A 
ATOM      3  O   LIG    1       26.650 -23.360   7.915  0.00  0.00    -0.484 OA
ATOM      4  C   LIG    1       27.121 -22.097   7.434  0.00  0.00    +0.191 C 
ATOM      5  C   LIG    1       26.021 -21.465   6.542  0.00  0.00    +0.056 C 
ATOM      6  C   LIG    1       24.779 -20.848   7.225  0.00  0.00    +0.035 C 
ATOM      7  C   LIG    1       23.756 -20.222   6.243  0.00  0.00    +0.086 C 
ATOM      8  N   LIG    1       23.040 -21.130   5.324  0.00  0.00    -0.301 NA
ATOM      9  C   LIG    1       23.911 -21.797   4.336  0.00  0.00    +0.119 C 
ATOM     10  C   LIG    1       24.636 -22.966   4.952  0.00  0.00    -0.025 A 
ATOM     11  C   LIG    1       24.254 -24.288   4.684  0.00  0.00    +0.009 A 
ATOM     12  C   LIG    1       21.988 -20.384   4.624  0.00  0.00    +0.105 C 
ATOM     13  C   LIG    1       26.752 -20.419   5.740  0.00  0.00    -0.013 C 
ATOM     14  C   LIG    1       27.717 -19.679   6.325  0.00  0.00    +0.001 C 
ATOM     15  C   LIG    1       28.199 -19.879   7.748  0.00  0.00    +0.141 C 
ATOM     16  C   LIG    1       27.618 -21.111   8.480  0.00  0.00    +0.081 C 
ATOM     17  C   LIG    1       25.574 -22.764   5.955  0.00  0.00    +0.016 A 
ATOM     18  C   LIG    1       24.742 -25.354   5.464  0.00  0.00    +0.050 A 
ENDROOT
BRANCH   1  20
ATOM     19  C   LIG    1       25.515 -27.500   6.711  0.00  0.00    +0.277 C 
ATOM     20  O   LIG    1       25.895 -26.251   7.271  0.00  0.00    -0.491 OA
ENDBRANCH   1  20
BRANCH  15  21
ATOM     21  O   LIG    1       29.613 -20.026   7.654  0.00  0.00    -0.388 OA
ATOM     22  H   LIG    1       30.010 -19.161   7.849  0.00  0.00    +0.210 HD
ENDBRANCH  15  21
TORSDOF 2
ENDMDL
MODEL 7
REMARK VINA RESULT:      -5.7      6.104      8.848
REMARK  Name = *****
REMARK                            x       y       z     vdW  Elec       q    Type
REMARK                         _______ _______ _______ _____ _____    ______ ____
ROOT
ATOM      1  C   LIG    1       24.870 -27.294   6.045  0.00  0.00    +0.162 A 
ATOM      2  C   LIG    1       24.706 -28.633   6.355  0.00  0.00    +0.167 A 
ATOM      3  O   LIG    1       23.789 -29.500   5.776  0.00  0.00    -0.484 OA
ATOM      4  C   LIG    1       24.341 -30.764   6.161  0.00  0.00    +0.191 C 
ATOM      5  C   LIG    1       24.903 -30.641   7.600  0.00  0.00    +0.056 C 
ATOM      6  C   LIG    1       23.907 -30.612   8.783  0.00  0.00    +0.035 C 
ATOM      7  C   LIG    1       24.576 -30.513  10.178  0.00  0.00    +0.086 C 
ATOM      8  N   LIG    1       25.303 -29.270  10.506  0.00  0.00    -0.301 NA
ATOM      9  C   LIG    1       26.499 -29.034   9.674  0.00  0.00    +0.119 C 
ATOM     10  C   LIG    1       26.122 -28.476   8.325  0.00  0.00    -0.025 A 
ATOM     11  C   LIG    1       26.317 -27.123   8.012  0.00  0.00    +0.009 A 
ATOM     12  C   LIG    1       25.688 -29.291  11.922  0.00  0.00    +0.105 C 
ATOM     13  C   LIG    1       25.838 -31.816   7.732  0.00  0.00    -0.013 C 
ATOM     14  C   LIG    1       25.502 -33.005   7.190  0.00  0.00    +0.001 C 
ATOM     15  C   LIG    1       24.257 -33.240   6.359  0.00  0.00    +0.141 C 
ATOM     16  C   LIG    1       23.433 -31.975   6.023  0.00  0.00    +0.081 C 
ATOM     17  C   LIG    1       25.389 -29.239   7.427  0.00  0.00    +0.016 A 
ATOM     18  C   LIG    1       25.718 -26.551   6.874  0.00  0.00    +0.050 A 
ENDROOT
BRANCH   1  20
ATOM     19  C   LIG    1       24.848 -25.302   4.751  0.00  0.00    +0.277 C 
ATOM     20  O   LIG    1       24.293 -26.576   5.039  0.00  0.00    -0.491 OA
ENDBRANCH   1  20
BRANCH  15  21
ATOM     21  O   LIG    1       24.716 -33.825   5.143  0.00  0.00    -0.388 OA
ATOM     22  H   LIG    1       25.362 -34.512   5.376  0.00  0.00    +0.210 HD
ENDBRANCH  15  21
TORSDOF 2
ENDMDL
MODEL 8
REMARK VINA RESULT:      -5.6      9.438     10.690
REMARK  Name = *****
REMARK                            x       y       z     vdW  Elec       q    Type
REMARK                         _______ _______ _______ _____ _____    ______ ____
ROOT
ATOM      1  C   LIG    1       25.853 -25.352  13.550  0.00  0.00    +0.162 A 
ATOM      2  C   LIG    1       24.660 -26.043  13.666  0.00  0.00    +0.167 A 
ATOM      3  O   LIG    1       23.557 -25.651  14.415  0.00  0.00    -0.484 OA
ATOM      4  C   LIG    1       22.542 -26.483  13.844  0.00  0.00    +0.191 C 
ATOM      5  C   LIG    1       23.156 -27.872  13.532  0.00  0.00    +0.056 C 
ATOM      6  C   LIG    1       23.423 -28.843  14.705  0.00  0.00    +0.035 C 
ATOM      7  C   LIG    1       24.014 -30.211  14.279  0.00  0.00    +0.086 C 
ATOM      8  N   LIG    1       25.375 -30.224  13.704  0.00  0.00    -0.301 NA
ATOM      9  C   LIG    1       25.488 -29.525  12.409  0.00  0.00    +0.119 C 
ATOM     10  C   LIG    1       25.566 -28.032  12.602  0.00  0.00    -0.025 A 
ATOM     11  C   LIG    1       26.775 -27.337  12.455  0.00  0.00    +0.009 A 
ATOM     12  C   LIG    1       25.826 -31.612  13.552  0.00  0.00    +0.105 C 
ATOM     13  C   LIG    1       22.194 -28.489  12.550  0.00  0.00    -0.013 C 
ATOM     14  C   LIG    1       20.866 -28.309  12.709  0.00  0.00    +0.001 C 
ATOM     15  C   LIG    1       20.247 -27.438  13.784  0.00  0.00    +0.141 C 
ATOM     16  C   LIG    1       21.247 -26.615  14.630  0.00  0.00    +0.081 C 
ATOM     17  C   LIG    1       24.488 -27.332  13.124  0.00  0.00    +0.016 A 
ATOM     18  C   LIG    1       26.905 -26.009  12.901  0.00  0.00    +0.050 A 
ENDROOT
BRANCH   1  20
ATOM     19  C   LIG    1       26.643 -24.002  15.337  0.00  0.00    +0.277 C 
ATOM     20  O   LIG    1       26.162 -24.104  14.006  0.00  0.00    -0.491 OA
ENDBRANCH   1  20
BRANCH  15  21
ATOM     21  O   LIG    1       19.382 -26.540  13.094  0.00  0.00    -0.388 OA
ATOM     22  H   LIG    1       19.498 -25.661  13.491  0.00  0.00    +0.210 HD
ENDBRANCH  15  21
TORSDOF 2
ENDMDL
MODEL 9
REMARK VINA RESULT:      -5.5      8.116     10.441
REMARK  Name = *****
REMARK                            x       y       z     vdW  Elec       q    Type
REMARK                         _______ _______ _______ _____ _____    ______ ____
ROOT
ATOM      1  C   LIG    1       22.302 -30.864  11.152  0.00  0.00    +0.162 A 
ATOM      2  C   LIG    1       23.091 -30.623  10.040  0.00  0.00    +0.167 A 
ATOM      3  O   LIG    1       22.956 -31.226   8.796  0.00  0.00    -0.484 OA
ATOM      4  C   LIG    1       23.719 -30.328   7.984  0.00  0.00    +0.191 C 
ATOM      5  C   LIG    1       24.956 -29.858   8.792  0.00  0.00    +0.056 C 
ATOM      6  C   LIG    1       26.135 -30.841   8.977  0.00  0.00    +0.035 C 
ATOM      7  C   LIG    1       27.329 -30.261   9.778  0.00  0.00    +0.086 C 
ATOM      8  N   LIG    1       27.113 -29.947  11.205  0.00  0.00    -0.301 NA
ATOM      9  C   LIG    1       26.143 -28.861  11.443  0.00  0.00    +0.119 C 
ATOM     10  C   LIG    1       24.726 -29.361  11.322  0.00  0.00    -0.025 A 
ATOM     11  C   LIG    1       23.926 -29.575  12.453  0.00  0.00    +0.009 A 
ATOM     12  C   LIG    1       28.396 -29.603  11.827  0.00  0.00    +0.105 C 
ATOM     13  C   LIG    1       25.416 -28.617   8.073  0.00  0.00    -0.013 C 
ATOM     14  C   LIG    1       25.377 -28.569   6.725  0.00  0.00    +0.001 C 
ATOM     15  C   LIG    1       24.810 -29.669   5.850  0.00  0.00    +0.141 C 
ATOM     16  C   LIG    1       24.117 -30.827   6.604  0.00  0.00    +0.081 C 
ATOM     17  C   LIG    1       24.240 -29.812  10.103  0.00  0.00    +0.016 A 
ATOM     18  C   LIG    1       22.720 -30.295  12.360  0.00  0.00    +0.050 A 
ENDROOT
BRANCH   1  20
ATOM     19  C   LIG    1       19.975 -31.045  10.707  0.00  0.00    +0.277 C 
ATOM     20  O   LIG    1       21.163 -31.609  11.243  0.00  0.00    -0.491 OA
ENDBRANCH   1  20
BRANCH  15  21
ATOM     21  O   LIG    1       23.852 -29.031   5.010  0.00  0.00    -0.388 OA
ATOM     22  H   LIG    1       23.021 -28.969   5.510  0.00  0.00    +0.210 HD
ENDBRANCH  15  21
TORSDOF 2
ENDMDL
