MODEL 1
REMARK VINA RESULT:       6.7      0.000      0.000
REMARK  Name = *****
REMARK                            x       y       z     vdW  Elec       q    Type
REMARK                         _______ _______ _______ _____ _____    ______ ____
ROOT
ATOM      1  P   LIG    1       26.358 -14.810   3.152  0.00  0.00    +0.216 P 
ATOM      2  O   LIG    1       26.148 -14.141   1.826  0.00  0.00    -0.290 OA
ENDROOT
BRANCH   1   3
ATOM      3  O   LIG    1       25.216 -14.422   4.238  0.00  0.00    -0.286 OA
BRANCH   3   4
ATOM      4  C   LIG    1       24.065 -13.727   3.763  0.00  0.00    +0.320 C 
BRANCH   4   5
ATOM      5  C   LIG    1       24.438 -12.964   2.462  0.00  0.00    +0.052 C 
ATOM      6  C   LIG    1       25.798 -12.263   2.586  0.00  0.00    +0.013 C 
ATOM      7  C   LIG    1       23.380 -11.937   2.042  0.00  0.00    +0.013 C 
ENDBRANCH   4   5
BRANCH   4   8
ATOM      8  O   LIG    1       23.024 -14.651   3.458  0.00  0.00    -0.434 OA
BRANCH   8   9
ATOM      9  C   LIG    1       22.665 -15.539   4.430  0.00  0.00    +0.309 C 
ATOM     10  O   LIG    1       22.558 -16.743   4.289  0.00  0.00    -0.251 OA
BRANCH   9  12
ATOM     11  C   LIG    1       21.511 -15.613   6.672  0.00  0.00    +0.015 C 
ATOM     12  C   LIG    1       22.430 -14.826   5.750  0.00  0.00    +0.117 C 
ENDBRANCH   9  12
ENDBRANCH   8   9
ENDBRANCH   4   8
ENDBRANCH   3   4
ENDBRANCH   1   3
BRANCH   1  13
ATOM     13  C   LIG    1       26.254 -16.595   3.116  0.00  0.00    +0.193 C 
BRANCH  13  14
ATOM     14  C   LIG    1       27.083 -17.246   4.189  0.00  0.00    +0.226 C 
ATOM     15  N   LIG    1       26.790 -18.536   4.562  0.00  0.00    -0.287 N 
ATOM     16  C   LIG    1       27.379 -19.099   5.785  0.00  0.00    +0.185 C 
ATOM     17  C   LIG    1       26.400 -20.206   6.177  0.00  0.00    +0.039 C 
ATOM     18  C   LIG    1       25.893 -20.741   4.824  0.00  0.00    +0.012 C 
ATOM     19  C   LIG    1       25.765 -19.430   4.019  0.00  0.00    +0.112 C 
ATOM     20  O   LIG    1       28.043 -16.682   4.705  0.00  0.00    -0.275 OA
BRANCH  18  21
ATOM     21  C   LIG    1       24.587 -21.571   4.951  0.00  0.00    -0.006 C 
ATOM     22  C   LIG    1       23.790 -21.275   6.236  0.00  0.00    +0.004 C 
ATOM     23  C   LIG    1       22.927 -20.016   6.170  0.00  0.00    +0.000 C 
ATOM     24  C   LIG    1       21.994 -20.041   4.966  0.00  0.00    +0.000 C 
ATOM     25  C   LIG    1       22.780 -20.217   3.674  0.00  0.00    +0.000 C 
ATOM     26  C   LIG    1       23.665 -21.463   3.712  0.00  0.00    +0.004 C 
ENDBRANCH  18  21
BRANCH  16  27
ATOM     27  C   LIG    1       28.807 -19.654   5.609  0.00  0.00    +0.326 C 
ATOM     28  O   LIG    1       29.344 -20.401   6.403  0.00  0.00    -0.249 OA
BRANCH  27  29
ATOM     29  O   LIG    1       29.469 -19.178   4.527  0.00  0.00    -0.479 OA
ATOM     30  H   LIG    1       30.213 -18.588   4.776  0.00  0.00    +0.295 HD
ENDBRANCH  27  29
ENDBRANCH  16  27
ENDBRANCH  13  14
ENDBRANCH   1  13
BRANCH   1  31
ATOM     31  C   LIG    1       27.899 -14.371   3.969  0.00  0.00    +0.098 C 
BRANCH  31  32
ATOM     32  C   LIG    1       28.983 -13.768   3.077  0.00  0.00    +0.010 C 
BRANCH  32  33
ATOM     33  C   LIG    1       29.095 -12.257   3.247  0.00  0.00    +0.005 C 
BRANCH  33  34
ATOM     34  C   LIG    1       29.172 -11.866   4.726  0.00  0.00    +0.035 C 
BRANCH  34  35
ATOM     35  C   LIG    1       28.000 -12.401   5.508  0.00  0.00    -0.047 A 
ATOM     36  C   LIG    1       26.759 -11.753   5.465  0.00  0.00    +0.003 A 
ATOM     37  C   LIG    1       25.672 -12.256   6.183  0.00  0.00    +0.000 A 
ATOM     38  C   LIG    1       25.814 -13.415   6.943  0.00  0.00    +0.000 A 
ATOM     39  C   LIG    1       27.042 -14.072   6.986  0.00  0.00    +0.000 A 
ATOM     40  C   LIG    1       28.130 -13.570   6.269  0.00  0.00    +0.003 A 
ENDBRANCH  34  35
ENDBRANCH  33  34
ENDBRANCH  32  33
ENDBRANCH  31  32
ENDBRANCH   1  31
TORSDOF 16
ENDMDL
MODEL 2
REMARK VINA RESULT:       8.1      1.039      2.124
REMARK  Name = *****
REMARK                            x       y       z     vdW  Elec       q    Type
REMARK                         _______ _______ _______ _____ _____    ______ ____
ROOT
ATOM      1  P   LIG    1       26.942 -15.125   3.150  0.00  0.00    +0.216 P 
ATOM      2  O   LIG    1       26.849 -14.442   1.819  0.00  0.00    -0.290 OA
ENDROOT
BRANCH   1   3
ATOM      3  O   LIG    1       25.816 -14.610   4.199  0.00  0.00    -0.286 OA
BRANCH   3   4
ATOM      4  C   LIG    1       24.711 -13.878   3.672  0.00  0.00    +0.320 C 
BRANCH   4   5
ATOM      5  C   LIG    1       23.408 -14.688   3.914  0.00  0.00    +0.052 C 
ATOM      6  C   LIG    1       22.963 -14.622   5.381  0.00  0.00    +0.013 C 
ATOM      7  C   LIG    1       23.525 -16.157   3.490  0.00  0.00    +0.013 C 
ENDBRANCH   4   5
BRANCH   4   8
ATOM      8  O   LIG    1       24.589 -12.624   4.340  0.00  0.00    -0.434 OA
BRANCH   8   9
ATOM      9  C   LIG    1       23.519 -11.840   4.017  0.00  0.00    +0.309 C 
ATOM     10  O   LIG    1       22.665 -11.450   4.790  0.00  0.00    -0.251 OA
BRANCH   9  12
ATOM     11  C   LIG    1       24.731 -12.096   1.819  0.00  0.00    +0.015 C 
ATOM     12  C   LIG    1       23.536 -11.489   2.540  0.00  0.00    +0.117 C 
ENDBRANCH   9  12
ENDBRANCH   8   9
ENDBRANCH   4   8
ENDBRANCH   3   4
ENDBRANCH   1   3
BRANCH   1  13
ATOM     13  C   LIG    1       26.642 -16.888   3.112  0.00  0.00    +0.193 C 
BRANCH  13  14
ATOM     14  C   LIG    1       27.279 -17.610   4.267  0.00  0.00    +0.226 C 
ATOM     15  N   LIG    1       26.785 -18.840   4.634  0.00  0.00    -0.287 N 
ATOM     16  C   LIG    1       27.183 -19.438   5.915  0.00  0.00    +0.185 C 
ATOM     17  C   LIG    1       26.036 -20.397   6.234  0.00  0.00    +0.039 C 
ATOM     18  C   LIG    1       25.585 -20.900   4.850  0.00  0.00    +0.012 C 
ATOM     19  C   LIG    1       25.703 -19.608   4.014  0.00  0.00    +0.112 C 
ATOM     20  O   LIG    1       28.255 -17.161   4.860  0.00  0.00    -0.275 OA
BRANCH  18  21
ATOM     21  C   LIG    1       24.175 -21.549   4.870  0.00  0.00    -0.006 C 
ATOM     22  C   LIG    1       23.324 -21.138   6.088  0.00  0.00    +0.004 C 
ATOM     23  C   LIG    1       22.643 -19.777   5.954  0.00  0.00    +0.000 C 
ATOM     24  C   LIG    1       21.814 -19.689   4.680  0.00  0.00    +0.000 C 
ATOM     25  C   LIG    1       22.671 -19.979   3.455  0.00  0.00    +0.000 C 
ATOM     26  C   LIG    1       23.376 -21.331   3.561  0.00  0.00    +0.004 C 
ENDBRANCH  18  21
BRANCH  16  27
ATOM     27  C   LIG    1       28.536 -20.180   5.881  0.00  0.00    +0.326 C 
ATOM     28  O   LIG    1       28.789 -21.153   6.563  0.00  0.00    -0.249 OA
BRANCH  27  29
ATOM     29  O   LIG    1       29.471 -19.612   5.083  0.00  0.00    -0.479 OA
ATOM     30  H   LIG    1       29.085 -19.251   4.256  0.00  0.00    +0.295 HD
ENDBRANCH  27  29
ENDBRANCH  16  27
ENDBRANCH  13  14
ENDBRANCH   1  13
BRANCH   1  31
ATOM     31  C   LIG    1       28.494 -14.856   4.016  0.00  0.00    +0.098 C 
BRANCH  31  32
ATOM     32  C   LIG    1       29.471 -13.884   3.356  0.00  0.00    +0.010 C 
BRANCH  32  33
ATOM     33  C   LIG    1       28.782 -12.611   2.875  0.00  0.00    +0.005 C 
BRANCH  33  34
ATOM     34  C   LIG    1       28.581 -11.618   4.024  0.00  0.00    +0.035 C 
BRANCH  34  35
ATOM     35  C   LIG    1       27.674 -12.174   5.092  0.00  0.00    -0.047 A 
ATOM     36  C   LIG    1       26.489 -11.512   5.437  0.00  0.00    +0.003 A 
ATOM     37  C   LIG    1       25.646 -12.034   6.420  0.00  0.00    +0.000 A 
ATOM     38  C   LIG    1       25.976 -13.226   7.061  0.00  0.00    +0.000 A 
ATOM     39  C   LIG    1       27.148 -13.898   6.720  0.00  0.00    +0.000 A 
ATOM     40  C   LIG    1       27.992 -13.377   5.738  0.00  0.00    +0.003 A 
ENDBRANCH  34  35
ENDBRANCH  33  34
ENDBRANCH  32  33
ENDBRANCH  31  32
ENDBRANCH   1  31
TORSDOF 16
ENDMDL
MODEL 3
REMARK VINA RESULT:       9.1      2.304      7.714
REMARK  Name = *****
REMARK                            x       y       z     vdW  Elec       q    Type
REMARK                         _______ _______ _______ _____ _____    ______ ____
ROOT
ATOM      1  P   LIG    1       22.152 -18.092   3.463  0.00  0.00    +0.216 P 
ATOM      2  O   LIG    1       20.841 -18.791   3.261  0.00  0.00    -0.290 OA
ENDROOT
BRANCH   1   3
ATOM      3  O   LIG    1       23.301 -18.606   2.438  0.00  0.00    -0.286 OA
BRANCH   3   4
ATOM      4  C   LIG    1       24.548 -19.012   2.996  0.00  0.00    +0.320 C 
BRANCH   4   5
ATOM      5  C   LIG    1       24.817 -20.492   2.605  0.00  0.00    +0.052 C 
ATOM      6  C   LIG    1       23.744 -21.432   3.171  0.00  0.00    +0.013 C 
ATOM      7  C   LIG    1       26.201 -20.988   3.042  0.00  0.00    +0.013 C 
ENDBRANCH   4   5
BRANCH   4   8
ATOM      8  O   LIG    1       25.605 -18.211   2.471  0.00  0.00    -0.434 OA
BRANCH   8   9
ATOM      9  C   LIG    1       26.191 -17.312   3.315  0.00  0.00    +0.309 C 
ATOM     10  O   LIG    1       26.001 -16.111   3.317  0.00  0.00    -0.251 OA
BRANCH   9  12
ATOM     11  C   LIG    1       28.388 -17.218   4.552  0.00  0.00    +0.015 C 
ATOM     12  C   LIG    1       27.118 -18.015   4.291  0.00  0.00    +0.117 C 
ENDBRANCH   9  12
ENDBRANCH   8   9
ENDBRANCH   4   8
ENDBRANCH   3   4
ENDBRANCH   1   3
BRANCH   1  13
ATOM     13  C   LIG    1       22.122 -16.332   3.145  0.00  0.00    +0.193 C 
BRANCH  13  14
ATOM     14  C   LIG    1       22.562 -15.521   4.332  0.00  0.00    +0.226 C 
ATOM     15  N   LIG    1       23.458 -14.496   4.139  0.00  0.00    -0.287 N 
ATOM     16  C   LIG    1       24.123 -13.875   5.293  0.00  0.00    +0.185 C 
ATOM     17  C   LIG    1       25.402 -13.289   4.696  0.00  0.00    +0.039 C 
ATOM     18  C   LIG    1       24.982 -12.863   3.277  0.00  0.00    +0.012 C 
ATOM     19  C   LIG    1       24.049 -14.028   2.883  0.00  0.00    +0.112 C 
ATOM     20  O   LIG    1       22.110 -15.710   5.457  0.00  0.00    -0.275 OA
BRANCH  18  21
ATOM     21  C   LIG    1       26.190 -12.632   2.330  0.00  0.00    -0.006 C 
ATOM     22  C   LIG    1       27.135 -11.509   2.798  0.00  0.00    +0.004 C 
ATOM     23  C   LIG    1       28.127 -11.928   3.882  0.00  0.00    +0.000 C 
ATOM     24  C   LIG    1       28.931 -13.152   3.462  0.00  0.00    +0.000 C 
ATOM     25  C   LIG    1       28.008 -14.311   3.108  0.00  0.00    +0.000 C 
ATOM     26  C   LIG    1       26.995 -13.921   2.031  0.00  0.00    +0.004 C 
ENDBRANCH  18  21
BRANCH  16  27
ATOM     27  C   LIG    1       23.289 -12.786   6.001  0.00  0.00    +0.326 C 
ATOM     28  O   LIG    1       22.141 -12.945   6.364  0.00  0.00    -0.249 OA
BRANCH  27  29
ATOM     29  O   LIG    1       23.909 -11.588   6.118  0.00  0.00    -0.479 OA
ATOM     30  H   LIG    1       24.680 -11.507   5.515  0.00  0.00    +0.295 HD
ENDBRANCH  27  29
ENDBRANCH  16  27
ENDBRANCH  13  14
ENDBRANCH   1  13
BRANCH   1  31
ATOM     31  C   LIG    1       22.882 -18.339   5.088  0.00  0.00    +0.098 C 
BRANCH  31  32
ATOM     32  C   LIG    1       22.645 -19.705   5.729  0.00  0.00    +0.010 C 
BRANCH  32  33
ATOM     33  C   LIG    1       23.904 -20.567   5.732  0.00  0.00    +0.005 C 
BRANCH  33  34
ATOM     34  C   LIG    1       24.669 -20.433   7.052  0.00  0.00    +0.035 C 
BRANCH  34  35
ATOM     35  C   LIG    1       26.160 -20.419   6.836  0.00  0.00    -0.047 A 
ATOM     36  C   LIG    1       26.826 -21.565   6.384  0.00  0.00    +0.003 A 
ATOM     37  C   LIG    1       28.206 -21.546   6.175  0.00  0.00    +0.000 A 
ATOM     38  C   LIG    1       28.932 -20.380   6.409  0.00  0.00    +0.000 A 
ATOM     39  C   LIG    1       28.278 -19.232   6.851  0.00  0.00    +0.000 A 
ATOM     40  C   LIG    1       26.899 -19.249   7.061  0.00  0.00    +0.003 A 
ENDBRANCH  34  35
ENDBRANCH  33  34
ENDBRANCH  32  33
ENDBRANCH  31  32
ENDBRANCH   1  31
TORSDOF 16
ENDMDL
