MODEL 1
REMARK VINA RESULT:      -7.1      0.000      0.000
REMARK  Name = *****
REMARK                            x       y       z     vdW  Elec       q    Type
REMARK                         _______ _______ _______ _____ _____    ______ ____
ROOT
ATOM      1  C   LIG    1       26.449 -30.067  10.575  0.00  0.00    +0.175 C 
ATOM      2  C   LIG    1       27.280 -30.335  11.831  0.00  0.00    +0.058 C 
ATOM      3  C   LIG    1       26.419 -29.867  12.997  0.00  0.00    +0.090 C 
ATOM      4  C   LIG    1       24.978 -30.024  12.497  0.00  0.00    +0.090 C 
ATOM      5  C   LIG    1       24.056 -29.277  13.441  0.00  0.00    +0.218 C 
ATOM      6  O   LIG    1       24.229 -29.322  14.661  0.00  0.00    -0.276 OA
ATOM      7  N   LIG    1       22.966 -28.658  12.897  0.00  0.00    -0.301 N 
ATOM      8  H   LIG    1       22.768 -28.724  11.906  0.00  0.00    +0.150 HD
ATOM      9  C   LIG    1       21.995 -27.979  13.734  0.00  0.00    +0.119 C 
ATOM     10  C   LIG    1       22.293 -26.716  14.539  0.00  0.00    +0.046 C 
ATOM     11  C   LIG    1       23.642 -26.141  14.632  0.00  0.00    -0.025 C 
ATOM     12  C   LIG    1       23.960 -25.048  15.345  0.00  0.00    -0.031 C 
ATOM     13  C   LIG    1       25.309 -24.390  15.496  0.00  0.00    +0.027 C 
ATOM     14  C   LIG    1       26.471 -24.910  14.637  0.00  0.00    +0.006 C 
ATOM     15  C   LIG    1       27.386 -25.872  15.407  0.00  0.00    +0.019 C 
ATOM     16  C   LIG    1       28.185 -26.813  14.501  0.00  0.00    +0.107 C 
ATOM     17  N   LIG    1       27.573 -28.137  14.387  0.00  0.00    -0.304 N 
ATOM     18  C   LIG    1       27.777 -29.054  15.500  0.00  0.00    +0.132 C 
ATOM     19  C   LIG    1       21.557 -26.604  13.241  0.00  0.00    +0.046 C 
ATOM     20  C   LIG    1       26.779 -28.408  13.291  0.00  0.00    +0.219 C 
ATOM     21  O   LIG    1       26.441 -27.522  12.501  0.00  0.00    -0.275 OA
ATOM     22  C   LIG    1       25.049 -29.621  11.030  0.00  0.00    +0.058 C 
ENDROOT
BRANCH   9  23
ATOM     23  C   LIG    1       20.941 -28.873  14.295  0.00  0.00    +0.256 C 
ATOM     24  N   LIG    1       19.819 -29.159  13.506  0.00  0.00    -0.188 N 
ATOM     25  H   LIG    1       19.825 -28.868  12.535  0.00  0.00    +0.176 HD
ATOM     26  O   LIG    1       21.090 -29.306  15.443  0.00  0.00    -0.272 OA
BRANCH  24  27
ATOM     27  S   LIG    1       18.510 -30.058  13.985  0.00  0.00    +0.048 S 
ATOM     28  O   LIG    1       19.023 -31.121  14.824  0.00  0.00    -0.155 OA
ATOM     29  O   LIG    1       17.778 -30.386  12.772  0.00  0.00    -0.155 OA
BRANCH  27  30
ATOM     30  C   LIG    1       17.426 -29.056  15.038  0.00  0.00    +0.151 C 
ATOM     31  C   LIG    1       17.803 -27.608  15.177  0.00  0.00    +0.030 C 
ATOM     32  C   LIG    1       16.620 -28.010  14.334  0.00  0.00    +0.030 C 
ENDBRANCH  27  30
ENDBRANCH  24  27
ENDBRANCH   9  23
BRANCH   1  33
ATOM     33  O   LIG    1       27.062 -29.058   9.766  0.00  0.00    -0.488 OA
BRANCH  33  39
ATOM     34  C   LIG    1       24.987 -31.712   5.975  0.00  0.00    +0.125 A 
ATOM     35  C   LIG    1       24.668 -30.357   5.776  0.00  0.00    +0.017 A 
ATOM     36  C   LIG    1       23.780 -29.942   4.624  0.00  0.00    +0.050 C 
ATOM     37  C   LIG    1       25.207 -29.371   6.611  0.00  0.00    +0.082 A 
ATOM     38  C   LIG    1       25.945 -29.746   7.757  0.00  0.00    +0.043 A 
ATOM     39  C   LIG    1       26.428 -28.713   8.594  0.00  0.00    +0.132 A 
ATOM     40  C   LIG    1       26.256 -27.394   8.201  0.00  0.00    +0.076 A 
ATOM     41  C   LIG    1       25.562 -27.115   7.047  0.00  0.00    +0.100 A 
ATOM     42  C   LIG    1       26.178 -31.114   7.994  0.00  0.00    +0.017 A 
ATOM     43  N   LIG    1       25.021 -28.083   6.284  0.00  0.00    -0.244 NA
ATOM     44  C   LIG    1       25.730 -32.084   7.094  0.00  0.00    +0.046 A 
BRANCH  41  45
ATOM     45  C   LIG    1       25.455 -25.749   6.520  0.00  0.00    +0.127 A 
ATOM     46  S   LIG    1       25.133 -25.454   4.847  0.00  0.00    -0.074 S 
ATOM     47  C   LIG    1       25.035 -23.779   5.161  0.00  0.00    +0.070 A 
ATOM     48  C   LIG    1       25.289 -23.532   6.496  0.00  0.00    +0.052 A 
ATOM     49  N   LIG    1       25.531 -24.660   7.255  0.00  0.00    -0.242 NA
BRANCH  48  50
ATOM     50  C   LIG    1       25.289 -22.201   7.183  0.00  0.00    +0.032 C 
ATOM     51  C   LIG    1       26.051 -22.249   8.510  0.00  0.00    +0.014 C 
ATOM     52  C   LIG    1       23.858 -21.710   7.402  0.00  0.00    +0.014 C 
ENDBRANCH  48  50
ENDBRANCH  41  45
BRANCH  34  54
ATOM     53  C   LIG    1       23.258 -33.236   5.400  0.00  0.00    +0.277 C 
ATOM     54  O   LIG    1       24.489 -32.604   5.060  0.00  0.00    -0.495 OA
ENDBRANCH  34  54
ENDBRANCH  33  39
ENDBRANCH   1  33
TORSDOF 8
ENDMDL
MODEL 2
REMARK VINA RESULT:      -7.1      1.779      2.056
REMARK  Name = *****
REMARK                            x       y       z     vdW  Elec       q    Type
REMARK                         _______ _______ _______ _____ _____    ______ ____
ROOT
ATOM      1  C   LIG    1       25.580 -30.774  10.353  0.00  0.00    +0.175 C 
ATOM      2  C   LIG    1       26.218 -31.208  11.674  0.00  0.00    +0.058 C 
ATOM      3  C   LIG    1       25.298 -30.680  12.766  0.00  0.00    +0.090 C 
ATOM      4  C   LIG    1       23.915 -30.616  12.106  0.00  0.00    +0.090 C 
ATOM      5  C   LIG    1       22.996 -29.794  12.987  0.00  0.00    +0.218 C 
ATOM      6  O   LIG    1       23.021 -29.916  14.214  0.00  0.00    -0.276 OA
ATOM      7  N   LIG    1       22.066 -29.009  12.366  0.00  0.00    -0.301 N 
ATOM      8  H   LIG    1       21.976 -29.003  11.358  0.00  0.00    +0.150 HD
ATOM      9  C   LIG    1       21.102 -28.242  13.133  0.00  0.00    +0.119 C 
ATOM     10  C   LIG    1       21.467 -27.068  14.039  0.00  0.00    +0.046 C 
ATOM     11  C   LIG    1       22.860 -26.687  14.311  0.00  0.00    -0.025 C 
ATOM     12  C   LIG    1       23.234 -25.680  15.118  0.00  0.00    -0.031 C 
ATOM     13  C   LIG    1       24.631 -25.219  15.452  0.00  0.00    +0.027 C 
ATOM     14  C   LIG    1       25.806 -25.854  14.694  0.00  0.00    +0.006 C 
ATOM     15  C   LIG    1       26.493 -26.964  15.500  0.00  0.00    +0.019 C 
ATOM     16  C   LIG    1       27.262 -27.964  14.631  0.00  0.00    +0.107 C 
ATOM     17  N   LIG    1       26.500 -29.186  14.373  0.00  0.00    -0.304 N 
ATOM     18  C   LIG    1       26.454 -30.171  15.445  0.00  0.00    +0.132 C 
ATOM     19  C   LIG    1       20.906 -26.799  12.678  0.00  0.00    +0.046 C 
ATOM     20  C   LIG    1       25.809 -29.298  13.184  0.00  0.00    +0.219 C 
ATOM     21  O   LIG    1       25.681 -28.340  12.416  0.00  0.00    -0.275 OA
ATOM     22  C   LIG    1       24.206 -30.162  10.681  0.00  0.00    +0.058 C 
ENDROOT
BRANCH   9  23
ATOM     23  C   LIG    1       19.883 -29.008  13.523  0.00  0.00    +0.256 C 
ATOM     24  N   LIG    1       19.540 -30.142  12.775  0.00  0.00    -0.188 N 
ATOM     25  H   LIG    1       20.201 -30.485  12.087  0.00  0.00    +0.176 HD
ATOM     26  O   LIG    1       19.213 -28.597  14.477  0.00  0.00    -0.272 OA
BRANCH  24  27
ATOM     27  S   LIG    1       18.183 -31.069  13.001  0.00  0.00    +0.048 S 
ATOM     28  O   LIG    1       17.055 -30.162  12.983  0.00  0.00    -0.155 OA
ATOM     29  O   LIG    1       18.438 -31.880  14.180  0.00  0.00    -0.155 OA
BRANCH  27  30
ATOM     30  C   LIG    1       17.960 -32.188  11.591  0.00  0.00    +0.151 C 
ATOM     31  C   LIG    1       18.045 -31.554  10.231  0.00  0.00    +0.030 C 
ATOM     32  C   LIG    1       19.171 -32.415  10.743  0.00  0.00    +0.030 C 
ENDBRANCH  27  30
ENDBRANCH  24  27
ENDBRANCH   9  23
BRANCH   1  33
ATOM     33  O   LIG    1       26.407 -29.823   9.677  0.00  0.00    -0.488 OA
BRANCH  33  39
ATOM     34  C   LIG    1       26.058 -32.608   5.453  0.00  0.00    +0.125 A 
ATOM     35  C   LIG    1       25.580 -31.318   5.158  0.00  0.00    +0.017 A 
ATOM     36  C   LIG    1       25.018 -31.006   3.789  0.00  0.00    +0.050 C 
ATOM     37  C   LIG    1       25.664 -30.296   6.111  0.00  0.00    +0.082 A 
ATOM     38  C   LIG    1       26.079 -30.594   7.429  0.00  0.00    +0.043 A 
ATOM     39  C   LIG    1       26.101 -29.535   8.366  0.00  0.00    +0.132 A 
ATOM     40  C   LIG    1       25.826 -28.247   7.931  0.00  0.00    +0.076 A 
ATOM     41  C   LIG    1       25.470 -28.035   6.619  0.00  0.00    +0.100 A 
ATOM     42  C   LIG    1       26.467 -31.913   7.734  0.00  0.00    +0.017 A 
ATOM     43  N   LIG    1       25.361 -29.044   5.735  0.00  0.00    -0.244 NA
ATOM     44  C   LIG    1       26.486 -32.901   6.746  0.00  0.00    +0.046 A 
BRANCH  41  45
ATOM     45  C   LIG    1       25.288 -26.684   6.076  0.00  0.00    +0.127 A 
ATOM     46  S   LIG    1       25.178 -26.408   4.373  0.00  0.00    -0.074 S 
ATOM     47  C   LIG    1       24.849 -24.758   4.662  0.00  0.00    +0.070 A 
ATOM     48  C   LIG    1       24.878 -24.500   6.018  0.00  0.00    +0.052 A 
ATOM     49  N   LIG    1       25.133 -25.602   6.809  0.00  0.00    -0.242 NA
BRANCH  48  50
ATOM     50  C   LIG    1       24.630 -23.185   6.692  0.00  0.00    +0.032 C 
ATOM     51  C   LIG    1       24.494 -22.046   5.677  0.00  0.00    +0.014 C 
ATOM     52  C   LIG    1       25.739 -22.880   7.699  0.00  0.00    +0.014 C 
ENDBRANCH  48  50
ENDBRANCH  41  45
BRANCH  34  54
ATOM     53  C   LIG    1       27.262 -33.823   3.803  0.00  0.00    +0.277 C 
ATOM     54  O   LIG    1       26.020 -33.527   4.436  0.00  0.00    -0.495 OA
ENDBRANCH  34  54
ENDBRANCH  33  39
ENDBRANCH   1  33
TORSDOF 8
ENDMDL
