MODEL 1
REMARK VINA RESULT:      -8.9      0.000      0.000
REMARK  Name = *****
REMARK                            x       y       z     vdW  Elec       q    Type
REMARK                         _______ _______ _______ _____ _____    ______ ____
ROOT
ATOM      1  O   LIG    1       26.222 -20.456   6.615  0.00  0.00    -0.458 OA
ENDROOT
BRANCH   1   3
ATOM      2  C   LIG    1       23.941 -21.053   6.080  0.00  0.00    +0.032 C 
ATOM      3  C   LIG    1       25.412 -21.549   6.151  0.00  0.00    +0.180 C 
ATOM      4  C   LIG    1       25.586 -22.721   7.128  0.00  0.00    +0.048 C 
ATOM      5  C   LIG    1       24.640 -23.886   6.837  0.00  0.00    -0.011 C 
ATOM      6  C   LIG    1       25.021 -24.619   5.548  0.00  0.00    +0.007 C 
ATOM      7  C   LIG    1       23.195 -23.381   6.815  0.00  0.00    +0.004 C 
ATOM      8  C   LIG    1       22.976 -22.227   5.837  0.00  0.00    +0.007 C 
BRANCH   2  10
ATOM      9  C   LIG    1       22.353 -19.260   5.140  0.00  0.00    +0.007 C 
ATOM     10  C   LIG    1       23.754 -19.881   5.058  0.00  0.00    -0.011 C 
ATOM     11  C   LIG    1       24.051 -20.264   3.604  0.00  0.00    +0.007 C 
ENDBRANCH   2  10
ENDBRANCH   1   3
BRANCH   1  12
ATOM     12  C   LIG    1       27.217 -20.012   5.802  0.00  0.00    +0.341 C 
ATOM     13  O   LIG    1       27.093 -19.663   4.644  0.00  0.00    -0.245 OA
BRANCH  12  14
ATOM     14  C   LIG    1       28.505 -20.030   6.563  0.00  0.00    +0.080 A 
ATOM     15  C   LIG    1       29.507 -19.065   6.323  0.00  0.00    +0.039 A 
ATOM     16  C   LIG    1       30.733 -19.207   6.992  0.00  0.00    +0.023 A 
ATOM     17  C   LIG    1       30.937 -20.223   7.930  0.00  0.00    +0.002 A 
ATOM     18  C   LIG    1       29.921 -21.124   8.214  0.00  0.00    +0.001 A 
ATOM     19  C   LIG    1       28.711 -21.025   7.538  0.00  0.00    +0.017 A 
BRANCH  15  20
ATOM     20  N   LIG    1       29.429 -18.112   5.292  0.00  0.00    -0.357 N 
ATOM     21  H   LIG    1       30.270 -18.085   4.709  0.00  0.00    +0.142 HD
ATOM     22  H   LIG    1       28.576 -18.152   4.743  0.00  0.00    +0.142 HD
ENDBRANCH  15  20
ENDBRANCH  12  14
ENDBRANCH   1  12
TORSDOF 5
ENDMDL
MODEL 2
REMARK VINA RESULT:      -8.0      1.380      2.015
REMARK  Name = *****
REMARK                            x       y       z     vdW  Elec       q    Type
REMARK                         _______ _______ _______ _____ _____    ______ ____
ROOT
ATOM      1  O   LIG    1       26.094 -20.771   7.284  0.00  0.00    -0.458 OA
ENDROOT
BRANCH   1   3
ATOM      2  C   LIG    1       23.929 -21.318   6.357  0.00  0.00    +0.032 C 
ATOM      3  C   LIG    1       25.389 -21.804   6.575  0.00  0.00    +0.180 C 
ATOM      4  C   LIG    1       25.459 -23.090   7.411  0.00  0.00    +0.048 C 
ATOM      5  C   LIG    1       24.597 -24.218   6.843  0.00  0.00    -0.011 C 
ATOM      6  C   LIG    1       25.177 -24.774   5.540  0.00  0.00    +0.007 C 
ATOM      7  C   LIG    1       23.155 -23.729   6.677  0.00  0.00    +0.004 C 
ATOM      8  C   LIG    1       23.043 -22.462   5.831  0.00  0.00    +0.007 C 
BRANCH   2  10
ATOM      9  C   LIG    1       22.408 -19.643   5.131  0.00  0.00    +0.007 C 
ATOM     10  C   LIG    1       23.854 -20.026   5.474  0.00  0.00    -0.011 C 
ATOM     11  C   LIG    1       24.676 -20.101   4.182  0.00  0.00    +0.007 C 
ENDBRANCH   2  10
ENDBRANCH   1   3
BRANCH   1  12
ATOM     12  C   LIG    1       27.314 -21.075   7.803  0.00  0.00    +0.341 C 
ATOM     13  O   LIG    1       27.531 -21.848   8.715  0.00  0.00    -0.245 OA
BRANCH  12  14
ATOM     14  C   LIG    1       28.357 -20.291   7.071  0.00  0.00    +0.080 A 
ATOM     15  C   LIG    1       29.716 -20.357   7.447  0.00  0.00    +0.039 A 
ATOM     16  C   LIG    1       30.624 -19.511   6.790  0.00  0.00    +0.023 A 
ATOM     17  C   LIG    1       30.219 -18.684   5.739  0.00  0.00    +0.002 A 
ATOM     18  C   LIG    1       28.893 -18.677   5.328  0.00  0.00    +0.001 A 
ATOM     19  C   LIG    1       27.969 -19.480   5.986  0.00  0.00    +0.017 A 
BRANCH  15  20
ATOM     20  N   LIG    1       30.169 -21.048   8.584  0.00  0.00    -0.357 N 
ATOM     21  H   LIG    1       30.794 -20.486   9.171  0.00  0.00    +0.142 HD
ATOM     22  H   LIG    1       29.438 -21.505   9.121  0.00  0.00    +0.142 HD
ENDBRANCH  15  20
ENDBRANCH  12  14
ENDBRANCH   1  12
TORSDOF 5
ENDMDL
MODEL 3
REMARK VINA RESULT:      -7.9      2.331      5.886
REMARK  Name = *****
REMARK                            x       y       z     vdW  Elec       q    Type
REMARK                         _______ _______ _______ _____ _____    ______ ____
ROOT
ATOM      1  O   LIG    1       27.280 -21.651   7.274  0.00  0.00    -0.458 OA
ENDROOT
BRANCH   1   3
ATOM      2  C   LIG    1       28.046 -19.925   5.765  0.00  0.00    +0.032 C 
ATOM      3  C   LIG    1       28.014 -20.416   7.239  0.00  0.00    +0.180 C 
ATOM      4  C   LIG    1       29.421 -20.680   7.797  0.00  0.00    +0.048 C 
ATOM      5  C   LIG    1       30.355 -19.478   7.651  0.00  0.00    -0.011 C 
ATOM      6  C   LIG    1       29.960 -18.335   8.589  0.00  0.00    +0.007 C 
ATOM      7  C   LIG    1       30.403 -19.040   6.185  0.00  0.00    +0.004 C 
ATOM      8  C   LIG    1       29.022 -18.746   5.599  0.00  0.00    +0.007 C 
BRANCH   2  10
ATOM      9  C   LIG    1       25.913 -20.886   4.693  0.00  0.00    +0.007 C 
ATOM     10  C   LIG    1       26.615 -19.621   5.205  0.00  0.00    -0.011 C 
ATOM     11  C   LIG    1       26.585 -18.549   4.110  0.00  0.00    +0.007 C 
ENDBRANCH   2  10
ENDBRANCH   1   3
BRANCH   1  12
ATOM     12  C   LIG    1       26.196 -21.724   8.092  0.00  0.00    +0.341 C 
ATOM     13  O   LIG    1       26.050 -21.128   9.141  0.00  0.00    -0.245 OA
BRANCH  12  14
ATOM     14  C   LIG    1       25.205 -22.671   7.494  0.00  0.00    +0.080 A 
ATOM     15  C   LIG    1       23.855 -22.298   7.318  0.00  0.00    +0.039 A 
ATOM     16  C   LIG    1       22.956 -23.273   6.856  0.00  0.00    +0.023 A 
ATOM     17  C   LIG    1       23.390 -24.553   6.500  0.00  0.00    +0.002 A 
ATOM     18  C   LIG    1       24.732 -24.889   6.607  0.00  0.00    +0.001 A 
ATOM     19  C   LIG    1       25.635 -23.952   7.097  0.00  0.00    +0.017 A 
BRANCH  15  20
ATOM     20  N   LIG    1       23.321 -21.087   7.792  0.00  0.00    -0.357 N 
ATOM     21  H   LIG    1       23.816 -20.265   7.435  0.00  0.00    +0.142 HD
ATOM     22  H   LIG    1       22.313 -21.004   7.700  0.00  0.00    +0.142 HD
ENDBRANCH  15  20
ENDBRANCH  12  14
ENDBRANCH   1  12
TORSDOF 5
ENDMDL
MODEL 4
REMARK VINA RESULT:      -7.7      1.117      2.843
REMARK  Name = *****
REMARK                            x       y       z     vdW  Elec       q    Type
REMARK                         _______ _______ _______ _____ _____    ______ ____
ROOT
ATOM      1  O   LIG    1       26.366 -20.822   5.566  0.00  0.00    -0.458 OA
ENDROOT
BRANCH   1   3
ATOM      2  C   LIG    1       24.299 -21.713   6.449  0.00  0.00    +0.032 C 
ATOM      3  C   LIG    1       24.972 -20.510   5.732  0.00  0.00    +0.180 C 
ATOM      4  C   LIG    1       24.372 -20.247   4.343  0.00  0.00    +0.048 C 
ATOM      5  C   LIG    1       22.854 -20.074   4.372  0.00  0.00    -0.011 C 
ATOM      6  C   LIG    1       22.446 -18.757   5.038  0.00  0.00    +0.007 C 
ATOM      7  C   LIG    1       22.211 -21.290   5.044  0.00  0.00    +0.004 C 
ATOM      8  C   LIG    1       22.766 -21.571   6.439  0.00  0.00    +0.007 C 
BRANCH   2  10
ATOM      9  C   LIG    1       25.461 -20.679   8.499  0.00  0.00    +0.007 C 
ATOM     10  C   LIG    1       24.885 -21.960   7.881  0.00  0.00    -0.011 C 
ATOM     11  C   LIG    1       25.941 -23.069   7.943  0.00  0.00    +0.007 C 
ENDBRANCH   2  10
ENDBRANCH   1   3
BRANCH   1  12
ATOM     12  C   LIG    1       27.216 -19.800   5.281  0.00  0.00    +0.341 C 
ATOM     13  O   LIG    1       27.049 -18.944   4.435  0.00  0.00    -0.245 OA
BRANCH  12  14
ATOM     14  C   LIG    1       28.409 -19.902   6.179  0.00  0.00    +0.080 A 
ATOM     15  C   LIG    1       29.433 -18.931   6.144  0.00  0.00    +0.039 A 
ATOM     16  C   LIG    1       30.574 -19.148   6.932  0.00  0.00    +0.023 A 
ATOM     17  C   LIG    1       30.669 -20.247   7.790  0.00  0.00    +0.002 A 
ATOM     18  C   LIG    1       29.626 -21.159   7.872  0.00  0.00    +0.001 A 
ATOM     19  C   LIG    1       28.501 -20.985   7.075  0.00  0.00    +0.017 A 
BRANCH  15  20
ATOM     20  N   LIG    1       29.474 -17.887   5.203  0.00  0.00    -0.357 N 
ATOM     21  H   LIG    1       28.914 -18.079   4.367  0.00  0.00    +0.142 HD
ATOM     22  H   LIG    1       29.296 -16.964   5.587  0.00  0.00    +0.142 HD
ENDBRANCH  15  20
ENDBRANCH  12  14
ENDBRANCH   1  12
TORSDOF 5
ENDMDL
MODEL 5
REMARK VINA RESULT:      -7.6      1.124      3.167
REMARK  Name = *****
REMARK                            x       y       z     vdW  Elec       q    Type
REMARK                         _______ _______ _______ _____ _____    ______ ____
ROOT
ATOM      1  O   LIG    1       26.805 -20.888   6.078  0.00  0.00    -0.458 OA
ENDROOT
BRANCH   1   3
ATOM      2  C   LIG    1       24.828 -22.048   5.311  0.00  0.00    +0.032 C 
ATOM      3  C   LIG    1       25.479 -20.661   5.573  0.00  0.00    +0.180 C 
ATOM      4  C   LIG    1       25.592 -19.817   4.295  0.00  0.00    +0.048 C 
ATOM      5  C   LIG    1       24.258 -19.655   3.567  0.00  0.00    -0.011 C 
ATOM      6  C   LIG    1       23.296 -18.749   4.340  0.00  0.00    +0.007 C 
ATOM      7  C   LIG    1       23.657 -21.034   3.281  0.00  0.00    +0.004 C 
ATOM      8  C   LIG    1       23.507 -21.896   4.534  0.00  0.00    +0.007 C 
BRANCH   2  10
ATOM      9  C   LIG    1       25.706 -24.032   6.692  0.00  0.00    +0.007 C 
ATOM     10  C   LIG    1       24.678 -22.896   6.619  0.00  0.00    -0.011 C 
ATOM     11  C   LIG    1       23.274 -23.470   6.836  0.00  0.00    +0.007 C 
ENDBRANCH   2  10
ENDBRANCH   1   3
BRANCH   1  12
ATOM     12  C   LIG    1       27.113 -20.386   7.304  0.00  0.00    +0.341 C 
ATOM     13  O   LIG    1       26.333 -20.206   8.220  0.00  0.00    -0.245 OA
BRANCH  12  14
ATOM     14  C   LIG    1       28.576 -20.078   7.346  0.00  0.00    +0.080 A 
ATOM     15  C   LIG    1       29.174 -19.248   6.373  0.00  0.00    +0.039 A 
ATOM     16  C   LIG    1       30.569 -19.092   6.407  0.00  0.00    +0.023 A 
ATOM     17  C   LIG    1       31.342 -19.669   7.418  0.00  0.00    +0.002 A 
ATOM     18  C   LIG    1       30.737 -20.424   8.412  0.00  0.00    +0.001 A 
ATOM     19  C   LIG    1       29.362 -20.623   8.379  0.00  0.00    +0.017 A 
BRANCH  15  20
ATOM     20  N   LIG    1       28.486 -18.760   5.247  0.00  0.00    -0.357 N 
ATOM     21  H   LIG    1       28.545 -19.387   4.440  0.00  0.00    +0.142 HD
ATOM     22  H   LIG    1       27.537 -18.452   5.432  0.00  0.00    +0.142 HD
ENDBRANCH  15  20
ENDBRANCH  12  14
ENDBRANCH   1  12
TORSDOF 5
ENDMDL
MODEL 6
REMARK VINA RESULT:      -7.5      1.730      3.419
REMARK  Name = *****
REMARK                            x       y       z     vdW  Elec       q    Type
REMARK                         _______ _______ _______ _____ _____    ______ ____
ROOT
ATOM      1  O   LIG    1       26.729 -21.214   6.395  0.00  0.00    -0.458 OA
ENDROOT
BRANCH   1   3
ATOM      2  C   LIG    1       24.574 -21.891   5.536  0.00  0.00    +0.032 C 
ATOM      3  C   LIG    1       25.559 -20.706   5.733  0.00  0.00    +0.180 C 
ATOM      4  C   LIG    1       25.998 -20.082   4.399  0.00  0.00    +0.048 C 
ATOM      5  C   LIG    1       24.819 -19.660   3.522  0.00  0.00    -0.011 C 
ATOM      6  C   LIG    1       24.088 -18.445   4.100  0.00  0.00    +0.007 C 
ATOM      7  C   LIG    1       23.886 -20.854   3.307  0.00  0.00    +0.004 C 
ATOM      8  C   LIG    1       23.409 -21.489   4.613  0.00  0.00    +0.007 C 
BRANCH   2  10
ATOM      9  C   LIG    1       23.312 -23.808   6.698  0.00  0.00    +0.007 C 
ATOM     10  C   LIG    1       24.097 -22.505   6.895  0.00  0.00    -0.011 C 
ATOM     11  C   LIG    1       23.273 -21.546   7.761  0.00  0.00    +0.007 C 
ENDBRANCH   2  10
ENDBRANCH   1   3
BRANCH   1  12
ATOM     12  C   LIG    1       27.182 -20.545   7.489  0.00  0.00    +0.341 C 
ATOM     13  O   LIG    1       26.551 -20.326   8.505  0.00  0.00    -0.245 OA
BRANCH  12  14
ATOM     14  C   LIG    1       28.590 -20.108   7.239  0.00  0.00    +0.080 A 
ATOM     15  C   LIG    1       29.672 -20.713   7.913  0.00  0.00    +0.039 A 
ATOM     16  C   LIG    1       30.955 -20.178   7.713  0.00  0.00    +0.023 A 
ATOM     17  C   LIG    1       31.177 -19.132   6.815  0.00  0.00    +0.002 A 
ATOM     18  C   LIG    1       30.117 -18.589   6.101  0.00  0.00    +0.001 A 
ATOM     19  C   LIG    1       28.832 -19.078   6.309  0.00  0.00    +0.017 A 
BRANCH  15  20
ATOM     20  N   LIG    1       29.510 -21.663   8.937  0.00  0.00    -0.357 N 
ATOM     21  H   LIG    1       28.551 -21.704   9.295  0.00  0.00    +0.142 HD
ATOM     22  H   LIG    1       29.885 -22.582   8.724  0.00  0.00    +0.142 HD
ENDBRANCH  15  20
ENDBRANCH  12  14
ENDBRANCH   1  12
TORSDOF 5
ENDMDL
MODEL 7
REMARK VINA RESULT:      -7.3      1.716      3.603
REMARK  Name = *****
REMARK                            x       y       z     vdW  Elec       q    Type
REMARK                         _______ _______ _______ _____ _____    ______ ____
ROOT
ATOM      1  O   LIG    1       26.871 -21.886   7.015  0.00  0.00    -0.458 OA
ENDROOT
BRANCH   1   3
ATOM      2  C   LIG    1       25.214 -22.965   5.624  0.00  0.00    +0.032 C 
ATOM      3  C   LIG    1       25.578 -21.682   6.421  0.00  0.00    +0.180 C 
ATOM      4  C   LIG    1       25.657 -20.439   5.522  0.00  0.00    +0.048 C 
ATOM      5  C   LIG    1       24.388 -20.217   4.698  0.00  0.00    -0.011 C 
ATOM      6  C   LIG    1       23.212 -19.778   5.574  0.00  0.00    +0.007 C 
ATOM      7  C   LIG    1       24.074 -21.479   3.890  0.00  0.00    +0.004 C 
ATOM      8  C   LIG    1       23.965 -22.735   4.753  0.00  0.00    +0.007 C 
BRANCH   2  10
ATOM      9  C   LIG    1       26.114 -25.314   6.166  0.00  0.00    +0.007 C 
ATOM     10  C   LIG    1       25.098 -24.228   6.544  0.00  0.00    -0.011 C 
ATOM     11  C   LIG    1       23.695 -24.843   6.589  0.00  0.00    +0.007 C 
ENDBRANCH   2  10
ENDBRANCH   1   3
BRANCH   1  12
ATOM     12  C   LIG    1       27.287 -20.995   7.954  0.00  0.00    +0.341 C 
ATOM     13  O   LIG    1       26.706 -20.717   8.984  0.00  0.00    -0.245 OA
BRANCH  12  14
ATOM     14  C   LIG    1       28.584 -20.397   7.508  0.00  0.00    +0.080 A 
ATOM     15  C   LIG    1       29.812 -20.831   8.051  0.00  0.00    +0.039 A 
ATOM     16  C   LIG    1       30.979 -20.150   7.670  0.00  0.00    +0.023 A 
ATOM     17  C   LIG    1       30.947 -19.126   6.719  0.00  0.00    +0.002 A 
ATOM     18  C   LIG    1       29.745 -18.754   6.136  0.00  0.00    +0.001 A 
ATOM     19  C   LIG    1       28.571 -19.389   6.524  0.00  0.00    +0.017 A 
BRANCH  15  20
ATOM     20  N   LIG    1       29.905 -21.745   9.115  0.00  0.00    -0.357 N 
ATOM     21  H   LIG    1       30.820 -22.201   9.171  0.00  0.00    +0.142 HD
ATOM     22  H   LIG    1       29.594 -21.384  10.011  0.00  0.00    +0.142 HD
ENDBRANCH  15  20
ENDBRANCH  12  14
ENDBRANCH   1  12
TORSDOF 5
ENDMDL
MODEL 8
REMARK VINA RESULT:      -7.3      2.192      5.421
REMARK  Name = *****
REMARK                            x       y       z     vdW  Elec       q    Type
REMARK                         _______ _______ _______ _____ _____    ______ ____
ROOT
ATOM      1  O   LIG    1       23.804 -21.672   5.392  0.00  0.00    -0.458 OA
ENDROOT
BRANCH   1   3
ATOM      2  C   LIG    1       25.003 -23.041   6.983  0.00  0.00    +0.032 C 
ATOM      3  C   LIG    1       25.032 -21.739   6.136  0.00  0.00    +0.180 C 
ATOM      4  C   LIG    1       25.132 -20.477   7.006  0.00  0.00    +0.048 C 
ATOM      5  C   LIG    1       26.314 -20.514   7.975  0.00  0.00    -0.011 C 
ATOM      6  C   LIG    1       27.652 -20.380   7.244  0.00  0.00    +0.007 C 
ATOM      7  C   LIG    1       26.240 -21.783   8.828  0.00  0.00    +0.004 C 
ATOM      8  C   LIG    1       26.161 -23.063   7.996  0.00  0.00    +0.007 C 
BRANCH   2  10
ATOM      9  C   LIG    1       23.623 -25.100   6.291  0.00  0.00    +0.007 C 
ATOM     10  C   LIG    1       24.937 -24.330   6.096  0.00  0.00    -0.011 C 
ATOM     11  C   LIG    1       26.116 -25.288   6.295  0.00  0.00    +0.007 C 
ENDBRANCH   2  10
ENDBRANCH   1   3
BRANCH   1  12
ATOM     12  C   LIG    1       23.858 -21.201   4.117  0.00  0.00    +0.341 C 
ATOM     13  O   LIG    1       24.134 -21.848   3.126  0.00  0.00    -0.245 OA
BRANCH  12  14
ATOM     14  C   LIG    1       23.528 -19.742   4.128  0.00  0.00    +0.080 A 
ATOM     15  C   LIG    1       24.464 -18.780   3.690  0.00  0.00    +0.039 A 
ATOM     16  C   LIG    1       24.130 -17.423   3.833  0.00  0.00    +0.023 A 
ATOM     17  C   LIG    1       22.881 -17.027   4.317  0.00  0.00    +0.002 A 
ATOM     18  C   LIG    1       21.939 -17.980   4.678  0.00  0.00    +0.001 A 
ATOM     19  C   LIG    1       22.259 -19.329   4.579  0.00  0.00    +0.017 A 
BRANCH  15  20
ATOM     20  N   LIG    1       25.787 -19.096   3.336  0.00  0.00    -0.357 N 
ATOM     21  H   LIG    1       26.342 -19.437   4.126  0.00  0.00    +0.142 HD
ATOM     22  H   LIG    1       25.875 -19.687   2.515  0.00  0.00    +0.142 HD
ENDBRANCH  15  20
ENDBRANCH  12  14
ENDBRANCH   1  12
TORSDOF 5
ENDMDL
MODEL 9
REMARK VINA RESULT:      -7.3      3.680      6.406
REMARK  Name = *****
REMARK                            x       y       z     vdW  Elec       q    Type
REMARK                         _______ _______ _______ _____ _____    ______ ____
ROOT
ATOM      1  O   LIG    1       25.843 -24.336   6.610  0.00  0.00    -0.458 OA
ENDROOT
BRANCH   1   3
ATOM      2  C   LIG    1       25.762 -22.039   7.359  0.00  0.00    +0.032 C 
ATOM      3  C   LIG    1       25.115 -23.109   6.436  0.00  0.00    +0.180 C 
ATOM      4  C   LIG    1       23.643 -23.373   6.789  0.00  0.00    +0.048 C 
ATOM      5  C   LIG    1       22.798 -22.099   6.810  0.00  0.00    -0.011 C 
ATOM      6  C   LIG    1       22.586 -21.536   5.402  0.00  0.00    +0.007 C 
ATOM      7  C   LIG    1       23.431 -21.077   7.757  0.00  0.00    +0.004 C 
ATOM      8  C   LIG    1       24.891 -20.771   7.424  0.00  0.00    +0.007 C 
BRANCH   2  10
ATOM      9  C   LIG    1       28.143 -21.576   8.216  0.00  0.00    +0.007 C 
ATOM     10  C   LIG    1       27.252 -21.742   6.978  0.00  0.00    -0.011 C 
ATOM     11  C   LIG    1       27.434 -20.530   6.059  0.00  0.00    +0.007 C 
ENDBRANCH   2  10
ENDBRANCH   1   3
BRANCH   1  12
ATOM     12  C   LIG    1       25.599 -25.349   5.736  0.00  0.00    +0.341 C 
ATOM     13  O   LIG    1       25.431 -25.235   4.538  0.00  0.00    -0.245 OA
BRANCH  12  14
ATOM     14  C   LIG    1       25.561 -26.639   6.493  0.00  0.00    +0.080 A 
ATOM     15  C   LIG    1       24.733 -27.704   6.077  0.00  0.00    +0.039 A 
ATOM     16  C   LIG    1       24.663 -28.843   6.896  0.00  0.00    +0.023 A 
ATOM     17  C   LIG    1       25.447 -28.962   8.046  0.00  0.00    +0.002 A 
ATOM     18  C   LIG    1       26.313 -27.941   8.409  0.00  0.00    +0.001 A 
ATOM     19  C   LIG    1       26.373 -26.788   7.634  0.00  0.00    +0.017 A 
BRANCH  15  20
ATOM     20  N   LIG    1       23.810 -27.597   5.022  0.00  0.00    -0.357 N 
ATOM     21  H   LIG    1       23.041 -26.954   5.227  0.00  0.00    +0.142 HD
ATOM     22  H   LIG    1       24.226 -27.427   4.112  0.00  0.00    +0.142 HD
ENDBRANCH  15  20
ENDBRANCH  12  14
ENDBRANCH   1  12
TORSDOF 5
ENDMDL
