MODEL 1
REMARK VINA RESULT:      12.0      0.000      0.000
REMARK  Name = *****
REMARK                            x       y       z     vdW  Elec       q    Type
REMARK                         _______ _______ _______ _____ _____    ______ ____
ROOT
ATOM      1  C   LIG    1       23.790 -14.564   5.211  0.00  0.00    +0.080 A 
ATOM      2  N   LIG    1       22.926 -13.639   5.684  0.00  0.00    -0.214 NA
ATOM      3  C   LIG    1       23.363 -12.389   5.817  0.00  0.00    +0.216 A 
ATOM      4  N   LIG    1       24.583 -11.972   5.486  0.00  0.00    -0.180 NA
ATOM      5  C   LIG    1       25.415 -12.912   5.019  0.00  0.00    +0.221 A 
ATOM      6  C   LIG    1       25.078 -14.231   4.851  0.00  0.00    +0.095 A 
ENDROOT
BRANCH   1  10
ATOM      7  C   LIG    1       22.292 -18.570   4.717  0.00  0.00    -0.045 A 
ATOM      8  C   LIG    1       21.734 -17.729   5.689  0.00  0.00    +0.004 A 
ATOM      9  C   LIG    1       22.197 -16.418   5.847  0.00  0.00    +0.010 A 
ATOM     10  C   LIG    1       23.228 -15.915   5.037  0.00  0.00    +0.001 A 
ATOM     11  C   LIG    1       23.741 -16.760   4.036  0.00  0.00    +0.010 A 
ATOM     12  C   LIG    1       23.282 -18.067   3.873  0.00  0.00    +0.004 A 
BRANCH   7  13
ATOM     13  C   LIG    1       21.803 -19.988   4.550  0.00  0.00    +0.065 C 
BRANCH  13  14
ATOM     14  C   LIG    1       22.646 -21.012   5.319  0.00  0.00    +0.165 C 
BRANCH  14  15
ATOM     15  N   LIG    1       22.915 -20.579   6.713  0.00  0.00    -0.318 NA
ATOM     16  H   LIG    1       22.267 -21.054   7.340  0.00  0.00    +0.119 HD
ATOM     17  H   LIG    1       23.848 -20.904   6.970  0.00  0.00    +0.119 HD
ENDBRANCH  14  15
BRANCH  14  18
ATOM     18  C   LIG    1       23.949 -21.228   4.538  0.00  0.00    +0.324 C 
ATOM     19  O   LIG    1       24.016 -21.277   3.323  0.00  0.00    -0.249 OA
BRANCH  18  20
ATOM     20  O   LIG    1       25.018 -21.317   5.390  0.00  0.00    -0.464 OA
BRANCH  20  22
ATOM     21  C   LIG    1       27.070 -20.369   6.243  0.00  0.00    +0.048 C 
ATOM     22  C   LIG    1       26.131 -20.477   5.055  0.00  0.00    +0.229 C 
ENDBRANCH  20  22
ENDBRANCH  18  20
ENDBRANCH  14  18
ENDBRANCH  13  14
ENDBRANCH   7  13
ENDBRANCH   1  10
BRANCH   3  23
ATOM     23  N   LIG    1       22.457 -11.448   6.256  0.00  0.00    -0.327 N 
ATOM     24  H   LIG    1       22.614 -10.578   5.765  0.00  0.00    +0.145 HD
ATOM     25  H   LIG    1       22.453 -11.419   7.265  0.00  0.00    +0.145 HD
ENDBRANCH   3  23
BRANCH   5  26
ATOM     26  O   LIG    1       26.699 -12.542   4.666  0.00  0.00    -0.459 OA
BRANCH  26  27
ATOM     27  C   LIG    1       27.681 -13.599   4.903  0.00  0.00    +0.311 C 
BRANCH  27  28
ATOM     28  C   LIG    1       27.226 -14.830   4.092  0.00  0.00    +0.027 A 
ATOM     29  C   LIG    1       26.293 -14.784   3.021  0.00  0.00    +0.074 A 
ATOM     30  C   LIG    1       25.906 -15.977   2.375  0.00  0.00    +0.048 A 
ATOM     31  C   LIG    1       26.454 -17.200   2.758  0.00  0.00    +0.043 A 
ATOM     32 CL   LIG    1       25.998 -18.638   1.930  0.00  0.00    -0.084 Cl
ATOM     33  C   LIG    1       27.377 -17.263   3.792  0.00  0.00    +0.020 A 
ATOM     34  C   LIG    1       27.758 -16.092   4.450  0.00  0.00    +0.011 A 
BRANCH  29  35
ATOM     35  N   LIG    1       25.741 -13.566   2.525  0.00  0.00    -0.239 N 
ATOM     36  N   LIG    1       24.405 -13.385   2.424  0.00  0.00    -0.172 NA
ATOM     37  C   LIG    1       24.249 -12.119   2.019  0.00  0.00    +0.060 A 
ATOM     38  C   LIG    1       22.892 -11.554   1.812  0.00  0.00    +0.067 C 
ATOM     39  C   LIG    1       25.487 -11.481   1.816  0.00  0.00    +0.044 A 
ATOM     40  C   LIG    1       26.425 -12.429   2.143  0.00  0.00    +0.115 A 
ENDBRANCH  29  35
ENDBRANCH  27  28
BRANCH  27  41
ATOM     41  C   LIG    1       27.819 -13.919   6.417  0.00  0.00    +0.431 C 
ATOM     42  F   LIG    1       28.649 -13.067   7.061  0.00  0.00    -0.167 F 
ATOM     43  F   LIG    1       28.274 -15.178   6.647  0.00  0.00    -0.167 F 
ATOM     44  F   LIG    1       26.620 -13.854   7.059  0.00  0.00    -0.167 F 
ENDBRANCH  27  41
ENDBRANCH  26  27
ENDBRANCH   5  26
TORSDOF 13
ENDMDL
MODEL 2
REMARK VINA RESULT:      12.4      3.919      8.176
REMARK  Name = *****
REMARK                            x       y       z     vdW  Elec       q    Type
REMARK                         _______ _______ _______ _____ _____    ______ ____
ROOT
ATOM      1  C   LIG    1       25.420 -18.030   3.482  0.00  0.00    +0.080 A 
ATOM      2  N   LIG    1       26.279 -19.062   3.637  0.00  0.00    -0.214 NA
ATOM      3  C   LIG    1       25.775 -20.293   3.668  0.00  0.00    +0.216 A 
ATOM      4  N   LIG    1       24.485 -20.588   3.520  0.00  0.00    -0.180 NA
ATOM      5  C   LIG    1       23.660 -19.545   3.366  0.00  0.00    +0.221 A 
ATOM      6  C   LIG    1       24.066 -18.235   3.332  0.00  0.00    +0.095 A 
ENDROOT
BRANCH   1  10
ATOM      7  C   LIG    1       27.131 -14.081   3.327  0.00  0.00    -0.045 A 
ATOM      8  C   LIG    1       27.874 -15.146   3.853  0.00  0.00    +0.004 A 
ATOM      9  C   LIG    1       27.339 -16.438   3.891  0.00  0.00    +0.010 A 
ATOM     10  C   LIG    1       26.048 -16.699   3.403  0.00  0.00    +0.001 A 
ATOM     11  C   LIG    1       25.337 -15.625   2.836  0.00  0.00    +0.010 A 
ATOM     12  C   LIG    1       25.867 -14.336   2.794  0.00  0.00    +0.004 A 
BRANCH   7  13
ATOM     13  C   LIG    1       27.699 -12.685   3.293  0.00  0.00    +0.065 C 
BRANCH  13  14
ATOM     14  C   LIG    1       27.811 -12.045   4.683  0.00  0.00    +0.165 C 
BRANCH  14  15
ATOM     15  N   LIG    1       29.221 -11.915   5.126  0.00  0.00    -0.318 NA
ATOM     16  H   LIG    1       29.827 -12.376   4.448  0.00  0.00    +0.119 HD
ATOM     17  H   LIG    1       29.471 -10.926   5.103  0.00  0.00    +0.119 HD
ENDBRANCH  14  15
BRANCH  14  18
ATOM     18  C   LIG    1       26.992 -12.898   5.659  0.00  0.00    +0.324 C 
ATOM     19  O   LIG    1       27.461 -13.469   6.627  0.00  0.00    -0.249 OA
BRANCH  18  20
ATOM     20  O   LIG    1       25.665 -12.893   5.315  0.00  0.00    -0.464 OA
BRANCH  20  22
ATOM     21  C   LIG    1       23.750 -11.540   4.731  0.00  0.00    +0.048 C 
ATOM     22  C   LIG    1       24.961 -11.686   5.635  0.00  0.00    +0.229 C 
ENDBRANCH  20  22
ENDBRANCH  18  20
ENDBRANCH  14  18
ENDBRANCH  13  14
ENDBRANCH   7  13
ENDBRANCH   1  10
BRANCH   3  23
ATOM     23  N   LIG    1       26.667 -21.336   3.781  0.00  0.00    -0.327 N 
ATOM     24  H   LIG    1       26.367 -22.099   3.188  0.00  0.00    +0.145 HD
ATOM     25  H   LIG    1       26.834 -21.543   4.755  0.00  0.00    +0.145 HD
ENDBRANCH   3  23
BRANCH   5  26
ATOM     26  O   LIG    1       22.308 -19.787   3.216  0.00  0.00    -0.459 OA
BRANCH  26  27
ATOM     27  C   LIG    1       21.547 -18.583   2.890  0.00  0.00    +0.311 C 
BRANCH  27  28
ATOM     28  C   LIG    1       21.874 -17.533   3.971  0.00  0.00    +0.027 A 
ATOM     29  C   LIG    1       22.318 -17.847   5.284  0.00  0.00    +0.074 A 
ATOM     30  C   LIG    1       22.543 -16.812   6.216  0.00  0.00    +0.048 A 
ATOM     31  C   LIG    1       22.362 -15.479   5.851  0.00  0.00    +0.043 A 
ATOM     32 CL   LIG    1       22.681 -14.230   6.991  0.00  0.00    -0.084 Cl
ATOM     33  C   LIG    1       21.943 -15.152   4.570  0.00  0.00    +0.020 A 
ATOM     34  C   LIG    1       21.702 -16.168   3.642  0.00  0.00    +0.011 A 
BRANCH  29  35
ATOM     35  N   LIG    1       22.592 -19.180   5.712  0.00  0.00    -0.239 N 
ATOM     36  N   LIG    1       23.828 -19.553   6.114  0.00  0.00    -0.172 NA
ATOM     37  C   LIG    1       23.699 -20.820   6.526  0.00  0.00    +0.060 A 
ATOM     38  C   LIG    1       24.867 -21.564   7.058  0.00  0.00    +0.067 C 
ATOM     39  C   LIG    1       22.383 -21.291   6.357  0.00  0.00    +0.044 A 
ATOM     40  C   LIG    1       21.696 -20.224   5.831  0.00  0.00    +0.115 A 
ENDBRANCH  29  35
ENDBRANCH  27  28
BRANCH  27  41
ATOM     41  C   LIG    1       20.023 -18.877   2.806  0.00  0.00    +0.431 C 
ATOM     42  F   LIG    1       19.406 -18.180   1.826  0.00  0.00    -0.167 F 
ATOM     43  F   LIG    1       19.373 -18.605   3.967  0.00  0.00    -0.167 F 
ATOM     44  F   LIG    1       19.775 -20.194   2.562  0.00  0.00    -0.167 F 
ENDBRANCH  27  41
ENDBRANCH  26  27
ENDBRANCH   5  26
TORSDOF 13
ENDMDL
