MODEL 1
REMARK VINA RESULT:      -8.1      0.000      0.000
REMARK  Name = *****
REMARK                            x       y       z     vdW  Elec       q    Type
REMARK                         _______ _______ _______ _____ _____    ______ ____
ROOT
ATOM      1  C   LIG    1       25.754 -22.416   7.605  0.00  0.00    +0.198 A 
ATOM      2  N   LIG    1       26.646 -23.322   7.100  0.00  0.00    -0.331 N 
ATOM      3  H   LIG    1       27.656 -23.238   7.205  0.00  0.00    +0.168 HD
ATOM      4  C   LIG    1       25.949 -24.390   6.610  0.00  0.00    +0.070 A 
ATOM      5  C   LIG    1       24.620 -23.993   6.731  0.00  0.00    +0.090 A 
ATOM      6  C   LIG    1       23.605 -24.847   6.293  0.00  0.00    +0.033 A 
ATOM      7  C   LIG    1       23.957 -26.117   5.823  0.00  0.00    +0.048 A 
ATOM      8  C   LIG    1       25.298 -26.516   5.730  0.00  0.00    +0.129 A 
ATOM      9  C   LIG    1       26.319 -25.648   6.114  0.00  0.00    +0.073 A 
ATOM     10  N   LIG    1       24.510 -22.761   7.330  0.00  0.00    -0.220 NA
ENDROOT
BRANCH   1  11
ATOM     11  S   LIG    1       26.241 -21.043   8.555  0.00  0.00    +0.096 S 
ATOM     12  O   LIG    1       24.977 -20.235   8.689  0.00  0.00    -0.249 OA
BRANCH  11  13
ATOM     13  C   LIG    1       27.350 -20.323   7.299  0.00  0.00    +0.171 C 
BRANCH  13  16
ATOM     14  C   LIG    1       30.987 -19.416   7.979  0.00  0.00    +0.165 A 
ATOM     15  C   LIG    1       29.719 -19.374   7.365  0.00  0.00    +0.184 A 
ATOM     16  C   LIG    1       28.820 -20.417   7.648  0.00  0.00    +0.099 A 
ATOM     17  N   LIG    1       29.180 -21.513   8.368  0.00  0.00    -0.255 NA
ATOM     18  C   LIG    1       30.445 -21.593   8.809  0.00  0.00    +0.115 A 
ATOM     19  C   LIG    1       31.363 -20.573   8.669  0.00  0.00    +0.069 A 
BRANCH  14  21
ATOM     20  C   LIG    1       31.968 -17.573   9.141  0.00  0.00    +0.277 C 
ATOM     21  O   LIG    1       31.785 -18.297   7.920  0.00  0.00    -0.491 OA
ENDBRANCH  14  21
BRANCH  15  22
ATOM     22  O   LIG    1       29.233 -18.354   6.593  0.00  0.00    -0.490 OA
ATOM     23  C   LIG    1       29.476 -18.391   5.188  0.00  0.00    +0.277 C 
ENDBRANCH  15  22
ENDBRANCH  13  16
ENDBRANCH  11  13
ENDBRANCH   1  11
BRANCH   8  24
ATOM     24  O   LIG    1       25.680 -27.762   5.294  0.00  0.00    -0.434 OA
BRANCH  24  25
ATOM     25  C   LIG    1       24.793 -28.814   5.662  0.00  0.00    +0.541 C 
ATOM     26  F   LIG    1       24.907 -29.055   6.993  0.00  0.00    -0.166 F 
ATOM     27  F   LIG    1       25.195 -29.942   5.027  0.00  0.00    -0.166 F 
ENDBRANCH  24  25
ENDBRANCH   8  24
TORSDOF 7
ENDMDL
MODEL 2
REMARK VINA RESULT:      -7.7      5.390      9.888
REMARK  Name = *****
REMARK                            x       y       z     vdW  Elec       q    Type
REMARK                         _______ _______ _______ _____ _____    ______ ____
ROOT
ATOM      1  C   LIG    1       25.278 -25.638   6.283  0.00  0.00    +0.198 A 
ATOM      2  N   LIG    1       25.910 -24.441   6.081  0.00  0.00    -0.331 N 
ATOM      3  H   LIG    1       26.892 -24.358   5.824  0.00  0.00    +0.168 HD
ATOM      4  C   LIG    1       24.975 -23.446   6.117  0.00  0.00    +0.070 A 
ATOM      5  C   LIG    1       23.807 -24.110   6.485  0.00  0.00    +0.090 A 
ATOM      6  C   LIG    1       22.626 -23.384   6.647  0.00  0.00    +0.033 A 
ATOM      7  C   LIG    1       22.635 -22.017   6.350  0.00  0.00    +0.048 A 
ATOM      8  C   LIG    1       23.811 -21.363   5.955  0.00  0.00    +0.129 A 
ATOM      9  C   LIG    1       25.007 -22.071   5.843  0.00  0.00    +0.073 A 
ATOM     10  N   LIG    1       24.010 -25.464   6.605  0.00  0.00    -0.220 NA
ENDROOT
BRANCH   1  11
ATOM     11  S   LIG    1       26.067 -27.171   6.050  0.00  0.00    +0.096 S 
ATOM     12  O   LIG    1       26.556 -27.107   4.627  0.00  0.00    -0.249 OA
BRANCH  11  13
ATOM     13  C   LIG    1       24.557 -28.186   6.180  0.00  0.00    +0.171 C 
BRANCH  13  16
ATOM     14  C   LIG    1       24.270 -31.934   6.795  0.00  0.00    +0.165 A 
ATOM     15  C   LIG    1       24.218 -30.553   7.072  0.00  0.00    +0.184 A 
ATOM     16  C   LIG    1       24.813 -29.677   6.147  0.00  0.00    +0.099 A 
ATOM     17  N   LIG    1       25.544 -30.121   5.090  0.00  0.00    -0.255 NA
ATOM     18  C   LIG    1       25.702 -31.446   4.942  0.00  0.00    +0.115 A 
ATOM     19  C   LIG    1       25.070 -32.379   5.737  0.00  0.00    +0.069 A 
BRANCH  14  21
ATOM     20  C   LIG    1       22.741 -33.771   6.820  0.00  0.00    +0.277 C 
ATOM     21  O   LIG    1       23.489 -32.787   7.541  0.00  0.00    -0.491 OA
ENDBRANCH  14  21
BRANCH  15  22
ATOM     22  O   LIG    1       23.548 -29.966   8.111  0.00  0.00    -0.490 OA
ATOM     23  C   LIG    1       24.101 -30.072   9.421  0.00  0.00    +0.277 C 
ENDBRANCH  15  22
ENDBRANCH  13  16
ENDBRANCH  11  13
ENDBRANCH   1  11
BRANCH   8  24
ATOM     24  O   LIG    1       23.854 -20.028   5.633  0.00  0.00    -0.434 OA
BRANCH  24  25
ATOM     25  C   LIG    1       22.904 -19.626   4.651  0.00  0.00    +0.541 C 
ATOM     26  F   LIG    1       23.552 -19.059   3.602  0.00  0.00    -0.166 F 
ATOM     27  F   LIG    1       22.123 -18.659   5.194  0.00  0.00    -0.166 F 
ENDBRANCH  24  25
ENDBRANCH   8  24
TORSDOF 7
ENDMDL
MODEL 3
REMARK VINA RESULT:      -7.6      4.567      9.469
REMARK  Name = *****
REMARK                            x       y       z     vdW  Elec       q    Type
REMARK                         _______ _______ _______ _____ _____    ______ ____
ROOT
ATOM      1  C   LIG    1       24.953 -26.406   6.309  0.00  0.00    +0.198 A 
ATOM      2  N   LIG    1       25.858 -25.506   6.803  0.00  0.00    -0.331 N 
ATOM      3  H   LIG    1       26.848 -25.711   6.927  0.00  0.00    +0.168 HD
ATOM      4  C   LIG    1       25.242 -24.293   6.922  0.00  0.00    +0.070 A 
ATOM      5  C   LIG    1       23.913 -24.571   6.608  0.00  0.00    +0.090 A 
ATOM      6  C   LIG    1       22.967 -23.545   6.654  0.00  0.00    +0.033 A 
ATOM      7  C   LIG    1       23.404 -22.245   6.932  0.00  0.00    +0.048 A 
ATOM      8  C   LIG    1       24.748 -21.972   7.222  0.00  0.00    +0.129 A 
ATOM      9  C   LIG    1       25.689 -23.001   7.232  0.00  0.00    +0.073 A 
ATOM     10  N   LIG    1       23.742 -25.886   6.249  0.00  0.00    -0.220 NA
ENDROOT
BRANCH   1  11
ATOM     11  S   LIG    1       25.407 -27.994   5.763  0.00  0.00    +0.096 S 
ATOM     12  O   LIG    1       24.765 -28.100   4.404  0.00  0.00    -0.249 OA
BRANCH  11  13
ATOM     13  C   LIG    1       24.447 -28.909   7.015  0.00  0.00    +0.171 C 
BRANCH  13  16
ATOM     14  C   LIG    1       26.434 -32.053   7.839  0.00  0.00    +0.165 A 
ATOM     15  C   LIG    1       25.447 -31.248   7.236  0.00  0.00    +0.184 A 
ATOM     16  C   LIG    1       25.246 -29.958   7.758  0.00  0.00    +0.099 A 
ATOM     17  N   LIG    1       25.863 -29.526   8.891  0.00  0.00    -0.255 NA
ATOM     18  C   LIG    1       26.683 -30.378   9.528  0.00  0.00    +0.115 A 
ATOM     19  C   LIG    1       27.019 -31.621   9.034  0.00  0.00    +0.069 A 
BRANCH  14  21
ATOM     20  C   LIG    1       27.927 -33.104   6.297  0.00  0.00    +0.277 C 
ATOM     21  O   LIG    1       26.822 -33.209   7.201  0.00  0.00    -0.491 OA
ENDBRANCH  14  21
BRANCH  15  22
ATOM     22  O   LIG    1       24.728 -31.560   6.114  0.00  0.00    -0.490 OA
ATOM     23  C   LIG    1       23.576 -32.389   6.256  0.00  0.00    +0.277 C 
ENDBRANCH  15  22
ENDBRANCH  13  16
ENDBRANCH  11  13
ENDBRANCH   1  11
BRANCH   8  24
ATOM     24  O   LIG    1       25.216 -20.706   7.478  0.00  0.00    -0.434 OA
BRANCH  24  25
ATOM     25  C   LIG    1       26.347 -20.659   8.344  0.00  0.00    +0.541 C 
ATOM     26  F   LIG    1       25.990 -20.083   9.521  0.00  0.00    -0.166 F 
ATOM     27  F   LIG    1       27.273 -19.846   7.779  0.00  0.00    -0.166 F 
ENDBRANCH  24  25
ENDBRANCH   8  24
TORSDOF 7
ENDMDL
MODEL 4
REMARK VINA RESULT:      -7.6      1.136      1.921
REMARK  Name = *****
REMARK                            x       y       z     vdW  Elec       q    Type
REMARK                         _______ _______ _______ _____ _____    ______ ____
ROOT
ATOM      1  C   LIG    1       25.725 -22.891   7.177  0.00  0.00    +0.198 A 
ATOM      2  N   LIG    1       26.649 -23.768   6.678  0.00  0.00    -0.331 N 
ATOM      3  H   LIG    1       27.655 -23.610   6.719  0.00  0.00    +0.168 HD
ATOM      4  C   LIG    1       26.003 -24.910   6.298  0.00  0.00    +0.070 A 
ATOM      5  C   LIG    1       24.658 -24.595   6.472  0.00  0.00    +0.090 A 
ATOM      6  C   LIG    1       23.683 -25.542   6.149  0.00  0.00    +0.033 A 
ATOM      7  C   LIG    1       24.097 -26.813   5.740  0.00  0.00    +0.048 A 
ATOM      8  C   LIG    1       25.456 -27.128   5.593  0.00  0.00    +0.129 A 
ATOM      9  C   LIG    1       26.433 -26.170   5.861  0.00  0.00    +0.073 A 
ATOM     10  N   LIG    1       24.495 -23.335   6.998  0.00  0.00    -0.220 NA
ENDROOT
BRANCH   1  11
ATOM     11  S   LIG    1       26.166 -21.429   8.010  0.00  0.00    +0.096 S 
ATOM     12  O   LIG    1       25.677 -20.336   7.095  0.00  0.00    -0.249 OA
BRANCH  11  13
ATOM     13  C   LIG    1       27.969 -21.655   7.854  0.00  0.00    +0.171 C 
BRANCH  13  16
ATOM     14  C   LIG    1       30.648 -19.031   7.186  0.00  0.00    +0.165 A 
ATOM     15  C   LIG    1       29.885 -19.969   7.910  0.00  0.00    +0.184 A 
ATOM     16  C   LIG    1       28.699 -20.441   7.321  0.00  0.00    +0.099 A 
ATOM     17  N   LIG    1       28.206 -19.926   6.163  0.00  0.00    -0.255 NA
ATOM     18  C   LIG    1       28.881 -18.924   5.578  0.00  0.00    +0.115 A 
ATOM     19  C   LIG    1       30.103 -18.469   6.027  0.00  0.00    +0.069 A 
BRANCH  14  21
ATOM     20  C   LIG    1       32.042 -17.784   8.674  0.00  0.00    +0.277 C 
ATOM     21  O   LIG    1       31.922 -18.744   7.619  0.00  0.00    -0.491 OA
ENDBRANCH  14  21
BRANCH  15  22
ATOM     22  O   LIG    1       30.239 -20.550   9.097  0.00  0.00    -0.490 OA
ATOM     23  C   LIG    1       31.187 -21.615   9.074  0.00  0.00    +0.277 C 
ENDBRANCH  15  22
ENDBRANCH  13  16
ENDBRANCH  11  13
ENDBRANCH   1  11
BRANCH   8  24
ATOM     24  O   LIG    1       25.900 -28.372   5.215  0.00  0.00    -0.434 OA
BRANCH  24  25
ATOM     25  C   LIG    1       25.103 -29.453   5.689  0.00  0.00    +0.541 C 
ATOM     26  F   LIG    1       25.359 -29.659   7.006  0.00  0.00    -0.166 F 
ATOM     27  F   LIG    1       25.491 -30.577   5.037  0.00  0.00    -0.166 F 
ENDBRANCH  24  25
ENDBRANCH   8  24
TORSDOF 7
ENDMDL
MODEL 5
REMARK VINA RESULT:      -7.5      5.171      9.171
REMARK  Name = *****
REMARK                            x       y       z     vdW  Elec       q    Type
REMARK                         _______ _______ _______ _____ _____    ______ ____
ROOT
ATOM      1  C   LIG    1       25.794 -24.958   5.959  0.00  0.00    +0.198 A 
ATOM      2  N   LIG    1       25.097 -24.142   5.110  0.00  0.00    -0.331 N 
ATOM      3  H   LIG    1       24.829 -24.409   4.164  0.00  0.00    +0.168 HD
ATOM      4  C   LIG    1       24.700 -23.034   5.802  0.00  0.00    +0.070 A 
ATOM      5  C   LIG    1       25.318 -23.186   7.041  0.00  0.00    +0.090 A 
ATOM      6  C   LIG    1       25.151 -22.202   8.018  0.00  0.00    +0.033 A 
ATOM      7  C   LIG    1       24.294 -21.130   7.747  0.00  0.00    +0.048 A 
ATOM      8  C   LIG    1       23.656 -21.000   6.505  0.00  0.00    +0.129 A 
ATOM      9  C   LIG    1       23.861 -21.950   5.506  0.00  0.00    +0.073 A 
ATOM     10  N   LIG    1       26.010 -24.371   7.121  0.00  0.00    -0.220 NA
ENDROOT
BRANCH   1  11
ATOM     11  S   LIG    1       26.244 -26.586   5.543  0.00  0.00    +0.096 S 
ATOM     12  O   LIG    1       25.926 -26.680   4.073  0.00  0.00    -0.249 OA
BRANCH  11  13
ATOM     13  C   LIG    1       24.959 -27.403   6.546  0.00  0.00    +0.171 C 
BRANCH  13  16
ATOM     14  C   LIG    1       25.073 -30.964   7.894  0.00  0.00    +0.165 A 
ATOM     15  C   LIG    1       25.229 -29.563   7.879  0.00  0.00    +0.184 A 
ATOM     16  C   LIG    1       25.114 -28.905   6.641  0.00  0.00    +0.099 A 
ATOM     17  N   LIG    1       25.001 -29.580   5.466  0.00  0.00    -0.255 NA
ATOM     18  C   LIG    1       25.011 -30.922   5.503  0.00  0.00    +0.115 A 
ATOM     19  C   LIG    1       25.014 -31.648   6.675  0.00  0.00    +0.069 A 
BRANCH  14  21
ATOM     20  C   LIG    1       23.594 -31.806   9.571  0.00  0.00    +0.277 C 
ATOM     21  O   LIG    1       24.931 -31.599   9.106  0.00  0.00    -0.491 OA
ENDBRANCH  14  21
BRANCH  15  22
ATOM     22  O   LIG    1       25.379 -28.759   8.976  0.00  0.00    -0.490 OA
ATOM     23  C   LIG    1       26.679 -28.623   9.544  0.00  0.00    +0.277 C 
ENDBRANCH  15  22
ENDBRANCH  13  16
ENDBRANCH  11  13
ENDBRANCH   1  11
BRANCH   8  24
ATOM     24  O   LIG    1       22.791 -19.974   6.212  0.00  0.00    -0.434 OA
BRANCH  24  25
ATOM     25  C   LIG    1       22.441 -19.873   4.835  0.00  0.00    +0.541 C 
ATOM     26  F   LIG    1       22.151 -18.580   4.537  0.00  0.00    -0.166 F 
ATOM     27  F   LIG    1       21.302 -20.581   4.639  0.00  0.00    -0.166 F 
ENDBRANCH  24  25
ENDBRANCH   8  24
TORSDOF 7
ENDMDL
MODEL 6
REMARK VINA RESULT:      -7.5      4.589      9.251
REMARK  Name = *****
REMARK                            x       y       z     vdW  Elec       q    Type
REMARK                         _______ _______ _______ _____ _____    ______ ____
ROOT
ATOM      1  C   LIG    1       24.923 -26.416   6.273  0.00  0.00    +0.198 A 
ATOM      2  N   LIG    1       25.819 -25.515   6.778  0.00  0.00    -0.331 N 
ATOM      3  H   LIG    1       26.811 -25.714   6.902  0.00  0.00    +0.168 HD
ATOM      4  C   LIG    1       25.193 -24.308   6.911  0.00  0.00    +0.070 A 
ATOM      5  C   LIG    1       23.868 -24.593   6.592  0.00  0.00    +0.090 A 
ATOM      6  C   LIG    1       22.914 -23.575   6.647  0.00  0.00    +0.033 A 
ATOM      7  C   LIG    1       23.339 -22.275   6.940  0.00  0.00    +0.048 A 
ATOM      8  C   LIG    1       24.681 -21.995   7.235  0.00  0.00    +0.129 A 
ATOM      9  C   LIG    1       25.630 -23.016   7.236  0.00  0.00    +0.073 A 
ATOM     10  N   LIG    1       23.707 -25.906   6.217  0.00  0.00    -0.220 NA
ENDROOT
BRANCH   1  11
ATOM     11  S   LIG    1       25.389 -27.994   5.710  0.00  0.00    +0.096 S 
ATOM     12  O   LIG    1       24.588 -28.173   4.447  0.00  0.00    -0.249 OA
BRANCH  11  13
ATOM     13  C   LIG    1       24.646 -28.920   7.094  0.00  0.00    +0.171 C 
BRANCH  13  16
ATOM     14  C   LIG    1       26.305 -31.605   9.229  0.00  0.00    +0.165 A 
ATOM     15  C   LIG    1       25.828 -30.329   8.865  0.00  0.00    +0.184 A 
ATOM     16  C   LIG    1       25.446 -30.130   7.527  0.00  0.00    +0.099 A 
ATOM     17  N   LIG    1       25.652 -31.068   6.564  0.00  0.00    -0.255 NA
ATOM     18  C   LIG    1       26.251 -32.216   6.917  0.00  0.00    +0.115 A 
ATOM     19  C   LIG    1       26.564 -32.539   8.221  0.00  0.00    +0.069 A 
BRANCH  14  21
ATOM     20  C   LIG    1       25.284 -32.385  11.244  0.00  0.00    +0.277 C 
ATOM     21  O   LIG    1       26.446 -31.899  10.565  0.00  0.00    -0.491 OA
ENDBRANCH  14  21
BRANCH  15  22
ATOM     22  O   LIG    1       25.599 -29.283   9.717  0.00  0.00    -0.490 OA
ATOM     23  C   LIG    1       26.703 -28.466  10.100  0.00  0.00    +0.277 C 
ENDBRANCH  15  22
ENDBRANCH  13  16
ENDBRANCH  11  13
ENDBRANCH   1  11
BRANCH   8  24
ATOM     24  O   LIG    1       25.139 -20.728   7.507  0.00  0.00    -0.434 OA
BRANCH  24  25
ATOM     25  C   LIG    1       26.300 -20.684   8.331  0.00  0.00    +0.541 C 
ATOM     26  F   LIG    1       25.995 -20.080   9.508  0.00  0.00    -0.166 F 
ATOM     27  F   LIG    1       27.220 -19.898   7.718  0.00  0.00    -0.166 F 
ENDBRANCH  24  25
ENDBRANCH   8  24
TORSDOF 7
ENDMDL
MODEL 7
REMARK VINA RESULT:      -7.5      5.398      9.158
REMARK  Name = *****
REMARK                            x       y       z     vdW  Elec       q    Type
REMARK                         _______ _______ _______ _____ _____    ______ ____
ROOT
ATOM      1  C   LIG    1       25.388 -25.509   6.119  0.00  0.00    +0.198 A 
ATOM      2  N   LIG    1       25.935 -24.266   5.947  0.00  0.00    -0.331 N 
ATOM      3  H   LIG    1       26.896 -24.110   5.649  0.00  0.00    +0.168 HD
ATOM      4  C   LIG    1       24.944 -23.335   6.073  0.00  0.00    +0.070 A 
ATOM      5  C   LIG    1       23.838 -24.088   6.461  0.00  0.00    +0.090 A 
ATOM      6  C   LIG    1       22.623 -23.446   6.711  0.00  0.00    +0.033 A 
ATOM      7  C   LIG    1       22.535 -22.070   6.480  0.00  0.00    +0.048 A 
ATOM      8  C   LIG    1       23.648 -21.325   6.065  0.00  0.00    +0.129 A 
ATOM      9  C   LIG    1       24.878 -21.950   5.865  0.00  0.00    +0.073 A 
ATOM     10  N   LIG    1       24.129 -25.431   6.506  0.00  0.00    -0.220 NA
ENDROOT
BRANCH   1  11
ATOM     11  S   LIG    1       26.257 -26.976   5.776  0.00  0.00    +0.096 S 
ATOM     12  O   LIG    1       26.353 -26.992   4.273  0.00  0.00    -0.249 OA
BRANCH  11  13
ATOM     13  C   LIG    1       24.956 -28.112   6.363  0.00  0.00    +0.171 C 
BRANCH  13  16
ATOM     14  C   LIG    1       25.206 -30.621   9.219  0.00  0.00    +0.165 A 
ATOM     15  C   LIG    1       24.660 -29.959   8.100  0.00  0.00    +0.184 A 
ATOM     16  C   LIG    1       25.251 -28.745   7.705  0.00  0.00    +0.099 A 
ATOM     17  N   LIG    1       26.220 -28.134   8.439  0.00  0.00    -0.255 NA
ATOM     18  C   LIG    1       26.609 -28.718   9.583  0.00  0.00    +0.115 A 
ATOM     19  C   LIG    1       26.161 -29.956   9.994  0.00  0.00    +0.069 A 
BRANCH  14  21
ATOM     20  C   LIG    1       25.811 -32.931   9.307  0.00  0.00    +0.277 C 
ATOM     21  O   LIG    1       24.816 -31.915   9.473  0.00  0.00    -0.491 OA
ENDBRANCH  14  21
BRANCH  15  22
ATOM     22  O   LIG    1       23.668 -30.436   7.287  0.00  0.00    -0.490 OA
ATOM     23  C   LIG    1       23.995 -31.453   6.343  0.00  0.00    +0.277 C 
ENDBRANCH  15  22
ENDBRANCH  13  16
ENDBRANCH  11  13
ENDBRANCH   1  11
BRANCH   8  24
ATOM     24  O   LIG    1       23.593 -19.977   5.807  0.00  0.00    -0.434 OA
BRANCH  24  25
ATOM     25  C   LIG    1       22.787 -19.621   4.687  0.00  0.00    +0.541 C 
ATOM     26  F   LIG    1       23.586 -19.218   3.667  0.00  0.00    -0.166 F 
ATOM     27  F   LIG    1       22.032 -18.551   5.037  0.00  0.00    -0.166 F 
ENDBRANCH  24  25
ENDBRANCH   8  24
TORSDOF 7
ENDMDL
MODEL 8
REMARK VINA RESULT:      -7.3      5.308      9.387
REMARK  Name = *****
REMARK                            x       y       z     vdW  Elec       q    Type
REMARK                         _______ _______ _______ _____ _____    ______ ____
ROOT
ATOM      1  C   LIG    1       25.127 -26.932   6.061  0.00  0.00    +0.198 A 
ATOM      2  N   LIG    1       24.000 -26.215   5.768  0.00  0.00    -0.331 N 
ATOM      3  H   LIG    1       23.150 -26.630   5.389  0.00  0.00    +0.168 HD
ATOM      4  C   LIG    1       24.168 -24.938   6.221  0.00  0.00    +0.070 A 
ATOM      5  C   LIG    1       25.490 -24.920   6.660  0.00  0.00    +0.090 A 
ATOM      6  C   LIG    1       26.027 -23.739   7.177  0.00  0.00    +0.033 A 
ATOM      7  C   LIG    1       25.188 -22.628   7.315  0.00  0.00    +0.048 A 
ATOM      8  C   LIG    1       23.851 -22.664   6.893  0.00  0.00    +0.129 A 
ATOM      9  C   LIG    1       23.323 -23.824   6.326  0.00  0.00    +0.073 A 
ATOM     10  N   LIG    1       26.081 -26.155   6.539  0.00  0.00    -0.220 NA
ENDROOT
BRANCH   1  11
ATOM     11  S   LIG    1       25.215 -28.661   5.890  0.00  0.00    +0.096 S 
ATOM     12  O   LIG    1       24.320 -28.949   4.713  0.00  0.00    -0.249 OA
BRANCH  11  13
ATOM     13  C   LIG    1       24.379 -29.053   7.463  0.00  0.00    +0.171 C 
BRANCH  13  16
ATOM     14  C   LIG    1       26.419 -31.450   9.608  0.00  0.00    +0.165 A 
ATOM     15  C   LIG    1       25.342 -30.983   8.827  0.00  0.00    +0.184 A 
ATOM     16  C   LIG    1       25.298 -29.610   8.527  0.00  0.00    +0.099 A 
ATOM     17  N   LIG    1       26.167 -28.718   9.073  0.00  0.00    -0.255 NA
ATOM     18  C   LIG    1       27.088 -29.177   9.936  0.00  0.00    +0.115 A 
ATOM     19  C   LIG    1       27.271 -30.517  10.208  0.00  0.00    +0.069 A 
BRANCH  14  21
ATOM     20  C   LIG    1       27.457 -33.406   8.709  0.00  0.00    +0.277 C 
ATOM     21  O   LIG    1       26.623 -32.807   9.705  0.00  0.00    -0.491 OA
ENDBRANCH  14  21
BRANCH  15  22
ATOM     22  O   LIG    1       24.380 -31.758   8.239  0.00  0.00    -0.490 OA
ATOM     23  C   LIG    1       23.277 -32.189   9.033  0.00  0.00    +0.277 C 
ENDBRANCH  15  22
ENDBRANCH  13  16
ENDBRANCH  11  13
ENDBRANCH   1  11
BRANCH   8  24
ATOM     24  O   LIG    1       22.993 -21.601   7.034  0.00  0.00    -0.434 OA
BRANCH  24  25
ATOM     25  C   LIG    1       22.832 -20.812   5.858  0.00  0.00    +0.541 C 
ATOM     26  F   LIG    1       22.585 -19.525   6.210  0.00  0.00    -0.166 F 
ATOM     27  F   LIG    1       21.731 -21.255   5.203  0.00  0.00    -0.166 F 
ENDBRANCH  24  25
ENDBRANCH   8  24
TORSDOF 7
ENDMDL
MODEL 9
REMARK VINA RESULT:      -7.3      5.354      9.694
REMARK  Name = *****
REMARK                            x       y       z     vdW  Elec       q    Type
REMARK                         _______ _______ _______ _____ _____    ______ ____
ROOT
ATOM      1  C   LIG    1       25.000 -27.139   6.257  0.00  0.00    +0.198 A 
ATOM      2  N   LIG    1       23.862 -26.421   6.010  0.00  0.00    -0.331 N 
ATOM      3  H   LIG    1       22.978 -26.843   5.730  0.00  0.00    +0.168 HD
ATOM      4  C   LIG    1       24.084 -25.120   6.365  0.00  0.00    +0.070 A 
ATOM      5  C   LIG    1       25.438 -25.100   6.692  0.00  0.00    +0.090 A 
ATOM      6  C   LIG    1       26.032 -23.899   7.085  0.00  0.00    +0.033 A 
ATOM      7  C   LIG    1       25.223 -22.766   7.219  0.00  0.00    +0.048 A 
ATOM      8  C   LIG    1       23.856 -22.803   6.912  0.00  0.00    +0.129 A 
ATOM      9  C   LIG    1       23.266 -23.986   6.466  0.00  0.00    +0.073 A 
ATOM     10  N   LIG    1       26.000 -26.351   6.603  0.00  0.00    -0.220 NA
ENDROOT
BRANCH   1  11
ATOM     11  S   LIG    1       25.050 -28.876   6.191  0.00  0.00    +0.096 S 
ATOM     12  O   LIG    1       23.634 -29.261   5.847  0.00  0.00    -0.249 OA
BRANCH  11  13
ATOM     13  C   LIG    1       25.383 -29.126   7.967  0.00  0.00    +0.171 C 
BRANCH  13  16
ATOM     14  C   LIG    1       25.910 -32.333   9.954  0.00  0.00    +0.165 A 
ATOM     15  C   LIG    1       25.909 -30.953   9.671  0.00  0.00    +0.184 A 
ATOM     16  C   LIG    1       25.706 -30.558   8.337  0.00  0.00    +0.099 A 
ATOM     17  N   LIG    1       25.654 -31.452   7.313  0.00  0.00    -0.255 NA
ATOM     18  C   LIG    1       25.813 -32.753   7.601  0.00  0.00    +0.115 A 
ATOM     19  C   LIG    1       25.912 -33.239   8.888  0.00  0.00    +0.069 A 
BRANCH  14  21
ATOM     20  C   LIG    1       24.554 -32.986  11.811  0.00  0.00    +0.277 C 
ATOM     21  O   LIG    1       25.855 -32.737  11.268  0.00  0.00    -0.491 OA
ENDBRANCH  14  21
BRANCH  15  22
ATOM     22  O   LIG    1       25.983 -29.943  10.592  0.00  0.00    -0.490 OA
ATOM     23  C   LIG    1       27.268 -29.553  11.069  0.00  0.00    +0.277 C 
ENDBRANCH  15  22
ENDBRANCH  13  16
ENDBRANCH  11  13
ENDBRANCH   1  11
BRANCH   8  24
ATOM     24  O   LIG    1       23.026 -21.717   7.052  0.00  0.00    -0.434 OA
BRANCH  24  25
ATOM     25  C   LIG    1       22.890 -20.922   5.879  0.00  0.00    +0.541 C 
ATOM     26  F   LIG    1       22.641 -19.635   6.232  0.00  0.00    -0.166 F 
ATOM     27  F   LIG    1       21.800 -21.357   5.201  0.00  0.00    -0.166 F 
ENDBRANCH  24  25
ENDBRANCH   8  24
TORSDOF 7
ENDMDL
