MODEL 1
REMARK VINA RESULT:      -5.9      0.000      0.000
REMARK  Name = *****
REMARK                            x       y       z     vdW  Elec       q    Type
REMARK                         _______ _______ _______ _____ _____    ______ ____
ROOT
ATOM      1  C   LIG    1       28.352 -19.982   7.401  0.00  0.00    +0.002 C 
ENDROOT
BRANCH   1   2
ATOM      2  C   LIG    1       29.406 -21.092   7.501  0.00  0.00    +0.011 C 
BRANCH   2   3
ATOM      3  C   LIG    1       30.625 -20.702   8.336  0.00  0.00    +0.120 C 
BRANCH   3   5
ATOM      4  O   LIG    1       30.788 -22.103  10.303  0.00  0.00    -0.251 OA
ATOM      5  C   LIG    1       31.162 -21.834   9.170  0.00  0.00    +0.305 C 
BRANCH   5   6
ATOM      6  O   LIG    1       32.159 -22.523   8.556  0.00  0.00    -0.481 OA
ATOM      7  H   LIG    1       33.018 -22.070   8.570  0.00  0.00    +0.295 HD
ENDBRANCH   5   6
ENDBRANCH   3   5
ENDBRANCH   2   3
ENDBRANCH   1   2
BRANCH   1   8
ATOM      8  C   LIG    1       27.201 -20.401   6.473  0.00  0.00    +0.015 C 
BRANCH   8   9
ATOM      9  C   LIG    1       25.874 -20.670   7.205  0.00  0.00    +0.058 C 
ATOM     10  S   LIG    1       25.819 -22.304   8.009  0.00  0.00    -0.090 S 
ATOM     11  S   LIG    1       25.095 -23.353   6.406  0.00  0.00    -0.093 S 
ATOM     12  C   LIG    1       24.650 -21.929   5.377  0.00  0.00    +0.082 C 
ATOM     13  C   LIG    1       24.667 -20.679   6.254  0.00  0.00    +0.026 C 
ENDBRANCH   8   9
ENDBRANCH   1   8
TORSDOF 6
ENDMDL
MODEL 2
REMARK VINA RESULT:      -5.8      2.185      2.391
REMARK  Name = *****
REMARK                            x       y       z     vdW  Elec       q    Type
REMARK                         _______ _______ _______ _____ _____    ______ ____
ROOT
ATOM      1  C   LIG    1       28.221 -20.001   7.489  0.00  0.00    +0.002 C 
ENDROOT
BRANCH   1   2
ATOM      2  C   LIG    1       29.744 -19.810   7.479  0.00  0.00    +0.011 C 
BRANCH   2   3
ATOM      3  C   LIG    1       30.194 -18.484   8.091  0.00  0.00    +0.120 C 
BRANCH   3   5
ATOM      4  O   LIG    1       32.119 -19.420   9.220  0.00  0.00    -0.251 OA
ATOM      5  C   LIG    1       31.618 -18.507   8.579  0.00  0.00    +0.305 C 
BRANCH   5   6
ATOM      6  O   LIG    1       32.304 -17.375   8.277  0.00  0.00    -0.481 OA
ATOM      7  H   LIG    1       32.913 -17.084   8.976  0.00  0.00    +0.295 HD
ENDBRANCH   5   6
ENDBRANCH   3   5
ENDBRANCH   2   3
ENDBRANCH   1   2
BRANCH   1   8
ATOM      8  C   LIG    1       27.854 -21.476   7.260  0.00  0.00    +0.015 C 
BRANCH   8   9
ATOM      9  C   LIG    1       26.533 -21.901   7.926  0.00  0.00    +0.058 C 
ATOM     10  S   LIG    1       25.805 -23.395   7.179  0.00  0.00    -0.090 S 
ATOM     11  S   LIG    1       24.715 -22.450   5.726  0.00  0.00    -0.093 S 
ATOM     12  C   LIG    1       24.902 -20.760   6.355  0.00  0.00    +0.082 C 
ATOM     13  C   LIG    1       25.433 -20.837   7.785  0.00  0.00    +0.026 C 
ENDBRANCH   8   9
ENDBRANCH   1   8
TORSDOF 6
ENDMDL
MODEL 3
REMARK VINA RESULT:      -5.8      2.256      2.739
REMARK  Name = *****
REMARK                            x       y       z     vdW  Elec       q    Type
REMARK                         _______ _______ _______ _____ _____    ______ ____
ROOT
ATOM      1  C   LIG    1       27.190 -21.128   7.965  0.00  0.00    +0.002 C 
ENDROOT
BRANCH   1   2
ATOM      2  C   LIG    1       28.048 -20.265   7.030  0.00  0.00    +0.011 C 
BRANCH   2   3
ATOM      3  C   LIG    1       29.228 -19.595   7.732  0.00  0.00    +0.120 C 
BRANCH   3   5
ATOM      4  O   LIG    1       30.205 -18.412   5.860  0.00  0.00    -0.251 OA
ATOM      5  C   LIG    1       30.332 -19.196   6.789  0.00  0.00    +0.305 C 
BRANCH   5   6
ATOM      6  O   LIG    1       31.503 -19.837   7.038  0.00  0.00    -0.481 OA
ATOM      7  H   LIG    1       31.426 -20.805   7.065  0.00  0.00    +0.295 HD
ENDBRANCH   5   6
ENDBRANCH   3   5
ENDBRANCH   2   3
ENDBRANCH   1   2
BRANCH   1   8
ATOM      8  C   LIG    1       25.747 -20.602   8.024  0.00  0.00    +0.015 C 
BRANCH   8   9
ATOM      9  C   LIG    1       24.684 -21.653   7.657  0.00  0.00    +0.058 C 
ATOM     10  S   LIG    1       25.179 -22.715   6.262  0.00  0.00    -0.090 S 
ATOM     11  S   LIG    1       24.453 -21.523   4.763  0.00  0.00    -0.093 S 
ATOM     12  C   LIG    1       23.492 -20.395   5.807  0.00  0.00    +0.082 C 
ATOM     13  C   LIG    1       23.363 -21.018   7.195  0.00  0.00    +0.026 C 
ENDBRANCH   8   9
ENDBRANCH   1   8
TORSDOF 6
ENDMDL
MODEL 4
REMARK VINA RESULT:      -5.7      2.100      2.329
REMARK  Name = *****
REMARK                            x       y       z     vdW  Elec       q    Type
REMARK                         _______ _______ _______ _____ _____    ______ ____
ROOT
ATOM      1  C   LIG    1       27.952 -20.949   7.897  0.00  0.00    +0.002 C 
ENDROOT
BRANCH   1   2
ATOM      2  C   LIG    1       28.859 -19.872   7.288  0.00  0.00    +0.011 C 
BRANCH   2   3
ATOM      3  C   LIG    1       29.751 -19.176   8.314  0.00  0.00    +0.120 C 
BRANCH   3   5
ATOM      4  O   LIG    1       31.899 -19.799   9.240  0.00  0.00    -0.251 OA
ATOM      5  C   LIG    1       31.185 -19.631   8.261  0.00  0.00    +0.305 C 
BRANCH   5   6
ATOM      6  O   LIG    1       31.646 -19.799   6.995  0.00  0.00    -0.481 OA
ATOM      7  H   LIG    1       32.365 -20.448   6.918  0.00  0.00    +0.295 HD
ENDBRANCH   5   6
ENDBRANCH   3   5
ENDBRANCH   2   3
ENDBRANCH   1   2
BRANCH   1   8
ATOM      8  C   LIG    1       26.475 -20.665   7.579  0.00  0.00    +0.015 C 
BRANCH   8   9
ATOM      9  C   LIG    1       25.876 -21.593   6.507  0.00  0.00    +0.058 C 
ATOM     10  S   LIG    1       25.051 -20.688   5.158  0.00  0.00    -0.090 S 
ATOM     11  S   LIG    1       23.200 -20.570   6.025  0.00  0.00    -0.093 S 
ATOM     12  C   LIG    1       23.500 -21.738   7.378  0.00  0.00    +0.082 C 
ATOM     13  C   LIG    1       24.780 -22.512   7.069  0.00  0.00    +0.026 C 
ENDBRANCH   8   9
ENDBRANCH   1   8
TORSDOF 6
ENDMDL
MODEL 5
REMARK VINA RESULT:      -5.6      4.873      5.587
REMARK  Name = *****
REMARK                            x       y       z     vdW  Elec       q    Type
REMARK                         _______ _______ _______ _____ _____    ______ ____
ROOT
ATOM      1  C   LIG    1       24.579 -22.057   7.677  0.00  0.00    +0.002 C 
ENDROOT
BRANCH   1   2
ATOM      2  C   LIG    1       25.753 -22.772   6.994  0.00  0.00    +0.011 C 
BRANCH   2   3
ATOM      3  C   LIG    1       25.614 -24.293   6.981  0.00  0.00    +0.120 C 
BRANCH   3   5
ATOM      4  O   LIG    1       23.557 -25.401   6.351  0.00  0.00    -0.251 OA
ATOM      5  C   LIG    1       24.561 -24.786   6.024  0.00  0.00    +0.305 C 
BRANCH   5   6
ATOM      6  O   LIG    1       24.856 -24.522   4.724  0.00  0.00    -0.481 OA
ATOM      7  H   LIG    1       25.584 -25.059   4.368  0.00  0.00    +0.295 HD
ENDBRANCH   5   6
ENDBRANCH   3   5
ENDBRANCH   2   3
ENDBRANCH   1   2
BRANCH   1   8
ATOM      8  C   LIG    1       24.081 -20.883   6.820  0.00  0.00    +0.015 C 
BRANCH   8   9
ATOM      9  C   LIG    1       23.564 -21.297   5.431  0.00  0.00    +0.058 C 
ATOM     10  S   LIG    1       24.668 -20.787   4.075  0.00  0.00    -0.090 S 
ATOM     11  S   LIG    1       23.859 -18.930   3.772  0.00  0.00    -0.093 S 
ATOM     12  C   LIG    1       22.373 -19.154   4.785  0.00  0.00    +0.082 C 
ATOM     13  C   LIG    1       22.216 -20.644   5.084  0.00  0.00    +0.026 C 
ENDBRANCH   8   9
ENDBRANCH   1   8
TORSDOF 6
ENDMDL
MODEL 6
REMARK VINA RESULT:      -5.5      4.159      5.360
REMARK  Name = *****
REMARK                            x       y       z     vdW  Elec       q    Type
REMARK                         _______ _______ _______ _____ _____    ______ ____
ROOT
ATOM      1  C   LIG    1       23.787 -23.897   6.614  0.00  0.00    +0.002 C 
ENDROOT
BRANCH   1   2
ATOM      2  C   LIG    1       24.065 -25.340   6.173  0.00  0.00    +0.011 C 
BRANCH   2   3
ATOM      3  C   LIG    1       25.426 -25.521   5.503  0.00  0.00    +0.120 C 
BRANCH   3   5
ATOM      4  O   LIG    1       26.048 -27.047   7.275  0.00  0.00    -0.251 OA
ATOM      5  C   LIG    1       26.300 -26.533   6.195  0.00  0.00    +0.305 C 
BRANCH   5   6
ATOM      6  O   LIG    1       27.448 -26.797   5.519  0.00  0.00    -0.481 OA
ATOM      7  H   LIG    1       27.986 -26.010   5.332  0.00  0.00    +0.295 HD
ENDBRANCH   5   6
ENDBRANCH   3   5
ENDBRANCH   2   3
ENDBRANCH   1   2
BRANCH   1   8
ATOM      8  C   LIG    1       25.089 -23.190   7.025  0.00  0.00    +0.015 C 
BRANCH   8   9
ATOM      9  C   LIG    1       24.894 -21.730   7.469  0.00  0.00    +0.058 C 
ATOM     10  S   LIG    1       23.302 -21.025   6.932  0.00  0.00    -0.090 S 
ATOM     11  S   LIG    1       23.928 -20.339   5.108  0.00  0.00    -0.093 S 
ATOM     12  C   LIG    1       25.707 -20.557   5.374  0.00  0.00    +0.082 C 
ATOM     13  C   LIG    1       25.945 -20.785   6.865  0.00  0.00    +0.026 C 
ENDBRANCH   8   9
ENDBRANCH   1   8
TORSDOF 6
ENDMDL
MODEL 7
REMARK VINA RESULT:      -5.5      4.443      5.837
REMARK  Name = *****
REMARK                            x       y       z     vdW  Elec       q    Type
REMARK                         _______ _______ _______ _____ _____    ______ ____
ROOT
ATOM      1  C   LIG    1       24.504 -24.195   6.170  0.00  0.00    +0.002 C 
ENDROOT
BRANCH   1   2
ATOM      2  C   LIG    1       24.157 -25.689   6.221  0.00  0.00    +0.011 C 
BRANCH   2   3
ATOM      3  C   LIG    1       25.363 -26.584   6.502  0.00  0.00    +0.120 C 
BRANCH   3   5
ATOM      4  O   LIG    1       25.845 -26.893   4.151  0.00  0.00    -0.251 OA
ATOM      5  C   LIG    1       26.247 -26.786   5.301  0.00  0.00    +0.305 C 
BRANCH   5   6
ATOM      6  O   LIG    1       27.563 -26.890   5.619  0.00  0.00    -0.481 OA
ATOM      7  H   LIG    1       28.157 -26.888   4.850  0.00  0.00    +0.295 HD
ENDBRANCH   5   6
ENDBRANCH   3   5
ENDBRANCH   2   3
ENDBRANCH   1   2
BRANCH   1   8
ATOM      8  C   LIG    1       23.384 -23.351   6.797  0.00  0.00    +0.015 C 
BRANCH   8   9
ATOM      9  C   LIG    1       23.236 -21.949   6.179  0.00  0.00    +0.058 C 
ATOM     10  S   LIG    1       24.477 -21.600   4.892  0.00  0.00    -0.090 S 
ATOM     11  S   LIG    1       25.926 -20.852   6.130  0.00  0.00    -0.093 S 
ATOM     12  C   LIG    1       24.904 -20.695   7.618  0.00  0.00    +0.082 C 
ATOM     13  C   LIG    1       23.438 -20.827   7.210  0.00  0.00    +0.026 C 
ENDBRANCH   8   9
ENDBRANCH   1   8
TORSDOF 6
ENDMDL
MODEL 8
REMARK VINA RESULT:      -5.4      5.543      6.896
REMARK  Name = *****
REMARK                            x       y       z     vdW  Elec       q    Type
REMARK                         _______ _______ _______ _____ _____    ______ ____
ROOT
ATOM      1  C   LIG    1       25.804 -25.360   6.891  0.00  0.00    +0.002 C 
ENDROOT
BRANCH   1   2
ATOM      2  C   LIG    1       25.463 -26.257   5.693  0.00  0.00    +0.011 C 
BRANCH   2   3
ATOM      3  C   LIG    1       24.233 -27.134   5.920  0.00  0.00    +0.120 C 
BRANCH   3   5
ATOM      4  O   LIG    1       25.526 -29.072   5.267  0.00  0.00    -0.251 OA
ATOM      5  C   LIG    1       24.439 -28.566   5.504  0.00  0.00    +0.305 C 
BRANCH   5   6
ATOM      6  O   LIG    1       23.276 -29.255   5.366  0.00  0.00    -0.481 OA
ATOM      7  H   LIG    1       23.070 -29.836   6.116  0.00  0.00    +0.295 HD
ENDBRANCH   5   6
ENDBRANCH   3   5
ENDBRANCH   2   3
ENDBRANCH   1   2
BRANCH   1   8
ATOM      8  C   LIG    1       25.732 -23.876   6.502  0.00  0.00    +0.015 C 
BRANCH   8   9
ATOM      9  C   LIG    1       24.447 -23.488   5.747  0.00  0.00    +0.058 C 
ATOM     10  S   LIG    1       24.580 -21.891   4.881  0.00  0.00    -0.090 S 
ATOM     11  S   LIG    1       23.970 -20.706   6.436  0.00  0.00    -0.093 S 
ATOM     12  C   LIG    1       23.364 -22.030   7.515  0.00  0.00    +0.082 C 
ATOM     13  C   LIG    1       23.244 -23.307   6.686  0.00  0.00    +0.026 C 
ENDBRANCH   8   9
ENDBRANCH   1   8
TORSDOF 6
ENDMDL
MODEL 9
REMARK VINA RESULT:      -5.4      5.444      6.831
REMARK  Name = *****
REMARK                            x       y       z     vdW  Elec       q    Type
REMARK                         _______ _______ _______ _____ _____    ______ ____
ROOT
ATOM      1  C   LIG    1       25.745 -25.355   6.498  0.00  0.00    +0.002 C 
ENDROOT
BRANCH   1   2
ATOM      2  C   LIG    1       24.380 -25.992   6.203  0.00  0.00    +0.011 C 
BRANCH   2   3
ATOM      3  C   LIG    1       24.470 -27.254   5.345  0.00  0.00    +0.120 C 
BRANCH   3   5
ATOM      4  O   LIG    1       24.672 -28.816   7.182  0.00  0.00    -0.251 OA
ATOM      5  C   LIG    1       24.168 -28.515   6.109  0.00  0.00    +0.305 C 
BRANCH   5   6
ATOM      6  O   LIG    1       23.300 -29.336   5.464  0.00  0.00    -0.481 OA
ATOM      7  H   LIG    1       23.621 -29.654   4.604  0.00  0.00    +0.295 HD
ENDBRANCH   5   6
ENDBRANCH   3   5
ENDBRANCH   2   3
ENDBRANCH   1   2
BRANCH   1   8
ATOM      8  C   LIG    1       25.575 -23.953   7.103  0.00  0.00    +0.015 C 
BRANCH   8   9
ATOM      9  C   LIG    1       24.343 -23.192   6.581  0.00  0.00    +0.058 C 
ATOM     10  S   LIG    1       24.641 -22.351   4.993  0.00  0.00    -0.090 S 
ATOM     11  S   LIG    1       25.346 -20.590   5.764  0.00  0.00    -0.093 S 
ATOM     12  C   LIG    1       24.876 -20.886   7.489  0.00  0.00    +0.082 C 
ATOM     13  C   LIG    1       23.903 -22.063   7.527  0.00  0.00    +0.026 C 
ENDBRANCH   8   9
ENDBRANCH   1   8
TORSDOF 6
ENDMDL
