MODEL 1
REMARK VINA RESULT:     -10.4      0.000      0.000
REMARK  Name = *****
REMARK                            x       y       z     vdW  Elec       q    Type
REMARK                         _______ _______ _______ _____ _____    ______ ____
ROOT
ATOM      1  C   LIG    1       24.274 -21.484   5.625  0.00  0.00    +0.021 C 
ATOM      2  C   LIG    1       22.851 -20.886   5.940  0.00  0.00    +0.016 C 
ATOM      3  C   LIG    1       22.593 -19.438   5.520  0.00  0.00    +0.001 C 
ATOM      4  C   LIG    1       22.931 -19.201   4.059  0.00  0.00    +0.000 C 
ATOM      5  C   LIG    1       24.363 -19.601   3.766  0.00  0.00    +0.001 C 
ATOM      6  C   LIG    1       24.643 -21.065   4.148  0.00  0.00    +0.016 C 
ENDROOT
BRANCH   1   9
ATOM      7  C   LIG    1       27.585 -20.296   7.316  0.00  0.00    +0.122 A 
ATOM      8  C   LIG    1       26.619 -20.616   6.339  0.00  0.00    +0.050 A 
ATOM      9  C   LIG    1       25.281 -20.934   6.684  0.00  0.00    -0.033 A 
ATOM     10  C   LIG    1       24.925 -20.782   8.032  0.00  0.00    +0.005 A 
ATOM     11  C   LIG    1       25.872 -20.469   9.003  0.00  0.00    +0.004 A 
ATOM     12  C   LIG    1       27.196 -20.237   8.649  0.00  0.00    +0.045 A 
BRANCH   7  13
ATOM     13  O   LIG    1       28.850 -20.051   6.858  0.00  0.00    -0.475 OA
BRANCH  13  14
ATOM     14  C   LIG    1       29.930 -19.577   7.700  0.00  0.00    +0.203 C 
ATOM     15  C   LIG    1       30.739 -20.683   8.418  0.00  0.00    +0.068 C 
BRANCH  14  17
ATOM     16  C   LIG    1       30.580 -17.625   9.377  0.00  0.00    +0.008 C 
ATOM     17  C   LIG    1       29.503 -18.509   8.748  0.00  0.00    +0.056 C 
ENDBRANCH  14  17
BRANCH  14  18
ATOM     18  C   LIG    1       30.906 -19.019   6.679  0.00  0.00    +0.349 C 
ATOM     19  O   LIG    1       32.156 -19.201   6.714  0.00  0.00    -0.246 OA
BRANCH  18  20
ATOM     20  O   LIG    1       30.366 -18.332   5.664  0.00  0.00    -0.478 OA
ATOM     21  H   LIG    1       30.862 -17.484   5.517  0.00  0.00    +0.295 HD
ENDBRANCH  18  20
ENDBRANCH  14  18
ENDBRANCH  13  14
ENDBRANCH   7  13
ENDBRANCH   1   9
BRANCH   1  22
ATOM     22  C   LIG    1       24.253 -23.052   5.664  0.00  0.00    -0.037 A 
ATOM     23  C   LIG    1       23.508 -23.797   6.598  0.00  0.00    +0.008 A 
ATOM     24  C   LIG    1       23.470 -25.200   6.557  0.00  0.00    +0.046 A 
ATOM     25  C   LIG    1       24.145 -25.908   5.562  0.00  0.00    +0.122 A 
ATOM     26  C   LIG    1       24.930 -25.198   4.666  0.00  0.00    +0.046 A 
ATOM     27  C   LIG    1       24.988 -23.794   4.720  0.00  0.00    +0.008 A 
BRANCH  25  28
ATOM     28  O   LIG    1       23.970 -27.258   5.589  0.00  0.00    -0.475 OA
BRANCH  28  29
ATOM     29  C   LIG    1       25.008 -28.184   5.922  0.00  0.00    +0.203 C 
ATOM     30  C   LIG    1       26.122 -27.844   4.907  0.00  0.00    +0.068 C 
BRANCH  29  31
ATOM     31  C   LIG    1       24.778 -29.717   5.667  0.00  0.00    +0.349 C 
ATOM     32  O   LIG    1       25.689 -30.473   5.350  0.00  0.00    -0.246 OA
BRANCH  31  33
ATOM     33  O   LIG    1       23.512 -30.197   5.732  0.00  0.00    -0.478 OA
ATOM     34  H   LIG    1       23.366 -31.159   5.609  0.00  0.00    +0.295 HD
ENDBRANCH  31  33
ENDBRANCH  29  31
BRANCH  29  35
ATOM     35  C   LIG    1       25.613 -27.961   7.363  0.00  0.00    +0.056 C 
ATOM     36  C   LIG    1       25.504 -29.096   8.395  0.00  0.00    +0.008 C 
ENDBRANCH  29  35
ENDBRANCH  28  29
ENDBRANCH  25  28
ENDBRANCH   1  22
TORSDOF 12
ENDMDL
MODEL 2
REMARK VINA RESULT:     -10.1      1.235      2.015
REMARK  Name = *****
REMARK                            x       y       z     vdW  Elec       q    Type
REMARK                         _______ _______ _______ _____ _____    ______ ____
ROOT
ATOM      1  C   LIG    1       24.396 -21.589   5.660  0.00  0.00    +0.021 C 
ATOM      2  C   LIG    1       22.965 -20.990   5.928  0.00  0.00    +0.016 C 
ATOM      3  C   LIG    1       22.730 -19.534   5.524  0.00  0.00    +0.001 C 
ATOM      4  C   LIG    1       23.127 -19.273   4.082  0.00  0.00    +0.000 C 
ATOM      5  C   LIG    1       24.568 -19.676   3.838  0.00  0.00    +0.001 C 
ATOM      6  C   LIG    1       24.826 -21.147   4.206  0.00  0.00    +0.016 C 
ENDROOT
BRANCH   1   9
ATOM      7  C   LIG    1       27.658 -20.763   7.637  0.00  0.00    +0.122 A 
ATOM      8  C   LIG    1       26.768 -21.061   6.583  0.00  0.00    +0.050 A 
ATOM      9  C   LIG    1       25.363 -21.064   6.767  0.00  0.00    -0.033 A 
ATOM     10  C   LIG    1       24.890 -20.622   8.012  0.00  0.00    +0.005 A 
ATOM     11  C   LIG    1       25.760 -20.329   9.057  0.00  0.00    +0.004 A 
ATOM     12  C   LIG    1       27.136 -20.408   8.875  0.00  0.00    +0.045 A 
BRANCH   7  13
ATOM     13  O   LIG    1       28.991 -20.836   7.342  0.00  0.00    -0.475 OA
BRANCH  13  14
ATOM     14  C   LIG    1       29.920 -19.744   7.551  0.00  0.00    +0.203 C 
ATOM     15  C   LIG    1       29.439 -18.648   8.531  0.00  0.00    +0.068 C 
BRANCH  14  17
ATOM     16  C   LIG    1       29.399 -18.300   5.386  0.00  0.00    +0.008 C 
ATOM     17  C   LIG    1       30.411 -19.063   6.240  0.00  0.00    +0.056 C 
ENDBRANCH  14  17
BRANCH  14  18
ATOM     18  C   LIG    1       31.051 -20.428   8.300  0.00  0.00    +0.349 C 
ATOM     19  O   LIG    1       31.937 -19.819   8.964  0.00  0.00    -0.246 OA
BRANCH  18  20
ATOM     20  O   LIG    1       31.050 -21.767   8.268  0.00  0.00    -0.478 OA
ATOM     21  H   LIG    1       30.264 -22.101   7.760  0.00  0.00    +0.295 HD
ENDBRANCH  18  20
ENDBRANCH  14  18
ENDBRANCH  13  14
ENDBRANCH   7  13
ENDBRANCH   1   9
BRANCH   1  22
ATOM     22  C   LIG    1       24.366 -23.158   5.671  0.00  0.00    -0.037 A 
ATOM     23  C   LIG    1       23.709 -23.917   6.658  0.00  0.00    +0.008 A 
ATOM     24  C   LIG    1       23.656 -25.319   6.594  0.00  0.00    +0.046 A 
ATOM     25  C   LIG    1       24.226 -26.011   5.525  0.00  0.00    +0.122 A 
ATOM     26  C   LIG    1       24.926 -25.288   4.571  0.00  0.00    +0.046 A 
ATOM     27  C   LIG    1       25.000 -23.886   4.646  0.00  0.00    +0.008 A 
BRANCH  25  28
ATOM     28  O   LIG    1       24.044 -27.360   5.543  0.00  0.00    -0.475 OA
BRANCH  28  29
ATOM     29  C   LIG    1       24.979 -28.277   6.115  0.00  0.00    +0.203 C 
ATOM     30  C   LIG    1       24.124 -29.064   7.132  0.00  0.00    +0.068 C 
BRANCH  29  31
ATOM     31  C   LIG    1       26.144 -27.724   7.012  0.00  0.00    +0.349 C 
ATOM     32  O   LIG    1       26.161 -27.870   8.228  0.00  0.00    -0.246 OA
BRANCH  31  33
ATOM     33  O   LIG    1       27.124 -26.999   6.419  0.00  0.00    -0.478 OA
ATOM     34  H   LIG    1       28.046 -27.331   6.462  0.00  0.00    +0.295 HD
ENDBRANCH  31  33
ENDBRANCH  29  31
BRANCH  29  35
ATOM     35  C   LIG    1       25.547 -29.326   5.081  0.00  0.00    +0.056 C 
ATOM     36  C   LIG    1       25.552 -30.816   5.464  0.00  0.00    +0.008 C 
ENDBRANCH  29  35
ENDBRANCH  28  29
ENDBRANCH  25  28
ENDBRANCH   1  22
TORSDOF 12
ENDMDL
MODEL 3
REMARK VINA RESULT:      -9.8      1.348      8.297
REMARK  Name = *****
REMARK                            x       y       z     vdW  Elec       q    Type
REMARK                         _______ _______ _______ _____ _____    ______ ____
ROOT
ATOM      1  C   LIG    1       24.888 -20.823   5.773  0.00  0.00    +0.021 C 
ATOM      2  C   LIG    1       25.145 -20.708   4.224  0.00  0.00    +0.016 C 
ATOM      3  C   LIG    1       23.920 -20.536   3.324  0.00  0.00    +0.001 C 
ATOM      4  C   LIG    1       23.037 -19.387   3.778  0.00  0.00    +0.000 C 
ATOM      5  C   LIG    1       22.623 -19.567   5.225  0.00  0.00    +0.001 C 
ATOM      6  C   LIG    1       23.836 -19.709   6.160  0.00  0.00    +0.016 C 
ENDROOT
BRANCH   1   9
ATOM      7  C   LIG    1       24.600 -24.716   5.796  0.00  0.00    +0.122 A 
ATOM      8  C   LIG    1       25.127 -23.411   5.690  0.00  0.00    +0.050 A 
ATOM      9  C   LIG    1       24.384 -22.268   6.080  0.00  0.00    -0.033 A 
ATOM     10  C   LIG    1       23.151 -22.503   6.707  0.00  0.00    +0.005 A 
ATOM     11  C   LIG    1       22.623 -23.786   6.814  0.00  0.00    +0.004 A 
ATOM     12  C   LIG    1       23.338 -24.885   6.353  0.00  0.00    +0.045 A 
BRANCH   7  13
ATOM     13  O   LIG    1       25.400 -25.729   5.345  0.00  0.00    -0.475 OA
BRANCH  13  14
ATOM     14  C   LIG    1       25.565 -26.990   6.041  0.00  0.00    +0.203 C 
ATOM     15  C   LIG    1       24.300 -27.877   6.106  0.00  0.00    +0.068 C 
BRANCH  14  17
ATOM     16  C   LIG    1       26.230 -28.102   8.357  0.00  0.00    +0.008 C 
ATOM     17  C   LIG    1       26.158 -26.857   7.473  0.00  0.00    +0.056 C 
ENDBRANCH  14  17
BRANCH  14  18
ATOM     18  C   LIG    1       26.491 -27.748   5.106  0.00  0.00    +0.349 C 
ATOM     19  O   LIG    1       27.477 -27.233   4.506  0.00  0.00    -0.246 OA
BRANCH  18  20
ATOM     20  O   LIG    1       26.241 -29.057   4.966  0.00  0.00    -0.478 OA
ATOM     21  H   LIG    1       26.927 -29.593   5.444  0.00  0.00    +0.295 HD
ENDBRANCH  18  20
ENDBRANCH  14  18
ENDBRANCH  13  14
ENDBRANCH   7  13
ENDBRANCH   1   9
BRANCH   1  22
ATOM     22  C   LIG    1       26.194 -20.522   6.590  0.00  0.00    -0.037 A 
ATOM     23  C   LIG    1       26.248 -20.518   7.996  0.00  0.00    +0.008 A 
ATOM     24  C   LIG    1       27.452 -20.305   8.685  0.00  0.00    +0.046 A 
ATOM     25  C   LIG    1       28.652 -20.122   7.996  0.00  0.00    +0.122 A 
ATOM     26  C   LIG    1       28.612 -20.066   6.610  0.00  0.00    +0.046 A 
ATOM     27  C   LIG    1       27.403 -20.257   5.920  0.00  0.00    +0.008 A 
BRANCH  25  28
ATOM     28  O   LIG    1       29.759 -19.998   8.778  0.00  0.00    -0.475 OA
BRANCH  28  29
ATOM     29  C   LIG    1       30.551 -18.809   8.845  0.00  0.00    +0.203 C 
ATOM     30  C   LIG    1       29.579 -17.711   8.359  0.00  0.00    +0.068 C 
BRANCH  29  31
ATOM     31  C   LIG    1       31.765 -18.641   7.862  0.00  0.00    +0.349 C 
ATOM     32  O   LIG    1       32.013 -19.456   6.981  0.00  0.00    -0.246 OA
BRANCH  31  33
ATOM     33  O   LIG    1       32.603 -17.592   8.048  0.00  0.00    -0.478 OA
ATOM     34  H   LIG    1       32.782 -17.291   8.964  0.00  0.00    +0.295 HD
ENDBRANCH  31  33
ENDBRANCH  29  31
BRANCH  29  35
ATOM     35  C   LIG    1       30.987 -18.423  10.312  0.00  0.00    +0.056 C 
ATOM     36  C   LIG    1       30.322 -17.214  10.989  0.00  0.00    +0.008 C 
ENDBRANCH  29  35
ENDBRANCH  28  29
ENDBRANCH  25  28
ENDBRANCH   1  22
TORSDOF 12
ENDMDL
MODEL 4
REMARK VINA RESULT:      -9.3      1.262      1.880
REMARK  Name = *****
REMARK                            x       y       z     vdW  Elec       q    Type
REMARK                         _______ _______ _______ _____ _____    ______ ____
ROOT
ATOM      1  C   LIG    1       24.613 -22.183   5.773  0.00  0.00    +0.021 C 
ATOM      2  C   LIG    1       23.113 -21.864   6.131  0.00  0.00    +0.016 C 
ATOM      3  C   LIG    1       22.587 -20.477   5.759  0.00  0.00    +0.001 C 
ATOM      4  C   LIG    1       22.842 -20.144   4.299  0.00  0.00    +0.000 C 
ATOM      5  C   LIG    1       24.316 -20.269   3.969  0.00  0.00    +0.001 C 
ATOM      6  C   LIG    1       24.867 -21.666   4.302  0.00  0.00    +0.016 C 
ENDROOT
BRANCH   1   9
ATOM      7  C   LIG    1       27.786 -20.938   7.675  0.00  0.00    +0.122 A 
ATOM      8  C   LIG    1       26.931 -21.398   6.650  0.00  0.00    +0.050 A 
ATOM      9  C   LIG    1       25.528 -21.487   6.829  0.00  0.00    -0.033 A 
ATOM     10  C   LIG    1       25.011 -20.967   8.026  0.00  0.00    +0.005 A 
ATOM     11  C   LIG    1       25.846 -20.514   9.042  0.00  0.00    +0.004 A 
ATOM     12  C   LIG    1       27.227 -20.509   8.872  0.00  0.00    +0.045 A 
BRANCH   7  13
ATOM     13  O   LIG    1       29.124 -20.941   7.393  0.00  0.00    -0.475 OA
BRANCH  13  14
ATOM     14  C   LIG    1       29.994 -19.805   7.623  0.00  0.00    +0.203 C 
ATOM     15  C   LIG    1       29.438 -18.735   8.593  0.00  0.00    +0.068 C 
BRANCH  14  17
ATOM     16  C   LIG    1       29.440 -18.498   5.381  0.00  0.00    +0.008 C 
ATOM     17  C   LIG    1       30.481 -19.099   6.325  0.00  0.00    +0.056 C 
ENDBRANCH  14  17
BRANCH  14  18
ATOM     18  C   LIG    1       31.139 -20.435   8.397  0.00  0.00    +0.349 C 
ATOM     19  O   LIG    1       32.031 -19.781   9.009  0.00  0.00    -0.246 OA
BRANCH  18  20
ATOM     20  O   LIG    1       31.146 -21.773   8.449  0.00  0.00    -0.478 OA
ATOM     21  H   LIG    1       31.391 -22.083   9.361  0.00  0.00    +0.295 HD
ENDBRANCH  18  20
ENDBRANCH  14  18
ENDBRANCH  13  14
ENDBRANCH   7  13
ENDBRANCH   1   9
BRANCH   1  22
ATOM     22  C   LIG    1       24.879 -23.730   5.766  0.00  0.00    -0.037 A 
ATOM     23  C   LIG    1       24.789 -24.529   4.611  0.00  0.00    +0.008 A 
ATOM     24  C   LIG    1       25.096 -25.899   4.639  0.00  0.00    +0.046 A 
ATOM     25  C   LIG    1       25.537 -26.513   5.812  0.00  0.00    +0.122 A 
ATOM     26  C   LIG    1       25.579 -25.757   6.974  0.00  0.00    +0.046 A 
ATOM     27  C   LIG    1       25.250 -24.391   6.953  0.00  0.00    +0.008 A 
BRANCH  25  28
ATOM     28  O   LIG    1       25.871 -27.827   5.690  0.00  0.00    -0.475 OA
BRANCH  28  29
ATOM     29  C   LIG    1       25.198 -28.881   6.382  0.00  0.00    +0.203 C 
ATOM     30  C   LIG    1       26.167 -30.075   6.233  0.00  0.00    +0.068 C 
BRANCH  29  31
ATOM     31  C   LIG    1       23.862 -29.457   5.788  0.00  0.00    +0.349 C 
ATOM     32  O   LIG    1       23.382 -30.520   6.164  0.00  0.00    -0.246 OA
BRANCH  31  33
ATOM     33  O   LIG    1       23.266 -28.783   4.775  0.00  0.00    -0.478 OA
ATOM     34  H   LIG    1       23.077 -27.828   4.893  0.00  0.00    +0.295 HD
ENDBRANCH  31  33
ENDBRANCH  29  31
BRANCH  29  35
ATOM     35  C   LIG    1       25.029 -28.615   7.929  0.00  0.00    +0.056 C 
ATOM     36  C   LIG    1       26.188 -28.974   8.873  0.00  0.00    +0.008 C 
ENDBRANCH  29  35
ENDBRANCH  28  29
ENDBRANCH  25  28
ENDBRANCH   1  22
TORSDOF 12
ENDMDL
MODEL 5
REMARK VINA RESULT:      -8.8      1.705      2.669
REMARK  Name = *****
REMARK                            x       y       z     vdW  Elec       q    Type
REMARK                         _______ _______ _______ _____ _____    ______ ____
ROOT
ATOM      1  C   LIG    1       24.958 -21.891   6.057  0.00  0.00    +0.021 C 
ATOM      2  C   LIG    1       24.206 -21.522   7.390  0.00  0.00    +0.016 C 
ATOM      3  C   LIG    1       23.491 -20.171   7.439  0.00  0.00    +0.001 C 
ATOM      4  C   LIG    1       22.555 -19.980   6.259  0.00  0.00    +0.000 C 
ATOM      5  C   LIG    1       23.298 -20.151   4.949  0.00  0.00    +0.001 C 
ATOM      6  C   LIG    1       24.000 -21.517   4.858  0.00  0.00    +0.016 C 
ENDROOT
BRANCH   1   9
ATOM      7  C   LIG    1       28.349 -20.312   7.172  0.00  0.00    +0.122 A 
ATOM      8  C   LIG    1       27.218 -21.154   7.111  0.00  0.00    +0.050 A 
ATOM      9  C   LIG    1       26.308 -21.109   6.024  0.00  0.00    -0.033 A 
ATOM     10  C   LIG    1       26.658 -20.284   4.944  0.00  0.00    +0.005 A 
ATOM     11  C   LIG    1       27.770 -19.450   4.997  0.00  0.00    +0.004 A 
ATOM     12  C   LIG    1       28.605 -19.455   6.109  0.00  0.00    +0.045 A 
BRANCH   7  13
ATOM     13  O   LIG    1       29.124 -20.422   8.293  0.00  0.00    -0.475 OA
BRANCH  13  14
ATOM     14  C   LIG    1       30.539 -20.107   8.324  0.00  0.00    +0.203 C 
ATOM     15  C   LIG    1       31.106 -19.495   7.022  0.00  0.00    +0.068 C 
BRANCH  14  17
ATOM     16  C   LIG    1       30.868 -22.361   9.686  0.00  0.00    +0.008 C 
ATOM     17  C   LIG    1       31.448 -21.293   8.759  0.00  0.00    +0.056 C 
ENDBRANCH  14  17
BRANCH  14  18
ATOM     18  C   LIG    1       30.585 -18.957   9.314  0.00  0.00    +0.349 C 
ATOM     19  O   LIG    1       29.584 -18.260   9.646  0.00  0.00    -0.246 OA
BRANCH  18  20
ATOM     20  O   LIG    1       31.773 -18.722   9.887  0.00  0.00    -0.478 OA
ATOM     21  H   LIG    1       32.350 -18.187   9.281  0.00  0.00    +0.295 HD
ENDBRANCH  18  20
ENDBRANCH  14  18
ENDBRANCH  13  14
ENDBRANCH   7  13
ENDBRANCH   1   9
BRANCH   1  22
ATOM     22  C   LIG    1       25.227 -23.434   5.964  0.00  0.00    -0.037 A 
ATOM     23  C   LIG    1       24.982 -24.198   4.807  0.00  0.00    +0.008 A 
ATOM     24  C   LIG    1       25.295 -25.565   4.748  0.00  0.00    +0.046 A 
ATOM     25  C   LIG    1       25.896 -26.211   5.829  0.00  0.00    +0.122 A 
ATOM     26  C   LIG    1       26.095 -25.492   6.999  0.00  0.00    +0.046 A 
ATOM     27  C   LIG    1       25.760 -24.128   7.067  0.00  0.00    +0.008 A 
BRANCH  25  28
ATOM     28  O   LIG    1       26.216 -27.518   5.621  0.00  0.00    -0.475 OA
BRANCH  28  29
ATOM     29  C   LIG    1       25.392 -28.610   6.038  0.00  0.00    +0.203 C 
ATOM     30  C   LIG    1       23.965 -28.120   5.708  0.00  0.00    +0.068 C 
BRANCH  29  31
ATOM     31  C   LIG    1       25.286 -28.949   7.568  0.00  0.00    +0.349 C 
ATOM     32  O   LIG    1       24.237 -29.310   8.089  0.00  0.00    -0.246 OA
BRANCH  31  33
ATOM     33  O   LIG    1       26.382 -28.764   8.345  0.00  0.00    -0.478 OA
ATOM     34  H   LIG    1       26.504 -27.897   8.787  0.00  0.00    +0.295 HD
ENDBRANCH  31  33
ENDBRANCH  29  31
BRANCH  29  35
ATOM     35  C   LIG    1       25.629 -29.932   5.208  0.00  0.00    +0.056 C 
ATOM     36  C   LIG    1       25.661 -31.278   5.951  0.00  0.00    +0.008 C 
ENDBRANCH  29  35
ENDBRANCH  28  29
ENDBRANCH  25  28
ENDBRANCH   1  22
TORSDOF 12
ENDMDL
MODEL 6
REMARK VINA RESULT:      -8.5      3.658      9.338
REMARK  Name = *****
REMARK                            x       y       z     vdW  Elec       q    Type
REMARK                         _______ _______ _______ _____ _____    ______ ____
ROOT
ATOM      1  C   LIG    1       24.928 -30.036   7.081  0.00  0.00    +0.021 C 
ATOM      2  C   LIG    1       26.218 -30.872   6.742  0.00  0.00    +0.016 C 
ATOM      3  C   LIG    1       26.091 -32.396   6.768  0.00  0.00    +0.001 C 
ATOM      4  C   LIG    1       24.932 -32.885   5.918  0.00  0.00    +0.000 C 
ATOM      5  C   LIG    1       23.635 -32.227   6.346  0.00  0.00    +0.001 C 
ATOM      6  C   LIG    1       23.723 -30.692   6.297  0.00  0.00    +0.016 C 
ENDROOT
BRANCH   1   9
ATOM      7  C   LIG    1       25.665 -30.270  10.907  0.00  0.00    +0.122 A 
ATOM      8  C   LIG    1       25.830 -30.071   9.519  0.00  0.00    +0.050 A 
ATOM      9  C   LIG    1       24.727 -30.052   8.629  0.00  0.00    -0.033 A 
ATOM     10  C   LIG    1       23.450 -30.103   9.208  0.00  0.00    +0.005 A 
ATOM     11  C   LIG    1       23.278 -30.301  10.574  0.00  0.00    +0.004 A 
ATOM     12  C   LIG    1       24.380 -30.394  11.418  0.00  0.00    +0.045 A 
BRANCH   7  13
ATOM     13  O   LIG    1       26.811 -30.310  11.652  0.00  0.00    -0.475 OA
BRANCH  13  14
ATOM     14  C   LIG    1       27.266 -29.214  12.485  0.00  0.00    +0.203 C 
ATOM     15  C   LIG    1       26.692 -29.196  13.921  0.00  0.00    +0.068 C 
BRANCH  14  17
ATOM     16  C   LIG    1       26.495 -26.685  12.714  0.00  0.00    +0.008 C 
ATOM     17  C   LIG    1       27.072 -27.806  11.850  0.00  0.00    +0.056 C 
ENDBRANCH  14  17
BRANCH  14  18
ATOM     18  C   LIG    1       28.732 -29.556  12.685  0.00  0.00    +0.349 C 
ATOM     19  O   LIG    1       29.187 -30.188  13.680  0.00  0.00    -0.246 OA
BRANCH  18  20
ATOM     20  O   LIG    1       29.561 -29.185  11.701  0.00  0.00    -0.478 OA
ATOM     21  H   LIG    1       29.301 -29.621  10.846  0.00  0.00    +0.295 HD
ENDBRANCH  18  20
ENDBRANCH  14  18
ENDBRANCH  13  14
ENDBRANCH   7  13
ENDBRANCH   1   9
BRANCH   1  22
ATOM     22  C   LIG    1       25.056 -28.558   6.569  0.00  0.00    -0.037 A 
ATOM     23  C   LIG    1       24.355 -28.057   5.456  0.00  0.00    +0.008 A 
ATOM     24  C   LIG    1       24.453 -26.711   5.071  0.00  0.00    +0.046 A 
ATOM     25  C   LIG    1       25.226 -25.808   5.803  0.00  0.00    +0.122 A 
ATOM     26  C   LIG    1       25.969 -26.292   6.870  0.00  0.00    +0.046 A 
ATOM     27  C   LIG    1       25.890 -27.645   7.242  0.00  0.00    +0.008 A 
BRANCH  25  28
ATOM     28  O   LIG    1       25.180 -24.519   5.370  0.00  0.00    -0.475 OA
BRANCH  28  29
ATOM     29  C   LIG    1       24.805 -23.418   6.201  0.00  0.00    +0.203 C 
ATOM     30  C   LIG    1       23.414 -23.834   6.729  0.00  0.00    +0.068 C 
BRANCH  29  31
ATOM     31  C   LIG    1       24.510 -22.023   5.540  0.00  0.00    +0.349 C 
ATOM     32  O   LIG    1       23.400 -21.506   5.570  0.00  0.00    -0.246 OA
BRANCH  31  33
ATOM     33  O   LIG    1       25.506 -21.414   4.853  0.00  0.00    -0.478 OA
ATOM     34  H   LIG    1       26.089 -21.961   4.284  0.00  0.00    +0.295 HD
ENDBRANCH  31  33
ENDBRANCH  29  31
BRANCH  29  35
ATOM     35  C   LIG    1       25.739 -23.230   7.460  0.00  0.00    +0.056 C 
ATOM     36  C   LIG    1       25.581 -21.964   8.318  0.00  0.00    +0.008 C 
ENDBRANCH  29  35
ENDBRANCH  28  29
ENDBRANCH  25  28
ENDBRANCH   1  22
TORSDOF 12
ENDMDL
MODEL 7
REMARK VINA RESULT:      -8.4      1.768      8.457
REMARK  Name = *****
REMARK                            x       y       z     vdW  Elec       q    Type
REMARK                         _______ _______ _______ _____ _____    ______ ____
ROOT
ATOM      1  C   LIG    1       24.876 -21.092   5.886  0.00  0.00    +0.021 C 
ATOM      2  C   LIG    1       25.113 -20.842   4.349  0.00  0.00    +0.016 C 
ATOM      3  C   LIG    1       23.877 -20.592   3.484  0.00  0.00    +0.001 C 
ATOM      4  C   LIG    1       23.002 -19.487   4.048  0.00  0.00    +0.000 C 
ATOM      5  C   LIG    1       22.606 -19.792   5.479  0.00  0.00    +0.001 C 
ATOM      6  C   LIG    1       23.831 -20.016   6.382  0.00  0.00    +0.016 C 
ENDROOT
BRANCH   1   9
ATOM      7  C   LIG    1       24.465 -24.948   5.440  0.00  0.00    +0.122 A 
ATOM      8  C   LIG    1       25.014 -23.648   5.429  0.00  0.00    +0.050 A 
ATOM      9  C   LIG    1       24.375 -22.559   6.072  0.00  0.00    -0.033 A 
ATOM     10  C   LIG    1       23.239 -22.859   6.839  0.00  0.00    +0.005 A 
ATOM     11  C   LIG    1       22.689 -24.137   6.854  0.00  0.00    +0.004 A 
ATOM     12  C   LIG    1       23.292 -25.174   6.151  0.00  0.00    +0.045 A 
BRANCH   7  13
ATOM     13  O   LIG    1       25.156 -25.902   4.746  0.00  0.00    -0.475 OA
BRANCH  13  14
ATOM     14  C   LIG    1       25.445 -27.223   5.270  0.00  0.00    +0.203 C 
ATOM     15  C   LIG    1       26.150 -28.182   4.282  0.00  0.00    +0.068 C 
BRANCH  14  17
ATOM     16  C   LIG    1       24.280 -29.466   6.077  0.00  0.00    +0.008 C 
ATOM     17  C   LIG    1       24.215 -27.951   5.884  0.00  0.00    +0.056 C 
ENDBRANCH  14  17
BRANCH  14  18
ATOM     18  C   LIG    1       26.513 -26.924   6.308  0.00  0.00    +0.349 C 
ATOM     19  O   LIG    1       26.310 -26.910   7.555  0.00  0.00    -0.246 OA
BRANCH  18  20
ATOM     20  O   LIG    1       27.748 -26.710   5.836  0.00  0.00    -0.478 OA
ATOM     21  H   LIG    1       28.279 -26.177   6.484  0.00  0.00    +0.295 HD
ENDBRANCH  18  20
ENDBRANCH  14  18
ENDBRANCH  13  14
ENDBRANCH   7  13
ENDBRANCH   1   9
BRANCH   1  22
ATOM     22  C   LIG    1       26.193 -20.864   6.709  0.00  0.00    -0.037 A 
ATOM     23  C   LIG    1       27.483 -21.060   6.181  0.00  0.00    +0.008 A 
ATOM     24  C   LIG    1       28.635 -20.784   6.935  0.00  0.00    +0.046 A 
ATOM     25  C   LIG    1       28.541 -20.271   8.229  0.00  0.00    +0.122 A 
ATOM     26  C   LIG    1       27.280 -20.123   8.789  0.00  0.00    +0.046 A 
ATOM     27  C   LIG    1       26.126 -20.421   8.043  0.00  0.00    +0.008 A 
BRANCH  25  28
ATOM     28  O   LIG    1       29.729 -19.977   8.826  0.00  0.00    -0.475 OA
BRANCH  28  29
ATOM     29  C   LIG    1       30.341 -18.686   8.778  0.00  0.00    +0.203 C 
ATOM     30  C   LIG    1       31.841 -19.015   8.605  0.00  0.00    +0.068 C 
BRANCH  29  31
ATOM     31  C   LIG    1       30.340 -17.789  10.067  0.00  0.00    +0.349 C 
ATOM     32  O   LIG    1       30.166 -16.577  10.022  0.00  0.00    -0.246 OA
BRANCH  31  33
ATOM     33  O   LIG    1       30.615 -18.374  11.259  0.00  0.00    -0.478 OA
ATOM     34  H   LIG    1       29.875 -18.760  11.774  0.00  0.00    +0.295 HD
ENDBRANCH  31  33
ENDBRANCH  29  31
BRANCH  29  35
ATOM     35  C   LIG    1       29.909 -17.830   7.524  0.00  0.00    +0.056 C 
ATOM     36  C   LIG    1       30.200 -18.377   6.117  0.00  0.00    +0.008 C 
ENDBRANCH  29  35
ENDBRANCH  28  29
ENDBRANCH  25  28
ENDBRANCH   1  22
TORSDOF 12
ENDMDL
MODEL 8
REMARK VINA RESULT:      -8.3      3.656      9.460
REMARK  Name = *****
REMARK                            x       y       z     vdW  Elec       q    Type
REMARK                         _______ _______ _______ _____ _____    ______ ____
ROOT
ATOM      1  C   LIG    1       24.919 -30.132   7.388  0.00  0.00    +0.021 C 
ATOM      2  C   LIG    1       26.240 -30.929   7.071  0.00  0.00    +0.016 C 
ATOM      3  C   LIG    1       26.150 -32.456   7.069  0.00  0.00    +0.001 C 
ATOM      4  C   LIG    1       25.028 -32.958   6.178  0.00  0.00    +0.000 C 
ATOM      5  C   LIG    1       23.704 -32.340   6.579  0.00  0.00    +0.001 C 
ATOM      6  C   LIG    1       23.754 -30.803   6.559  0.00  0.00    +0.016 C 
ENDROOT
BRANCH   1   9
ATOM      7  C   LIG    1       25.550 -30.444  11.227  0.00  0.00    +0.122 A 
ATOM      8  C   LIG    1       25.753 -30.217   9.849  0.00  0.00    +0.050 A 
ATOM      9  C   LIG    1       24.676 -30.179   8.929  0.00  0.00    -0.033 A 
ATOM     10  C   LIG    1       23.383 -30.240   9.470  0.00  0.00    +0.005 A 
ATOM     11  C   LIG    1       23.173 -30.467  10.827  0.00  0.00    +0.004 A 
ATOM     12  C   LIG    1       24.250 -30.578  11.699  0.00  0.00    +0.045 A 
BRANCH   7  13
ATOM     13  O   LIG    1       26.675 -30.501  12.003  0.00  0.00    -0.475 OA
BRANCH  13  14
ATOM     14  C   LIG    1       27.151 -29.394  12.807  0.00  0.00    +0.203 C 
ATOM     15  C   LIG    1       26.812 -29.482  14.314  0.00  0.00    +0.068 C 
BRANCH  14  17
ATOM     16  C   LIG    1       25.636 -27.226  13.024  0.00  0.00    +0.008 C 
ATOM     17  C   LIG    1       26.729 -27.992  12.279  0.00  0.00    +0.056 C 
ENDBRANCH  14  17
BRANCH  14  18
ATOM     18  C   LIG    1       28.656 -29.595  12.763  0.00  0.00    +0.349 C 
ATOM     19  O   LIG    1       29.326 -30.164  13.671  0.00  0.00    -0.246 OA
BRANCH  18  20
ATOM     20  O   LIG    1       29.273 -29.166  11.655  0.00  0.00    -0.478 OA
ATOM     21  H   LIG    1       29.456 -29.928  11.043  0.00  0.00    +0.295 HD
ENDBRANCH  18  20
ENDBRANCH  14  18
ENDBRANCH  13  14
ENDBRANCH   7  13
ENDBRANCH   1   9
BRANCH   1  22
ATOM     22  C   LIG    1       25.025 -28.642   6.904  0.00  0.00    -0.037 A 
ATOM     23  C   LIG    1       25.896 -27.697   7.480  0.00  0.00    +0.008 A 
ATOM     24  C   LIG    1       26.002 -26.392   6.975  0.00  0.00    +0.046 A 
ATOM     25  C   LIG    1       25.269 -25.992   5.856  0.00  0.00    +0.122 A 
ATOM     26  C   LIG    1       24.364 -26.889   5.307  0.00  0.00    +0.046 A 
ATOM     27  C   LIG    1       24.240 -28.190   5.827  0.00  0.00    +0.008 A 
BRANCH  25  28
ATOM     28  O   LIG    1       25.516 -24.726   5.422  0.00  0.00    -0.475 OA
BRANCH  28  29
ATOM     29  C   LIG    1       24.981 -23.557   6.048  0.00  0.00    +0.203 C 
ATOM     30  C   LIG    1       24.687 -22.622   4.854  0.00  0.00    +0.068 C 
BRANCH  29  31
ATOM     31  C   LIG    1       25.918 -22.672   6.945  0.00  0.00    +0.349 C 
ATOM     32  O   LIG    1       25.930 -22.760   8.167  0.00  0.00    -0.246 OA
BRANCH  31  33
ATOM     33  O   LIG    1       26.685 -21.730   6.342  0.00  0.00    -0.478 OA
ATOM     34  H   LIG    1       26.271 -21.147   5.671  0.00  0.00    +0.295 HD
ENDBRANCH  31  33
ENDBRANCH  29  31
BRANCH  29  35
ATOM     35  C   LIG    1       23.608 -23.808   6.786  0.00  0.00    +0.056 C 
ATOM     36  C   LIG    1       22.564 -22.680   6.813  0.00  0.00    +0.008 C 
ENDBRANCH  29  35
ENDBRANCH  28  29
ENDBRANCH  25  28
ENDBRANCH   1  22
TORSDOF 12
ENDMDL
MODEL 9
REMARK VINA RESULT:      -7.7      3.879      9.479
REMARK  Name = *****
REMARK                            x       y       z     vdW  Elec       q    Type
REMARK                         _______ _______ _______ _____ _____    ______ ____
ROOT
ATOM      1  C   LIG    1       25.189 -29.978   7.908  0.00  0.00    +0.021 C 
ATOM      2  C   LIG    1       26.660 -30.474   8.170  0.00  0.00    +0.016 C 
ATOM      3  C   LIG    1       26.875 -31.982   8.307  0.00  0.00    +0.001 C 
ATOM      4  C   LIG    1       26.281 -32.750   7.139  0.00  0.00    +0.000 C 
ATOM      5  C   LIG    1       24.809 -32.427   6.975  0.00  0.00    +0.001 C 
ATOM      6  C   LIG    1       24.565 -30.918   6.802  0.00  0.00    +0.016 C 
ENDROOT
BRANCH   1   9
ATOM      7  C   LIG    1       24.398 -29.945  11.731  0.00  0.00    +0.122 A 
ATOM      8  C   LIG    1       25.039 -29.727  10.492  0.00  0.00    +0.050 A 
ATOM      9  C   LIG    1       24.407 -30.027   9.259  0.00  0.00    -0.033 A 
ATOM     10  C   LIG    1       23.062 -30.422   9.320  0.00  0.00    +0.005 A 
ATOM     11  C   LIG    1       22.424 -30.640  10.537  0.00  0.00    +0.004 A 
ATOM     12  C   LIG    1       23.090 -30.413  11.736  0.00  0.00    +0.045 A 
BRANCH   7  13
ATOM     13  O   LIG    1       25.131 -29.656  12.849  0.00  0.00    -0.475 OA
BRANCH  13  14
ATOM     14  C   LIG    1       25.219 -28.331  13.430  0.00  0.00    +0.203 C 
ATOM     15  C   LIG    1       25.419 -28.297  14.963  0.00  0.00    +0.068 C 
BRANCH  14  17
ATOM     16  C   LIG    1       23.632 -26.295  14.044  0.00  0.00    +0.008 C 
ATOM     17  C   LIG    1       24.038 -27.390  13.057  0.00  0.00    +0.056 C 
ENDBRANCH  14  17
BRANCH  14  18
ATOM     18  C   LIG    1       26.544 -27.833  12.881  0.00  0.00    +0.349 C 
ATOM     19  O   LIG    1       26.693 -26.745  12.255  0.00  0.00    -0.246 OA
BRANCH  18  20
ATOM     20  O   LIG    1       27.612 -28.601  13.134  0.00  0.00    -0.478 OA
ATOM     21  H   LIG    1       27.345 -29.557  13.190  0.00  0.00    +0.295 HD
ENDBRANCH  18  20
ENDBRANCH  14  18
ENDBRANCH  13  14
ENDBRANCH   7  13
ENDBRANCH   1   9
BRANCH   1  22
ATOM     22  C   LIG    1       25.175 -28.520   7.330  0.00  0.00    -0.037 A 
ATOM     23  C   LIG    1       26.099 -27.526   7.704  0.00  0.00    +0.008 A 
ATOM     24  C   LIG    1       26.087 -26.251   7.115  0.00  0.00    +0.046 A 
ATOM     25  C   LIG    1       25.176 -25.934   6.107  0.00  0.00    +0.122 A 
ATOM     26  C   LIG    1       24.220 -26.879   5.763  0.00  0.00    +0.046 A 
ATOM     27  C   LIG    1       24.216 -28.148   6.369  0.00  0.00    +0.008 A 
BRANCH  25  28
ATOM     28  O   LIG    1       25.314 -24.692   5.567  0.00  0.00    -0.475 OA
BRANCH  28  29
ATOM     29  C   LIG    1       24.915 -23.491   6.233  0.00  0.00    +0.203 C 
ATOM     30  C   LIG    1       23.531 -23.854   6.814  0.00  0.00    +0.068 C 
BRANCH  29  31
ATOM     31  C   LIG    1       24.597 -22.211   5.380  0.00  0.00    +0.349 C 
ATOM     32  O   LIG    1       23.451 -21.867   5.117  0.00  0.00    -0.246 OA
BRANCH  31  33
ATOM     33  O   LIG    1       25.634 -21.511   4.860  0.00  0.00    -0.478 OA
ATOM     34  H   LIG    1       26.495 -21.965   4.737  0.00  0.00    +0.295 HD
ENDBRANCH  31  33
ENDBRANCH  29  31
BRANCH  29  35
ATOM     35  C   LIG    1       25.841 -23.109   7.453  0.00  0.00    +0.056 C 
ATOM     36  C   LIG    1       25.484 -21.873   8.295  0.00  0.00    +0.008 C 
ENDBRANCH  29  35
ENDBRANCH  28  29
ENDBRANCH  25  28
ENDBRANCH   1  22
TORSDOF 12
ENDMDL
