MODEL 1
REMARK VINA RESULT:      -7.8      0.000      0.000
REMARK  Name = *****
REMARK                            x       y       z     vdW  Elec       q    Type
REMARK                         _______ _______ _______ _____ _____    ______ ____
ROOT
ATOM      1  N   LIG    1       25.896 -21.533   6.068  0.00  0.00    -0.297 N 
ATOM      2  C   LIG    1       25.173 -20.586   5.242  0.00  0.00    +0.048 A 
ATOM      3  C   LIG    1       23.776 -20.418   5.339  0.00  0.00    +0.034 A 
ATOM      4  C   LIG    1       23.143 -19.420   4.586  0.00  0.00    +0.017 A 
ATOM      5  C   LIG    1       23.880 -18.639   3.692  0.00  0.00    +0.001 A 
ATOM      6  C   LIG    1       25.248 -18.853   3.540  0.00  0.00    +0.002 A 
ATOM      7  S   LIG    1       22.785 -21.468   6.397  0.00  0.00    -0.086 S 
ATOM      8  C   LIG    1       23.862 -22.897   6.482  0.00  0.00    +0.034 A 
ATOM      9  C   LIG    1       23.287 -24.164   6.670  0.00  0.00    +0.017 A 
ATOM     10  C   LIG    1       24.097 -25.303   6.668  0.00  0.00    +0.001 A 
ATOM     11  C   LIG    1       25.466 -25.197   6.480  0.00  0.00    +0.002 A 
ATOM     12  C   LIG    1       26.048 -23.938   6.304  0.00  0.00    +0.024 A 
ATOM     13  C   LIG    1       25.898 -19.815   4.319  0.00  0.00    +0.024 A 
ATOM     14  C   LIG    1       25.252 -22.782   6.324  0.00  0.00    +0.048 A 
ENDROOT
BRANCH   1  15
ATOM     15  C   LIG    1       26.167 -20.795   7.353  0.00  0.00    +0.129 C 
BRANCH  15  16
ATOM     16  C   LIG    1       27.640 -20.723   7.855  0.00  0.00    +0.071 C 
ATOM     17  C   LIG    1       28.408 -21.998   7.470  0.00  0.00    +0.026 C 
BRANCH  16  18
ATOM     18  N   LIG    1       28.421 -19.508   7.441  0.00  0.00    -0.299 NA
BRANCH  18  20
ATOM     19  C   LIG    1       30.805 -19.429   8.439  0.00  0.00    +0.020 C 
ATOM     20  C   LIG    1       29.357 -18.939   8.424  0.00  0.00    +0.081 C 
ENDBRANCH  18  20
BRANCH  18  21
ATOM     21  C   LIG    1       28.961 -19.626   6.077  0.00  0.00    +0.081 C 
ATOM     22  C   LIG    1       29.203 -18.296   5.356  0.00  0.00    +0.020 C 
ENDBRANCH  18  21
ENDBRANCH  16  18
ENDBRANCH  15  16
ENDBRANCH   1  15
TORSDOF 5
ENDMDL
MODEL 2
REMARK VINA RESULT:      -7.6      1.244      1.727
REMARK  Name = *****
REMARK                            x       y       z     vdW  Elec       q    Type
REMARK                         _______ _______ _______ _____ _____    ______ ____
ROOT
ATOM      1  N   LIG    1       25.714 -22.785   6.077  0.00  0.00    -0.297 N 
ATOM      2  C   LIG    1       24.714 -21.855   5.593  0.00  0.00    +0.048 A 
ATOM      3  C   LIG    1       23.347 -21.983   5.919  0.00  0.00    +0.034 A 
ATOM      4  C   LIG    1       22.439 -21.000   5.505  0.00  0.00    +0.017 A 
ATOM      5  C   LIG    1       22.871 -19.932   4.715  0.00  0.00    +0.001 A 
ATOM      6  C   LIG    1       24.206 -19.842   4.329  0.00  0.00    +0.002 A 
ATOM      7  S   LIG    1       22.742 -23.392   6.843  0.00  0.00    -0.086 S 
ATOM      8  C   LIG    1       24.031 -24.573   6.454  0.00  0.00    +0.034 A 
ATOM      9  C   LIG    1       23.710 -25.939   6.433  0.00  0.00    +0.017 A 
ATOM     10  C   LIG    1       24.678 -26.876   6.062  0.00  0.00    +0.001 A 
ATOM     11  C   LIG    1       25.957 -26.472   5.714  0.00  0.00    +0.002 A 
ATOM     12  C   LIG    1       26.289 -25.114   5.744  0.00  0.00    +0.024 A 
ATOM     13  C   LIG    1       25.130 -20.792   4.774  0.00  0.00    +0.024 A 
ATOM     14  C   LIG    1       25.335 -24.161   6.134  0.00  0.00    +0.048 A 
ENDROOT
BRANCH   1  15
ATOM     15  C   LIG    1       26.087 -22.275   7.444  0.00  0.00    +0.129 C 
BRANCH  15  16
ATOM     16  C   LIG    1       26.547 -20.791   7.567  0.00  0.00    +0.071 C 
ATOM     17  C   LIG    1       26.121 -20.202   8.922  0.00  0.00    +0.026 C 
BRANCH  16  18
ATOM     18  N   LIG    1       28.007 -20.530   7.330  0.00  0.00    -0.299 NA
BRANCH  18  20
ATOM     19  C   LIG    1       30.239 -21.200   8.452  0.00  0.00    +0.020 C 
ATOM     20  C   LIG    1       28.955 -21.588   7.719  0.00  0.00    +0.081 C 
ENDBRANCH  18  20
BRANCH  18  21
ATOM     21  C   LIG    1       28.263 -19.932   6.009  0.00  0.00    +0.081 C 
ATOM     22  C   LIG    1       29.273 -18.780   6.003  0.00  0.00    +0.020 C 
ENDBRANCH  18  21
ENDBRANCH  16  18
ENDBRANCH  15  16
ENDBRANCH   1  15
TORSDOF 5
ENDMDL
MODEL 3
REMARK VINA RESULT:      -7.5      0.902      1.460
REMARK  Name = *****
REMARK                            x       y       z     vdW  Elec       q    Type
REMARK                         _______ _______ _______ _____ _____    ______ ____
ROOT
ATOM      1  N   LIG    1       25.632 -21.614   5.513  0.00  0.00    -0.297 N 
ATOM      2  C   LIG    1       24.693 -20.610   5.052  0.00  0.00    +0.048 A 
ATOM      3  C   LIG    1       23.425 -20.439   5.645  0.00  0.00    +0.034 A 
ATOM      4  C   LIG    1       22.597 -19.389   5.226  0.00  0.00    +0.017 A 
ATOM      5  C   LIG    1       22.997 -18.555   4.178  0.00  0.00    +0.001 A 
ATOM      6  C   LIG    1       24.217 -18.768   3.541  0.00  0.00    +0.002 A 
ATOM      7  S   LIG    1       22.838 -21.551   6.920  0.00  0.00    -0.086 S 
ATOM      8  C   LIG    1       23.833 -22.989   6.534  0.00  0.00    +0.034 A 
ATOM      9  C   LIG    1       23.324 -24.262   6.836  0.00  0.00    +0.017 A 
ATOM     10  C   LIG    1       24.047 -25.404   6.480  0.00  0.00    +0.001 A 
ATOM     11  C   LIG    1       25.266 -25.294   5.829  0.00  0.00    +0.002 A 
ATOM     12  C   LIG    1       25.785 -24.030   5.535  0.00  0.00    +0.024 A 
ATOM     13  C   LIG    1       25.070 -19.783   3.981  0.00  0.00    +0.024 A 
ATOM     14  C   LIG    1       25.082 -22.873   5.904  0.00  0.00    +0.048 A 
ENDROOT
BRANCH   1  15
ATOM     15  C   LIG    1       26.359 -20.966   6.662  0.00  0.00    +0.129 C 
BRANCH  15  16
ATOM     16  C   LIG    1       27.882 -20.687   6.496  0.00  0.00    +0.071 C 
ATOM     17  C   LIG    1       28.120 -19.553   5.485  0.00  0.00    +0.026 C 
BRANCH  16  18
ATOM     18  N   LIG    1       28.646 -20.415   7.761  0.00  0.00    -0.299 NA
BRANCH  18  20
ATOM     19  C   LIG    1       30.689 -21.632   8.777  0.00  0.00    +0.020 C 
ATOM     20  C   LIG    1       29.190 -21.577   8.484  0.00  0.00    +0.081 C 
ENDBRANCH  18  20
BRANCH  18  21
ATOM     21  C   LIG    1       29.582 -19.287   7.621  0.00  0.00    +0.081 C 
ATOM     22  C   LIG    1       29.685 -18.373   8.846  0.00  0.00    +0.020 C 
ENDBRANCH  18  21
ENDBRANCH  16  18
ENDBRANCH  15  16
ENDBRANCH   1  15
TORSDOF 5
ENDMDL
MODEL 4
REMARK VINA RESULT:      -7.3      1.778      5.407
REMARK  Name = *****
REMARK                            x       y       z     vdW  Elec       q    Type
REMARK                         _______ _______ _______ _____ _____    ______ ____
ROOT
ATOM      1  N   LIG    1       25.122 -21.441   6.403  0.00  0.00    -0.297 N 
ATOM      2  C   LIG    1       24.287 -20.544   5.628  0.00  0.00    +0.048 A 
ATOM      3  C   LIG    1       24.798 -19.779   4.558  0.00  0.00    +0.034 A 
ATOM      4  C   LIG    1       23.927 -19.004   3.781  0.00  0.00    +0.017 A 
ATOM      5  C   LIG    1       22.570 -18.934   4.105  0.00  0.00    +0.001 A 
ATOM      6  C   LIG    1       22.076 -19.629   5.207  0.00  0.00    +0.002 A 
ATOM      7  S   LIG    1       26.547 -19.766   4.178  0.00  0.00    -0.086 S 
ATOM      8  C   LIG    1       27.199 -20.228   5.781  0.00  0.00    +0.034 A 
ATOM      9  C   LIG    1       28.475 -19.772   6.147  0.00  0.00    +0.017 A 
ATOM     10  C   LIG    1       28.977 -20.058   7.419  0.00  0.00    +0.001 A 
ATOM     11  C   LIG    1       28.228 -20.788   8.328  0.00  0.00    +0.002 A 
ATOM     12  C   LIG    1       26.961 -21.256   7.967  0.00  0.00    +0.024 A 
ATOM     13  C   LIG    1       22.927 -20.442   5.961  0.00  0.00    +0.024 A 
ATOM     14  C   LIG    1       26.450 -20.997   6.686  0.00  0.00    +0.048 A 
ENDROOT
BRANCH   1  15
ATOM     15  C   LIG    1       25.143 -22.725   5.617  0.00  0.00    +0.129 C 
BRANCH  15  16
ATOM     16  C   LIG    1       24.803 -24.046   6.369  0.00  0.00    +0.071 C 
ATOM     17  C   LIG    1       23.307 -24.103   6.718  0.00  0.00    +0.026 C 
BRANCH  16  18
ATOM     18  N   LIG    1       25.220 -25.320   5.690  0.00  0.00    -0.299 NA
BRANCH  18  20
ATOM     19  C   LIG    1       26.272 -26.902   7.445  0.00  0.00    +0.020 C 
ATOM     20  C   LIG    1       26.413 -26.005   6.215  0.00  0.00    +0.081 C 
ENDBRANCH  18  20
BRANCH  18  21
ATOM     21  C   LIG    1       24.079 -26.206   5.408  0.00  0.00    +0.081 C 
ATOM     22  C   LIG    1       24.451 -27.631   4.986  0.00  0.00    +0.020 C 
ENDBRANCH  18  21
ENDBRANCH  16  18
ENDBRANCH  15  16
ENDBRANCH   1  15
TORSDOF 5
ENDMDL
MODEL 5
REMARK VINA RESULT:      -7.0      1.673      5.349
REMARK  Name = *****
REMARK                            x       y       z     vdW  Elec       q    Type
REMARK                         _______ _______ _______ _____ _____    ______ ____
ROOT
ATOM      1  N   LIG    1       25.869 -20.972   6.646  0.00  0.00    -0.297 N 
ATOM      2  C   LIG    1       24.787 -20.362   5.899  0.00  0.00    +0.048 A 
ATOM      3  C   LIG    1       24.991 -19.752   4.643  0.00  0.00    +0.034 A 
ATOM      4  C   LIG    1       23.894 -19.265   3.920  0.00  0.00    +0.017 A 
ATOM      5  C   LIG    1       22.610 -19.322   4.469  0.00  0.00    +0.001 A 
ATOM      6  C   LIG    1       22.415 -19.856   5.740  0.00  0.00    +0.002 A 
ATOM      7  S   LIG    1       26.634 -19.571   3.955  0.00  0.00    -0.086 S 
ATOM      8  C   LIG    1       27.592 -19.626   5.468  0.00  0.00    +0.034 A 
ATOM      9  C   LIG    1       28.814 -18.937   5.517  0.00  0.00    +0.017 A 
ATOM     10  C   LIG    1       29.547 -18.904   6.707  0.00  0.00    +0.001 A 
ATOM     11  C   LIG    1       29.079 -19.544   7.843  0.00  0.00    +0.002 A 
ATOM     12  C   LIG    1       27.869 -20.242   7.799  0.00  0.00    +0.024 A 
ATOM     13  C   LIG    1       23.496 -20.386   6.451  0.00  0.00    +0.024 A 
ATOM     14  C   LIG    1       27.130 -20.303   6.607  0.00  0.00    +0.048 A 
ENDROOT
BRANCH   1  15
ATOM     15  C   LIG    1       25.983 -22.367   6.090  0.00  0.00    +0.129 C 
BRANCH  15  16
ATOM     16  C   LIG    1       26.073 -23.549   7.101  0.00  0.00    +0.071 C 
ATOM     17  C   LIG    1       25.851 -23.051   8.539  0.00  0.00    +0.026 C 
BRANCH  16  18
ATOM     18  N   LIG    1       25.183 -24.727   6.822  0.00  0.00    -0.299 NA
BRANCH  18  20
ATOM     19  C   LIG    1       22.743 -23.871   6.763  0.00  0.00    +0.020 C 
ATOM     20  C   LIG    1       23.953 -24.476   6.052  0.00  0.00    +0.081 C 
ENDBRANCH  18  20
BRANCH  18  21
ATOM     21  C   LIG    1       25.941 -25.915   6.399  0.00  0.00    +0.081 C 
ATOM     22  C   LIG    1       25.662 -26.388   4.968  0.00  0.00    +0.020 C 
ENDBRANCH  18  21
ENDBRANCH  16  18
ENDBRANCH  15  16
ENDBRANCH   1  15
TORSDOF 5
ENDMDL
MODEL 6
REMARK VINA RESULT:      -6.4      1.760      5.685
REMARK  Name = *****
REMARK                            x       y       z     vdW  Elec       q    Type
REMARK                         _______ _______ _______ _____ _____    ______ ____
ROOT
ATOM      1  N   LIG    1       25.559 -21.685   5.507  0.00  0.00    -0.297 N 
ATOM      2  C   LIG    1       25.421 -23.091   5.828  0.00  0.00    +0.048 A 
ATOM      3  C   LIG    1       25.659 -23.593   7.125  0.00  0.00    +0.034 A 
ATOM      4  C   LIG    1       25.416 -24.945   7.403  0.00  0.00    +0.017 A 
ATOM      5  C   LIG    1       25.004 -25.808   6.384  0.00  0.00    +0.001 A 
ATOM      6  C   LIG    1       24.840 -25.331   5.086  0.00  0.00    +0.002 A 
ATOM      7  S   LIG    1       26.284 -22.537   8.429  0.00  0.00    -0.086 S 
ATOM      8  C   LIG    1       27.077 -21.278   7.431  0.00  0.00    +0.034 A 
ATOM      9  C   LIG    1       28.186 -20.599   7.959  0.00  0.00    +0.017 A 
ATOM     10  C   LIG    1       28.867 -19.664   7.175  0.00  0.00    +0.001 A 
ATOM     11  C   LIG    1       28.460 -19.398   5.877  0.00  0.00    +0.002 A 
ATOM     12  C   LIG    1       27.349 -20.062   5.348  0.00  0.00    +0.024 A 
ATOM     13  C   LIG    1       25.036 -23.975   4.807  0.00  0.00    +0.024 A 
ATOM     14  C   LIG    1       26.641 -20.989   6.128  0.00  0.00    +0.048 A 
ENDROOT
BRANCH   1  15
ATOM     15  C   LIG    1       24.238 -21.070   5.886  0.00  0.00    +0.129 C 
BRANCH  15  16
ATOM     16  C   LIG    1       23.299 -20.594   4.738  0.00  0.00    +0.071 C 
ATOM     17  C   LIG    1       21.832 -20.920   5.066  0.00  0.00    +0.026 C 
BRANCH  16  18
ATOM     18  N   LIG    1       23.426 -19.152   4.335  0.00  0.00    -0.299 NA
BRANCH  18  20
ATOM     19  C   LIG    1       25.522 -17.964   3.395  0.00  0.00    +0.020 C 
ATOM     20  C   LIG    1       24.293 -18.847   3.184  0.00  0.00    +0.081 C 
ENDBRANCH  18  20
BRANCH  18  21
ATOM     21  C   LIG    1       22.130 -18.454   4.329  0.00  0.00    +0.081 C 
ATOM     22  C   LIG    1       22.191 -16.970   4.705  0.00  0.00    +0.020 C 
ENDBRANCH  18  21
ENDBRANCH  16  18
ENDBRANCH  15  16
ENDBRANCH   1  15
TORSDOF 5
ENDMDL
MODEL 7
REMARK VINA RESULT:      -5.6      6.993     10.568
REMARK  Name = *****
REMARK                            x       y       z     vdW  Elec       q    Type
REMARK                         _______ _______ _______ _____ _____    ______ ____
ROOT
ATOM      1  N   LIG    1       24.353 -30.270   7.710  0.00  0.00    -0.297 N 
ATOM      2  C   LIG    1       24.765 -28.991   7.168  0.00  0.00    +0.048 A 
ATOM      3  C   LIG    1       25.735 -28.184   7.801  0.00  0.00    +0.034 A 
ATOM      4  C   LIG    1       26.167 -27.004   7.183  0.00  0.00    +0.017 A 
ATOM      5  C   LIG    1       25.592 -26.590   5.978  0.00  0.00    +0.001 A 
ATOM      6  C   LIG    1       24.582 -27.346   5.389  0.00  0.00    +0.002 A 
ATOM      7  S   LIG    1       26.419 -28.632   9.394  0.00  0.00    -0.086 S 
ATOM      8  C   LIG    1       25.089 -29.665  10.003  0.00  0.00    +0.034 A 
ATOM      9  C   LIG    1       24.879 -29.745  11.389  0.00  0.00    +0.017 A 
ATOM     10  C   LIG    1       23.804 -30.486  11.888  0.00  0.00    +0.001 A 
ATOM     11  C   LIG    1       22.939 -31.144  11.029  0.00  0.00    +0.002 A 
ATOM     12  C   LIG    1       23.148 -31.079   9.648  0.00  0.00    +0.024 A 
ATOM     13  C   LIG    1       24.175 -28.549   5.973  0.00  0.00    +0.024 A 
ATOM     14  C   LIG    1       24.235 -30.357   9.130  0.00  0.00    +0.048 A 
ENDROOT
BRANCH   1  15
ATOM     15  C   LIG    1       25.371 -31.254   7.195  0.00  0.00    +0.129 C 
BRANCH  15  16
ATOM     16  C   LIG    1       24.852 -32.591   6.588  0.00  0.00    +0.071 C 
ATOM     17  C   LIG    1       23.443 -32.409   6.000  0.00  0.00    +0.026 C 
BRANCH  16  18
ATOM     18  N   LIG    1       25.748 -33.252   5.580  0.00  0.00    -0.299 NA
BRANCH  18  20
ATOM     19  C   LIG    1       25.731 -32.786   3.036  0.00  0.00    +0.020 C 
ATOM     20  C   LIG    1       25.179 -33.532   4.251  0.00  0.00    +0.081 C 
ENDBRANCH  18  20
BRANCH  18  21
ATOM     21  C   LIG    1       27.098 -32.663   5.557  0.00  0.00    +0.081 C 
ATOM     22  C   LIG    1       28.221 -33.596   6.018  0.00  0.00    +0.020 C 
ENDBRANCH  18  21
ENDBRANCH  16  18
ENDBRANCH  15  16
ENDBRANCH   1  15
TORSDOF 5
ENDMDL
MODEL 8
REMARK VINA RESULT:      -5.5      2.042      5.643
REMARK  Name = *****
REMARK                            x       y       z     vdW  Elec       q    Type
REMARK                         _______ _______ _______ _____ _____    ______ ____
ROOT
ATOM      1  N   LIG    1       25.171 -21.413   4.984  0.00  0.00    -0.297 N 
ATOM      2  C   LIG    1       25.787 -21.356   6.295  0.00  0.00    +0.048 A 
ATOM      3  C   LIG    1       25.042 -21.092   7.464  0.00  0.00    +0.034 A 
ATOM      4  C   LIG    1       25.671 -21.147   8.715  0.00  0.00    +0.017 A 
ATOM      5  C   LIG    1       27.043 -21.395   8.802  0.00  0.00    +0.001 A 
ATOM      6  C   LIG    1       27.795 -21.583   7.644  0.00  0.00    +0.002 A 
ATOM      7  S   LIG    1       23.304 -20.671   7.383  0.00  0.00    -0.086 S 
ATOM      8  C   LIG    1       23.235 -20.035   5.709  0.00  0.00    +0.034 A 
ATOM      9  C   LIG    1       22.280 -19.055   5.399  0.00  0.00    +0.017 A 
ATOM     10  C   LIG    1       22.252 -18.490   4.121  0.00  0.00    +0.001 A 
ATOM     11  C   LIG    1       23.159 -18.887   3.152  0.00  0.00    +0.002 A 
ATOM     12  C   LIG    1       24.106 -19.872   3.449  0.00  0.00    +0.024 A 
ATOM     13  C   LIG    1       27.170 -21.576   6.394  0.00  0.00    +0.024 A 
ATOM     14  C   LIG    1       24.136 -20.465   4.721  0.00  0.00    +0.048 A 
ENDROOT
BRANCH   1  15
ATOM     15  C   LIG    1       24.652 -22.821   4.861  0.00  0.00    +0.129 C 
BRANCH  15  16
ATOM     16  C   LIG    1       24.827 -23.772   6.082  0.00  0.00    +0.071 C 
ATOM     17  C   LIG    1       23.460 -24.145   6.679  0.00  0.00    +0.026 C 
BRANCH  16  18
ATOM     18  N   LIG    1       25.638 -25.014   5.843  0.00  0.00    -0.299 NA
BRANCH  18  20
ATOM     19  C   LIG    1       25.780 -27.195   7.225  0.00  0.00    +0.020 C 
ATOM     20  C   LIG    1       26.150 -25.725   7.026  0.00  0.00    +0.081 C 
ENDBRANCH  18  20
BRANCH  18  21
ATOM     21  C   LIG    1       25.043 -25.884   4.814  0.00  0.00    +0.081 C 
ATOM     22  C   LIG    1       26.007 -26.890   4.178  0.00  0.00    +0.020 C 
ENDBRANCH  18  21
ENDBRANCH  16  18
ENDBRANCH  15  16
ENDBRANCH   1  15
TORSDOF 5
ENDMDL
MODEL 9
REMARK VINA RESULT:      -5.4      7.133     10.080
REMARK  Name = *****
REMARK                            x       y       z     vdW  Elec       q    Type
REMARK                         _______ _______ _______ _____ _____    ______ ____
ROOT
ATOM      1  N   LIG    1       25.667 -29.896   8.615  0.00  0.00    -0.297 N 
ATOM      2  C   LIG    1       25.358 -28.987   7.529  0.00  0.00    +0.048 A 
ATOM      3  C   LIG    1       24.608 -29.388   6.403  0.00  0.00    +0.034 A 
ATOM      4  C   LIG    1       24.254 -28.443   5.431  0.00  0.00    +0.017 A 
ATOM      5  C   LIG    1       24.699 -27.123   5.541  0.00  0.00    +0.001 A 
ATOM      6  C   LIG    1       25.501 -26.741   6.613  0.00  0.00    +0.002 A 
ATOM      7  S   LIG    1       24.109 -31.093   6.180  0.00  0.00    -0.086 S 
ATOM      8  C   LIG    1       25.362 -31.898   7.176  0.00  0.00    +0.034 A 
ATOM      9  C   LIG    1       25.758 -33.201   6.836  0.00  0.00    +0.017 A 
ATOM     10  C   LIG    1       26.784 -33.824   7.551  0.00  0.00    +0.001 A 
ATOM     11  C   LIG    1       27.418 -33.170   8.595  0.00  0.00    +0.002 A 
ATOM     12  C   LIG    1       27.021 -31.876   8.947  0.00  0.00    +0.024 A 
ATOM     13  C   LIG    1       25.822 -27.664   7.612  0.00  0.00    +0.024 A 
ATOM     14  C   LIG    1       25.978 -31.243   8.254  0.00  0.00    +0.048 A 
ENDROOT
BRANCH   1  15
ATOM     15  C   LIG    1       24.461 -29.848   9.516  0.00  0.00    +0.129 C 
BRANCH  15  16
ATOM     16  C   LIG    1       24.701 -29.673  11.045  0.00  0.00    +0.071 C 
ATOM     17  C   LIG    1       25.888 -28.732  11.305  0.00  0.00    +0.026 C 
BRANCH  16  18
ATOM     18  N   LIG    1       23.512 -29.237  11.855  0.00  0.00    -0.299 NA
BRANCH  18  20
ATOM     19  C   LIG    1       21.245 -30.394  11.397  0.00  0.00    +0.020 C 
ATOM     20  C   LIG    1       22.528 -30.270  12.219  0.00  0.00    +0.081 C 
ENDBRANCH  18  20
BRANCH  18  21
ATOM     21  C   LIG    1       23.884 -28.329  12.952  0.00  0.00    +0.081 C 
ATOM     22  C   LIG    1       22.905 -27.177  13.201  0.00  0.00    +0.020 C 
ENDBRANCH  18  21
ENDBRANCH  16  18
ENDBRANCH  15  16
ENDBRANCH   1  15
TORSDOF 5
ENDMDL
