MODEL 1
REMARK VINA RESULT:      -2.3      0.000      0.000
REMARK  Name = *****
REMARK                            x       y       z     vdW  Elec       q    Type
REMARK                         _______ _______ _______ _____ _____    ______ ____
ROOT
ATOM      1  N   LIG    1       21.272 -18.503   4.076  0.00  0.00    -0.311 NA
ATOM      2  H   LIG    1       20.382 -18.766   3.652  0.00  0.00    +0.122 HD
ENDROOT
BRANCH   1   3
ATOM      3  C   LIG    1       21.486 -17.062   3.872  0.00  0.00    +0.115 C 
BRANCH   3   4
ATOM      4  C   LIG    1       22.545 -16.501   4.845  0.00  0.00    +0.169 C 
BRANCH   4   5
ATOM      5  C   LIG    1       23.769 -15.922   4.102  0.00  0.00    +0.203 C 
ATOM      6  O   LIG    1       24.272 -14.816   4.866  0.00  0.00    -0.486 OA
ATOM      7  C   LIG    1       25.502 -14.350   4.502  0.00  0.00    +0.124 A 
ATOM      8  C   LIG    1       26.373 -15.045   3.652  0.00  0.00    -0.003 A 
ATOM      9  C   LIG    1       27.618 -14.485   3.348  0.00  0.00    +0.045 A 
ATOM     10  C   LIG    1       27.989 -13.262   3.904  0.00  0.00    +0.124 A 
ATOM     11  C   LIG    1       27.132 -12.581   4.762  0.00  0.00    +0.042 A 
ATOM     12  F   LIG    1       29.183 -12.739   3.611  0.00  0.00    -0.205 F 
ATOM     13  C   LIG    1       25.980 -16.362   3.056  0.00  0.00    +0.042 C 
ATOM     14  C   LIG    1       25.888 -13.129   5.062  0.00  0.00    +0.049 A 
ATOM     15  C   LIG    1       24.849 -16.980   3.855  0.00  0.00    +0.052 C 
ENDBRANCH   4   5
BRANCH   4  16
ATOM     16  O   LIG    1       21.963 -15.484   5.675  0.00  0.00    -0.387 OA
ATOM     17  H   LIG    1       21.055 -15.782   5.863  0.00  0.00    +0.210 HD
ENDBRANCH   4  16
ENDBRANCH   3   4
ENDBRANCH   1   3
BRANCH   1  18
ATOM     18  C   LIG    1       22.359 -19.275   3.449  0.00  0.00    +0.115 C 
BRANCH  18  19
ATOM     19  C   LIG    1       22.395 -20.739   3.948  0.00  0.00    +0.169 C 
BRANCH  19  20
ATOM     20  C   LIG    1       23.676 -21.023   4.764  0.00  0.00    +0.203 C 
ATOM     21  O   LIG    1       24.725 -20.180   4.245  0.00  0.00    -0.486 OA
ATOM     22  C   LIG    1       25.863 -20.129   5.002  0.00  0.00    +0.124 A 
ATOM     23  C   LIG    1       25.925 -20.559   6.334  0.00  0.00    -0.003 A 
ATOM     24  C   LIG    1       27.141 -20.464   7.023  0.00  0.00    +0.045 A 
ATOM     25  C   LIG    1       28.257 -19.921   6.393  0.00  0.00    +0.124 A 
ATOM     26  C   LIG    1       28.188 -19.472   5.078  0.00  0.00    +0.042 A 
ATOM     27  F   LIG    1       29.412 -19.827   7.062  0.00  0.00    -0.205 F 
ATOM     28  C   LIG    1       24.717 -21.134   7.012  0.00  0.00    +0.042 C 
ATOM     29  C   LIG    1       26.986 -19.575   4.382  0.00  0.00    +0.049 A 
ATOM     30  C   LIG    1       23.454 -20.755   6.253  0.00  0.00    +0.052 C 
ENDBRANCH  19  20
BRANCH  19  31
ATOM     31  O   LIG    1       21.244 -21.016   4.759  0.00  0.00    -0.387 OA
ATOM     32  H   LIG    1       21.495 -21.762   5.335  0.00  0.00    +0.210 HD
ENDBRANCH  19  31
ENDBRANCH  18  19
ENDBRANCH   1  18
TORSDOF 8
ENDMDL
MODEL 2
REMARK VINA RESULT:      -2.2      0.987      6.272
REMARK  Name = *****
REMARK                            x       y       z     vdW  Elec       q    Type
REMARK                         _______ _______ _______ _____ _____    ______ ____
ROOT
ATOM      1  N   LIG    1       22.223 -18.347   4.710  0.00  0.00    -0.311 NA
ATOM      2  H   LIG    1       22.977 -18.570   5.360  0.00  0.00    +0.122 HD
ENDROOT
BRANCH   1   3
ATOM      3  C   LIG    1       22.288 -19.278   3.572  0.00  0.00    +0.115 C 
BRANCH   3   4
ATOM      4  C   LIG    1       22.391 -20.745   4.041  0.00  0.00    +0.169 C 
BRANCH   4   5
ATOM      5  C   LIG    1       23.700 -21.017   4.814  0.00  0.00    +0.203 C 
ATOM      6  O   LIG    1       24.712 -20.138   4.302  0.00  0.00    -0.486 OA
ATOM      7  C   LIG    1       25.857 -20.052   5.040  0.00  0.00    +0.124 A 
ATOM      8  C   LIG    1       25.971 -20.534   6.351  0.00  0.00    -0.003 A 
ATOM      9  C   LIG    1       27.187 -20.388   7.027  0.00  0.00    +0.045 A 
ATOM     10  C   LIG    1       28.259 -19.751   6.405  0.00  0.00    +0.124 A 
ATOM     11  C   LIG    1       28.140 -19.256   5.111  0.00  0.00    +0.042 A 
ATOM     12  F   LIG    1       29.414 -19.612   7.062  0.00  0.00    -0.205 F 
ATOM     13  C   LIG    1       24.819 -21.217   7.024  0.00  0.00    +0.042 C 
ATOM     14  C   LIG    1       26.935 -19.405   4.430  0.00  0.00    +0.049 A 
ATOM     15  C   LIG    1       23.520 -20.858   6.327  0.00  0.00    +0.052 C 
ENDBRANCH   4   5
BRANCH   4  16
ATOM     16  O   LIG    1       21.267 -21.078   4.869  0.00  0.00    -0.387 OA
ATOM     17  H   LIG    1       21.140 -20.317   5.465  0.00  0.00    +0.210 HD
ENDBRANCH   4  16
ENDBRANCH   3   4
ENDBRANCH   1   3
BRANCH   1  18
ATOM     18  C   LIG    1       22.373 -16.958   4.243  0.00  0.00    +0.115 C 
BRANCH  18  19
ATOM     19  C   LIG    1       22.746 -15.995   5.395  0.00  0.00    +0.169 C 
BRANCH  19  20
ATOM     20  C   LIG    1       23.547 -14.781   4.874  0.00  0.00    +0.203 C 
ATOM     21  O   LIG    1       24.949 -15.114   4.947  0.00  0.00    -0.486 OA
ATOM     22  C   LIG    1       25.790 -14.246   4.307  0.00  0.00    +0.124 A 
ATOM     23  C   LIG    1       25.358 -13.304   3.365  0.00  0.00    -0.003 A 
ATOM     24  C   LIG    1       26.301 -12.460   2.765  0.00  0.00    +0.045 A 
ATOM     25  C   LIG    1       27.650 -12.586   3.085  0.00  0.00    +0.124 A 
ATOM     26  C   LIG    1       28.082 -13.538   4.002  0.00  0.00    +0.042 A 
ATOM     27  F   LIG    1       28.544 -11.781   2.500  0.00  0.00    -0.205 F 
ATOM     28  C   LIG    1       23.904 -13.179   3.016  0.00  0.00    +0.042 C 
ATOM     29  C   LIG    1       27.147 -14.372   4.612  0.00  0.00    +0.049 A 
ATOM     30  C   LIG    1       23.149 -14.429   3.440  0.00  0.00    +0.052 C 
ENDBRANCH  19  20
BRANCH  19  31
ATOM     31  O   LIG    1       21.561 -15.534   6.060  0.00  0.00    -0.387 OA
ATOM     32  H   LIG    1       21.728 -15.648   7.014  0.00  0.00    +0.210 HD
ENDBRANCH  19  31
ENDBRANCH  18  19
ENDBRANCH   1  18
TORSDOF 8
ENDMDL
MODEL 3
REMARK VINA RESULT:       0.3      2.928      5.819
REMARK  Name = *****
REMARK                            x       y       z     vdW  Elec       q    Type
REMARK                         _______ _______ _______ _____ _____    ______ ____
ROOT
ATOM      1  N   LIG    1       25.922 -13.123   4.841  0.00  0.00    -0.311 NA
ATOM      2  H   LIG    1       25.940 -12.106   4.767  0.00  0.00    +0.122 HD
ENDROOT
BRANCH   1   3
ATOM      3  C   LIG    1       26.669 -13.694   3.709  0.00  0.00    +0.115 C 
BRANCH   3   4
ATOM      4  C   LIG    1       28.073 -14.172   4.137  0.00  0.00    +0.169 C 
BRANCH   4   5
ATOM      5  C   LIG    1       28.210 -15.709   4.068  0.00  0.00    +0.203 C 
ATOM      6  O   LIG    1       28.769 -16.164   5.309  0.00  0.00    -0.486 OA
ATOM      7  C   LIG    1       28.717 -17.510   5.530  0.00  0.00    +0.124 A 
ATOM      8  C   LIG    1       27.929 -18.388   4.774  0.00  0.00    -0.003 A 
ATOM      9  C   LIG    1       27.937 -19.751   5.088  0.00  0.00    +0.045 A 
ATOM     10  C   LIG    1       28.705 -20.218   6.153  0.00  0.00    +0.124 A 
ATOM     11  C   LIG    1       29.473 -19.343   6.915  0.00  0.00    +0.042 A 
ATOM     12  F   LIG    1       28.701 -21.521   6.447  0.00  0.00    -0.205 F 
ATOM     13  C   LIG    1       27.100 -17.889   3.630  0.00  0.00    +0.042 C 
ATOM     14  C   LIG    1       29.475 -17.987   6.602  0.00  0.00    +0.049 A 
ATOM     15  C   LIG    1       26.874 -16.395   3.761  0.00  0.00    +0.052 C 
ENDBRANCH   4   5
BRANCH   4  16
ATOM     16  O   LIG    1       29.075 -13.565   3.308  0.00  0.00    -0.387 OA
ATOM     17  H   LIG    1       29.616 -13.015   3.904  0.00  0.00    +0.210 HD
ENDBRANCH   4  16
ENDBRANCH   3   4
ENDBRANCH   1   3
BRANCH   1  18
ATOM     18  C   LIG    1       24.524 -13.590   4.818  0.00  0.00    +0.115 C 
BRANCH  18  19
ATOM     19  C   LIG    1       24.161 -14.270   3.477  0.00  0.00    +0.169 C 
BRANCH  19  20
ATOM     20  C   LIG    1       23.297 -15.531   3.704  0.00  0.00    +0.203 C 
ATOM     21  O   LIG    1       24.160 -16.682   3.594  0.00  0.00    -0.486 OA
ATOM     22  C   LIG    1       23.609 -17.866   4.000  0.00  0.00    +0.124 A 
ATOM     23  C   LIG    1       22.448 -17.953   4.778  0.00  0.00    -0.003 A 
ATOM     24  C   LIG    1       21.965 -19.216   5.141  0.00  0.00    +0.045 A 
ATOM     25  C   LIG    1       22.654 -20.362   4.754  0.00  0.00    +0.124 A 
ATOM     26  C   LIG    1       23.821 -20.275   4.002  0.00  0.00    +0.042 A 
ATOM     27  F   LIG    1       22.189 -21.564   5.114  0.00  0.00    -0.205 F 
ATOM     28  C   LIG    1       21.714 -16.714   5.201  0.00  0.00    +0.042 C 
ATOM     29  C   LIG    1       24.300 -19.022   3.627  0.00  0.00    +0.049 A 
ATOM     30  C   LIG    1       22.615 -15.495   5.072  0.00  0.00    +0.052 C 
ENDBRANCH  19  20
BRANCH  19  31
ATOM     31  O   LIG    1       23.453 -13.354   2.630  0.00  0.00    -0.387 OA
ATOM     32  H   LIG    1       22.599 -13.187   3.071  0.00  0.00    +0.210 HD
ENDBRANCH  19  31
ENDBRANCH  18  19
ENDBRANCH   1  18
TORSDOF 8
ENDMDL
MODEL 4
REMARK VINA RESULT:       0.6      2.934      5.891
REMARK  Name = *****
REMARK                            x       y       z     vdW  Elec       q    Type
REMARK                         _______ _______ _______ _____ _____    ______ ____
ROOT
ATOM      1  N   LIG    1       26.037 -13.049   4.771  0.00  0.00    -0.311 NA
ATOM      2  H   LIG    1       26.579 -13.125   5.631  0.00  0.00    +0.122 HD
ENDROOT
BRANCH   1   3
ATOM      3  C   LIG    1       24.749 -13.737   4.958  0.00  0.00    +0.115 C 
BRANCH   3   4
ATOM      4  C   LIG    1       24.158 -14.215   3.615  0.00  0.00    +0.169 C 
BRANCH   4   5
ATOM      5  C   LIG    1       23.293 -15.484   3.780  0.00  0.00    +0.203 C 
ATOM      6  O   LIG    1       24.143 -16.629   3.613  0.00  0.00    -0.486 OA
ATOM      7  C   LIG    1       23.607 -17.828   3.984  0.00  0.00    +0.124 A 
ATOM      8  C   LIG    1       22.438 -17.951   4.745  0.00  0.00    -0.003 A 
ATOM      9  C   LIG    1       21.977 -19.228   5.083  0.00  0.00    +0.045 A 
ATOM     10  C   LIG    1       22.689 -20.357   4.680  0.00  0.00    +0.124 A 
ATOM     11  C   LIG    1       23.861 -20.234   3.940  0.00  0.00    +0.042 A 
ATOM     12  F   LIG    1       22.243 -21.572   5.013  0.00  0.00    -0.205 F 
ATOM     13  C   LIG    1       21.671 -16.741   5.182  0.00  0.00    +0.042 C 
ATOM     14  C   LIG    1       24.320 -18.966   3.594  0.00  0.00    +0.049 A 
ATOM     15  C   LIG    1       22.559 -15.512   5.124  0.00  0.00    +0.052 C 
ENDBRANCH   4   5
BRANCH   4  16
ATOM     16  O   LIG    1       23.370 -13.172   3.024  0.00  0.00    -0.387 OA
ATOM     17  H   LIG    1       22.631 -13.619   2.572  0.00  0.00    +0.210 HD
ENDBRANCH   4  16
ENDBRANCH   3   4
ENDBRANCH   1   3
BRANCH   1  18
ATOM     18  C   LIG    1       26.788 -13.666   3.663  0.00  0.00    +0.115 C 
BRANCH  18  19
ATOM     19  C   LIG    1       28.191 -14.143   4.108  0.00  0.00    +0.169 C 
BRANCH  19  20
ATOM     20  C   LIG    1       28.302 -15.684   4.058  0.00  0.00    +0.203 C 
ATOM     21  O   LIG    1       28.799 -16.131   5.336  0.00  0.00    -0.486 OA
ATOM     22  C   LIG    1       28.734 -17.481   5.549  0.00  0.00    +0.124 A 
ATOM     23  C   LIG    1       27.952 -18.349   4.775  0.00  0.00    -0.003 A 
ATOM     24  C   LIG    1       27.956 -19.717   5.076  0.00  0.00    +0.045 A 
ATOM     25  C   LIG    1       28.705 -20.192   6.147  0.00  0.00    +0.124 A 
ATOM     26  C   LIG    1       29.462 -19.327   6.930  0.00  0.00    +0.042 A 
ATOM     27  F   LIG    1       28.695 -21.499   6.431  0.00  0.00    -0.205 F 
ATOM     28  C   LIG    1       27.138 -17.830   3.627  0.00  0.00    +0.042 C 
ATOM     29  C   LIG    1       29.474 -17.966   6.630  0.00  0.00    +0.049 A 
ATOM     30  C   LIG    1       26.949 -16.325   3.749  0.00  0.00    +0.052 C 
ENDBRANCH  19  20
BRANCH  19  31
ATOM     31  O   LIG    1       29.202 -13.566   3.270  0.00  0.00    -0.387 OA
ATOM     32  H   LIG    1       29.724 -14.314   2.926  0.00  0.00    +0.210 HD
ENDBRANCH  19  31
ENDBRANCH  18  19
ENDBRANCH   1  18
TORSDOF 8
ENDMDL
