MODEL 1
REMARK VINA RESULT:      -8.3      0.000      0.000
REMARK  Name = *****
REMARK                            x       y       z     vdW  Elec       q    Type
REMARK                         _______ _______ _______ _____ _____    ______ ____
ROOT
ATOM      1  C   LIG    1       24.961 -25.521   6.447  0.00  0.00    +0.000 A 
ATOM      2  C   LIG    1       26.009 -24.670   6.796  0.00  0.00    +0.004 A 
ATOM      3  C   LIG    1       25.777 -23.309   7.044  0.00  0.00    -0.043 A 
ATOM      4  C   LIG    1       26.937 -22.442   7.466  0.00  0.00    +0.035 C 
ATOM      5  C   LIG    1       26.674 -20.952   7.285  0.00  0.00    +0.006 C 
ATOM      6  C   LIG    1       25.323 -20.566   7.875  0.00  0.00    +0.020 C 
ATOM      7  C   LIG    1       24.160 -21.337   7.230  0.00  0.00    +0.134 C 
ATOM      8  C   LIG    1       24.467 -22.800   6.957  0.00  0.00    -0.030 A 
ATOM      9  C   LIG    1       23.420 -23.673   6.608  0.00  0.00    +0.005 A 
ATOM     10  C   LIG    1       23.666 -25.022   6.353  0.00  0.00    +0.000 A 
ENDROOT
BRANCH   7  11
ATOM     11  C   LIG    1       23.662 -20.613   5.981  0.00  0.00    +0.288 C 
ATOM     12  N   LIG    1       24.288 -20.783   4.767  0.00  0.00    -0.233 N 
ATOM     13  H   LIG    1       25.276 -20.999   4.770  0.00  0.00    +0.291 HD
ATOM     14  C   LIG    1       23.829 -19.734   3.887  0.00  0.00    +0.272 C 
ATOM     15  C   LIG    1       22.537 -19.308   4.588  0.00  0.00    +0.333 C 
ATOM     16  N   LIG    1       22.649 -19.781   5.996  0.00  0.00    -0.083 NA
ENDBRANCH   7  11
TORSDOF 1
ENDMDL
MODEL 2
REMARK VINA RESULT:      -8.0      2.022      4.414
REMARK  Name = *****
REMARK                            x       y       z     vdW  Elec       q    Type
REMARK                         _______ _______ _______ _____ _____    ______ ____
ROOT
ATOM      1  C   LIG    1       28.245 -20.432   7.061  0.00  0.00    +0.000 A 
ATOM      2  C   LIG    1       27.438 -20.010   6.006  0.00  0.00    +0.004 A 
ATOM      3  C   LIG    1       26.167 -20.570   5.805  0.00  0.00    -0.043 A 
ATOM      4  C   LIG    1       25.315 -20.044   4.677  0.00  0.00    +0.035 C 
ATOM      5  C   LIG    1       24.182 -20.986   4.287  0.00  0.00    +0.006 C 
ATOM      6  C   LIG    1       23.418 -21.452   5.520  0.00  0.00    +0.020 C 
ATOM      7  C   LIG    1       24.320 -22.183   6.528  0.00  0.00    +0.134 C 
ATOM      8  C   LIG    1       25.695 -21.556   6.692  0.00  0.00    -0.030 A 
ATOM      9  C   LIG    1       26.519 -21.966   7.755  0.00  0.00    +0.005 A 
ATOM     10  C   LIG    1       27.786 -21.411   7.936  0.00  0.00    +0.000 A 
ENDROOT
BRANCH   7  11
ATOM     11  C   LIG    1       24.405 -23.671   6.192  0.00  0.00    +0.288 C 
ATOM     12  N   LIG    1       25.388 -24.154   5.359  0.00  0.00    -0.233 N 
ATOM     13  H   LIG    1       25.751 -23.533   4.647  0.00  0.00    +0.291 HD
ATOM     14  C   LIG    1       25.007 -25.488   4.961  0.00  0.00    +0.272 C 
ATOM     15  C   LIG    1       23.999 -25.844   6.056  0.00  0.00    +0.333 C 
ATOM     16  N   LIG    1       23.547 -24.553   6.644  0.00  0.00    -0.083 NA
ENDBRANCH   7  11
TORSDOF 1
ENDMDL
MODEL 3
REMARK VINA RESULT:      -7.7      2.041      4.995
REMARK  Name = *****
REMARK                            x       y       z     vdW  Elec       q    Type
REMARK                         _______ _______ _______ _____ _____    ______ ____
ROOT
ATOM      1  C   LIG    1       25.210 -18.974   3.556  0.00  0.00    +0.000 A 
ATOM      2  C   LIG    1       23.903 -19.373   3.829  0.00  0.00    +0.004 A 
ATOM      3  C   LIG    1       23.637 -20.340   4.810  0.00  0.00    -0.043 A 
ATOM      4  C   LIG    1       22.201 -20.701   5.100  0.00  0.00    +0.035 C 
ATOM      5  C   LIG    1       22.049 -22.027   5.836  0.00  0.00    +0.006 C 
ATOM      6  C   LIG    1       22.994 -22.094   7.031  0.00  0.00    +0.020 C 
ATOM      7  C   LIG    1       24.468 -21.942   6.622  0.00  0.00    +0.134 C 
ATOM      8  C   LIG    1       24.703 -20.901   5.539  0.00  0.00    -0.030 A 
ATOM      9  C   LIG    1       26.016 -20.484   5.255  0.00  0.00    +0.005 A 
ATOM     10  C   LIG    1       26.267 -19.530   4.269  0.00  0.00    +0.000 A 
ENDROOT
BRANCH   7  11
ATOM     11  C   LIG    1       25.066 -23.298   6.254  0.00  0.00    +0.288 C 
ATOM     12  N   LIG    1       24.887 -23.833   4.998  0.00  0.00    -0.233 N 
ATOM     13  H   LIG    1       24.045 -23.586   4.495  0.00  0.00    +0.291 HD
ATOM     14  C   LIG    1       25.250 -25.229   5.063  0.00  0.00    +0.272 C 
ATOM     15  C   LIG    1       26.109 -25.250   6.329  0.00  0.00    +0.333 C 
ATOM     16  N   LIG    1       25.746 -24.030   7.101  0.00  0.00    -0.083 NA
ENDBRANCH   7  11
TORSDOF 1
ENDMDL
MODEL 4
REMARK VINA RESULT:      -7.5      1.951      3.696
REMARK  Name = *****
REMARK                            x       y       z     vdW  Elec       q    Type
REMARK                         _______ _______ _______ _____ _____    ______ ____
ROOT
ATOM      1  C   LIG    1       23.050 -24.121   6.776  0.00  0.00    +0.000 A 
ATOM      2  C   LIG    1       22.424 -22.919   6.448  0.00  0.00    +0.004 A 
ATOM      3  C   LIG    1       23.129 -21.896   5.796  0.00  0.00    -0.043 A 
ATOM      4  C   LIG    1       22.393 -20.635   5.421  0.00  0.00    +0.035 C 
ATOM      5  C   LIG    1       23.318 -19.460   5.129  0.00  0.00    +0.006 C 
ATOM      6  C   LIG    1       24.432 -19.874   4.174  0.00  0.00    +0.020 C 
ATOM      7  C   LIG    1       25.285 -21.025   4.731  0.00  0.00    +0.134 C 
ATOM      8  C   LIG    1       24.480 -22.095   5.452  0.00  0.00    -0.030 A 
ATOM      9  C   LIG    1       25.095 -23.315   5.784  0.00  0.00    +0.005 A 
ATOM     10  C   LIG    1       24.386 -24.319   6.444  0.00  0.00    +0.000 A 
ENDROOT
BRANCH   7  11
ATOM     11  C   LIG    1       26.421 -20.482   5.596  0.00  0.00    +0.288 C 
ATOM     12  N   LIG    1       27.528 -19.898   5.025  0.00  0.00    -0.233 N 
ATOM     13  H   LIG    1       27.804 -20.208   4.103  0.00  0.00    +0.291 HD
ATOM     14  C   LIG    1       28.550 -19.812   6.042  0.00  0.00    +0.272 C 
ATOM     15  C   LIG    1       27.709 -19.939   7.314  0.00  0.00    +0.333 C 
ATOM     16  N   LIG    1       26.422 -20.566   6.904  0.00  0.00    -0.083 NA
ENDBRANCH   7  11
TORSDOF 1
ENDMDL
MODEL 5
REMARK VINA RESULT:      -7.0      1.710      3.765
REMARK  Name = *****
REMARK                            x       y       z     vdW  Elec       q    Type
REMARK                         _______ _______ _______ _____ _____    ______ ____
ROOT
ATOM      1  C   LIG    1       28.802 -19.577   7.232  0.00  0.00    +0.000 A 
ATOM      2  C   LIG    1       27.911 -20.244   8.071  0.00  0.00    +0.004 A 
ATOM      3  C   LIG    1       26.736 -20.817   7.562  0.00  0.00    -0.043 A 
ATOM      4  C   LIG    1       25.830 -21.569   8.504  0.00  0.00    +0.035 C 
ATOM      5  C   LIG    1       24.419 -21.761   7.961  0.00  0.00    +0.006 C 
ATOM      6  C   LIG    1       24.457 -22.288   6.532  0.00  0.00    +0.020 C 
ATOM      7  C   LIG    1       25.211 -21.346   5.579  0.00  0.00    +0.134 C 
ATOM      8  C   LIG    1       26.463 -20.731   6.183  0.00  0.00    -0.030 A 
ATOM      9  C   LIG    1       27.374 -20.059   5.349  0.00  0.00    +0.005 A 
ATOM     10  C   LIG    1       28.533 -19.484   5.871  0.00  0.00    +0.000 A 
ENDROOT
BRANCH   7  11
ATOM     11  C   LIG    1       24.268 -20.287   5.012  0.00  0.00    +0.288 C 
ATOM     12  N   LIG    1       23.115 -19.936   5.678  0.00  0.00    -0.233 N 
ATOM     13  H   LIG    1       22.672 -20.637   6.259  0.00  0.00    +0.291 HD
ATOM     14  C   LIG    1       22.284 -19.200   4.755  0.00  0.00    +0.272 C 
ATOM     15  C   LIG    1       23.316 -18.767   3.712  0.00  0.00    +0.333 C 
ATOM     16  N   LIG    1       24.479 -19.684   3.868  0.00  0.00    -0.083 NA
ENDBRANCH   7  11
TORSDOF 1
ENDMDL
MODEL 6
REMARK VINA RESULT:      -6.9      1.990      4.564
REMARK  Name = *****
REMARK                            x       y       z     vdW  Elec       q    Type
REMARK                         _______ _______ _______ _____ _____    ______ ____
ROOT
ATOM      1  C   LIG    1       22.708 -19.983   5.108  0.00  0.00    +0.000 A 
ATOM      2  C   LIG    1       23.175 -20.046   6.420  0.00  0.00    +0.004 A 
ATOM      3  C   LIG    1       24.192 -20.944   6.779  0.00  0.00    -0.043 A 
ATOM      4  C   LIG    1       24.694 -20.939   8.202  0.00  0.00    +0.035 C 
ATOM      5  C   LIG    1       25.454 -22.204   8.578  0.00  0.00    +0.006 C 
ATOM      6  C   LIG    1       26.496 -22.544   7.519  0.00  0.00    +0.020 C 
ATOM      7  C   LIG    1       25.873 -22.758   6.130  0.00  0.00    +0.134 C 
ATOM      8  C   LIG    1       24.760 -21.778   5.797  0.00  0.00    -0.030 A 
ATOM      9  C   LIG    1       24.281 -21.698   4.477  0.00  0.00    +0.005 A 
ATOM     10  C   LIG    1       23.262 -20.810   4.136  0.00  0.00    +0.000 A 
ENDROOT
BRANCH   7  11
ATOM     11  C   LIG    1       25.431 -24.209   5.957  0.00  0.00    +0.288 C 
ATOM     12  N   LIG    1       24.099 -24.553   5.998  0.00  0.00    -0.233 N 
ATOM     13  H   LIG    1       23.480 -23.981   6.559  0.00  0.00    +0.291 HD
ATOM     14  C   LIG    1       24.022 -25.986   6.157  0.00  0.00    +0.272 C 
ATOM     15  C   LIG    1       25.416 -26.408   5.690  0.00  0.00    +0.333 C 
ATOM     16  N   LIG    1       26.276 -25.197   5.792  0.00  0.00    -0.083 NA
ENDBRANCH   7  11
TORSDOF 1
ENDMDL
MODEL 7
REMARK VINA RESULT:      -6.9      1.978      4.044
REMARK  Name = *****
REMARK                            x       y       z     vdW  Elec       q    Type
REMARK                         _______ _______ _______ _____ _____    ______ ____
ROOT
ATOM      1  C   LIG    1       22.236 -21.017   5.150  0.00  0.00    +0.000 A 
ATOM      2  C   LIG    1       22.769 -22.274   5.427  0.00  0.00    +0.004 A 
ATOM      3  C   LIG    1       23.841 -22.420   6.321  0.00  0.00    -0.043 A 
ATOM      4  C   LIG    1       24.349 -23.807   6.623  0.00  0.00    +0.035 C 
ATOM      5  C   LIG    1       25.744 -23.819   7.235  0.00  0.00    +0.006 C 
ATOM      6  C   LIG    1       25.837 -22.825   8.387  0.00  0.00    +0.020 C 
ATOM      7  C   LIG    1       25.522 -21.386   7.947  0.00  0.00    +0.134 C 
ATOM      8  C   LIG    1       24.371 -21.282   6.959  0.00  0.00    -0.030 A 
ATOM      9  C   LIG    1       23.818 -20.021   6.673  0.00  0.00    +0.005 A 
ATOM     10  C   LIG    1       22.760 -19.890   5.773  0.00  0.00    +0.000 A 
ENDROOT
BRANCH   7  11
ATOM     11  C   LIG    1       26.782 -20.693   7.434  0.00  0.00    +0.288 C 
ATOM     12  N   LIG    1       27.064 -20.641   6.087  0.00  0.00    -0.233 N 
ATOM     13  H   LIG    1       26.722 -21.394   5.503  0.00  0.00    +0.291 HD
ATOM     14  C   LIG    1       28.447 -20.251   5.944  0.00  0.00    +0.272 C 
ATOM     15  C   LIG    1       28.715 -19.617   7.311  0.00  0.00    +0.333 C 
ATOM     16  N   LIG    1       27.667 -20.143   8.229  0.00  0.00    -0.083 NA
ENDBRANCH   7  11
TORSDOF 1
ENDMDL
MODEL 8
REMARK VINA RESULT:      -6.8      4.407      6.433
REMARK  Name = *****
REMARK                            x       y       z     vdW  Elec       q    Type
REMARK                         _______ _______ _______ _____ _____    ______ ____
ROOT
ATOM      1  C   LIG    1       25.923 -21.283   7.275  0.00  0.00    +0.000 A 
ATOM      2  C   LIG    1       26.443 -20.463   6.276  0.00  0.00    +0.004 A 
ATOM      3  C   LIG    1       27.764 -19.993   6.347  0.00  0.00    -0.043 A 
ATOM      4  C   LIG    1       28.293 -19.148   5.216  0.00  0.00    +0.035 C 
ATOM      5  C   LIG    1       29.539 -18.353   5.588  0.00  0.00    +0.006 C 
ATOM      6  C   LIG    1       30.567 -19.248   6.271  0.00  0.00    +0.020 C 
ATOM      7  C   LIG    1       30.019 -19.902   7.550  0.00  0.00    +0.134 C 
ATOM      8  C   LIG    1       28.578 -20.371   7.433  0.00  0.00    -0.030 A 
ATOM      9  C   LIG    1       28.038 -21.204   8.429  0.00  0.00    +0.005 A 
ATOM     10  C   LIG    1       26.720 -21.654   8.352  0.00  0.00    +0.000 A 
ENDROOT
BRANCH   7  11
ATOM     11  C   LIG    1       30.227 -18.985   8.753  0.00  0.00    +0.288 C 
ATOM     12  N   LIG    1       29.788 -17.681   8.735  0.00  0.00    -0.233 N 
ATOM     13  H   LIG    1       29.745 -17.209   7.840  0.00  0.00    +0.291 HD
ATOM     14  C   LIG    1       30.422 -16.990   9.832  0.00  0.00    +0.272 C 
ATOM     15  C   LIG    1       30.835 -18.166  10.720  0.00  0.00    +0.333 C 
ATOM     16  N   LIG    1       30.849 -19.368   9.842  0.00  0.00    -0.083 NA
ENDBRANCH   7  11
TORSDOF 1
ENDMDL
MODEL 9
REMARK VINA RESULT:      -6.7      1.913      3.585
REMARK  Name = *****
REMARK                            x       y       z     vdW  Elec       q    Type
REMARK                         _______ _______ _______ _____ _____    ______ ____
ROOT
ATOM      1  C   LIG    1       23.781 -25.137   6.595  0.00  0.00    +0.000 A 
ATOM      2  C   LIG    1       22.966 -24.006   6.622  0.00  0.00    +0.004 A 
ATOM      3  C   LIG    1       23.462 -22.753   6.230  0.00  0.00    -0.043 A 
ATOM      4  C   LIG    1       22.525 -21.571   6.233  0.00  0.00    +0.035 C 
ATOM      5  C   LIG    1       23.248 -20.229   6.218  0.00  0.00    +0.006 C 
ATOM      6  C   LIG    1       24.325 -20.206   5.140  0.00  0.00    +0.020 C 
ATOM      7  C   LIG    1       25.376 -21.311   5.338  0.00  0.00    +0.134 C 
ATOM      8  C   LIG    1       24.794 -22.641   5.787  0.00  0.00    -0.030 A 
ATOM      9  C   LIG    1       25.601 -23.793   5.760  0.00  0.00    +0.005 A 
ATOM     10  C   LIG    1       25.099 -25.030   6.164  0.00  0.00    +0.000 A 
ENDROOT
BRANCH   7  11
ATOM     11  C   LIG    1       26.492 -20.832   6.264  0.00  0.00    +0.288 C 
ATOM     12  N   LIG    1       26.413 -21.020   7.625  0.00  0.00    -0.233 N 
ATOM     13  H   LIG    1       25.492 -21.052   8.045  0.00  0.00    +0.291 HD
ATOM     14  C   LIG    1       27.407 -20.175   8.242  0.00  0.00    +0.272 C 
ATOM     15  C   LIG    1       28.344 -19.913   7.060  0.00  0.00    +0.333 C 
ATOM     16  N   LIG    1       27.555 -20.200   5.830  0.00  0.00    -0.083 NA
ENDBRANCH   7  11
TORSDOF 1
ENDMDL
