MODEL 1
REMARK VINA RESULT:      -7.5      0.000      0.000
REMARK  Name = *****
REMARK                            x       y       z     vdW  Elec       q    Type
REMARK                         _______ _______ _______ _____ _____    ______ ____
ROOT
ATOM      1  C   LIG    1       25.136 -26.499   6.436  0.00  0.00    +0.159 A 
ATOM      2  C   LIG    1       25.112 -26.963   5.117  0.00  0.00    +0.164 A 
ATOM      3  F   LIG    1       24.927 -26.133   4.079  0.00  0.00    -0.202 F 
ATOM      4  C   LIG    1       25.263 -28.310   4.847  0.00  0.00    +0.057 A 
ATOM      5  C   LIG    1       25.428 -29.192   5.912  0.00  0.00    +0.068 A 
ATOM      6  C   LIG    1       25.587 -30.622   5.617  0.00  0.00    +0.205 A 
ATOM      7  C   LIG    1       25.712 -31.555   6.744  0.00  0.00    +0.122 A 
ATOM      8  C   LIG    1       25.706 -31.019   7.973  0.00  0.00    +0.112 A 
ATOM      9  N   LIG    1       25.610 -29.664   8.321  0.00  0.00    -0.297 N 
ATOM     10  O   LIG    1       25.599 -31.042   4.463  0.00  0.00    -0.286 OA
ATOM     11  C   LIG    1       25.437 -28.719   7.230  0.00  0.00    +0.151 A 
ATOM     12  N   LIG    1       25.297 -27.384   7.461  0.00  0.00    -0.211 NA
ENDROOT
BRANCH   9  13
ATOM     13  C   LIG    1       25.681 -29.277   9.716  0.00  0.00    +0.083 A 
ATOM     14  C   LIG    1       24.646 -29.568  10.639  0.00  0.00    +0.150 A 
ATOM     15  F   LIG    1       23.569 -30.277  10.265  0.00  0.00    -0.203 F 
ATOM     16  C   LIG    1       24.698 -29.174  11.977  0.00  0.00    +0.078 A 
ATOM     17  C   LIG    1       25.814 -28.500  12.438  0.00  0.00    +0.126 A 
ATOM     18  F   LIG    1       25.884 -28.135  13.725  0.00  0.00    -0.205 F 
ATOM     19  C   LIG    1       26.861 -28.201  11.582  0.00  0.00    +0.040 A 
ATOM     20  C   LIG    1       26.786 -28.571  10.232  0.00  0.00    +0.032 A 
ENDBRANCH   9  13
BRANCH   1  24
ATOM     21  C   LIG    1       24.597 -22.333   7.614  0.00  0.00    +0.061 C 
ATOM     22  C   LIG    1       23.915 -23.073   6.495  0.00  0.00    +0.029 C 
ATOM     23  C   LIG    1       23.638 -24.542   6.573  0.00  0.00    +0.112 C 
ATOM     24  N   LIG    1       24.959 -25.158   6.742  0.00  0.00    -0.312 N 
ATOM     25  C   LIG    1       26.053 -24.217   6.492  0.00  0.00    +0.112 C 
ATOM     26  C   LIG    1       25.390 -22.872   6.452  0.00  0.00    +0.029 C 
BRANCH  21  27
ATOM     27  N   LIG    1       24.400 -20.887   7.711  0.00  0.00    -0.327 NA
ATOM     28  H   LIG    1       23.910 -20.531   6.891  0.00  0.00    +0.118 HD
ATOM     29  H   LIG    1       23.813 -20.654   8.513  0.00  0.00    +0.118 HD
ENDBRANCH  21  27
ENDBRANCH   1  24
BRANCH   7  30
ATOM     30  C   LIG    1       25.826 -33.019   6.575  0.00  0.00    +0.342 C 
ATOM     31  O   LIG    1       25.103 -33.819   7.156  0.00  0.00    -0.245 OA
BRANCH  30  32
ATOM     32  O   LIG    1       26.791 -33.418   5.721  0.00  0.00    -0.477 OA
ATOM     33  H   LIG    1       27.121 -32.710   5.114  0.00  0.00    +0.295 HD
ENDBRANCH  30  32
ENDBRANCH   7  30
TORSDOF 5
ENDMDL
MODEL 2
REMARK VINA RESULT:      -6.9      2.876      6.006
REMARK  Name = *****
REMARK                            x       y       z     vdW  Elec       q    Type
REMARK                         _______ _______ _______ _____ _____    ______ ____
ROOT
ATOM      1  C   LIG    1       23.296 -30.485   9.638  0.00  0.00    +0.159 A 
ATOM      2  C   LIG    1       23.238 -31.883   9.602  0.00  0.00    +0.164 A 
ATOM      3  F   LIG    1       22.726 -32.594  10.619  0.00  0.00    -0.202 F 
ATOM      4  C   LIG    1       23.730 -32.575   8.513  0.00  0.00    +0.057 A 
ATOM      5  C   LIG    1       24.290 -31.857   7.460  0.00  0.00    +0.068 A 
ATOM      6  C   LIG    1       24.812 -32.600   6.305  0.00  0.00    +0.205 A 
ATOM      7  C   LIG    1       25.445 -31.843   5.219  0.00  0.00    +0.122 A 
ATOM      8  C   LIG    1       25.471 -30.509   5.350  0.00  0.00    +0.112 A 
ATOM      9  N   LIG    1       24.948 -29.737   6.396  0.00  0.00    -0.297 N 
ATOM     10  O   LIG    1       24.741 -33.825   6.246  0.00  0.00    -0.286 OA
ATOM     11  C   LIG    1       24.356 -30.459   7.510  0.00  0.00    +0.151 A 
ATOM     12  N   LIG    1       23.852 -29.806   8.595  0.00  0.00    -0.211 NA
ENDROOT
BRANCH   9  13
ATOM     13  C   LIG    1       25.024 -28.291   6.326  0.00  0.00    +0.083 A 
ATOM     14  C   LIG    1       25.821 -27.527   7.213  0.00  0.00    +0.150 A 
ATOM     15  F   LIG    1       26.596 -28.126   8.131  0.00  0.00    -0.203 F 
ATOM     16  C   LIG    1       25.877 -26.133   7.166  0.00  0.00    +0.078 A 
ATOM     17  C   LIG    1       25.152 -25.462   6.197  0.00  0.00    +0.126 A 
ATOM     18  F   LIG    1       25.214 -24.126   6.129  0.00  0.00    -0.205 F 
ATOM     19  C   LIG    1       24.367 -26.160   5.295  0.00  0.00    +0.040 A 
ATOM     20  C   LIG    1       24.291 -27.558   5.371  0.00  0.00    +0.032 A 
ENDBRANCH   9  13
BRANCH   1  24
ATOM     21  C   LIG    1       21.842 -28.031  12.938  0.00  0.00    +0.061 C 
ATOM     22  C   LIG    1       22.873 -29.126  12.985  0.00  0.00    +0.029 C 
ATOM     23  C   LIG    1       23.760 -29.425  11.817  0.00  0.00    +0.112 C 
ATOM     24  N   LIG    1       22.837 -29.763  10.728  0.00  0.00    -0.312 N 
ATOM     25  C   LIG    1       21.467 -29.971  11.200  0.00  0.00    +0.112 C 
ATOM     26  C   LIG    1       21.470 -29.453  12.608  0.00  0.00    +0.029 C 
BRANCH  21  27
ATOM     27  N   LIG    1       21.373 -27.465  14.203  0.00  0.00    -0.327 NA
ATOM     28  H   LIG    1       20.618 -26.798  14.045  0.00  0.00    +0.118 HD
ATOM     29  H   LIG    1       20.985 -28.192  14.804  0.00  0.00    +0.118 HD
ENDBRANCH  21  27
ENDBRANCH   1  24
BRANCH   7  30
ATOM     30  C   LIG    1       26.051 -32.483   4.032  0.00  0.00    +0.342 C 
ATOM     31  O   LIG    1       27.111 -33.095   4.068  0.00  0.00    -0.245 OA
BRANCH  30  32
ATOM     32  O   LIG    1       25.344 -32.346   2.891  0.00  0.00    -0.477 OA
ATOM     33  H   LIG    1       24.965 -33.188   2.539  0.00  0.00    +0.295 HD
ENDBRANCH  30  32
ENDBRANCH   7  30
TORSDOF 5
ENDMDL
MODEL 3
REMARK VINA RESULT:      -6.7      2.800      4.478
REMARK  Name = *****
REMARK                            x       y       z     vdW  Elec       q    Type
REMARK                         _______ _______ _______ _____ _____    ______ ____
ROOT
ATOM      1  C   LIG    1       25.370 -29.352   7.869  0.00  0.00    +0.159 A 
ATOM      2  C   LIG    1       25.374 -30.668   7.392  0.00  0.00    +0.164 A 
ATOM      3  F   LIG    1       25.344 -30.943   6.079  0.00  0.00    -0.202 F 
ATOM      4  C   LIG    1       25.389 -31.731   8.274  0.00  0.00    +0.057 A 
ATOM      5  C   LIG    1       25.391 -31.467   9.642  0.00  0.00    +0.068 A 
ATOM      6  C   LIG    1       25.407 -32.603  10.573  0.00  0.00    +0.205 A 
ATOM      7  C   LIG    1       25.360 -32.321  12.014  0.00  0.00    +0.122 A 
ATOM      8  C   LIG    1       25.340 -31.030  12.375  0.00  0.00    +0.112 A 
ATOM      9  N   LIG    1       25.375 -29.903  11.542  0.00  0.00    -0.297 N 
ATOM     10  O   LIG    1       25.441 -33.762  10.170  0.00  0.00    -0.286 OA
ATOM     11  C   LIG    1       25.374 -30.147  10.110  0.00  0.00    +0.151 A 
ATOM     12  N   LIG    1       25.370 -29.121   9.213  0.00  0.00    -0.211 NA
ENDROOT
BRANCH   9  13
ATOM     13  C   LIG    1       25.405 -28.579  12.132  0.00  0.00    +0.083 A 
ATOM     14  C   LIG    1       26.553 -27.750  12.082  0.00  0.00    +0.150 A 
ATOM     15  F   LIG    1       27.656 -28.141  11.424  0.00  0.00    -0.203 F 
ATOM     16  C   LIG    1       26.595 -26.485  12.670  0.00  0.00    +0.078 A 
ATOM     17  C   LIG    1       25.466 -25.999  13.304  0.00  0.00    +0.126 A 
ATOM     18  F   LIG    1       25.488 -24.779  13.854  0.00  0.00    -0.205 F 
ATOM     19  C   LIG    1       24.311 -26.762  13.370  0.00  0.00    +0.040 A 
ATOM     20  C   LIG    1       24.289 -28.044  12.805  0.00  0.00    +0.032 A 
ENDBRANCH   9  13
BRANCH   1  24
ATOM     21  C   LIG    1       25.348 -26.050   5.019  0.00  0.00    +0.061 C 
ATOM     22  C   LIG    1       25.501 -25.979   6.514  0.00  0.00    +0.029 C 
ATOM     23  C   LIG    1       26.147 -27.081   7.294  0.00  0.00    +0.112 C 
ATOM     24  N   LIG    1       25.326 -28.265   7.010  0.00  0.00    -0.312 N 
ATOM     25  C   LIG    1       24.066 -27.926   6.347  0.00  0.00    +0.112 C 
ATOM     26  C   LIG    1       24.233 -26.496   5.929  0.00  0.00    +0.029 C 
BRANCH  21  27
ATOM     27  N   LIG    1       25.184 -24.799   4.278  0.00  0.00    -0.327 NA
ATOM     28  H   LIG    1       25.891 -24.713   3.549  0.00  0.00    +0.118 HD
ATOM     29  H   LIG    1       24.283 -24.776   3.801  0.00  0.00    +0.118 HD
ENDBRANCH  21  27
ENDBRANCH   1  24
BRANCH   7  30
ATOM     30  C   LIG    1       25.319 -33.380  13.045  0.00  0.00    +0.342 C 
ATOM     31  O   LIG    1       26.322 -33.825  13.589  0.00  0.00    -0.245 OA
BRANCH  30  32
ATOM     32  O   LIG    1       24.083 -33.825  13.351  0.00  0.00    -0.477 OA
ATOM     33  H   LIG    1       23.669 -33.382  14.132  0.00  0.00    +0.295 HD
ENDBRANCH  30  32
ENDBRANCH   7  30
TORSDOF 5
ENDMDL
MODEL 4
REMARK VINA RESULT:      -6.6      2.506      5.745
REMARK  Name = *****
REMARK                            x       y       z     vdW  Elec       q    Type
REMARK                         _______ _______ _______ _____ _____    ______ ____
ROOT
ATOM      1  C   LIG    1       25.594 -29.972  10.415  0.00  0.00    +0.159 A 
ATOM      2  C   LIG    1       25.668 -31.365  10.519  0.00  0.00    +0.164 A 
ATOM      3  F   LIG    1       25.790 -31.979  11.706  0.00  0.00    -0.202 F 
ATOM      4  C   LIG    1       25.636 -32.153   9.385  0.00  0.00    +0.057 A 
ATOM      5  C   LIG    1       25.538 -31.535   8.141  0.00  0.00    +0.068 A 
ATOM      6  C   LIG    1       25.505 -32.379   6.940  0.00  0.00    +0.205 A 
ATOM      7  C   LIG    1       25.450 -31.721   5.628  0.00  0.00    +0.122 A 
ATOM      8  C   LIG    1       25.401 -30.382   5.628  0.00  0.00    +0.112 A 
ATOM      9  N   LIG    1       25.377 -29.521   6.735  0.00  0.00    -0.297 N 
ATOM     10  O   LIG    1       25.539 -33.604   7.016  0.00  0.00    -0.286 OA
ATOM     11  C   LIG    1       25.477 -30.138   8.046  0.00  0.00    +0.151 A 
ATOM     12  N   LIG    1       25.501 -29.391   9.185  0.00  0.00    -0.211 NA
ENDROOT
BRANCH   9  13
ATOM     13  C   LIG    1       25.261 -28.091   6.526  0.00  0.00    +0.083 A 
ATOM     14  C   LIG    1       24.330 -27.527   5.620  0.00  0.00    +0.150 A 
ATOM     15  F   LIG    1       23.463 -28.305   4.951  0.00  0.00    -0.203 F 
ATOM     16  C   LIG    1       24.233 -26.153   5.396  0.00  0.00    +0.078 A 
ATOM     17  C   LIG    1       25.053 -25.296   6.107  0.00  0.00    +0.126 A 
ATOM     18  F   LIG    1       24.955 -23.974   5.916  0.00  0.00    -0.205 F 
ATOM     19  C   LIG    1       25.972 -25.792   7.017  0.00  0.00    +0.040 A 
ATOM     20  C   LIG    1       26.086 -27.175   7.210  0.00  0.00    +0.032 A 
ENDBRANCH   9  13
BRANCH   1  24
ATOM     21  C   LIG    1       25.876 -27.560  14.039  0.00  0.00    +0.061 C 
ATOM     22  C   LIG    1       24.744 -27.612  13.049  0.00  0.00    +0.029 C 
ATOM     23  C   LIG    1       24.425 -28.855  12.280  0.00  0.00    +0.112 C 
ATOM     24  N   LIG    1       25.652 -29.153  11.532  0.00  0.00    -0.312 N 
ATOM     25  C   LIG    1       26.606 -28.043  11.556  0.00  0.00    +0.112 C 
ATOM     26  C   LIG    1       26.080 -27.117  12.613  0.00  0.00    +0.029 C 
BRANCH  21  27
ATOM     27  N   LIG    1       25.837 -26.539  15.085  0.00  0.00    -0.327 NA
ATOM     28  H   LIG    1       25.553 -26.943  15.977  0.00  0.00    +0.118 HD
ATOM     29  H   LIG    1       26.763 -26.140  15.239  0.00  0.00    +0.118 HD
ENDBRANCH  21  27
ENDBRANCH   1  24
BRANCH   7  30
ATOM     30  C   LIG    1       25.464 -32.463   4.349  0.00  0.00    +0.342 C 
ATOM     31  O   LIG    1       26.433 -32.487   3.600  0.00  0.00    -0.245 OA
BRANCH  30  32
ATOM     32  O   LIG    1       24.322 -33.121   4.064  0.00  0.00    -0.477 OA
ATOM     33  H   LIG    1       24.115 -33.186   3.099  0.00  0.00    +0.295 HD
ENDBRANCH  30  32
ENDBRANCH   7  30
TORSDOF 5
ENDMDL
MODEL 5
REMARK VINA RESULT:      -6.0      4.867      6.194
REMARK  Name = *****
REMARK                            x       y       z     vdW  Elec       q    Type
REMARK                         _______ _______ _______ _____ _____    ______ ____
ROOT
ATOM      1  C   LIG    1       21.783 -29.475  11.824  0.00  0.00    +0.159 A 
ATOM      2  C   LIG    1       21.289 -30.373  10.871  0.00  0.00    +0.164 A 
ATOM      3  F   LIG    1       19.974 -30.594  10.724  0.00  0.00    -0.202 F 
ATOM      4  C   LIG    1       22.157 -31.077  10.059  0.00  0.00    +0.057 A 
ATOM      5  C   LIG    1       23.527 -30.884  10.215  0.00  0.00    +0.068 A 
ATOM      6  C   LIG    1       24.443 -31.637   9.348  0.00  0.00    +0.205 A 
ATOM      7  C   LIG    1       25.887 -31.466   9.548  0.00  0.00    +0.122 A 
ATOM      8  C   LIG    1       26.266 -30.599  10.498  0.00  0.00    +0.112 A 
ATOM      9  N   LIG    1       25.448 -29.813  11.321  0.00  0.00    -0.297 N 
ATOM     10  O   LIG    1       24.024 -32.405   8.487  0.00  0.00    -0.286 OA
ATOM     11  C   LIG    1       24.012 -29.993  11.181  0.00  0.00    +0.151 A 
ATOM     12  N   LIG    1       23.129 -29.306  11.958  0.00  0.00    -0.211 NA
ENDROOT
BRANCH   9  13
ATOM     13  C   LIG    1       26.053 -28.884  12.254  0.00  0.00    +0.083 A 
ATOM     14  C   LIG    1       26.392 -29.250  13.580  0.00  0.00    +0.150 A 
ATOM     15  F   LIG    1       26.217 -30.510  14.012  0.00  0.00    -0.203 F 
ATOM     16  C   LIG    1       26.951 -28.352  14.491  0.00  0.00    +0.078 A 
ATOM     17  C   LIG    1       27.218 -27.058  14.083  0.00  0.00    +0.126 A 
ATOM     18  F   LIG    1       27.773 -26.193  14.941  0.00  0.00    -0.205 F 
ATOM     19  C   LIG    1       26.920 -26.649  12.793  0.00  0.00    +0.040 A 
ATOM     20  C   LIG    1       26.328 -27.549  11.896  0.00  0.00    +0.032 A 
ENDBRANCH   9  13
BRANCH   1  24
ATOM     21  C   LIG    1       18.973 -27.281  14.337  0.00  0.00    +0.061 C 
ATOM     22  C   LIG    1       20.453 -27.053  14.189  0.00  0.00    +0.029 C 
ATOM     23  C   LIG    1       21.171 -27.344  12.909  0.00  0.00    +0.112 C 
ATOM     24  N   LIG    1       20.940 -28.774  12.673  0.00  0.00    -0.312 N 
ATOM     25  C   LIG    1       20.377 -29.451  13.842  0.00  0.00    +0.112 C 
ATOM     26  C   LIG    1       19.960 -28.338  14.758  0.00  0.00    +0.029 C 
BRANCH  21  27
ATOM     27  N   LIG    1       18.258 -26.543  15.379  0.00  0.00    -0.327 NA
ATOM     28  H   LIG    1       18.734 -25.669  15.598  0.00  0.00    +0.118 HD
ATOM     29  H   LIG    1       17.323 -26.284  15.064  0.00  0.00    +0.118 HD
ENDBRANCH  21  27
ENDBRANCH   1  24
BRANCH   7  30
ATOM     30  C   LIG    1       26.905 -32.208   8.774  0.00  0.00    +0.342 C 
ATOM     31  O   LIG    1       27.590 -33.103   9.252  0.00  0.00    -0.245 OA
BRANCH  30  32
ATOM     32  O   LIG    1       27.026 -31.825   7.485  0.00  0.00    -0.477 OA
ATOM     33  H   LIG    1       26.167 -31.688   7.016  0.00  0.00    +0.295 HD
ENDBRANCH  30  32
ENDBRANCH   7  30
TORSDOF 5
ENDMDL
MODEL 6
REMARK VINA RESULT:      -5.9      1.294      1.731
REMARK  Name = *****
REMARK                            x       y       z     vdW  Elec       q    Type
REMARK                         _______ _______ _______ _____ _____    ______ ____
ROOT
ATOM      1  C   LIG    1       25.347 -27.116   6.557  0.00  0.00    +0.159 A 
ATOM      2  C   LIG    1       25.346 -27.986   5.462  0.00  0.00    +0.164 A 
ATOM      3  F   LIG    1       25.161 -27.544   4.208  0.00  0.00    -0.202 F 
ATOM      4  C   LIG    1       25.519 -29.344   5.648  0.00  0.00    +0.057 A 
ATOM      5  C   LIG    1       25.684 -29.827   6.944  0.00  0.00    +0.068 A 
ATOM      6  C   LIG    1       25.867 -31.272   7.134  0.00  0.00    +0.205 A 
ATOM      7  C   LIG    1       25.992 -31.783   8.505  0.00  0.00    +0.122 A 
ATOM      8  C   LIG    1       25.963 -30.875   9.491  0.00  0.00    +0.112 A 
ATOM      9  N   LIG    1       25.845 -29.483   9.376  0.00  0.00    -0.297 N 
ATOM     10  O   LIG    1       25.898 -32.046   6.181  0.00  0.00    -0.286 OA
ATOM     11  C   LIG    1       25.671 -28.949   8.035  0.00  0.00    +0.151 A 
ATOM     12  N   LIG    1       25.509 -27.614   7.815  0.00  0.00    -0.211 NA
ENDROOT
BRANCH   9  13
ATOM     13  C   LIG    1       25.893 -28.660  10.568  0.00  0.00    +0.083 A 
ATOM     14  C   LIG    1       24.852 -28.649  11.528  0.00  0.00    +0.150 A 
ATOM     15  F   LIG    1       23.789 -29.460  11.399  0.00  0.00    -0.203 F 
ATOM     16  C   LIG    1       24.882 -27.840  12.664  0.00  0.00    +0.078 A 
ATOM     17  C   LIG    1       25.984 -27.033  12.887  0.00  0.00    +0.126 A 
ATOM     18  F   LIG    1       26.033 -26.266  13.984  0.00  0.00    -0.205 F 
ATOM     19  C   LIG    1       27.037 -27.013  11.987  0.00  0.00    +0.040 A 
ATOM     20  C   LIG    1       26.983 -27.806  10.833  0.00  0.00    +0.032 A 
ENDBRANCH   9  13
BRANCH   1  24
ATOM     21  C   LIG    1       24.821 -22.838   5.882  0.00  0.00    +0.061 C 
ATOM     22  C   LIG    1       25.169 -23.535   7.170  0.00  0.00    +0.029 C 
ATOM     23  C   LIG    1       25.954 -24.809   7.190  0.00  0.00    +0.112 C 
ATOM     24  N   LIG    1       25.148 -25.752   6.406  0.00  0.00    -0.312 N 
ATOM     25  C   LIG    1       23.799 -25.250   6.140  0.00  0.00    +0.112 C 
ATOM     26  C   LIG    1       23.854 -23.801   6.522  0.00  0.00    +0.029 C 
BRANCH  21  27
ATOM     27  N   LIG    1       24.512 -21.409   5.928  0.00  0.00    -0.327 NA
ATOM     28  H   LIG    1       25.326 -20.853   5.670  0.00  0.00    +0.118 HD
ATOM     29  H   LIG    1       23.785 -21.173   5.253  0.00  0.00    +0.118 HD
ENDBRANCH  21  27
ENDBRANCH   1  24
BRANCH   7  30
ATOM     30  C   LIG    1       26.128 -33.220   8.824  0.00  0.00    +0.342 C 
ATOM     31  O   LIG    1       27.191 -33.825   8.753  0.00  0.00    -0.245 OA
BRANCH  30  32
ATOM     32  O   LIG    1       24.985 -33.825   9.209  0.00  0.00    -0.477 OA
ATOM     33  H   LIG    1       24.482 -33.344   9.911  0.00  0.00    +0.295 HD
ENDBRANCH  30  32
ENDBRANCH   7  30
TORSDOF 5
ENDMDL
MODEL 7
REMARK VINA RESULT:      -5.8      4.726      8.205
REMARK  Name = *****
REMARK                            x       y       z     vdW  Elec       q    Type
REMARK                         _______ _______ _______ _____ _____    ______ ____
ROOT
ATOM      1  C   LIG    1       21.541 -31.026  10.839  0.00  0.00    +0.159 A 
ATOM      2  C   LIG    1       21.485 -30.627  12.179  0.00  0.00    +0.164 A 
ATOM      3  F   LIG    1       20.414 -30.880  12.946  0.00  0.00    -0.202 F 
ATOM      4  C   LIG    1       22.539 -29.938  12.747  0.00  0.00    +0.057 A 
ATOM      5  C   LIG    1       23.648 -29.641  11.960  0.00  0.00    +0.068 A 
ATOM      6  C   LIG    1       24.764 -28.907  12.572  0.00  0.00    +0.205 A 
ATOM      7  C   LIG    1       25.911 -28.553  11.726  0.00  0.00    +0.122 A 
ATOM      8  C   LIG    1       25.867 -28.962  10.450  0.00  0.00    +0.112 A 
ATOM      9  N   LIG    1       24.861 -29.707   9.819  0.00  0.00    -0.297 N 
ATOM     10  O   LIG    1       24.742 -28.577  13.755  0.00  0.00    -0.286 OA
ATOM     11  C   LIG    1       23.690 -30.032  10.616  0.00  0.00    +0.151 A 
ATOM     12  N   LIG    1       22.638 -30.720  10.089  0.00  0.00    -0.211 NA
ENDROOT
BRANCH   9  13
ATOM     13  C   LIG    1       25.026 -30.104   8.435  0.00  0.00    +0.083 A 
ATOM     14  C   LIG    1       25.719 -31.281   8.059  0.00  0.00    +0.150 A 
ATOM     15  F   LIG    1       26.206 -32.120   8.989  0.00  0.00    -0.203 F 
ATOM     16  C   LIG    1       25.904 -31.655   6.727  0.00  0.00    +0.078 A 
ATOM     17  C   LIG    1       25.366 -30.866   5.726  0.00  0.00    +0.126 A 
ATOM     18  F   LIG    1       25.519 -31.225   4.445  0.00  0.00    -0.205 F 
ATOM     19  C   LIG    1       24.667 -29.711   6.037  0.00  0.00    +0.040 A 
ATOM     20  C   LIG    1       24.515 -29.327   7.376  0.00  0.00    +0.032 A 
ENDBRANCH   9  13
BRANCH   1  24
ATOM     21  C   LIG    1       18.322 -33.078   8.728  0.00  0.00    +0.061 C 
ATOM     22  C   LIG    1       18.224 -32.241   9.975  0.00  0.00    +0.029 C 
ATOM     23  C   LIG    1       19.150 -31.094  10.231  0.00  0.00    +0.112 C 
ATOM     24  N   LIG    1       20.490 -31.694  10.231  0.00  0.00    -0.312 N 
ATOM     25  C   LIG    1       20.448 -33.157  10.277  0.00  0.00    +0.112 C 
ATOM     26  C   LIG    1       19.016 -33.502   9.996  0.00  0.00    +0.029 C 
BRANCH  21  27
ATOM     27  N   LIG    1       17.140 -33.825   8.298  0.00  0.00    -0.327 NA
ATOM     28  H   LIG    1       17.273 -34.826   8.435  0.00  0.00    +0.118 HD
ATOM     29  H   LIG    1       16.327 -33.570   8.858  0.00  0.00    +0.118 HD
ENDBRANCH  21  27
ENDBRANCH   1  24
BRANCH   7  30
ATOM     30  C   LIG    1       27.067 -27.773  12.215  0.00  0.00    +0.342 C 
ATOM     31  O   LIG    1       27.005 -26.580  12.484  0.00  0.00    -0.245 OA
BRANCH  30  32
ATOM     32  O   LIG    1       28.210 -28.477  12.348  0.00  0.00    -0.477 OA
ATOM     33  H   LIG    1       28.250 -29.047  13.156  0.00  0.00    +0.295 HD
ENDBRANCH  30  32
ENDBRANCH   7  30
TORSDOF 5
ENDMDL
MODEL 8
REMARK VINA RESULT:      -5.7      5.731      7.967
REMARK  Name = *****
REMARK                            x       y       z     vdW  Elec       q    Type
REMARK                         _______ _______ _______ _____ _____    ______ ____
ROOT
ATOM      1  C   LIG    1       22.076 -27.569  13.896  0.00  0.00    +0.159 A 
ATOM      2  C   LIG    1       22.976 -26.651  14.447  0.00  0.00    +0.164 A 
ATOM      3  F   LIG    1       22.559 -25.600  15.169  0.00  0.00    -0.202 F 
ATOM      4  C   LIG    1       24.335 -26.796  14.243  0.00  0.00    +0.057 A 
ATOM      5  C   LIG    1       24.786 -27.865  13.473  0.00  0.00    +0.068 A 
ATOM      6  C   LIG    1       26.232 -28.012  13.260  0.00  0.00    +0.205 A 
ATOM      7  C   LIG    1       26.701 -29.112  12.408  0.00  0.00    +0.122 A 
ATOM      8  C   LIG    1       25.763 -29.930  11.909  0.00  0.00    +0.112 A 
ATOM      9  N   LIG    1       24.378 -29.877  12.115  0.00  0.00    -0.297 N 
ATOM     10  O   LIG    1       27.037 -27.232  13.761  0.00  0.00    -0.286 OA
ATOM     11  C   LIG    1       23.876 -28.772  12.915  0.00  0.00    +0.151 A 
ATOM     12  N   LIG    1       22.544 -28.606  13.144  0.00  0.00    -0.211 NA
ENDROOT
BRANCH   9  13
ATOM     13  C   LIG    1       23.528 -30.896  11.531  0.00  0.00    +0.083 A 
ATOM     14  C   LIG    1       23.019 -30.798  10.213  0.00  0.00    +0.150 A 
ATOM     15  F   LIG    1       23.357 -29.769   9.419  0.00  0.00    -0.203 F 
ATOM     16  C   LIG    1       22.179 -31.764   9.656  0.00  0.00    +0.078 A 
ATOM     17  C   LIG    1       21.850 -32.881  10.401  0.00  0.00    +0.126 A 
ATOM     18  F   LIG    1       21.062 -33.825   9.870  0.00  0.00    -0.205 F 
ATOM     19  C   LIG    1       22.332 -33.035  11.691  0.00  0.00    +0.040 A 
ATOM     20  C   LIG    1       23.147 -32.044  12.254  0.00  0.00    +0.032 A 
ENDBRANCH   9  13
BRANCH   1  24
ATOM     21  C   LIG    1       17.739 -27.347  14.307  0.00  0.00    +0.061 C 
ATOM     22  C   LIG    1       18.696 -26.228  13.999  0.00  0.00    +0.029 C 
ATOM     23  C   LIG    1       19.968 -26.462  13.246  0.00  0.00    +0.112 C 
ATOM     24  N   LIG    1       20.705 -27.436  14.059  0.00  0.00    -0.312 N 
ATOM     25  C   LIG    1       20.122 -27.609  15.391  0.00  0.00    +0.112 C 
ATOM     26  C   LIG    1       18.786 -26.933  15.308  0.00  0.00    +0.029 C 
BRANCH  21  27
ATOM     27  N   LIG    1       16.342 -27.009  14.582  0.00  0.00    -0.327 NA
ATOM     28  H   LIG    1       16.240 -26.616  15.517  0.00  0.00    +0.118 HD
ATOM     29  H   LIG    1       16.009 -26.292  13.937  0.00  0.00    +0.118 HD
ENDBRANCH  21  27
ENDBRANCH   1  24
BRANCH   7  30
ATOM     30  C   LIG    1       28.126 -29.331  12.079  0.00  0.00    +0.342 C 
ATOM     31  O   LIG    1       28.505 -29.766  10.999  0.00  0.00    -0.245 OA
BRANCH  30  32
ATOM     32  O   LIG    1       28.990 -29.010  13.064  0.00  0.00    -0.477 OA
ATOM     33  H   LIG    1       29.882 -29.428  12.980  0.00  0.00    +0.295 HD
ENDBRANCH  30  32
ENDBRANCH   7  30
TORSDOF 5
ENDMDL
MODEL 9
REMARK VINA RESULT:      -5.6      2.776      5.895
REMARK  Name = *****
REMARK                            x       y       z     vdW  Elec       q    Type
REMARK                         _______ _______ _______ _____ _____    ______ ____
ROOT
ATOM      1  C   LIG    1       25.144 -30.004  10.915  0.00  0.00    +0.159 A 
ATOM      2  C   LIG    1       24.808 -31.325  11.232  0.00  0.00    +0.164 A 
ATOM      3  F   LIG    1       24.904 -31.796  12.484  0.00  0.00    -0.202 F 
ATOM      4  C   LIG    1       24.380 -32.192  10.245  0.00  0.00    +0.057 A 
ATOM      5  C   LIG    1       24.300 -31.731   8.934  0.00  0.00    +0.068 A 
ATOM      6  C   LIG    1       23.845 -32.660   7.891  0.00  0.00    +0.205 A 
ATOM      7  C   LIG    1       23.808 -32.183   6.503  0.00  0.00    +0.122 A 
ATOM      8  C   LIG    1       24.167 -30.908   6.294  0.00  0.00    +0.112 A 
ATOM      9  N   LIG    1       24.560 -29.958   7.247  0.00  0.00    -0.297 N 
ATOM     10  O   LIG    1       23.517 -33.813   8.159  0.00  0.00    -0.286 OA
ATOM     11  C   LIG    1       24.652 -30.411   8.624  0.00  0.00    +0.151 A 
ATOM     12  N   LIG    1       25.060 -29.578   9.622  0.00  0.00    -0.211 NA
ENDROOT
BRANCH   9  13
ATOM     13  C   LIG    1       24.854 -28.603   6.825  0.00  0.00    +0.083 A 
ATOM     14  C   LIG    1       25.888 -27.831   7.412  0.00  0.00    +0.150 A 
ATOM     15  F   LIG    1       26.687 -28.356   8.355  0.00  0.00    -0.203 F 
ATOM     16  C   LIG    1       26.158 -26.517   7.028  0.00  0.00    +0.078 A 
ATOM     17  C   LIG    1       25.413 -25.945   6.012  0.00  0.00    +0.126 A 
ATOM     18  F   LIG    1       25.676 -24.692   5.621  0.00  0.00    -0.205 F 
ATOM     19  C   LIG    1       24.399 -26.659   5.394  0.00  0.00    +0.040 A 
ATOM     20  C   LIG    1       24.113 -27.966   5.809  0.00  0.00    +0.032 A 
ENDBRANCH   9  13
BRANCH   1  24
ATOM     21  C   LIG    1       26.681 -27.385  14.046  0.00  0.00    +0.061 C 
ATOM     22  C   LIG    1       25.359 -27.296  13.333  0.00  0.00    +0.029 C 
ATOM     23  C   LIG    1       24.656 -28.513  12.819  0.00  0.00    +0.112 C 
ATOM     24  N   LIG    1       25.604 -29.117  11.876  0.00  0.00    -0.312 N 
ATOM     25  C   LIG    1       26.718 -28.224  11.552  0.00  0.00    +0.112 C 
ATOM     26  C   LIG    1       26.623 -27.121  12.564  0.00  0.00    +0.029 C 
BRANCH  21  27
ATOM     27  N   LIG    1       27.066 -26.287  14.934  0.00  0.00    -0.327 NA
ATOM     28  H   LIG    1       27.977 -26.464  15.356  0.00  0.00    +0.118 HD
ATOM     29  H   LIG    1       27.162 -25.416  14.412  0.00  0.00    +0.118 HD
ENDBRANCH  21  27
ENDBRANCH   1  24
BRANCH   7  30
ATOM     30  C   LIG    1       23.418 -33.040   5.363  0.00  0.00    +0.342 C 
ATOM     31  O   LIG    1       22.469 -33.812   5.399  0.00  0.00    -0.245 OA
BRANCH  30  32
ATOM     32  O   LIG    1       24.190 -32.906   4.265  0.00  0.00    -0.477 OA
ATOM     33  H   LIG    1       23.694 -32.919   3.410  0.00  0.00    +0.295 HD
ENDBRANCH  30  32
ENDBRANCH   7  30
TORSDOF 5
ENDMDL
