MODEL 1
REMARK VINA RESULT:      -6.7      0.000      0.000
REMARK  Name = *****
REMARK                            x       y       z     vdW  Elec       q    Type
REMARK                         _______ _______ _______ _____ _____    ______ ____
ROOT
ATOM      1  N   LIG    1       22.281 -32.064  11.189  0.00  0.00    -0.279 NA
ATOM      2  C   LIG    1       23.032 -31.014  11.356  0.00  0.00    +0.082 C 
ATOM      3  C   LIG    1       24.467 -31.102  10.923  0.00  0.00    +0.059 C 
ATOM      4  C   LIG    1       25.311 -30.141  11.305  0.00  0.00    +0.055 C 
ATOM      5  C   LIG    1       24.910 -28.954  12.080  0.00  0.00    +0.090 C 
ATOM      6  C   LIG    1       23.464 -28.775  12.475  0.00  0.00    +0.075 C 
ATOM      7  N   LIG    1       23.143 -27.613  13.264  0.00  0.00    -0.306 N 
ATOM      8  C   LIG    1       24.252 -26.726  13.603  0.00  0.00    +0.072 C 
ATOM      9  C   LIG    1       25.530 -26.954  13.052  0.00  0.00    +0.088 C 
ATOM     10  C   LIG    1       26.597 -26.063  13.273  0.00  0.00    +0.030 C 
ATOM     11  C   LIG    1       26.438 -24.954  14.092  0.00  0.00    +0.002 C 
ATOM     12  C   LIG    1       25.221 -24.760  14.726  0.00  0.00    +0.002 C 
ATOM     13  C   LIG    1       24.152 -25.647  14.504  0.00  0.00    +0.028 C 
ATOM     14  N   LIG    1       25.850 -28.098  12.318  0.00  0.00    -0.244 NA
ATOM     15  C   LIG    1       22.633 -29.711  11.970  0.00  0.00    +0.057 C 
ENDROOT
BRANCH   7  16
ATOM     16  C   LIG    1       21.774 -27.367  13.699  0.00  0.00    +0.047 A 
ATOM     17  C   LIG    1       21.276 -27.879  14.916  0.00  0.00    +0.027 A 
ATOM     18  C   LIG    1       19.934 -27.727  15.300  0.00  0.00    +0.022 A 
ATOM     19  C   LIG    1       19.076 -26.964  14.521  0.00  0.00    +0.041 A 
ATOM     20 CL   LIG    1       17.442 -26.742  15.008  0.00  0.00    -0.084 Cl
ATOM     21  C   LIG    1       19.543 -26.380  13.351  0.00  0.00    +0.022 A 
ATOM     22  C   LIG    1       20.863 -26.615  12.927  0.00  0.00    +0.027 A 
ENDBRANCH   7  16
BRANCH   1  24
ATOM     23  C   LIG    1       19.951 -31.781  10.524  0.00  0.00    +0.032 C 
ATOM     24  C   LIG    1       20.902 -32.147  11.665  0.00  0.00    +0.100 C 
ATOM     25  C   LIG    1       20.608 -33.578  12.110  0.00  0.00    +0.032 C 
ENDBRANCH   1  24
BRANCH   3  26
ATOM     26  N   LIG    1       24.843 -32.217  10.170  0.00  0.00    -0.313 N 
ATOM     27  H   LIG    1       24.126 -32.940  10.304  0.00  0.00    +0.152 HD
BRANCH  26  28
ATOM     28  C   LIG    1       25.065 -32.094   8.766  0.00  0.00    +0.031 A 
ATOM     29  C   LIG    1       24.061 -31.670   7.883  0.00  0.00    +0.024 A 
ATOM     30  C   LIG    1       24.300 -31.575   6.510  0.00  0.00    +0.022 A 
ATOM     31  C   LIG    1       25.563 -31.866   6.008  0.00  0.00    +0.041 A 
ATOM     32 CL   LIG    1       25.848 -31.773   4.315  0.00  0.00    -0.084 Cl
ATOM     33  C   LIG    1       26.595 -32.228   6.872  0.00  0.00    +0.022 A 
ATOM     34  C   LIG    1       26.349 -32.324   8.248  0.00  0.00    +0.024 A 
ENDBRANCH  26  28
ENDBRANCH   3  26
TORSDOF 4
ENDMDL
MODEL 2
REMARK VINA RESULT:      -6.0      1.331      1.859
REMARK  Name = *****
REMARK                            x       y       z     vdW  Elec       q    Type
REMARK                         _______ _______ _______ _____ _____    ______ ____
ROOT
ATOM      1  N   LIG    1       24.360 -32.214  10.662  0.00  0.00    -0.279 NA
ATOM      2  C   LIG    1       24.826 -31.028  10.925  0.00  0.00    +0.082 C 
ATOM      3  C   LIG    1       26.253 -30.738  10.554  0.00  0.00    +0.059 C 
ATOM      4  C   LIG    1       26.825 -29.630  11.031  0.00  0.00    +0.055 C 
ATOM      5  C   LIG    1       26.123 -28.631  11.856  0.00  0.00    +0.090 C 
ATOM      6  C   LIG    1       24.666 -28.834  12.194  0.00  0.00    +0.075 C 
ATOM      7  N   LIG    1       24.048 -27.841  13.034  0.00  0.00    -0.306 N 
ATOM      8  C   LIG    1       24.896 -26.738  13.476  0.00  0.00    +0.072 C 
ATOM      9  C   LIG    1       26.207 -26.613  12.973  0.00  0.00    +0.088 C 
ATOM     10  C   LIG    1       27.017 -25.508  13.295  0.00  0.00    +0.030 C 
ATOM     11  C   LIG    1       26.568 -24.529  14.170  0.00  0.00    +0.002 C 
ATOM     12  C   LIG    1       25.322 -24.679  14.758  0.00  0.00    +0.002 C 
ATOM     13  C   LIG    1       24.509 -25.780  14.434  0.00  0.00    +0.028 C 
ATOM     14  N   LIG    1       26.819 -27.592  12.187  0.00  0.00    -0.244 NA
ATOM     15  C   LIG    1       24.103 -29.906  11.597  0.00  0.00    +0.057 C 
ENDROOT
BRANCH   7  16
ATOM     16  C   LIG    1       22.647 -27.964  13.420  0.00  0.00    +0.047 A 
ATOM     17  C   LIG    1       21.659 -27.085  12.927  0.00  0.00    +0.027 A 
ATOM     18  C   LIG    1       20.326 -27.135  13.363  0.00  0.00    +0.022 A 
ATOM     19  C   LIG    1       19.921 -28.140  14.230  0.00  0.00    +0.041 A 
ATOM     20 CL   LIG    1       18.280 -28.229  14.736  0.00  0.00    -0.084 Cl
ATOM     21  C   LIG    1       20.846 -29.071  14.684  0.00  0.00    +0.022 A 
ATOM     22  C   LIG    1       22.197 -28.957  14.315  0.00  0.00    +0.027 A 
ENDBRANCH   7  16
BRANCH   1  24
ATOM     23  C   LIG    1       22.414 -33.501   9.947  0.00  0.00    +0.032 C 
ATOM     24  C   LIG    1       23.029 -32.660  11.067  0.00  0.00    +0.100 C 
ATOM     25  C   LIG    1       23.148 -33.524  12.322  0.00  0.00    +0.032 C 
ENDBRANCH   1  24
BRANCH   3  26
ATOM     26  N   LIG    1       26.912 -31.674   9.755  0.00  0.00    -0.313 N 
ATOM     27  H   LIG    1       26.721 -32.606  10.143  0.00  0.00    +0.152 HD
BRANCH  26  28
ATOM     28  C   LIG    1       26.646 -31.736   8.354  0.00  0.00    +0.031 A 
ATOM     29  C   LIG    1       27.236 -32.698   7.521  0.00  0.00    +0.024 A 
ATOM     30  C   LIG    1       26.972 -32.725   6.150  0.00  0.00    +0.022 A 
ATOM     31  C   LIG    1       26.080 -31.811   5.601  0.00  0.00    +0.041 A 
ATOM     32 CL   LIG    1       25.776 -31.830   3.908  0.00  0.00    -0.084 Cl
ATOM     33  C   LIG    1       25.433 -30.886   6.417  0.00  0.00    +0.022 A 
ATOM     34  C   LIG    1       25.703 -30.861   7.792  0.00  0.00    +0.024 A 
ENDBRANCH  26  28
ENDBRANCH   3  26
TORSDOF 4
ENDMDL
MODEL 3
REMARK VINA RESULT:      -5.5      3.565      4.664
REMARK  Name = *****
REMARK                            x       y       z     vdW  Elec       q    Type
REMARK                         _______ _______ _______ _____ _____    ______ ____
ROOT
ATOM      1  N   LIG    1       24.104 -31.325   7.902  0.00  0.00    -0.279 NA
ATOM      2  C   LIG    1       24.561 -30.449   8.749  0.00  0.00    +0.082 C 
ATOM      3  C   LIG    1       25.473 -29.377   8.226  0.00  0.00    +0.059 C 
ATOM      4  C   LIG    1       26.146 -28.626   9.101  0.00  0.00    +0.055 C 
ATOM      5  C   LIG    1       26.004 -28.740  10.563  0.00  0.00    +0.090 C 
ATOM      6  C   LIG    1       25.042 -29.748  11.142  0.00  0.00    +0.075 C 
ATOM      7  N   LIG    1       24.977 -29.837  12.579  0.00  0.00    -0.306 N 
ATOM      8  C   LIG    1       25.853 -28.941  13.329  0.00  0.00    +0.072 C 
ATOM      9  C   LIG    1       26.604 -27.960  12.651  0.00  0.00    +0.088 C 
ATOM     10  C   LIG    1       27.378 -27.013  13.348  0.00  0.00    +0.030 C 
ATOM     11  C   LIG    1       27.471 -27.051  14.732  0.00  0.00    +0.002 C 
ATOM     12  C   LIG    1       26.822 -28.066  15.417  0.00  0.00    +0.002 C 
ATOM     13  C   LIG    1       26.046 -29.011  14.724  0.00  0.00    +0.028 C 
ATOM     14  N   LIG    1       26.696 -27.896  11.259  0.00  0.00    -0.244 NA
ATOM     15  C   LIG    1       24.304 -30.402  10.221  0.00  0.00    +0.057 C 
ENDROOT
BRANCH   7  16
ATOM     16  C   LIG    1       24.084 -30.791  13.224  0.00  0.00    +0.047 A 
ATOM     17  C   LIG    1       24.405 -32.161  13.326  0.00  0.00    +0.027 A 
ATOM     18  C   LIG    1       23.512 -33.103  13.861  0.00  0.00    +0.022 A 
ATOM     19  C   LIG    1       22.309 -32.680  14.408  0.00  0.00    +0.041 A 
ATOM     20 CL   LIG    1       21.230 -33.825  15.101  0.00  0.00    -0.084 Cl
ATOM     21  C   LIG    1       21.984 -31.329  14.395  0.00  0.00    +0.022 A 
ATOM     22  C   LIG    1       22.843 -30.406  13.774  0.00  0.00    +0.027 A 
ENDBRANCH   7  16
BRANCH   1  24
ATOM     23  C   LIG    1       22.901 -33.268   7.048  0.00  0.00    +0.032 C 
ATOM     24  C   LIG    1       23.298 -32.477   8.296  0.00  0.00    +0.100 C 
ATOM     25  C   LIG    1       24.126 -33.382   9.209  0.00  0.00    +0.032 C 
ENDBRANCH   1  24
BRANCH   3  26
ATOM     26  N   LIG    1       25.592 -29.254   6.840  0.00  0.00    -0.313 N 
ATOM     27  H   LIG    1       24.933 -29.915   6.411  0.00  0.00    +0.152 HD
BRANCH  26  28
ATOM     28  C   LIG    1       25.393 -27.989   6.211  0.00  0.00    +0.031 A 
ATOM     29  C   LIG    1       26.128 -27.587   5.087  0.00  0.00    +0.024 A 
ATOM     30  C   LIG    1       25.926 -26.335   4.502  0.00  0.00    +0.022 A 
ATOM     31  C   LIG    1       24.953 -25.484   5.013  0.00  0.00    +0.041 A 
ATOM     32 CL   LIG    1       24.723 -23.933   4.307  0.00  0.00    -0.084 Cl
ATOM     33  C   LIG    1       24.166 -25.885   6.090  0.00  0.00    +0.022 A 
ATOM     34  C   LIG    1       24.374 -27.141   6.675  0.00  0.00    +0.024 A 
ENDBRANCH  26  28
ENDBRANCH   3  26
TORSDOF 4
ENDMDL
MODEL 4
REMARK VINA RESULT:      -5.2      2.882      7.248
REMARK  Name = *****
REMARK                            x       y       z     vdW  Elec       q    Type
REMARK                         _______ _______ _______ _____ _____    ______ ____
ROOT
ATOM      1  N   LIG    1       20.738 -27.272  14.084  0.00  0.00    -0.279 NA
ATOM      2  C   LIG    1       21.617 -28.023  13.486  0.00  0.00    +0.082 C 
ATOM      3  C   LIG    1       23.021 -27.503  13.369  0.00  0.00    +0.059 C 
ATOM      4  C   LIG    1       23.871 -28.132  12.554  0.00  0.00    +0.055 C 
ATOM      5  C   LIG    1       23.537 -29.352  11.800  0.00  0.00    +0.090 C 
ATOM      6  C   LIG    1       22.164 -29.963  11.941  0.00  0.00    +0.075 C 
ATOM      7  N   LIG    1       21.887 -31.134  11.148  0.00  0.00    -0.306 N 
ATOM      8  C   LIG    1       22.966 -31.610  10.287  0.00  0.00    +0.072 C 
ATOM      9  C   LIG    1       24.240 -31.012  10.359  0.00  0.00    +0.088 C 
ATOM     10  C   LIG    1       25.330 -31.511   9.620  0.00  0.00    +0.030 C 
ATOM     11  C   LIG    1       25.169 -32.579   8.750  0.00  0.00    +0.002 C 
ATOM     12  C   LIG    1       23.904 -33.122   8.584  0.00  0.00    +0.002 C 
ATOM     13  C   LIG    1       22.815 -32.628   9.324  0.00  0.00    +0.028 C 
ATOM     14  N   LIG    1       24.500 -29.857  11.098  0.00  0.00    -0.244 NA
ATOM     15  C   LIG    1       21.381 -29.359  12.859  0.00  0.00    +0.057 C 
ENDROOT
BRANCH   7  16
ATOM     16  C   LIG    1       20.584 -31.782  11.213  0.00  0.00    +0.047 A 
ATOM     17  C   LIG    1       19.506 -31.372  10.399  0.00  0.00    +0.027 A 
ATOM     18  C   LIG    1       18.222 -31.927  10.519  0.00  0.00    +0.022 A 
ATOM     19  C   LIG    1       18.007 -32.986  11.389  0.00  0.00    +0.041 A 
ATOM     20 CL   LIG    1       16.445 -33.695  11.509  0.00  0.00    -0.084 Cl
ATOM     21  C   LIG    1       19.058 -33.471  12.157  0.00  0.00    +0.022 A 
ATOM     22  C   LIG    1       20.317 -32.848  12.098  0.00  0.00    +0.027 A 
ENDBRANCH   7  16
BRANCH   1  24
ATOM     23  C   LIG    1       19.047 -28.315  15.499  0.00  0.00    +0.032 C 
ATOM     24  C   LIG    1       19.320 -27.610  14.169  0.00  0.00    +0.100 C 
ATOM     25  C   LIG    1       18.492 -26.327  14.112  0.00  0.00    +0.032 C 
ENDBRANCH   1  24
BRANCH   3  26
ATOM     26  N   LIG    1       23.345 -26.358  14.101  0.00  0.00    -0.313 N 
ATOM     27  H   LIG    1       22.825 -26.395  14.986  0.00  0.00    +0.152 HD
BRANCH  26  28
ATOM     28  C   LIG    1       24.705 -26.071  14.421  0.00  0.00    +0.031 A 
ATOM     29  C   LIG    1       25.318 -24.859  14.072  0.00  0.00    +0.024 A 
ATOM     30  C   LIG    1       26.657 -24.611  14.382  0.00  0.00    +0.022 A 
ATOM     31  C   LIG    1       27.390 -25.561  15.085  0.00  0.00    +0.041 A 
ATOM     32 CL   LIG    1       29.045 -25.265  15.444  0.00  0.00    -0.084 Cl
ATOM     33  C   LIG    1       26.786 -26.746  15.499  0.00  0.00    +0.022 A 
ATOM     34  C   LIG    1       25.443 -26.992  15.183  0.00  0.00    +0.024 A 
ENDBRANCH  26  28
ENDBRANCH   3  26
TORSDOF 4
ENDMDL
MODEL 5
REMARK VINA RESULT:      -4.9      9.561     11.426
REMARK  Name = *****
REMARK                            x       y       z     vdW  Elec       q    Type
REMARK                         _______ _______ _______ _____ _____    ______ ____
ROOT
ATOM      1  N   LIG    1       23.316 -21.802   5.483  0.00  0.00    -0.279 NA
ATOM      2  C   LIG    1       24.577 -21.814   5.805  0.00  0.00    +0.082 C 
ATOM      3  C   LIG    1       25.066 -22.928   6.686  0.00  0.00    +0.059 C 
ATOM      4  C   LIG    1       26.282 -22.828   7.228  0.00  0.00    +0.055 C 
ATOM      5  C   LIG    1       27.210 -21.714   6.967  0.00  0.00    +0.090 C 
ATOM      6  C   LIG    1       26.800 -20.606   6.028  0.00  0.00    +0.075 C 
ATOM      7  N   LIG    1       27.737 -19.527   5.844  0.00  0.00    -0.306 N 
ATOM      8  C   LIG    1       28.990 -19.616   6.589  0.00  0.00    +0.072 C 
ATOM      9  C   LIG    1       29.289 -20.778   7.329  0.00  0.00    +0.088 C 
ATOM     10  C   LIG    1       30.529 -20.941   7.975  0.00  0.00    +0.030 C 
ATOM     11  C   LIG    1       31.482 -19.933   7.948  0.00  0.00    +0.002 C 
ATOM     12  C   LIG    1       31.176 -18.740   7.312  0.00  0.00    +0.002 C 
ATOM     13  C   LIG    1       29.939 -18.576   6.664  0.00  0.00    +0.028 C 
ATOM     14  N   LIG    1       28.368 -21.807   7.537  0.00  0.00    -0.244 NA
ATOM     15  C   LIG    1       25.613 -20.808   5.418  0.00  0.00    +0.057 C 
ENDROOT
BRANCH   7  16
ATOM     16  C   LIG    1       27.419 -18.410   4.964  0.00  0.00    +0.047 A 
ATOM     17  C   LIG    1       28.221 -17.250   4.913  0.00  0.00    +0.027 A 
ATOM     18  C   LIG    1       27.873 -16.132   4.140  0.00  0.00    +0.022 A 
ATOM     19  C   LIG    1       26.763 -16.186   3.309  0.00  0.00    +0.041 A 
ATOM     20 CL   LIG    1       26.356 -14.833   2.329  0.00  0.00    -0.084 Cl
ATOM     21  C   LIG    1       25.986 -17.336   3.272  0.00  0.00    +0.022 A 
ATOM     22  C   LIG    1       26.289 -18.416   4.119  0.00  0.00    +0.027 A 
ENDBRANCH   7  16
BRANCH   1  24
ATOM     23  C   LIG    1       21.243 -21.096   4.408  0.00  0.00    +0.032 C 
ATOM     24  C   LIG    1       22.692 -20.721   4.725  0.00  0.00    +0.100 C 
ATOM     25  C   LIG    1       22.697 -19.447   5.568  0.00  0.00    +0.032 C 
ENDBRANCH   1  24
BRANCH   3  26
ATOM     26  N   LIG    1       24.194 -23.994   6.916  0.00  0.00    -0.313 N 
ATOM     27  H   LIG    1       23.303 -23.774   6.455  0.00  0.00    +0.152 HD
BRANCH  26  28
ATOM     28  C   LIG    1       24.558 -25.317   6.524  0.00  0.00    +0.031 A 
ATOM     29  C   LIG    1       23.990 -25.952   5.410  0.00  0.00    +0.024 A 
ATOM     30  C   LIG    1       24.352 -27.255   5.060  0.00  0.00    +0.022 A 
ATOM     31  C   LIG    1       25.320 -27.924   5.798  0.00  0.00    +0.041 A 
ATOM     32 CL   LIG    1       25.746 -29.537   5.380  0.00  0.00    -0.084 Cl
ATOM     33  C   LIG    1       25.945 -27.292   6.871  0.00  0.00    +0.022 A 
ATOM     34  C   LIG    1       25.577 -25.986   7.220  0.00  0.00    +0.024 A 
ENDBRANCH  26  28
ENDBRANCH   3  26
TORSDOF 4
ENDMDL
MODEL 6
REMARK VINA RESULT:      -4.2      3.488      6.571
REMARK  Name = *****
REMARK                            x       y       z     vdW  Elec       q    Type
REMARK                         _______ _______ _______ _____ _____    ______ ____
ROOT
ATOM      1  N   LIG    1       26.729 -27.150  12.815  0.00  0.00    -0.279 NA
ATOM      2  C   LIG    1       26.204 -28.248  12.355  0.00  0.00    +0.082 C 
ATOM      3  C   LIG    1       27.050 -29.110  11.462  0.00  0.00    +0.059 C 
ATOM      4  C   LIG    1       26.463 -30.100  10.784  0.00  0.00    +0.055 C 
ATOM      5  C   LIG    1       25.036 -30.444  10.902  0.00  0.00    +0.090 C 
ATOM      6  C   LIG    1       24.155 -29.660  11.844  0.00  0.00    +0.075 C 
ATOM      7  N   LIG    1       22.761 -30.021  11.886  0.00  0.00    -0.306 N 
ATOM      8  C   LIG    1       22.341 -31.111  11.009  0.00  0.00    +0.072 C 
ATOM      9  C   LIG    1       23.304 -31.837  10.279  0.00  0.00    +0.088 C 
ATOM     10  C   LIG    1       22.949 -32.958   9.505  0.00  0.00    +0.030 C 
ATOM     11  C   LIG    1       21.623 -33.352   9.391  0.00  0.00    +0.002 C 
ATOM     12  C   LIG    1       20.645 -32.595  10.018  0.00  0.00    +0.002 C 
ATOM     13  C   LIG    1       20.998 -31.478  10.795  0.00  0.00    +0.028 C 
ATOM     14  N   LIG    1       24.648 -31.466  10.210  0.00  0.00    -0.244 NA
ATOM     15  C   LIG    1       24.815 -28.748  12.589  0.00  0.00    +0.057 C 
ENDROOT
BRANCH   7  16
ATOM     16  C   LIG    1       21.836 -29.309  12.759  0.00  0.00    +0.047 A 
ATOM     17  C   LIG    1       21.126 -29.967  13.787  0.00  0.00    +0.027 A 
ATOM     18  C   LIG    1       20.164 -29.311  14.571  0.00  0.00    +0.022 A 
ATOM     19  C   LIG    1       19.963 -27.947  14.419  0.00  0.00    +0.041 A 
ATOM     20 CL   LIG    1       18.815 -27.132  15.406  0.00  0.00    -0.084 Cl
ATOM     21  C   LIG    1       20.694 -27.245  13.469  0.00  0.00    +0.022 A 
ATOM     22  C   LIG    1       21.587 -27.927  12.625  0.00  0.00    +0.027 A 
ENDBRANCH   7  16
BRANCH   1  24
ATOM     23  C   LIG    1       25.946 -26.621  15.064  0.00  0.00    +0.032 C 
ATOM     24  C   LIG    1       25.982 -26.173  13.601  0.00  0.00    +0.100 C 
ATOM     25  C   LIG    1       26.684 -24.818  13.520  0.00  0.00    +0.032 C 
ENDBRANCH   1  24
BRANCH   3  26
ATOM     26  N   LIG    1       28.407 -28.798  11.366  0.00  0.00    -0.313 N 
ATOM     27  H   LIG    1       28.490 -27.775  11.315  0.00  0.00    +0.152 HD
BRANCH  26  28
ATOM     28  C   LIG    1       29.320 -29.247  12.366  0.00  0.00    +0.031 A 
ATOM     29  C   LIG    1       28.900 -29.622  13.650  0.00  0.00    +0.024 A 
ATOM     30  C   LIG    1       29.818 -30.041  14.616  0.00  0.00    +0.022 A 
ATOM     31  C   LIG    1       31.167 -30.128  14.295  0.00  0.00    +0.041 A 
ATOM     32 CL   LIG    1       32.299 -30.620  15.493  0.00  0.00    -0.084 Cl
ATOM     33  C   LIG    1       31.602 -29.821  13.007  0.00  0.00    +0.022 A 
ATOM     34  C   LIG    1       30.678 -29.399  12.042  0.00  0.00    +0.024 A 
ENDBRANCH  26  28
ENDBRANCH   3  26
TORSDOF 4
ENDMDL
MODEL 7
REMARK VINA RESULT:      -4.0      2.815      7.281
REMARK  Name = *****
REMARK                            x       y       z     vdW  Elec       q    Type
REMARK                         _______ _______ _______ _____ _____    ______ ____
ROOT
ATOM      1  N   LIG    1       24.418 -29.245  14.107  0.00  0.00    -0.279 NA
ATOM      2  C   LIG    1       24.865 -29.754  12.995  0.00  0.00    +0.082 C 
ATOM      3  C   LIG    1       26.268 -29.411  12.581  0.00  0.00    +0.059 C 
ATOM      4  C   LIG    1       26.660 -29.712  11.341  0.00  0.00    +0.055 C 
ATOM      5  C   LIG    1       25.818 -30.420  10.361  0.00  0.00    +0.090 C 
ATOM      6  C   LIG    1       24.427 -30.856  10.749  0.00  0.00    +0.075 C 
ATOM      7  N   LIG    1       23.641 -31.510   9.735  0.00  0.00    -0.306 N 
ATOM      8  C   LIG    1       24.273 -31.682   8.429  0.00  0.00    +0.072 C 
ATOM      9  C   LIG    1       25.628 -31.339   8.252  0.00  0.00    +0.088 C 
ATOM     10  C   LIG    1       26.298 -31.587   7.038  0.00  0.00    +0.030 C 
ATOM     11  C   LIG    1       25.625 -32.130   5.953  0.00  0.00    +0.002 C 
ATOM     12  C   LIG    1       24.267 -32.384   6.068  0.00  0.00    +0.002 C 
ATOM     13  C   LIG    1       23.597 -32.140   7.280  0.00  0.00    +0.028 C 
ATOM     14  N   LIG    1       26.379 -30.673   9.222  0.00  0.00    -0.244 NA
ATOM     15  C   LIG    1       24.119 -30.633  12.044  0.00  0.00    +0.057 C 
ENDROOT
BRANCH   7  16
ATOM     16  C   LIG    1       22.283 -31.955  10.020  0.00  0.00    +0.047 A 
ATOM     17  C   LIG    1       21.234 -31.041  10.258  0.00  0.00    +0.027 A 
ATOM     18  C   LIG    1       19.945 -31.459  10.625  0.00  0.00    +0.022 A 
ATOM     19  C   LIG    1       19.642 -32.812  10.660  0.00  0.00    +0.041 A 
ATOM     20 CL   LIG    1       18.054 -33.327  11.070  0.00  0.00    -0.084 Cl
ATOM     21  C   LIG    1       20.626 -33.746  10.361  0.00  0.00    +0.022 A 
ATOM     22  C   LIG    1       21.937 -33.322  10.085  0.00  0.00    +0.027 A 
ENDBRANCH   7  16
BRANCH   1  24
ATOM     23  C   LIG    1       22.090 -28.769  13.555  0.00  0.00    +0.032 C 
ATOM     24  C   LIG    1       23.042 -29.409  14.567  0.00  0.00    +0.100 C 
ATOM     25  C   LIG    1       22.720 -30.899  14.672  0.00  0.00    +0.032 C 
ENDBRANCH   1  24
BRANCH   3  26
ATOM     26  N   LIG    1       27.073 -28.759  13.517  0.00  0.00    -0.313 N 
ATOM     27  H   LIG    1       28.039 -28.785  13.170  0.00  0.00    +0.152 HD
BRANCH  26  28
ATOM     28  C   LIG    1       26.793 -27.411  13.891  0.00  0.00    +0.031 A 
ATOM     29  C   LIG    1       27.122 -26.900  15.154  0.00  0.00    +0.024 A 
ATOM     30  C   LIG    1       26.819 -25.580  15.500  0.00  0.00    +0.022 A 
ATOM     31  C   LIG    1       26.219 -24.743  14.567  0.00  0.00    +0.041 A 
ATOM     32 CL   LIG    1       25.825 -23.127  15.003  0.00  0.00    -0.084 Cl
ATOM     33  C   LIG    1       25.939 -25.209  13.284  0.00  0.00    +0.022 A 
ATOM     34  C   LIG    1       26.242 -26.534  12.943  0.00  0.00    +0.024 A 
ENDBRANCH  26  28
ENDBRANCH   3  26
TORSDOF 4
ENDMDL
MODEL 8
REMARK VINA RESULT:      -3.9      4.077      5.858
REMARK  Name = *****
REMARK                            x       y       z     vdW  Elec       q    Type
REMARK                         _______ _______ _______ _____ _____    ______ ____
ROOT
ATOM      1  N   LIG    1       25.010 -29.180   6.717  0.00  0.00    -0.279 NA
ATOM      2  C   LIG    1       25.127 -29.039   8.005  0.00  0.00    +0.082 C 
ATOM      3  C   LIG    1       26.270 -28.212   8.520  0.00  0.00    +0.059 C 
ATOM      4  C   LIG    1       26.556 -28.256   9.823  0.00  0.00    +0.055 C 
ATOM      5  C   LIG    1       25.777 -29.022  10.811  0.00  0.00    +0.090 C 
ATOM      6  C   LIG    1       24.570 -29.809  10.361  0.00  0.00    +0.075 C 
ATOM      7  N   LIG    1       23.873 -30.567  11.368  0.00  0.00    -0.306 N 
ATOM      8  C   LIG    1       24.408 -30.497  12.725  0.00  0.00    +0.072 C 
ATOM      9  C   LIG    1       25.467 -29.615  13.020  0.00  0.00    +0.088 C 
ATOM     10  C   LIG    1       25.940 -29.445  14.336  0.00  0.00    +0.030 C 
ATOM     11  C   LIG    1       25.411 -30.188  15.382  0.00  0.00    +0.002 C 
ATOM     12  C   LIG    1       24.437 -31.135  15.104  0.00  0.00    +0.002 C 
ATOM     13  C   LIG    1       23.961 -31.303  13.792  0.00  0.00    +0.028 C 
ATOM     14  N   LIG    1       26.166 -28.908  12.040  0.00  0.00    -0.244 NA
ATOM     15  C   LIG    1       24.255 -29.643   9.059  0.00  0.00    +0.057 C 
ENDROOT
BRANCH   7  16
ATOM     16  C   LIG    1       22.704 -31.364  11.021  0.00  0.00    +0.047 A 
ATOM     17  C   LIG    1       22.820 -32.678  10.520  0.00  0.00    +0.027 A 
ATOM     18  C   LIG    1       21.707 -33.420  10.094  0.00  0.00    +0.022 A 
ATOM     19  C   LIG    1       20.430 -32.903  10.259  0.00  0.00    +0.041 A 
ATOM     20 CL   LIG    1       19.061 -33.825   9.776  0.00  0.00    -0.084 Cl
ATOM     21  C   LIG    1       20.264 -31.642  10.815  0.00  0.00    +0.022 A 
ATOM     22  C   LIG    1       21.389 -30.869  11.152  0.00  0.00    +0.027 A 
ENDBRANCH   7  16
BRANCH   1  24
ATOM     23  C   LIG    1       23.677 -29.506   4.700  0.00  0.00    +0.032 C 
ATOM     24  C   LIG    1       24.011 -30.044   6.092  0.00  0.00    +0.100 C 
ATOM     25  C   LIG    1       24.582 -31.454   5.951  0.00  0.00    +0.032 C 
ENDBRANCH   1  24
BRANCH   3  26
ATOM     26  N   LIG    1       26.996 -27.469   7.586  0.00  0.00    -0.313 N 
ATOM     27  H   LIG    1       27.393 -28.127   6.905  0.00  0.00    +0.152 HD
BRANCH  26  28
ATOM     28  C   LIG    1       26.361 -26.426   6.848  0.00  0.00    +0.031 A 
ATOM     29  C   LIG    1       26.021 -26.565   5.495  0.00  0.00    +0.024 A 
ATOM     30  C   LIG    1       25.416 -25.521   4.792  0.00  0.00    +0.022 A 
ATOM     31  C   LIG    1       25.106 -24.336   5.448  0.00  0.00    +0.041 A 
ATOM     32 CL   LIG    1       24.384 -23.043   4.574  0.00  0.00    -0.084 Cl
ATOM     33  C   LIG    1       25.376 -24.196   6.807  0.00  0.00    +0.022 A 
ATOM     34  C   LIG    1       25.985 -25.245   7.508  0.00  0.00    +0.024 A 
ENDBRANCH  26  28
ENDBRANCH   3  26
TORSDOF 4
ENDMDL
