MODEL 1
REMARK VINA RESULT:      -7.3      0.000      0.000
REMARK  Name = *****
REMARK                            x       y       z     vdW  Elec       q    Type
REMARK                         _______ _______ _______ _____ _____    ______ ____
ROOT
ATOM      1  S   LIG    1       23.796 -24.385   6.514  0.00  0.00    -0.091 S 
ENDROOT
BRANCH   1   2
ATOM      2  S   LIG    1       25.143 -25.144   5.136  0.00  0.00    -0.091 S 
BRANCH   2   3
ATOM      3  C   LIG    1       25.757 -26.727   5.801  0.00  0.00    +0.100 C 
BRANCH   3   4
ATOM      4  C   LIG    1       24.837 -27.923   5.454  0.00  0.00    +0.115 C 
BRANCH   4   5
ATOM      5  N   LIG    1       25.438 -29.263   5.360  0.00  0.00    -0.315 N 
ATOM      6  H   LIG    1       26.171 -29.362   4.670  0.00  0.00    +0.149 HD
ATOM      7  C   LIG    1       24.884 -30.427   5.860  0.00  0.00    +0.214 C 
ATOM      8  O   LIG    1       23.847 -30.447   6.514  0.00  0.00    -0.276 OA
BRANCH   7   9
ATOM      9  C   LIG    1       25.649 -31.714   5.504  0.00  0.00    +0.114 C 
BRANCH   9  10
ATOM     10  C   LIG    1       26.611 -32.220   6.606  0.00  0.00    +0.113 C 
BRANCH  10  11
ATOM     11  N   LIG    1       26.649 -31.295   7.750  0.00  0.00    -0.313 N 
ATOM     12  H   LIG    1       26.388 -30.371   7.512  0.00  0.00    +0.149 HD
ATOM     13  C   LIG    1       27.030 -31.507   9.059  0.00  0.00    +0.242 C 
ATOM     14  O   LIG    1       27.342 -32.620   9.481  0.00  0.00    -0.273 OA
BRANCH  13  15
ATOM     15  C   LIG    1       27.014 -30.237  10.050  0.00  0.00    +0.208 C 
BRANCH  15  16
ATOM     16  C   LIG    1       25.718 -30.013  10.913  0.00  0.00    +0.023 C 
ATOM     17  C   LIG    1       24.349 -30.158  10.191  0.00  0.00    +0.016 C 
ATOM     18  C   LIG    1       25.827 -28.567  11.408  0.00  0.00    +0.016 C 
BRANCH  16  19
ATOM     19  C   LIG    1       25.631 -30.946  12.170  0.00  0.00    +0.165 C 
BRANCH  19  20
ATOM     20  O   LIG    1       25.980 -32.299  11.893  0.00  0.00    -0.394 OA
ATOM     21  H   LIG    1       26.139 -32.751  12.737  0.00  0.00    +0.209 HD
ENDBRANCH  19  20
ENDBRANCH  16  19
ENDBRANCH  15  16
BRANCH  15  22
ATOM     22  O   LIG    1       28.196 -30.151  10.833  0.00  0.00    -0.382 OA
ATOM     23  H   LIG    1       28.299 -29.198  11.040  0.00  0.00    +0.210 HD
ENDBRANCH  15  22
ENDBRANCH  13  15
ENDBRANCH  10  11
ENDBRANCH   9  10
ENDBRANCH   7   9
ENDBRANCH   4   5
ENDBRANCH   3   4
ENDBRANCH   2   3
ENDBRANCH   1   2
BRANCH   1  24
ATOM     24  C   LIG    1       24.855 -23.141   7.303  0.00  0.00    +0.100 C 
BRANCH  24  25
ATOM     25  C   LIG    1       24.424 -21.699   7.061  0.00  0.00    +0.115 C 
BRANCH  25  27
ATOM     26  C   LIG    1       26.553 -20.517   7.569  0.00  0.00    +0.214 C 
ATOM     27  N   LIG    1       25.630 -21.004   6.686  0.00  0.00    -0.315 N 
ATOM     28  H   LIG    1       25.727 -20.716   5.723  0.00  0.00    +0.149 HD
ATOM     29  O   LIG    1       26.377 -20.426   8.776  0.00  0.00    -0.276 OA
BRANCH  26  30
ATOM     30  C   LIG    1       27.764 -20.039   6.798  0.00  0.00    +0.114 C 
BRANCH  30  31
ATOM     31  C   LIG    1       29.057 -20.774   7.078  0.00  0.00    +0.113 C 
BRANCH  31  33
ATOM     32  C   LIG    1       30.820 -18.995   7.565  0.00  0.00    +0.242 C 
ATOM     33  N   LIG    1       30.052 -20.103   7.915  0.00  0.00    -0.313 N 
ATOM     34  H   LIG    1       30.082 -20.353   8.896  0.00  0.00    +0.149 HD
ATOM     35  O   LIG    1       30.691 -18.355   6.571  0.00  0.00    -0.273 OA
BRANCH  32  36
ATOM     36  C   LIG    1       31.890 -18.591   8.590  0.00  0.00    +0.208 C 
BRANCH  36  38
ATOM     37  C   LIG    1       29.991 -16.917   9.252  0.00  0.00    +0.016 C 
ATOM     38  C   LIG    1       31.453 -17.388   9.503  0.00  0.00    +0.023 C 
ATOM     39  C   LIG    1       32.371 -16.173   9.194  0.00  0.00    +0.016 C 
BRANCH  38  40
ATOM     40  C   LIG    1       31.587 -17.788  10.995  0.00  0.00    +0.165 C 
BRANCH  40  41
ATOM     41  O   LIG    1       30.508 -18.638  11.388  0.00  0.00    -0.394 OA
ATOM     42  H   LIG    1       29.892 -18.679  10.638  0.00  0.00    +0.209 HD
ENDBRANCH  40  41
ENDBRANCH  38  40
ENDBRANCH  36  38
BRANCH  36  43
ATOM     43  O   LIG    1       32.197 -19.759   9.367  0.00  0.00    -0.382 OA
ATOM     44  H   LIG    1       32.059 -19.521  10.299  0.00  0.00    +0.210 HD
ENDBRANCH  36  43
ENDBRANCH  32  36
ENDBRANCH  31  33
ENDBRANCH  30  31
ENDBRANCH  26  30
ENDBRANCH  25  27
ENDBRANCH  24  25
ENDBRANCH   1  24
TORSDOF 23
ENDMDL
MODEL 2
REMARK VINA RESULT:      -7.2      1.470      2.117
REMARK  Name = *****
REMARK                            x       y       z     vdW  Elec       q    Type
REMARK                         _______ _______ _______ _____ _____    ______ ____
ROOT
ATOM      1  S   LIG    1       24.992 -23.669   5.849  0.00  0.00    -0.091 S 
ENDROOT
BRANCH   1   2
ATOM      2  S   LIG    1       24.280 -25.591   6.152  0.00  0.00    -0.091 S 
BRANCH   2   3
ATOM      3  C   LIG    1       25.632 -26.738   5.727  0.00  0.00    +0.100 C 
BRANCH   3   4
ATOM      4  C   LIG    1       25.122 -28.115   5.237  0.00  0.00    +0.115 C 
BRANCH   4   5
ATOM      5  N   LIG    1       25.601 -29.324   5.927  0.00  0.00    -0.315 N 
ATOM      6  H   LIG    1       26.595 -29.496   5.860  0.00  0.00    +0.149 HD
ATOM      7  C   LIG    1       24.806 -30.377   6.343  0.00  0.00    +0.214 C 
ATOM      8  O   LIG    1       23.584 -30.372   6.244  0.00  0.00    -0.276 OA
BRANCH   7   9
ATOM      9  C   LIG    1       25.574 -31.581   6.914  0.00  0.00    +0.114 C 
BRANCH   9  10
ATOM     10  C   LIG    1       24.945 -32.209   8.181  0.00  0.00    +0.113 C 
BRANCH  10  11
ATOM     11  N   LIG    1       25.353 -31.486   9.396  0.00  0.00    -0.313 N 
ATOM     12  H   LIG    1       26.207 -31.812   9.774  0.00  0.00    +0.149 HD
ATOM     13  C   LIG    1       24.716 -30.482  10.095  0.00  0.00    +0.242 C 
ATOM     14  O   LIG    1       23.666 -29.972   9.705  0.00  0.00    -0.273 OA
BRANCH  13  15
ATOM     15  C   LIG    1       25.423 -29.955  11.444  0.00  0.00    +0.208 C 
BRANCH  15  16
ATOM     16  C   LIG    1       26.575 -28.896  11.287  0.00  0.00    +0.023 C 
ATOM     17  C   LIG    1       28.027 -29.378  11.560  0.00  0.00    +0.016 C 
ATOM     18  C   LIG    1       26.247 -27.812  12.318  0.00  0.00    +0.016 C 
BRANCH  16  19
ATOM     19  C   LIG    1       26.617 -28.217   9.874  0.00  0.00    +0.165 C 
BRANCH  19  20
ATOM     20  O   LIG    1       27.077 -29.088   8.844  0.00  0.00    -0.394 OA
ATOM     21  H   LIG    1       26.817 -28.711   7.989  0.00  0.00    +0.209 HD
ENDBRANCH  19  20
ENDBRANCH  16  19
ENDBRANCH  15  16
BRANCH  15  22
ATOM     22  O   LIG    1       24.477 -29.571  12.432  0.00  0.00    -0.382 OA
ATOM     23  H   LIG    1       23.666 -30.079  12.223  0.00  0.00    +0.210 HD
ENDBRANCH  15  22
ENDBRANCH  13  15
ENDBRANCH  10  11
ENDBRANCH   9  10
ENDBRANCH   7   9
ENDBRANCH   4   5
ENDBRANCH   3   4
ENDBRANCH   2   3
ENDBRANCH   1   2
BRANCH   1  24
ATOM     24  C   LIG    1       23.561 -22.730   6.448  0.00  0.00    +0.100 C 
BRANCH  24  25
ATOM     25  C   LIG    1       23.866 -21.777   7.597  0.00  0.00    +0.115 C 
BRANCH  25  27
ATOM     26  C   LIG    1       26.070 -20.756   8.130  0.00  0.00    +0.214 C 
ATOM     27  N   LIG    1       25.110 -21.142   7.238  0.00  0.00    -0.315 N 
ATOM     28  H   LIG    1       25.215 -20.816   6.289  0.00  0.00    +0.149 HD
ATOM     29  O   LIG    1       25.914 -20.711   9.343  0.00  0.00    -0.276 OA
BRANCH  26  30
ATOM     30  C   LIG    1       27.302 -20.320   7.366  0.00  0.00    +0.114 C 
BRANCH  30  31
ATOM     31  C   LIG    1       28.562 -21.114   7.637  0.00  0.00    +0.113 C 
BRANCH  31  33
ATOM     32  C   LIG    1       30.374 -19.321   7.769  0.00  0.00    +0.242 C 
ATOM     33  N   LIG    1       29.679 -20.417   8.277  0.00  0.00    -0.313 N 
ATOM     34  H   LIG    1       29.871 -20.634   9.247  0.00  0.00    +0.149 HD
ATOM     35  O   LIG    1       30.080 -18.713   6.790  0.00  0.00    -0.273 OA
BRANCH  32  36
ATOM     36  C   LIG    1       31.597 -18.886   8.591  0.00  0.00    +0.208 C 
BRANCH  36  38
ATOM     37  C   LIG    1       30.760 -18.157  10.961  0.00  0.00    +0.016 C 
ATOM     38  C   LIG    1       31.293 -17.697   9.573  0.00  0.00    +0.023 C 
ATOM     39  C   LIG    1       30.186 -16.806   8.945  0.00  0.00    +0.016 C 
BRANCH  38  40
ATOM     40  C   LIG    1       32.581 -16.863   9.799  0.00  0.00    +0.165 C 
BRANCH  40  41
ATOM     41  O   LIG    1       32.722 -15.870   8.782  0.00  0.00    -0.394 OA
ATOM     42  H   LIG    1       31.961 -15.963   8.186  0.00  0.00    +0.209 HD
ENDBRANCH  40  41
ENDBRANCH  38  40
ENDBRANCH  36  38
BRANCH  36  43
ATOM     43  O   LIG    1       32.071 -20.044   9.294  0.00  0.00    -0.382 OA
ATOM     44  H   LIG    1       32.617 -19.722  10.030  0.00  0.00    +0.210 HD
ENDBRANCH  36  43
ENDBRANCH  32  36
ENDBRANCH  31  33
ENDBRANCH  30  31
ENDBRANCH  26  30
ENDBRANCH  25  27
ENDBRANCH  24  25
ENDBRANCH   1  24
TORSDOF 23
ENDMDL
MODEL 3
REMARK VINA RESULT:      -7.0      2.142     11.356
REMARK  Name = *****
REMARK                            x       y       z     vdW  Elec       q    Type
REMARK                         _______ _______ _______ _____ _____    ______ ____
ROOT
ATOM      1  S   LIG    1       24.284 -20.373   3.637  0.00  0.00    -0.091 S 
ENDROOT
BRANCH   1   2
ATOM      2  S   LIG    1       22.874 -19.738   5.015  0.00  0.00    -0.091 S 
BRANCH   2   3
ATOM      3  C   LIG    1       22.979 -20.862   6.448  0.00  0.00    +0.100 C 
BRANCH   3   4
ATOM      4  C   LIG    1       23.926 -20.339   7.555  0.00  0.00    +0.115 C 
BRANCH   4   5
ATOM      5  N   LIG    1       25.368 -20.599   7.422  0.00  0.00    -0.315 N 
ATOM      6  H   LIG    1       25.738 -20.515   6.484  0.00  0.00    +0.149 HD
ATOM      7  C   LIG    1       26.155 -21.251   8.353  0.00  0.00    +0.214 C 
ATOM      8  O   LIG    1       25.733 -21.620   9.443  0.00  0.00    -0.276 OA
BRANCH   7   9
ATOM      9  C   LIG    1       27.603 -21.516   7.906  0.00  0.00    +0.114 C 
BRANCH   9  10
ATOM     10  C   LIG    1       28.299 -20.314   7.223  0.00  0.00    +0.113 C 
BRANCH  10  11
ATOM     11  N   LIG    1       29.503 -19.900   7.963  0.00  0.00    -0.313 N 
ATOM     12  H   LIG    1       29.606 -20.370   8.828  0.00  0.00    +0.149 HD
ATOM     13  C   LIG    1       30.454 -18.949   7.662  0.00  0.00    +0.242 C 
ATOM     14  O   LIG    1       30.449 -18.326   6.601  0.00  0.00    -0.273 OA
BRANCH  13  15
ATOM     15  C   LIG    1       31.622 -18.701   8.745  0.00  0.00    +0.208 C 
BRANCH  15  16
ATOM     16  C   LIG    1       31.399 -17.549   9.793  0.00  0.00    +0.023 C 
ATOM     17  C   LIG    1       30.991 -17.967  11.233  0.00  0.00    +0.016 C 
ATOM     18  C   LIG    1       30.255 -16.713   9.213  0.00  0.00    +0.016 C 
BRANCH  16  19
ATOM     19  C   LIG    1       32.642 -16.608   9.965  0.00  0.00    +0.165 C 
BRANCH  19  20
ATOM     20  O   LIG    1       32.855 -15.746   8.851  0.00  0.00    -0.394 OA
ATOM     21  H   LIG    1       33.230 -16.272   8.127  0.00  0.00    +0.209 HD
ENDBRANCH  19  20
ENDBRANCH  16  19
ENDBRANCH  15  16
BRANCH  15  22
ATOM     22  O   LIG    1       32.047 -19.907   9.363  0.00  0.00    -0.382 OA
ATOM     23  H   LIG    1       32.327 -19.649  10.266  0.00  0.00    +0.210 HD
ENDBRANCH  15  22
ENDBRANCH  13  15
ENDBRANCH  10  11
ENDBRANCH   9  10
ENDBRANCH   7   9
ENDBRANCH   4   5
ENDBRANCH   3   4
ENDBRANCH   2   3
ENDBRANCH   1   2
BRANCH   1  24
ATOM     24  C   LIG    1       24.134 -22.166   3.871  0.00  0.00    +0.100 C 
BRANCH  24  25
ATOM     25  C   LIG    1       24.966 -22.726   5.018  0.00  0.00    +0.115 C 
BRANCH  25  27
ATOM     26  C   LIG    1       25.279 -25.042   5.869  0.00  0.00    +0.214 C 
ATOM     27  N   LIG    1       24.723 -24.147   4.999  0.00  0.00    -0.315 N 
ATOM     28  H   LIG    1       24.240 -24.531   4.200  0.00  0.00    +0.149 HD
ATOM     29  O   LIG    1       26.200 -24.787   6.633  0.00  0.00    -0.276 OA
BRANCH  26  30
ATOM     30  C   LIG    1       24.631 -26.394   5.662  0.00  0.00    +0.114 C 
BRANCH  30  31
ATOM     31  C   LIG    1       25.504 -27.455   5.027  0.00  0.00    +0.113 C 
BRANCH  31  33
ATOM     32  C   LIG    1       24.853 -29.557   6.320  0.00  0.00    +0.242 C 
ATOM     33  N   LIG    1       25.788 -28.659   5.810  0.00  0.00    -0.313 N 
ATOM     34  H   LIG    1       26.751 -28.970   5.856  0.00  0.00    +0.149 HD
ATOM     35  O   LIG    1       23.687 -29.541   6.089  0.00  0.00    -0.273 OA
BRANCH  32  36
ATOM     36  C   LIG    1       25.429 -30.653   7.229  0.00  0.00    +0.208 C 
BRANCH  36  38
ATOM     37  C   LIG    1       25.922 -31.388   9.691  0.00  0.00    +0.016 C 
ATOM     38  C   LIG    1       25.194 -30.378   8.759  0.00  0.00    +0.023 C 
ATOM     39  C   LIG    1       23.675 -30.511   9.058  0.00  0.00    +0.016 C 
BRANCH  38  40
ATOM     40  C   LIG    1       25.681 -28.949   9.114  0.00  0.00    +0.165 C 
BRANCH  40  41
ATOM     41  O   LIG    1       27.065 -28.795   8.798  0.00  0.00    -0.394 OA
ATOM     42  H   LIG    1       27.403 -29.676   8.565  0.00  0.00    +0.209 HD
ENDBRANCH  40  41
ENDBRANCH  38  40
ENDBRANCH  36  38
BRANCH  36  43
ATOM     43  O   LIG    1       24.842 -31.897   6.819  0.00  0.00    -0.382 OA
ATOM     44  H   LIG    1       24.832 -32.474   7.600  0.00  0.00    +0.210 HD
ENDBRANCH  36  43
ENDBRANCH  32  36
ENDBRANCH  31  33
ENDBRANCH  30  31
ENDBRANCH  26  30
ENDBRANCH  25  27
ENDBRANCH  24  25
ENDBRANCH   1  24
TORSDOF 23
ENDMDL
MODEL 4
REMARK VINA RESULT:      -6.9      1.469     11.515
REMARK  Name = *****
REMARK                            x       y       z     vdW  Elec       q    Type
REMARK                         _______ _______ _______ _____ _____    ______ ____
ROOT
ATOM      1  S   LIG    1       25.138 -25.745   4.998  0.00  0.00    -0.091 S 
ENDROOT
BRANCH   1   2
ATOM      2  S   LIG    1       25.316 -24.457   6.610  0.00  0.00    -0.091 S 
BRANCH   2   3
ATOM      3  C   LIG    1       23.699 -23.644   6.830  0.00  0.00    +0.100 C 
BRANCH   3   4
ATOM      4  C   LIG    1       23.822 -22.132   7.138  0.00  0.00    +0.115 C 
BRANCH   4   5
ATOM      5  N   LIG    1       25.126 -21.612   7.579  0.00  0.00    -0.315 N 
ATOM      6  H   LIG    1       25.278 -21.614   8.579  0.00  0.00    +0.149 HD
ATOM      7  C   LIG    1       25.981 -20.840   6.814  0.00  0.00    +0.214 C 
ATOM      8  O   LIG    1       25.766 -20.570   5.638  0.00  0.00    -0.276 OA
BRANCH   7   9
ATOM      9  C   LIG    1       27.217 -20.310   7.561  0.00  0.00    +0.114 C 
BRANCH   9  10
ATOM     10  C   LIG    1       28.574 -20.782   6.983  0.00  0.00    +0.113 C 
BRANCH  10  11
ATOM     11  N   LIG    1       29.701 -20.285   7.789  0.00  0.00    -0.313 N 
ATOM     12  H   LIG    1       29.836 -20.797   8.625  0.00  0.00    +0.149 HD
ATOM     13  C   LIG    1       30.543 -19.213   7.583  0.00  0.00    +0.242 C 
ATOM     14  O   LIG    1       30.493 -18.523   6.565  0.00  0.00    -0.273 OA
BRANCH  13  15
ATOM     15  C   LIG    1       31.645 -18.907   8.719  0.00  0.00    +0.208 C 
BRANCH  15  16
ATOM     16  C   LIG    1       31.356 -17.711   9.699  0.00  0.00    +0.023 C 
ATOM     17  C   LIG    1       30.902 -18.068  11.141  0.00  0.00    +0.016 C 
ATOM     18  C   LIG    1       30.216 -16.933   9.035  0.00  0.00    +0.016 C 
BRANCH  16  19
ATOM     19  C   LIG    1       32.570 -16.732   9.870  0.00  0.00    +0.165 C 
BRANCH  19  20
ATOM     20  O   LIG    1       32.770 -15.880   8.746  0.00  0.00    -0.394 OA
ATOM     21  H   LIG    1       32.138 -15.147   8.804  0.00  0.00    +0.209 HD
ENDBRANCH  19  20
ENDBRANCH  16  19
ENDBRANCH  15  16
BRANCH  15  22
ATOM     22  O   LIG    1       32.040 -20.081   9.414  0.00  0.00    -0.382 OA
ATOM     23  H   LIG    1       32.610 -20.573   8.785  0.00  0.00    +0.210 HD
ENDBRANCH  15  22
ENDBRANCH  13  15
ENDBRANCH  10  11
ENDBRANCH   9  10
ENDBRANCH   7   9
ENDBRANCH   4   5
ENDBRANCH   3   4
ENDBRANCH   2   3
ENDBRANCH   1   2
BRANCH   1  24
ATOM     24  C   LIG    1       24.863 -27.298   5.893  0.00  0.00    +0.100 C 
BRANCH  24  25
ATOM     25  C   LIG    1       24.775 -28.533   5.005  0.00  0.00    +0.115 C 
BRANCH  25  27
ATOM     26  C   LIG    1       24.881 -30.617   6.359  0.00  0.00    +0.214 C 
ATOM     27  N   LIG    1       25.480 -29.565   5.725  0.00  0.00    -0.315 N 
ATOM     28  H   LIG    1       26.461 -29.421   5.912  0.00  0.00    +0.149 HD
ATOM     29  O   LIG    1       23.680 -30.707   6.570  0.00  0.00    -0.276 OA
BRANCH  26  30
ATOM     30  C   LIG    1       25.950 -31.583   6.821  0.00  0.00    +0.114 C 
BRANCH  30  31
ATOM     31  C   LIG    1       25.833 -32.063   8.251  0.00  0.00    +0.113 C 
BRANCH  31  33
ATOM     32  C   LIG    1       25.952 -30.094   9.870  0.00  0.00    +0.242 C 
ATOM     33  N   LIG    1       26.466 -31.253   9.293  0.00  0.00    -0.313 N 
ATOM     34  H   LIG    1       27.274 -31.643   9.763  0.00  0.00    +0.149 HD
ATOM     35  O   LIG    1       24.861 -29.658   9.684  0.00  0.00    -0.273 OA
BRANCH  32  36
ATOM     36  C   LIG    1       26.900 -29.370  10.838  0.00  0.00    +0.208 C 
BRANCH  36  38
ATOM     37  C   LIG    1       25.669 -30.705  12.721  0.00  0.00    +0.016 C 
ATOM     38  C   LIG    1       26.400 -29.389  12.328  0.00  0.00    +0.023 C 
ATOM     39  C   LIG    1       25.376 -28.237  12.522  0.00  0.00    +0.016 C 
BRANCH  38  40
ATOM     40  C   LIG    1       27.604 -29.196  13.286  0.00  0.00    +0.165 C 
BRANCH  40  41
ATOM     41  O   LIG    1       28.011 -30.447  13.842  0.00  0.00    -0.394 OA
ATOM     42  H   LIG    1       28.851 -30.292  14.307  0.00  0.00    +0.209 HD
ENDBRANCH  40  41
ENDBRANCH  38  40
ENDBRANCH  36  38
BRANCH  36  43
ATOM     43  O   LIG    1       28.191 -29.982  10.706  0.00  0.00    -0.382 OA
ATOM     44  H   LIG    1       28.246 -30.674  11.386  0.00  0.00    +0.210 HD
ENDBRANCH  36  43
ENDBRANCH  32  36
ENDBRANCH  31  33
ENDBRANCH  30  31
ENDBRANCH  26  30
ENDBRANCH  25  27
ENDBRANCH  24  25
ENDBRANCH   1  24
TORSDOF 23
ENDMDL
MODEL 5
REMARK VINA RESULT:      -6.9      1.886      2.528
REMARK  Name = *****
REMARK                            x       y       z     vdW  Elec       q    Type
REMARK                         _______ _______ _______ _____ _____    ______ ____
ROOT
ATOM      1  S   LIG    1       25.580 -24.276   6.638  0.00  0.00    -0.091 S 
ENDROOT
BRANCH   1   2
ATOM      2  S   LIG    1       25.124 -25.624   5.133  0.00  0.00    -0.091 S 
BRANCH   2   3
ATOM      3  C   LIG    1       24.516 -27.143   5.939  0.00  0.00    +0.100 C 
BRANCH   3   4
ATOM      4  C   LIG    1       25.209 -28.423   5.412  0.00  0.00    +0.115 C 
BRANCH   4   5
ATOM      5  N   LIG    1       25.364 -29.563   6.331  0.00  0.00    -0.315 N 
ATOM      6  H   LIG    1       25.482 -29.321   7.305  0.00  0.00    +0.149 HD
ATOM      7  C   LIG    1       25.694 -30.853   5.958  0.00  0.00    +0.214 C 
ATOM      8  O   LIG    1       25.817 -31.201   4.789  0.00  0.00    -0.276 OA
BRANCH   7   9
ATOM      9  C   LIG    1       25.930 -31.824   7.128  0.00  0.00    +0.114 C 
BRANCH   9  10
ATOM     10  C   LIG    1       26.132 -31.143   8.503  0.00  0.00    +0.113 C 
BRANCH  10  11
ATOM     11  N   LIG    1       24.958 -31.330   9.371  0.00  0.00    -0.313 N 
ATOM     12  H   LIG    1       25.098 -32.014  10.072  0.00  0.00    +0.149 HD
ATOM     13  C   LIG    1       23.711 -30.744   9.325  0.00  0.00    +0.242 C 
ATOM     14  O   LIG    1       23.430 -29.856   8.521  0.00  0.00    -0.273 OA
BRANCH  13  15
ATOM     15  C   LIG    1       22.621 -31.236  10.405  0.00  0.00    +0.208 C 
BRANCH  15  16
ATOM     16  C   LIG    1       22.705 -30.616  11.848  0.00  0.00    +0.023 C 
ATOM     17  C   LIG    1       23.475 -29.275  12.001  0.00  0.00    +0.016 C 
ATOM     18  C   LIG    1       23.444 -31.669  12.680  0.00  0.00    +0.016 C 
BRANCH  16  19
ATOM     19  C   LIG    1       21.305 -30.375  12.512  0.00  0.00    +0.165 C 
BRANCH  19  20
ATOM     20  O   LIG    1       20.701 -29.144  12.123  0.00  0.00    -0.394 OA
ATOM     21  H   LIG    1       20.903 -28.990  11.187  0.00  0.00    +0.209 HD
ENDBRANCH  19  20
ENDBRANCH  16  19
ENDBRANCH  15  16
BRANCH  15  22
ATOM     22  O   LIG    1       21.298 -31.202   9.888  0.00  0.00    -0.382 OA
ATOM     23  H   LIG    1       21.249 -31.950   9.256  0.00  0.00    +0.210 HD
ENDBRANCH  15  22
ENDBRANCH  13  15
ENDBRANCH  10  11
ENDBRANCH   9  10
ENDBRANCH   7   9
ENDBRANCH   4   5
ENDBRANCH   3   4
ENDBRANCH   2   3
ENDBRANCH   1   2
BRANCH   1  24
ATOM     24  C   LIG    1       24.121 -23.204   6.522  0.00  0.00    +0.100 C 
BRANCH  24  25
ATOM     25  C   LIG    1       24.143 -22.003   7.459  0.00  0.00    +0.115 C 
BRANCH  25  27
ATOM     26  C   LIG    1       26.320 -20.900   7.940  0.00  0.00    +0.214 C 
ATOM     27  N   LIG    1       25.318 -21.255   7.082  0.00  0.00    -0.315 N 
ATOM     28  H   LIG    1       25.330 -20.828   6.167  0.00  0.00    +0.149 HD
ATOM     29  O   LIG    1       26.255 -20.989   9.158  0.00  0.00    -0.276 OA
BRANCH  26  30
ATOM     30  C   LIG    1       27.462 -20.309   7.141  0.00  0.00    +0.114 C 
BRANCH  30  31
ATOM     31  C   LIG    1       28.812 -20.965   7.334  0.00  0.00    +0.113 C 
BRANCH  31  33
ATOM     32  C   LIG    1       30.706 -19.268   7.545  0.00  0.00    +0.242 C 
ATOM     33  N   LIG    1       29.831 -20.216   8.070  0.00  0.00    -0.313 N 
ATOM     34  H   LIG    1       29.805 -20.260   9.082  0.00  0.00    +0.149 HD
ATOM     35  O   LIG    1       30.669 -18.838   6.437  0.00  0.00    -0.273 OA
BRANCH  32  36
ATOM     36  C   LIG    1       31.770 -18.748   8.523  0.00  0.00    +0.208 C 
BRANCH  36  38
ATOM     37  C   LIG    1       30.019 -16.822   8.796  0.00  0.00    +0.016 C 
ATOM     38  C   LIG    1       31.281 -17.522   9.377  0.00  0.00    +0.023 C 
ATOM     39  C   LIG    1       32.409 -16.454   9.403  0.00  0.00    +0.016 C 
BRANCH  38  40
ATOM     40  C   LIG    1       30.958 -17.987  10.821  0.00  0.00    +0.165 C 
BRANCH  40  41
ATOM     41  O   LIG    1       30.444 -16.903  11.596  0.00  0.00    -0.394 OA
ATOM     42  H   LIG    1       29.831 -16.411  11.026  0.00  0.00    +0.209 HD
ENDBRANCH  40  41
ENDBRANCH  38  40
ENDBRANCH  36  38
BRANCH  36  43
ATOM     43  O   LIG    1       32.158 -19.851   9.355  0.00  0.00    -0.382 OA
ATOM     44  H   LIG    1       31.371 -20.113   9.860  0.00  0.00    +0.210 HD
ENDBRANCH  36  43
ENDBRANCH  32  36
ENDBRANCH  31  33
ENDBRANCH  30  31
ENDBRANCH  26  30
ENDBRANCH  25  27
ENDBRANCH  24  25
ENDBRANCH   1  24
TORSDOF 23
ENDMDL
MODEL 6
REMARK VINA RESULT:      -6.8      1.356     11.600
REMARK  Name = *****
REMARK                            x       y       z     vdW  Elec       q    Type
REMARK                         _______ _______ _______ _____ _____    ______ ____
ROOT
ATOM      1  S   LIG    1       26.326 -26.583   5.822  0.00  0.00    -0.091 S 
ENDROOT
BRANCH   1   2
ATOM      2  S   LIG    1       26.080 -24.728   6.711  0.00  0.00    -0.091 S 
BRANCH   2   3
ATOM      3  C   LIG    1       24.347 -24.229   6.441  0.00  0.00    +0.100 C 
BRANCH   3   4
ATOM      4  C   LIG    1       24.010 -22.857   7.074  0.00  0.00    +0.115 C 
BRANCH   4   5
ATOM      5  N   LIG    1       25.049 -21.814   7.075  0.00  0.00    -0.315 N 
ATOM      6  H   LIG    1       25.481 -21.632   6.179  0.00  0.00    +0.149 HD
ATOM      7  C   LIG    1       25.697 -21.330   8.197  0.00  0.00    +0.214 C 
ATOM      8  O   LIG    1       25.409 -21.676   9.337  0.00  0.00    -0.276 OA
BRANCH   7   9
ATOM      9  C   LIG    1       26.840 -20.342   7.908  0.00  0.00    +0.114 C 
BRANCH   9  10
ATOM     10  C   LIG    1       28.123 -20.988   7.330  0.00  0.00    +0.113 C 
BRANCH  10  11
ATOM     11  N   LIG    1       29.328 -20.490   8.013  0.00  0.00    -0.313 N 
ATOM     12  H   LIG    1       29.347 -20.712   8.977  0.00  0.00    +0.149 HD
ATOM     13  C   LIG    1       30.381 -19.739   7.534  0.00  0.00    +0.242 C 
ATOM     14  O   LIG    1       30.484 -19.432   6.348  0.00  0.00    -0.273 OA
BRANCH  13  15
ATOM     15  C   LIG    1       31.519 -19.303   8.589  0.00  0.00    +0.208 C 
BRANCH  15  16
ATOM     16  C   LIG    1       31.258 -18.003   9.434  0.00  0.00    +0.023 C 
ATOM     17  C   LIG    1       30.710 -18.191  10.876  0.00  0.00    +0.016 C 
ATOM     18  C   LIG    1       30.204 -17.228   8.638  0.00  0.00    +0.016 C 
BRANCH  16  19
ATOM     19  C   LIG    1       32.520 -17.084   9.581  0.00  0.00    +0.165 C 
BRANCH  19  20
ATOM     20  O   LIG    1       32.414 -15.860   8.859  0.00  0.00    -0.394 OA
ATOM     21  H   LIG    1       32.970 -15.925   8.067  0.00  0.00    +0.209 HD
ENDBRANCH  19  20
ENDBRANCH  16  19
ENDBRANCH  15  16
BRANCH  15  22
ATOM     22  O   LIG    1       31.945 -20.389   9.400  0.00  0.00    -0.382 OA
ATOM     23  H   LIG    1       32.288 -21.060   8.773  0.00  0.00    +0.210 HD
ENDBRANCH  15  22
ENDBRANCH  13  15
ENDBRANCH  10  11
ENDBRANCH   9  10
ENDBRANCH   7   9
ENDBRANCH   4   5
ENDBRANCH   3   4
ENDBRANCH   2   3
ENDBRANCH   1   2
BRANCH   1  24
ATOM     24  C   LIG    1       24.678 -27.275   6.128  0.00  0.00    +0.100 C 
BRANCH  24  25
ATOM     25  C   LIG    1       24.221 -28.299   5.097  0.00  0.00    +0.115 C 
BRANCH  25  27
ATOM     26  C   LIG    1       24.463 -30.681   5.771  0.00  0.00    +0.214 C 
ATOM     27  N   LIG    1       24.992 -29.484   5.378  0.00  0.00    -0.315 N 
ATOM     28  H   LIG    1       25.995 -29.388   5.446  0.00  0.00    +0.149 HD
ATOM     29  O   LIG    1       23.304 -30.844   6.128  0.00  0.00    -0.276 OA
BRANCH  26  30
ATOM     30  C   LIG    1       25.558 -31.726   5.770  0.00  0.00    +0.114 C 
BRANCH  30  31
ATOM     31  C   LIG    1       25.666 -32.570   7.021  0.00  0.00    +0.113 C 
BRANCH  31  33
ATOM     32  C   LIG    1       26.329 -31.881   9.386  0.00  0.00    +0.242 C 
ATOM     33  N   LIG    1       25.448 -31.908   8.308  0.00  0.00    -0.313 N 
ATOM     34  H   LIG    1       24.663 -31.273   8.380  0.00  0.00    +0.149 HD
ATOM     35  O   LIG    1       27.445 -32.293   9.375  0.00  0.00    -0.273 OA
BRANCH  32  36
ATOM     36  C   LIG    1       25.777 -31.233  10.665  0.00  0.00    +0.208 C 
BRANCH  36  38
ATOM     37  C   LIG    1       27.541 -29.387  11.237  0.00  0.00    +0.016 C 
ATOM     38  C   LIG    1       26.090 -29.696  10.767  0.00  0.00    +0.023 C 
ATOM     39  C   LIG    1       25.138 -29.065  11.821  0.00  0.00    +0.016 C 
BRANCH  38  40
ATOM     40  C   LIG    1       25.872 -29.025   9.386  0.00  0.00    +0.165 C 
BRANCH  40  41
ATOM     41  O   LIG    1       27.103 -28.517   8.873  0.00  0.00    -0.394 OA
ATOM     42  H   LIG    1       26.915 -28.151   7.993  0.00  0.00    +0.209 HD
ENDBRANCH  40  41
ENDBRANCH  38  40
ENDBRANCH  36  38
BRANCH  36  43
ATOM     43  O   LIG    1       24.365 -31.488  10.694  0.00  0.00    -0.382 OA
ATOM     44  H   LIG    1       24.087 -31.432  11.624  0.00  0.00    +0.210 HD
ENDBRANCH  36  43
ENDBRANCH  32  36
ENDBRANCH  31  33
ENDBRANCH  30  31
ENDBRANCH  26  30
ENDBRANCH  25  27
ENDBRANCH  24  25
ENDBRANCH   1  24
TORSDOF 23
ENDMDL
MODEL 7
REMARK VINA RESULT:      -6.8      1.882      2.803
REMARK  Name = *****
REMARK                            x       y       z     vdW  Elec       q    Type
REMARK                         _______ _______ _______ _____ _____    ______ ____
ROOT
ATOM      1  S   LIG    1       25.634 -24.411   6.835  0.00  0.00    -0.091 S 
ENDROOT
BRANCH   1   2
ATOM      2  S   LIG    1       26.283 -26.349   6.498  0.00  0.00    -0.091 S 
BRANCH   2   3
ATOM      3  C   LIG    1       25.588 -26.878   4.897  0.00  0.00    +0.100 C 
BRANCH   3   4
ATOM      4  C   LIG    1       24.743 -28.170   5.005  0.00  0.00    +0.115 C 
BRANCH   4   5
ATOM      5  N   LIG    1       25.399 -29.396   5.488  0.00  0.00    -0.315 N 
ATOM      6  H   LIG    1       26.304 -29.593   5.081  0.00  0.00    +0.149 HD
ATOM      7  C   LIG    1       24.771 -30.432   6.155  0.00  0.00    +0.214 C 
ATOM      8  O   LIG    1       23.591 -30.396   6.486  0.00  0.00    -0.276 OA
BRANCH   7   9
ATOM      9  C   LIG    1       25.658 -31.660   6.425  0.00  0.00    +0.114 C 
BRANCH   9  10
ATOM     10  C   LIG    1       25.231 -32.511   7.646  0.00  0.00    +0.113 C 
BRANCH  10  11
ATOM     11  N   LIG    1       25.205 -31.705   8.878  0.00  0.00    -0.313 N 
ATOM     12  H   LIG    1       24.318 -31.307   9.062  0.00  0.00    +0.149 HD
ATOM     13  C   LIG    1       26.215 -31.392   9.762  0.00  0.00    +0.242 C 
ATOM     14  O   LIG    1       27.350 -31.855   9.656  0.00  0.00    -0.273 OA
BRANCH  13  15
ATOM     15  C   LIG    1       25.848 -30.414  10.990  0.00  0.00    +0.208 C 
BRANCH  15  16
ATOM     16  C   LIG    1       26.684 -29.089  11.129  0.00  0.00    +0.023 C 
ATOM     17  C   LIG    1       26.158 -28.019  12.126  0.00  0.00    +0.016 C 
ATOM     18  C   LIG    1       26.660 -28.467   9.730  0.00  0.00    +0.016 C 
BRANCH  16  19
ATOM     19  C   LIG    1       28.183 -29.329  11.523  0.00  0.00    +0.165 C 
BRANCH  19  20
ATOM     20  O   LIG    1       28.552 -28.698  12.746  0.00  0.00    -0.394 OA
ATOM     21  H   LIG    1       28.481 -27.738  12.627  0.00  0.00    +0.209 HD
ENDBRANCH  19  20
ENDBRANCH  16  19
ENDBRANCH  15  16
BRANCH  15  22
ATOM     22  O   LIG    1       24.451 -30.176  11.088  0.00  0.00    -0.382 OA
ATOM     23  H   LIG    1       24.280 -29.408  10.504  0.00  0.00    +0.210 HD
ENDBRANCH  15  22
ENDBRANCH  13  15
ENDBRANCH  10  11
ENDBRANCH   9  10
ENDBRANCH   7   9
ENDBRANCH   4   5
ENDBRANCH   3   4
ENDBRANCH   2   3
ENDBRANCH   1   2
BRANCH   1  24
ATOM     24  C   LIG    1       23.897 -24.595   6.345  0.00  0.00    +0.100 C 
BRANCH  24  25
ATOM     25  C   LIG    1       22.980 -23.482   6.837  0.00  0.00    +0.115 C 
BRANCH  25  27
ATOM     26  C   LIG    1       23.838 -21.170   6.509  0.00  0.00    +0.214 C 
ATOM     27  N   LIG    1       23.313 -22.336   6.027  0.00  0.00    -0.315 N 
ATOM     28  H   LIG    1       22.993 -22.328   5.070  0.00  0.00    +0.149 HD
ATOM     29  O   LIG    1       23.902 -20.876   7.694  0.00  0.00    -0.276 OA
BRANCH  26  30
ATOM     30  C   LIG    1       24.236 -20.293   5.342  0.00  0.00    +0.114 C 
BRANCH  30  31
ATOM     31  C   LIG    1       25.699 -20.331   4.955  0.00  0.00    +0.113 C 
BRANCH  31  33
ATOM     32  C   LIG    1       27.962 -20.215   6.129  0.00  0.00    +0.242 C 
ATOM     33  N   LIG    1       26.665 -20.704   5.990  0.00  0.00    -0.313 N 
ATOM     34  H   LIG    1       26.323 -21.242   6.776  0.00  0.00    +0.149 HD
ATOM     35  O   LIG    1       28.434 -19.328   5.495  0.00  0.00    -0.273 OA
BRANCH  32  36
ATOM     36  C   LIG    1       28.801 -20.894   7.222  0.00  0.00    +0.208 C 
BRANCH  36  38
ATOM     37  C   LIG    1       30.825 -19.338   6.647  0.00  0.00    +0.016 C 
ATOM     38  C   LIG    1       29.961 -19.984   7.768  0.00  0.00    +0.023 C 
ATOM     39  C   LIG    1       30.921 -20.861   8.619  0.00  0.00    +0.016 C 
BRANCH  38  40
ATOM     40  C   LIG    1       29.367 -18.848   8.641  0.00  0.00    +0.165 C 
BRANCH  40  41
ATOM     41  O   LIG    1       30.214 -18.576   9.758  0.00  0.00    -0.394 OA
ATOM     42  H   LIG    1       29.689 -18.738  10.559  0.00  0.00    +0.209 HD
ENDBRANCH  40  41
ENDBRANCH  38  40
ENDBRANCH  36  38
BRANCH  36  43
ATOM     43  O   LIG    1       27.901 -21.286   8.268  0.00  0.00    -0.382 OA
ATOM     44  H   LIG    1       28.249 -20.912   9.094  0.00  0.00    +0.210 HD
ENDBRANCH  36  43
ENDBRANCH  32  36
ENDBRANCH  31  33
ENDBRANCH  30  31
ENDBRANCH  26  30
ENDBRANCH  25  27
ENDBRANCH  24  25
ENDBRANCH   1  24
TORSDOF 23
ENDMDL
MODEL 8
REMARK VINA RESULT:      -6.8      2.405     11.917
REMARK  Name = *****
REMARK                            x       y       z     vdW  Elec       q    Type
REMARK                         _______ _______ _______ _____ _____    ______ ____
ROOT
ATOM      1  S   LIG    1       25.203 -25.700   4.598  0.00  0.00    -0.091 S 
ENDROOT
BRANCH   1   2
ATOM      2  S   LIG    1       25.225 -24.824   6.475  0.00  0.00    -0.091 S 
BRANCH   2   3
ATOM      3  C   LIG    1       23.527 -24.258   6.824  0.00  0.00    +0.100 C 
BRANCH   3   4
ATOM      4  C   LIG    1       23.294 -22.777   6.438  0.00  0.00    +0.115 C 
BRANCH   4   5
ATOM      5  N   LIG    1       24.133 -22.190   5.382  0.00  0.00    -0.315 N 
ATOM      6  H   LIG    1       25.118 -22.414   5.436  0.00  0.00    +0.149 HD
ATOM      7  C   LIG    1       23.773 -21.131   4.568  0.00  0.00    +0.214 C 
ATOM      8  O   LIG    1       22.662 -20.615   4.594  0.00  0.00    -0.276 OA
BRANCH   7   9
ATOM      9  C   LIG    1       24.889 -20.620   3.640  0.00  0.00    +0.114 C 
BRANCH   9  10
ATOM     10  C   LIG    1       25.618 -19.351   4.143  0.00  0.00    +0.113 C 
BRANCH  10  11
ATOM     11  N   LIG    1       26.919 -19.684   4.747  0.00  0.00    -0.313 N 
ATOM     12  H   LIG    1       27.678 -19.563   4.125  0.00  0.00    +0.149 HD
ATOM     13  C   LIG    1       27.223 -20.172   6.001  0.00  0.00    +0.242 C 
ATOM     14  O   LIG    1       26.367 -20.332   6.870  0.00  0.00    -0.273 OA
BRANCH  13  15
ATOM     15  C   LIG    1       28.770 -20.496   6.314  0.00  0.00    +0.208 C 
BRANCH  15  16
ATOM     16  C   LIG    1       29.643 -19.332   6.913  0.00  0.00    +0.023 C 
ATOM     17  C   LIG    1       29.209 -18.755   8.289  0.00  0.00    +0.016 C 
ATOM     18  C   LIG    1       29.539 -18.201   5.885  0.00  0.00    +0.016 C 
BRANCH  16  19
ATOM     19  C   LIG    1       31.159 -19.700   7.071  0.00  0.00    +0.165 C 
BRANCH  19  20
ATOM     20  O   LIG    1       31.385 -20.786   7.965  0.00  0.00    -0.394 OA
ATOM     21  H   LIG    1       30.524 -21.126   8.254  0.00  0.00    +0.209 HD
ENDBRANCH  19  20
ENDBRANCH  16  19
ENDBRANCH  15  16
BRANCH  15  22
ATOM     22  O   LIG    1       28.930 -21.708   7.038  0.00  0.00    -0.382 OA
ATOM     23  H   LIG    1       29.337 -22.335   6.404  0.00  0.00    +0.210 HD
ENDBRANCH  15  22
ENDBRANCH  13  15
ENDBRANCH  10  11
ENDBRANCH   9  10
ENDBRANCH   7   9
ENDBRANCH   4   5
ENDBRANCH   3   4
ENDBRANCH   2   3
ENDBRANCH   1   2
BRANCH   1  24
ATOM     24  C   LIG    1       25.522 -27.420   5.075  0.00  0.00    +0.100 C 
BRANCH  24  25
ATOM     25  C   LIG    1       24.428 -28.053   5.927  0.00  0.00    +0.115 C 
BRANCH  25  27
ATOM     26  C   LIG    1       24.734 -29.429   7.976  0.00  0.00    +0.214 C 
ATOM     27  N   LIG    1       25.064 -28.368   7.182  0.00  0.00    -0.315 N 
ATOM     28  H   LIG    1       25.683 -27.677   7.582  0.00  0.00    +0.149 HD
ATOM     29  O   LIG    1       23.736 -30.120   7.830  0.00  0.00    -0.276 OA
BRANCH  26  30
ATOM     30  C   LIG    1       25.750 -29.540   9.093  0.00  0.00    +0.114 C 
BRANCH  30  31
ATOM     31  C   LIG    1       26.585 -30.802   9.102  0.00  0.00    +0.113 C 
BRANCH  31  33
ATOM     32  C   LIG    1       26.084 -32.691   7.461  0.00  0.00    +0.242 C 
ATOM     33  N   LIG    1       26.742 -31.522   7.838  0.00  0.00    -0.313 N 
ATOM     34  H   LIG    1       27.247 -31.056   7.094  0.00  0.00    +0.149 HD
ATOM     35  O   LIG    1       25.204 -33.211   8.067  0.00  0.00    -0.273 OA
BRANCH  32  36
ATOM     36  C   LIG    1       26.554 -33.305   6.133  0.00  0.00    +0.208 C 
BRANCH  36  38
ATOM     37  C   LIG    1       26.322 -33.273   3.527  0.00  0.00    +0.016 C 
ATOM     38  C   LIG    1       25.750 -32.781   4.888  0.00  0.00    +0.023 C 
ATOM     39  C   LIG    1       25.826 -31.229   4.867  0.00  0.00    +0.016 C 
BRANCH  38  40
ATOM     40  C   LIG    1       24.272 -33.239   4.990  0.00  0.00    +0.165 C 
BRANCH  40  41
ATOM     41  O   LIG    1       23.462 -32.204   5.548  0.00  0.00    -0.394 OA
ATOM     42  H   LIG    1       23.963 -31.376   5.468  0.00  0.00    +0.209 HD
ENDBRANCH  40  41
ENDBRANCH  38  40
ENDBRANCH  36  38
BRANCH  36  43
ATOM     43  O   LIG    1       27.957 -33.030   6.011  0.00  0.00    -0.382 OA
ATOM     44  H   LIG    1       28.040 -32.227   5.470  0.00  0.00    +0.210 HD
ENDBRANCH  36  43
ENDBRANCH  32  36
ENDBRANCH  31  33
ENDBRANCH  30  31
ENDBRANCH  26  30
ENDBRANCH  25  27
ENDBRANCH  24  25
ENDBRANCH   1  24
TORSDOF 23
ENDMDL
MODEL 9
REMARK VINA RESULT:      -6.8      2.790      3.638
REMARK  Name = *****
REMARK                            x       y       z     vdW  Elec       q    Type
REMARK                         _______ _______ _______ _____ _____    ______ ____
ROOT
ATOM      1  S   LIG    1       24.035 -25.392   5.900  0.00  0.00    -0.091 S 
ENDROOT
BRANCH   1   2
ATOM      2  S   LIG    1       25.897 -26.163   5.423  0.00  0.00    -0.091 S 
BRANCH   2   3
ATOM      3  C   LIG    1       25.777 -27.978   5.553  0.00  0.00    +0.100 C 
BRANCH   3   4
ATOM      4  C   LIG    1       25.059 -28.443   6.844  0.00  0.00    +0.115 C 
BRANCH   4   5
ATOM      5  N   LIG    1       25.830 -28.481   8.098  0.00  0.00    -0.315 N 
ATOM      6  H   LIG    1       26.649 -27.888   8.121  0.00  0.00    +0.149 HD
ATOM      7  C   LIG    1       25.737 -29.463   9.066  0.00  0.00    +0.214 C 
ATOM      8  O   LIG    1       24.928 -30.382   9.010  0.00  0.00    -0.276 OA
BRANCH   7   9
ATOM      9  C   LIG    1       26.754 -29.340  10.213  0.00  0.00    +0.114 C 
BRANCH   9  10
ATOM     10  C   LIG    1       26.310 -29.991  11.545  0.00  0.00    +0.113 C 
BRANCH  10  11
ATOM     11  N   LIG    1       24.923 -29.629  11.882  0.00  0.00    -0.313 N 
ATOM     12  H   LIG    1       24.341 -29.544  11.087  0.00  0.00    +0.149 HD
ATOM     13  C   LIG    1       24.343 -29.352  13.102  0.00  0.00    +0.242 C 
ATOM     14  O   LIG    1       24.957 -29.458  14.162  0.00  0.00    -0.273 OA
BRANCH  13  15
ATOM     15  C   LIG    1       22.791 -28.918  13.101  0.00  0.00    +0.208 C 
BRANCH  15  16
ATOM     16  C   LIG    1       22.447 -27.472  13.619  0.00  0.00    +0.023 C 
ATOM     17  C   LIG    1       23.566 -26.399  13.523  0.00  0.00    +0.016 C 
ATOM     18  C   LIG    1       22.116 -27.661  15.103  0.00  0.00    +0.016 C 
BRANCH  16  19
ATOM     19  C   LIG    1       21.194 -26.837  12.924  0.00  0.00    +0.165 C 
BRANCH  19  20
ATOM     20  O   LIG    1       19.981 -27.530  13.205  0.00  0.00    -0.394 OA
ATOM     21  H   LIG    1       20.049 -27.913  14.093  0.00  0.00    +0.209 HD
ENDBRANCH  19  20
ENDBRANCH  16  19
ENDBRANCH  15  16
BRANCH  15  22
ATOM     22  O   LIG    1       22.152 -29.206  11.865  0.00  0.00    -0.382 OA
ATOM     23  H   LIG    1       22.453 -30.107  11.624  0.00  0.00    +0.210 HD
ENDBRANCH  15  22
ENDBRANCH  13  15
ENDBRANCH  10  11
ENDBRANCH   9  10
ENDBRANCH   7   9
ENDBRANCH   4   5
ENDBRANCH   3   4
ENDBRANCH   2   3
ENDBRANCH   1   2
BRANCH   1  24
ATOM     24  C   LIG    1       24.554 -23.867   6.734  0.00  0.00    +0.100 C 
BRANCH  24  25
ATOM     25  C   LIG    1       25.985 -23.890   7.259  0.00  0.00    +0.115 C 
BRANCH  25  27
ATOM     26  C   LIG    1       26.340 -21.584   8.122  0.00  0.00    +0.214 C 
ATOM     27  N   LIG    1       26.449 -22.529   7.142  0.00  0.00    -0.315 N 
ATOM     28  H   LIG    1       26.728 -22.204   6.227  0.00  0.00    +0.149 HD
ATOM     29  O   LIG    1       25.662 -21.708   9.133  0.00  0.00    -0.276 OA
BRANCH  26  30
ATOM     30  C   LIG    1       27.116 -20.354   7.705  0.00  0.00    +0.114 C 
BRANCH  30  31
ATOM     31  C   LIG    1       28.535 -20.594   7.239  0.00  0.00    +0.113 C 
BRANCH  31  33
ATOM     32  C   LIG    1       30.558 -19.074   7.573  0.00  0.00    +0.242 C 
ATOM     33  N   LIG    1       29.618 -19.998   8.024  0.00  0.00    -0.313 N 
ATOM     34  H   LIG    1       29.598 -20.134   9.027  0.00  0.00    +0.149 HD
ATOM     35  O   LIG    1       30.544 -18.541   6.510  0.00  0.00    -0.273 OA
BRANCH  32  36
ATOM     36  C   LIG    1       31.669 -18.730   8.576  0.00  0.00    +0.208 C 
BRANCH  36  38
ATOM     37  C   LIG    1       30.765 -18.255  10.985  0.00  0.00    +0.016 C 
ATOM     38  C   LIG    1       31.239 -17.649   9.633  0.00  0.00    +0.023 C 
ATOM     39  C   LIG    1       30.038 -16.847   9.060  0.00  0.00    +0.016 C 
BRANCH  38  40
ATOM     40  C   LIG    1       32.427 -16.693   9.917  0.00  0.00    +0.165 C 
BRANCH  40  41
ATOM     41  O   LIG    1       32.797 -15.984   8.734  0.00  0.00    -0.394 OA
ATOM     42  H   LIG    1       31.973 -15.703   8.302  0.00  0.00    +0.209 HD
ENDBRANCH  40  41
ENDBRANCH  38  40
ENDBRANCH  36  38
BRANCH  36  43
ATOM     43  O   LIG    1       32.066 -19.956   9.207  0.00  0.00    -0.382 OA
ATOM     44  H   LIG    1       32.148 -20.622   8.504  0.00  0.00    +0.210 HD
ENDBRANCH  36  43
ENDBRANCH  32  36
ENDBRANCH  31  33
ENDBRANCH  30  31
ENDBRANCH  26  30
ENDBRANCH  25  27
ENDBRANCH  24  25
ENDBRANCH   1  24
TORSDOF 23
ENDMDL
