MODEL 1
REMARK VINA RESULT:      -3.6      0.000      0.000
REMARK  Name = *****
REMARK                            x       y       z     vdW  Elec       q    Type
REMARK                         _______ _______ _______ _____ _____    ______ ____
ROOT
ATOM      1  C   LIG    1       26.010 -14.067   3.952  0.00  0.00    +0.129 C 
ATOM      2  C   LIG    1       26.402 -13.115   2.823  0.00  0.00    +0.236 C 
ATOM      3  O   LIG    1       25.724 -12.941   1.812  0.00  0.00    -0.274 OA
ATOM      4  N   LIG    1       27.627 -12.506   2.920  0.00  0.00    -0.239 N 
ATOM      5  H   LIG    1       27.899 -11.915   2.149  0.00  0.00    +0.159 HD
ATOM      6  C   LIG    1       28.438 -12.488   4.011  0.00  0.00    +0.312 C 
ATOM      7  O   LIG    1       29.471 -11.829   4.035  0.00  0.00    -0.252 OA
ATOM      8  N   LIG    1       28.020 -13.204   5.091  0.00  0.00    -0.239 N 
ATOM      9  H   LIG    1       28.554 -13.071   5.935  0.00  0.00    +0.159 HD
ATOM     10  C   LIG    1       26.797 -13.795   5.229  0.00  0.00    +0.236 C 
ATOM     11  O   LIG    1       26.410 -14.134   6.348  0.00  0.00    -0.274 OA
ENDROOT
BRANCH   1  12
ATOM     12  C   LIG    1       26.293 -15.552   3.448  0.00  0.00    +0.010 C 
ATOM     13  C   LIG    1       27.556 -16.168   4.082  0.00  0.00    +0.009 C 
BRANCH  12  14
ATOM     14  C   LIG    1       25.072 -16.508   3.609  0.00  0.00    +0.004 C 
BRANCH  14  15
ATOM     15  C   LIG    1       25.380 -18.002   3.429  0.00  0.00    -0.003 C 
ATOM     16  C   LIG    1       24.168 -18.873   3.739  0.00  0.00    +0.004 C 
ENDBRANCH  14  15
ENDBRANCH  12  14
ENDBRANCH   1  12
BRANCH   1  17
ATOM     17  C   LIG    1       24.491 -13.860   4.234  0.00  0.00    +0.052 C 
BRANCH  17  19
ATOM     18  C   LIG    1       23.876 -11.580   5.122  0.00  0.00    +0.004 C 
ATOM     19  C   LIG    1       23.996 -12.437   4.102  0.00  0.00    -0.033 C 
ENDBRANCH  17  19
ENDBRANCH   1  17
TORSDOF 5
ENDMDL
MODEL 2
REMARK VINA RESULT:      -3.4      1.639      2.093
REMARK  Name = *****
REMARK                            x       y       z     vdW  Elec       q    Type
REMARK                         _______ _______ _______ _____ _____    ______ ____
ROOT
ATOM      1  C   LIG    1       25.074 -13.892   3.678  0.00  0.00    +0.129 C 
ATOM      2  C   LIG    1       26.415 -14.041   2.962  0.00  0.00    +0.236 C 
ATOM      3  O   LIG    1       26.541 -14.560   1.854  0.00  0.00    -0.274 OA
ATOM      4  N   LIG    1       27.535 -13.657   3.652  0.00  0.00    -0.239 N 
ATOM      5  H   LIG    1       28.420 -13.800   3.190  0.00  0.00    +0.159 HD
ATOM      6  C   LIG    1       27.568 -12.958   4.818  0.00  0.00    +0.312 C 
ATOM      7  O   LIG    1       28.622 -12.571   5.307  0.00  0.00    -0.252 OA
ATOM      8  N   LIG    1       26.366 -12.674   5.390  0.00  0.00    -0.239 N 
ATOM      9  H   LIG    1       26.395 -12.041   6.174  0.00  0.00    +0.159 HD
ATOM     10  C   LIG    1       25.143 -12.882   4.818  0.00  0.00    +0.236 C 
ATOM     11  O   LIG    1       24.155 -12.305   5.273  0.00  0.00    -0.274 OA
ENDROOT
BRANCH   1  12
ATOM     12  C   LIG    1       24.673 -15.325   4.250  0.00  0.00    +0.010 C 
ATOM     13  C   LIG    1       23.156 -15.473   4.483  0.00  0.00    +0.009 C 
BRANCH  12  14
ATOM     14  C   LIG    1       25.220 -16.511   3.398  0.00  0.00    +0.004 C 
BRANCH  14  15
ATOM     15  C   LIG    1       24.545 -17.867   3.652  0.00  0.00    -0.003 C 
ATOM     16  C   LIG    1       25.557 -19.006   3.694  0.00  0.00    +0.004 C 
ENDBRANCH  14  15
ENDBRANCH  12  14
ENDBRANCH   1  12
BRANCH   1  17
ATOM     17  C   LIG    1       24.031 -13.406   2.628  0.00  0.00    +0.052 C 
BRANCH  17  19
ATOM     18  C   LIG    1       25.405 -11.451   1.818  0.00  0.00    +0.004 C 
ATOM     19  C   LIG    1       24.222 -11.989   2.135  0.00  0.00    -0.033 C 
ENDBRANCH  17  19
ENDBRANCH   1  17
TORSDOF 5
ENDMDL
MODEL 3
REMARK VINA RESULT:      -2.9      1.995      4.367
REMARK  Name = *****
REMARK                            x       y       z     vdW  Elec       q    Type
REMARK                         _______ _______ _______ _____ _____    ______ ____
ROOT
ATOM      1  C   LIG    1       25.695 -14.932   3.583  0.00  0.00    +0.129 C 
ATOM      2  C   LIG    1       26.195 -14.005   2.477  0.00  0.00    +0.236 C 
ATOM      3  O   LIG    1       27.207 -14.222   1.812  0.00  0.00    -0.274 OA
ATOM      4  N   LIG    1       25.518 -12.826   2.300  0.00  0.00    -0.239 N 
ATOM      5  H   LIG    1       25.882 -12.198   1.599  0.00  0.00    +0.159 HD
ATOM      6  C   LIG    1       24.323 -12.487   2.853  0.00  0.00    +0.312 C 
ATOM      7  O   LIG    1       23.746 -11.449   2.553  0.00  0.00    -0.252 OA
ATOM      8  N   LIG    1       23.781 -13.382   3.723  0.00  0.00    -0.239 N 
ATOM      9  H   LIG    1       22.836 -13.188   4.017  0.00  0.00    +0.159 HD
ATOM     10  C   LIG    1       24.245 -14.645   3.958  0.00  0.00    +0.236 C 
ATOM     11  O   LIG    1       23.511 -15.468   4.506  0.00  0.00    -0.274 OA
ENDROOT
BRANCH   1  12
ATOM     12  C   LIG    1       26.634 -14.716   4.853  0.00  0.00    +0.010 C 
ATOM     13  C   LIG    1       27.965 -15.487   4.750  0.00  0.00    +0.009 C 
BRANCH  12  14
ATOM     14  C   LIG    1       26.888 -13.215   5.191  0.00  0.00    +0.004 C 
BRANCH  14  15
ATOM     15  C   LIG    1       28.362 -12.828   5.385  0.00  0.00    -0.003 C 
ATOM     16  C   LIG    1       28.942 -12.159   4.145  0.00  0.00    +0.004 C 
ENDBRANCH  14  15
ENDBRANCH  12  14
ENDBRANCH   1  12
BRANCH   1  17
ATOM     17  C   LIG    1       25.806 -16.394   3.057  0.00  0.00    +0.052 C 
BRANCH  17  19
ATOM     18  C   LIG    1       24.979 -18.722   3.568  0.00  0.00    +0.004 C 
ATOM     19  C   LIG    1       24.899 -17.397   3.734  0.00  0.00    -0.033 C 
ENDBRANCH  17  19
ENDBRANCH   1  17
TORSDOF 5
ENDMDL
MODEL 4
REMARK VINA RESULT:      -2.5      4.906      6.711
REMARK  Name = *****
REMARK                            x       y       z     vdW  Elec       q    Type
REMARK                         _______ _______ _______ _____ _____    ______ ____
ROOT
ATOM      1  C   LIG    1       23.068 -19.771   4.455  0.00  0.00    +0.129 C 
ATOM      2  C   LIG    1       24.000 -20.354   3.393  0.00  0.00    +0.236 C 
ATOM      3  O   LIG    1       23.892 -21.495   2.946  0.00  0.00    -0.274 OA
ATOM      4  N   LIG    1       25.063 -19.581   3.006  0.00  0.00    -0.239 N 
ATOM      5  H   LIG    1       25.699 -19.991   2.339  0.00  0.00    +0.159 HD
ATOM      6  C   LIG    1       25.259 -18.268   3.300  0.00  0.00    +0.312 C 
ATOM      7  O   LIG    1       26.191 -17.633   2.822  0.00  0.00    -0.252 OA
ATOM      8  N   LIG    1       24.341 -17.685   4.120  0.00  0.00    -0.239 N 
ATOM      9  H   LIG    1       24.417 -16.685   4.219  0.00  0.00    +0.159 HD
ATOM     10  C   LIG    1       23.169 -18.252   4.532  0.00  0.00    +0.236 C 
ATOM     11  O   LIG    1       22.280 -17.537   4.995  0.00  0.00    -0.274 OA
ENDROOT
BRANCH   1  12
ATOM     12  C   LIG    1       23.476 -20.412   5.856  0.00  0.00    +0.010 C 
ATOM     13  C   LIG    1       22.508 -21.522   6.311  0.00  0.00    +0.009 C 
BRANCH  12  14
ATOM     14  C   LIG    1       24.952 -20.910   5.907  0.00  0.00    +0.004 C 
BRANCH  14  15
ATOM     15  C   LIG    1       25.795 -20.346   7.061  0.00  0.00    -0.003 C 
ATOM     16  C   LIG    1       27.288 -20.435   6.770  0.00  0.00    +0.004 C 
ENDBRANCH  14  15
ENDBRANCH  12  14
ENDBRANCH   1  12
BRANCH   1  17
ATOM     17  C   LIG    1       21.611 -20.167   4.070  0.00  0.00    +0.052 C 
BRANCH  17  19
ATOM     18  C   LIG    1       19.477 -19.050   3.321  0.00  0.00    +0.004 C 
ATOM     19  C   LIG    1       20.813 -19.094   3.364  0.00  0.00    -0.033 C 
ENDBRANCH  17  19
ENDBRANCH   1  17
TORSDOF 5
ENDMDL
MODEL 5
REMARK VINA RESULT:      -2.2      5.666      7.640
REMARK  Name = *****
REMARK                            x       y       z     vdW  Elec       q    Type
REMARK                         _______ _______ _______ _____ _____    ______ ____
ROOT
ATOM      1  C   LIG    1       24.711 -20.123   4.639  0.00  0.00    +0.129 C 
ATOM      2  C   LIG    1       24.014 -20.848   3.488  0.00  0.00    +0.236 C 
ATOM      3  O   LIG    1       24.541 -21.055   2.396  0.00  0.00    -0.274 OA
ATOM      4  N   LIG    1       22.700 -21.189   3.672  0.00  0.00    -0.239 N 
ATOM      5  H   LIG    1       22.234 -21.626   2.891  0.00  0.00    +0.159 HD
ATOM      6  C   LIG    1       22.008 -21.148   4.842  0.00  0.00    +0.312 C 
ATOM      7  O   LIG    1       20.862 -21.572   4.929  0.00  0.00    -0.252 OA
ATOM      8  N   LIG    1       22.672 -20.653   5.923  0.00  0.00    -0.239 N 
ATOM      9  H   LIG    1       22.203 -20.756   6.808  0.00  0.00    +0.159 HD
ATOM     10  C   LIG    1       24.004 -20.352   5.970  0.00  0.00    +0.236 C 
ATOM     11  O   LIG    1       24.557 -20.222   7.062  0.00  0.00    -0.274 OA
ENDROOT
BRANCH   1  12
ATOM     12  C   LIG    1       24.718 -18.567   4.292  0.00  0.00    +0.010 C 
ATOM     13  C   LIG    1       25.876 -18.169   3.355  0.00  0.00    +0.009 C 
BRANCH  12  14
ATOM     14  C   LIG    1       23.357 -18.045   3.741  0.00  0.00    +0.004 C 
BRANCH  14  15
ATOM     15  C   LIG    1       22.554 -17.160   4.707  0.00  0.00    -0.003 C 
ATOM     16  C   LIG    1       22.863 -15.681   4.513  0.00  0.00    +0.004 C 
ENDBRANCH  14  15
ENDBRANCH  12  14
ENDBRANCH   1  12
BRANCH   1  17
ATOM     17  C   LIG    1       26.165 -20.675   4.731  0.00  0.00    +0.052 C 
BRANCH  17  19
ATOM     18  C   LIG    1       28.218 -19.741   5.860  0.00  0.00    +0.004 C 
ATOM     19  C   LIG    1       26.963 -20.200   5.923  0.00  0.00    -0.033 C 
ENDBRANCH  17  19
ENDBRANCH   1  17
TORSDOF 5
ENDMDL
MODEL 6
REMARK VINA RESULT:      -2.0      1.919      3.703
REMARK  Name = *****
REMARK                            x       y       z     vdW  Elec       q    Type
REMARK                         _______ _______ _______ _____ _____    ______ ____
ROOT
ATOM      1  C   LIG    1       25.902 -13.907   3.615  0.00  0.00    +0.129 C 
ATOM      2  C   LIG    1       26.139 -13.676   5.107  0.00  0.00    +0.236 C 
ATOM      3  O   LIG    1       27.055 -14.199   5.739  0.00  0.00    -0.274 OA
ATOM      4  N   LIG    1       25.212 -12.919   5.774  0.00  0.00    -0.239 N 
ATOM      5  H   LIG    1       25.350 -12.809   6.767  0.00  0.00    +0.159 HD
ATOM      6  C   LIG    1       24.221 -12.173   5.216  0.00  0.00    +0.312 C 
ATOM      7  O   LIG    1       23.503 -11.447   5.891  0.00  0.00    -0.252 OA
ATOM      8  N   LIG    1       24.099 -12.242   3.861  0.00  0.00    -0.239 N 
ATOM      9  H   LIG    1       23.459 -11.583   3.447  0.00  0.00    +0.159 HD
ATOM     10  C   LIG    1       24.976 -12.856   3.014  0.00  0.00    +0.236 C 
ATOM     11  O   LIG    1       24.946 -12.588   1.812  0.00  0.00    -0.274 OA
ENDROOT
BRANCH   1  12
ATOM     12  C   LIG    1       25.255 -15.355   3.450  0.00  0.00    +0.010 C 
ATOM     13  C   LIG    1       26.311 -16.470   3.316  0.00  0.00    +0.009 C 
BRANCH  12  14
ATOM     14  C   LIG    1       24.220 -15.704   4.562  0.00  0.00    +0.004 C 
BRANCH  14  15
ATOM     15  C   LIG    1       22.775 -15.897   4.077  0.00  0.00    -0.003 C 
ATOM     16  C   LIG    1       22.191 -17.225   4.543  0.00  0.00    +0.004 C 
ENDBRANCH  14  15
ENDBRANCH  12  14
ENDBRANCH   1  12
BRANCH   1  17
ATOM     17  C   LIG    1       27.286 -13.837   2.903  0.00  0.00    +0.052 C 
BRANCH  17  19
ATOM     18  C   LIG    1       29.029 -12.153   3.603  0.00  0.00    +0.004 C 
ATOM     19  C   LIG    1       28.429 -13.339   3.757  0.00  0.00    -0.033 C 
ENDBRANCH  17  19
ENDBRANCH   1  17
TORSDOF 5
ENDMDL
MODEL 7
REMARK VINA RESULT:      -1.7      2.413      4.400
REMARK  Name = *****
REMARK                            x       y       z     vdW  Elec       q    Type
REMARK                         _______ _______ _______ _____ _____    ______ ____
ROOT
ATOM      1  C   LIG    1       25.279 -14.123   3.345  0.00  0.00    +0.129 C 
ATOM      2  C   LIG    1       24.202 -15.091   3.832  0.00  0.00    +0.236 C 
ATOM      3  O   LIG    1       23.076 -14.739   4.180  0.00  0.00    -0.274 OA
ATOM      4  N   LIG    1       24.564 -16.406   3.971  0.00  0.00    -0.239 N 
ATOM      5  H   LIG    1       23.862 -17.031   4.336  0.00  0.00    +0.159 HD
ATOM      6  C   LIG    1       25.710 -16.983   3.520  0.00  0.00    +0.312 C 
ATOM      7  O   LIG    1       25.900 -18.190   3.603  0.00  0.00    -0.252 OA
ATOM      8  N   LIG    1       26.617 -16.154   2.934  0.00  0.00    -0.239 N 
ATOM      9  H   LIG    1       27.394 -16.609   2.481  0.00  0.00    +0.159 HD
ATOM     10  C   LIG    1       26.407 -14.842   2.615  0.00  0.00    +0.236 C 
ATOM     11  O   LIG    1       27.157 -14.286   1.812  0.00  0.00    -0.274 OA
ENDROOT
BRANCH   1  12
ATOM     12  C   LIG    1       25.859 -13.367   4.623  0.00  0.00    +0.010 C 
ATOM     13  C   LIG    1       24.962 -13.524   5.868  0.00  0.00    +0.009 C 
BRANCH  12  14
ATOM     14  C   LIG    1       27.335 -13.745   4.954  0.00  0.00    +0.004 C 
BRANCH  14  15
ATOM     15  C   LIG    1       28.328 -12.574   4.950  0.00  0.00    -0.003 C 
ATOM     16  C   LIG    1       29.202 -12.573   3.702  0.00  0.00    +0.004 C 
ENDBRANCH  14  15
ENDBRANCH  12  14
ENDBRANCH   1  12
BRANCH   1  17
ATOM     17  C   LIG    1       24.599 -13.116   2.369  0.00  0.00    +0.052 C 
BRANCH  17  19
ATOM     18  C   LIG    1       23.449 -11.447   3.872  0.00  0.00    +0.004 C 
ATOM     19  C   LIG    1       24.357 -11.733   2.932  0.00  0.00    -0.033 C 
ENDBRANCH  17  19
ENDBRANCH   1  17
TORSDOF 5
ENDMDL
MODEL 8
REMARK VINA RESULT:      -1.7      2.393      3.392
REMARK  Name = *****
REMARK                            x       y       z     vdW  Elec       q    Type
REMARK                         _______ _______ _______ _____ _____    ______ ____
ROOT
ATOM      1  C   LIG    1       26.192 -14.884   3.517  0.00  0.00    +0.129 C 
ATOM      2  C   LIG    1       26.111 -16.396   3.318  0.00  0.00    +0.236 C 
ATOM      3  O   LIG    1       25.179 -16.959   2.747  0.00  0.00    -0.274 OA
ATOM      4  N   LIG    1       27.094 -17.154   3.901  0.00  0.00    -0.239 N 
ATOM      5  H   LIG    1       27.009 -18.154   3.804  0.00  0.00    +0.159 HD
ATOM      6  C   LIG    1       28.249 -16.697   4.453  0.00  0.00    +0.312 C 
ATOM      7  O   LIG    1       29.116 -17.461   4.859  0.00  0.00    -0.252 OA
ATOM      8  N   LIG    1       28.411 -15.345   4.491  0.00  0.00    -0.239 N 
ATOM      9  H   LIG    1       29.324 -15.023   4.771  0.00  0.00    +0.159 HD
ATOM     10  C   LIG    1       27.601 -14.430   3.882  0.00  0.00    +0.236 C 
ATOM     11  O   LIG    1       28.008 -13.280   3.710  0.00  0.00    -0.274 OA
ENDROOT
BRANCH   1  12
ATOM     12  C   LIG    1       25.180 -14.498   4.686  0.00  0.00    +0.010 C 
ATOM     13  C   LIG    1       25.520 -13.149   5.351  0.00  0.00    +0.009 C 
BRANCH  12  14
ATOM     14  C   LIG    1       23.683 -14.538   4.252  0.00  0.00    +0.004 C 
BRANCH  14  15
ATOM     15  C   LIG    1       22.746 -15.302   5.200  0.00  0.00    -0.003 C 
ATOM     16  C   LIG    1       22.411 -16.691   4.670  0.00  0.00    +0.004 C 
ENDBRANCH  14  15
ENDBRANCH  12  14
ENDBRANCH   1  12
BRANCH   1  17
ATOM     17  C   LIG    1       25.770 -14.210   2.177  0.00  0.00    +0.052 C 
BRANCH  17  19
ATOM     18  C   LIG    1       24.538 -12.036   1.829  0.00  0.00    +0.004 C 
ATOM     19  C   LIG    1       25.627 -12.706   2.225  0.00  0.00    -0.033 C 
ENDBRANCH  17  19
ENDBRANCH   1  17
TORSDOF 5
ENDMDL
MODEL 9
REMARK VINA RESULT:      -1.6      1.159      2.100
REMARK  Name = *****
REMARK                            x       y       z     vdW  Elec       q    Type
REMARK                         _______ _______ _______ _____ _____    ______ ____
ROOT
ATOM      1  C   LIG    1       25.945 -14.134   4.212  0.00  0.00    +0.129 C 
ATOM      2  C   LIG    1       26.480 -13.582   2.891  0.00  0.00    +0.236 C 
ATOM      3  O   LIG    1       25.907 -13.724   1.812  0.00  0.00    -0.274 OA
ATOM      4  N   LIG    1       27.714 -12.986   2.920  0.00  0.00    -0.239 N 
ATOM      5  H   LIG    1       28.081 -12.666   2.037  0.00  0.00    +0.159 HD
ATOM      6  C   LIG    1       28.420 -12.639   4.030  0.00  0.00    +0.312 C 
ATOM      7  O   LIG    1       29.472 -12.016   3.955  0.00  0.00    -0.252 OA
ATOM      8  N   LIG    1       27.875 -12.982   5.229  0.00  0.00    -0.239 N 
ATOM      9  H   LIG    1       28.332 -12.600   6.041  0.00  0.00    +0.159 HD
ATOM     10  C   LIG    1       26.620 -13.489   5.416  0.00  0.00    +0.236 C 
ATOM     11  O   LIG    1       26.117 -13.460   6.540  0.00  0.00    -0.274 OA
ENDROOT
BRANCH   1  12
ATOM     12  C   LIG    1       26.213 -15.706   4.220  0.00  0.00    +0.010 C 
ATOM     13  C   LIG    1       25.571 -16.428   3.019  0.00  0.00    +0.009 C 
BRANCH  12  14
ATOM     14  C   LIG    1       27.722 -16.079   4.347  0.00  0.00    +0.004 C 
BRANCH  14  15
ATOM     15  C   LIG    1       28.024 -17.585   4.383  0.00  0.00    -0.003 C 
ATOM     16  C   LIG    1       29.171 -17.912   5.331  0.00  0.00    +0.004 C 
ENDBRANCH  14  15
ENDBRANCH  12  14
ENDBRANCH   1  12
BRANCH   1  17
ATOM     17  C   LIG    1       24.417 -13.835   4.261  0.00  0.00    +0.052 C 
BRANCH  17  19
ATOM     18  C   LIG    1       22.681 -15.362   5.271  0.00  0.00    +0.004 C 
ATOM     19  C   LIG    1       23.519 -15.052   4.276  0.00  0.00    -0.033 C 
ENDBRANCH  17  19
ENDBRANCH   1  17
TORSDOF 5
ENDMDL
