MODEL 1
REMARK VINA RESULT:      -8.4      0.000      0.000
REMARK  Name = *****
REMARK                            x       y       z     vdW  Elec       q    Type
REMARK                         _______ _______ _______ _____ _____    ______ ____
ROOT
ATOM      1  C   LIG    1       26.810 -21.000   7.588  0.00  0.00    +0.168 C 
ATOM      2  C   LIG    1       25.644 -20.931   6.735  0.00  0.00    +0.097 C 
ATOM      3  C   LIG    1       25.716 -20.190   5.542  0.00  0.00    +0.052 C 
ATOM      4  C   LIG    1       24.515 -19.995   4.691  0.00  0.00    +0.204 C 
ATOM      5  C   LIG    1       23.212 -20.455   5.205  0.00  0.00    +0.122 C 
ATOM      6  C   LIG    1       23.259 -21.236   6.296  0.00  0.00    +0.105 C 
ATOM      7  O   LIG    1       24.583 -19.456   3.590  0.00  0.00    -0.286 OA
ATOM      8  C   LIG    1       26.919 -19.657   5.118  0.00  0.00    +0.054 C 
ATOM      9  C   LIG    1       28.039 -19.743   5.938  0.00  0.00    +0.149 C 
ATOM     10  F   LIG    1       29.144 -19.183   5.421  0.00  0.00    -0.203 F 
ATOM     11  N   LIG    1       24.401 -21.614   6.996  0.00  0.00    -0.340 NA
ATOM     12  C   LIG    1       28.034 -20.331   7.235  0.00  0.00    +0.110 C 
ENDROOT
BRANCH  12  13
ATOM     13  N   LIG    1       29.186 -20.276   8.082  0.00  0.00    -0.322 NA
ATOM     14  C   LIG    1       29.963 -19.009   8.046  0.00  0.00    +0.123 C 
ATOM     15  C   LIG    1       31.017 -18.994   9.195  0.00  0.00    +0.068 C 
ATOM     16  C   LIG    1       31.713 -17.639   9.259  0.00  0.00    +0.025 C 
ATOM     17  N   LIG    1       32.008 -20.075   9.010  0.00  0.00    -0.310 NA
ATOM     18  H   LIG    1       32.412 -19.984   8.077  0.00  0.00    +0.122 HD
ATOM     19  C   LIG    1       31.273 -21.354   9.072  0.00  0.00    +0.100 C 
ATOM     20  C   LIG    1       30.094 -21.467   8.075  0.00  0.00    +0.120 C 
ENDBRANCH  12  13
BRANCH  11  21
ATOM     21  C   LIG    1       24.447 -23.063   7.347  0.00  0.00    +0.088 C 
ATOM     22  C   LIG    1       23.615 -24.102   6.610  0.00  0.00    +0.027 C 
ATOM     23  C   LIG    1       25.096 -24.081   6.436  0.00  0.00    +0.027 C 
ENDBRANCH  11  21
BRANCH   1  25
ATOM     24  C   LIG    1       25.692 -21.142   9.711  0.00  0.00    +0.277 C 
ATOM     25  O   LIG    1       26.627 -21.690   8.775  0.00  0.00    -0.491 OA
ENDBRANCH   1  25
BRANCH   5  26
ATOM     26  C   LIG    1       21.933 -20.190   4.527  0.00  0.00    +0.342 C 
ATOM     27  O   LIG    1       21.070 -21.056   4.352  0.00  0.00    -0.245 OA
BRANCH  26  28
ATOM     28  O   LIG    1       21.783 -18.931   4.069  0.00  0.00    -0.477 OA
ATOM     29  H   LIG    1       20.843 -18.639   3.996  0.00  0.00    +0.295 HD
ENDBRANCH  26  28
ENDBRANCH   5  26
TORSDOF 5
ENDMDL
MODEL 2
REMARK VINA RESULT:      -6.1      8.967     11.633
REMARK  Name = *****
REMARK                            x       y       z     vdW  Elec       q    Type
REMARK                         _______ _______ _______ _____ _____    ______ ____
ROOT
ATOM      1  C   LIG    1       24.670 -30.283   9.032  0.00  0.00    +0.168 C 
ATOM      2  C   LIG    1       24.740 -30.816   7.689  0.00  0.00    +0.097 C 
ATOM      3  C   LIG    1       24.253 -32.113   7.446  0.00  0.00    +0.052 C 
ATOM      4  C   LIG    1       24.405 -32.747   6.112  0.00  0.00    +0.204 C 
ATOM      5  C   LIG    1       25.222 -32.055   5.098  0.00  0.00    +0.122 C 
ATOM      6  C   LIG    1       25.557 -30.787   5.386  0.00  0.00    +0.105 C 
ATOM      7  O   LIG    1       23.883 -33.825   5.845  0.00  0.00    -0.286 OA
ATOM      8  C   LIG    1       23.586 -32.810   8.436  0.00  0.00    +0.054 C 
ATOM      9  C   LIG    1       23.509 -32.281   9.720  0.00  0.00    +0.149 C 
ATOM     10  F   LIG    1       22.846 -33.053  10.595  0.00  0.00    -0.203 F 
ATOM     11  N   LIG    1       25.241 -30.090   6.548  0.00  0.00    -0.340 NA
ATOM     12  C   LIG    1       24.109 -31.050  10.111  0.00  0.00    +0.110 C 
ENDROOT
BRANCH  12  13
ATOM     13  N   LIG    1       24.104 -30.620  11.477  0.00  0.00    -0.322 NA
ATOM     14  C   LIG    1       23.507 -29.283  11.737  0.00  0.00    +0.123 C 
ATOM     15  C   LIG    1       23.333 -29.063  13.271  0.00  0.00    +0.068 C 
ATOM     16  C   LIG    1       22.583 -27.763  13.539  0.00  0.00    +0.025 C 
ATOM     17  N   LIG    1       24.645 -29.054  13.951  0.00  0.00    -0.310 NA
ATOM     18  H   LIG    1       25.236 -28.355  13.498  0.00  0.00    +0.122 HD
ATOM     19  C   LIG    1       25.255 -30.382  13.739  0.00  0.00    +0.100 C 
ATOM     20  C   LIG    1       25.370 -30.807  12.254  0.00  0.00    +0.120 C 
ENDBRANCH  12  13
BRANCH  11  21
ATOM     21  C   LIG    1       24.736 -28.707   6.309  0.00  0.00    +0.088 C 
ATOM     22  C   LIG    1       25.665 -27.503   6.255  0.00  0.00    +0.027 C 
ATOM     23  C   LIG    1       24.997 -27.979   5.009  0.00  0.00    +0.027 C 
ENDBRANCH  11  21
BRANCH   1  25
ATOM     24  C   LIG    1       26.631 -28.982   9.521  0.00  0.00    +0.277 C 
ATOM     25  O   LIG    1       25.237 -29.029   9.194  0.00  0.00    -0.491 OA
ENDBRANCH   1  25
BRANCH   5  26
ATOM     26  C   LIG    1       25.570 -32.646   3.796  0.00  0.00    +0.342 C 
ATOM     27  O   LIG    1       26.712 -32.621   3.327  0.00  0.00    -0.245 OA
BRANCH  26  28
ATOM     28  O   LIG    1       24.536 -33.188   3.123  0.00  0.00    -0.477 OA
ATOM     29  H   LIG    1       24.015 -32.538   2.594  0.00  0.00    +0.295 HD
ENDBRANCH  26  28
ENDBRANCH   5  26
TORSDOF 5
ENDMDL
MODEL 3
REMARK VINA RESULT:      -6.1      9.795     11.778
REMARK  Name = *****
REMARK                            x       y       z     vdW  Elec       q    Type
REMARK                         _______ _______ _______ _____ _____    ______ ____
ROOT
ATOM      1  C   LIG    1       25.010 -30.098  10.549  0.00  0.00    +0.168 C 
ATOM      2  C   LIG    1       24.057 -29.470  11.437  0.00  0.00    +0.097 C 
ATOM      3  C   LIG    1       22.704 -29.848  11.362  0.00  0.00    +0.052 C 
ATOM      4  C   LIG    1       21.672 -29.153  12.171  0.00  0.00    +0.204 C 
ATOM      5  C   LIG    1       22.069 -27.953  12.929  0.00  0.00    +0.122 C 
ATOM      6  C   LIG    1       23.389 -27.732  13.021  0.00  0.00    +0.105 C 
ATOM      7  O   LIG    1       20.509 -29.546  12.210  0.00  0.00    -0.286 OA
ATOM      8  C   LIG    1       22.315 -30.903  10.558  0.00  0.00    +0.054 C 
ATOM      9  C   LIG    1       23.242 -31.512   9.720  0.00  0.00    +0.149 C 
ATOM     10  F   LIG    1       22.743 -32.517   8.983  0.00  0.00    -0.203 F 
ATOM     11  N   LIG    1       24.399 -28.497  12.446  0.00  0.00    -0.340 NA
ATOM     12  C   LIG    1       24.600 -31.099   9.601  0.00  0.00    +0.110 C 
ENDROOT
BRANCH  12  13
ATOM     13  N   LIG    1       25.474 -31.682   8.629  0.00  0.00    -0.322 NA
ATOM     14  C   LIG    1       25.068 -31.521   7.207  0.00  0.00    +0.123 C 
ATOM     15  C   LIG    1       26.228 -31.967   6.265  0.00  0.00    +0.068 C 
ATOM     16  C   LIG    1       25.878 -31.663   4.813  0.00  0.00    +0.025 C 
ATOM     17  N   LIG    1       26.519 -33.405   6.437  0.00  0.00    -0.310 NA
ATOM     18  H   LIG    1       25.652 -33.927   6.300  0.00  0.00    +0.122 HD
ATOM     19  C   LIG    1       26.956 -33.597   7.834  0.00  0.00    +0.100 C 
ATOM     20  C   LIG    1       25.961 -33.072   8.898  0.00  0.00    +0.120 C 
ENDBRANCH  12  13
BRANCH  11  21
ATOM     21  C   LIG    1       25.533 -28.798  13.367  0.00  0.00    +0.088 C 
ATOM     22  C   LIG    1       26.727 -27.867  13.515  0.00  0.00    +0.027 C 
ATOM     23  C   LIG    1       25.756 -28.010  14.638  0.00  0.00    +0.027 C 
ENDBRANCH  11  21
BRANCH   1  25
ATOM     24  C   LIG    1       26.680 -28.576   9.730  0.00  0.00    +0.277 C 
ATOM     25  O   LIG    1       26.305 -29.614  10.643  0.00  0.00    -0.491 OA
ENDBRANCH   1  25
BRANCH   5  26
ATOM     26  C   LIG    1       21.112 -27.095  13.647  0.00  0.00    +0.342 C 
ATOM     27  O   LIG    1       21.270 -26.744  14.821  0.00  0.00    -0.245 OA
BRANCH  26  28
ATOM     28  O   LIG    1       20.019 -26.745  12.940  0.00  0.00    -0.477 OA
ATOM     29  H   LIG    1       20.221 -26.326  12.070  0.00  0.00    +0.295 HD
ENDBRANCH  26  28
ENDBRANCH   5  26
TORSDOF 5
ENDMDL
MODEL 4
REMARK VINA RESULT:      -5.9     10.186     11.756
REMARK  Name = *****
REMARK                            x       y       z     vdW  Elec       q    Type
REMARK                         _______ _______ _______ _____ _____    ______ ____
ROOT
ATOM      1  C   LIG    1       22.358 -29.123  13.621  0.00  0.00    +0.168 C 
ATOM      2  C   LIG    1       20.972 -28.736  13.763  0.00  0.00    +0.097 C 
ATOM      3  C   LIG    1       20.645 -27.368  13.772  0.00  0.00    +0.052 C 
ATOM      4  C   LIG    1       19.254 -26.918  14.028  0.00  0.00    +0.204 C 
ATOM      5  C   LIG    1       18.257 -27.926  14.436  0.00  0.00    +0.122 C 
ATOM      6  C   LIG    1       18.635 -29.207  14.301  0.00  0.00    +0.105 C 
ATOM      7  O   LIG    1       18.925 -25.741  13.921  0.00  0.00    -0.286 OA
ATOM      8  C   LIG    1       21.609 -26.415  13.503  0.00  0.00    +0.054 C 
ATOM      9  C   LIG    1       22.937 -26.799  13.351  0.00  0.00    +0.149 C 
ATOM     10  F   LIG    1       23.779 -25.783  13.102  0.00  0.00    -0.203 F 
ATOM     11  N   LIG    1       19.871 -29.663  13.855  0.00  0.00    -0.340 NA
ATOM     12  C   LIG    1       23.398 -28.139  13.484  0.00  0.00    +0.110 C 
ENDROOT
BRANCH  12  13
ATOM     13  N   LIG    1       24.794 -28.454  13.442  0.00  0.00    -0.322 NA
ATOM     14  C   LIG    1       25.660 -27.706  14.391  0.00  0.00    +0.123 C 
ATOM     15  C   LIG    1       27.089 -28.330  14.420  0.00  0.00    +0.068 C 
ATOM     16  C   LIG    1       27.937 -27.667  15.499  0.00  0.00    +0.025 C 
ATOM     17  N   LIG    1       27.741 -28.204  13.100  0.00  0.00    -0.310 NA
ATOM     18  H   LIG    1       27.726 -27.221  12.826  0.00  0.00    +0.122 HD
ATOM     19  C   LIG    1       26.922 -28.964  12.134  0.00  0.00    +0.100 C 
ATOM     20  C   LIG    1       25.430 -28.550  12.091  0.00  0.00    +0.120 C 
ENDBRANCH  12  13
BRANCH  11  21
ATOM     21  C   LIG    1       19.787 -30.766  12.854  0.00  0.00    +0.088 C 
ATOM     22  C   LIG    1       19.644 -32.224  13.264  0.00  0.00    +0.027 C 
ATOM     23  C   LIG    1       18.500 -31.524  12.612  0.00  0.00    +0.027 C 
ENDBRANCH  11  21
BRANCH   1  25
ATOM     24  C   LIG    1       22.934 -31.020  14.981  0.00  0.00    +0.277 C 
ATOM     25  O   LIG    1       22.596 -30.486  13.695  0.00  0.00    -0.491 OA
ENDBRANCH   1  25
BRANCH   5  26
ATOM     26  C   LIG    1       16.889 -27.587  14.860  0.00  0.00    +0.342 C 
ATOM     27  O   LIG    1       15.912 -28.304  14.621  0.00  0.00    -0.245 OA
BRANCH  26  28
ATOM     28  O   LIG    1       16.767 -26.407  15.499  0.00  0.00    -0.477 OA
ATOM     29  H   LIG    1       17.628 -25.970  15.704  0.00  0.00    +0.295 HD
ENDBRANCH  26  28
ENDBRANCH   5  26
TORSDOF 5
ENDMDL
MODEL 5
REMARK VINA RESULT:      -5.8     10.127     11.584
REMARK  Name = *****
REMARK                            x       y       z     vdW  Elec       q    Type
REMARK                         _______ _______ _______ _____ _____    ______ ____
ROOT
ATOM      1  C   LIG    1       23.104 -29.917  12.008  0.00  0.00    +0.168 C 
ATOM      2  C   LIG    1       21.769 -29.590  12.459  0.00  0.00    +0.097 C 
ATOM      3  C   LIG    1       21.566 -28.399  13.179  0.00  0.00    +0.052 C 
ATOM      4  C   LIG    1       20.239 -28.076  13.760  0.00  0.00    +0.204 C 
ATOM      5  C   LIG    1       19.184 -29.104  13.708  0.00  0.00    +0.122 C 
ATOM      6  C   LIG    1       19.436 -30.159  12.917  0.00  0.00    +0.105 C 
ATOM      7  O   LIG    1       20.010 -26.991  14.285  0.00  0.00    -0.286 OA
ATOM      8  C   LIG    1       22.593 -27.486  13.327  0.00  0.00    +0.054 C 
ATOM      9  C   LIG    1       23.869 -27.802  12.875  0.00  0.00    +0.149 C 
ATOM     10  F   LIG    1       24.782 -26.840  13.084  0.00  0.00    -0.203 F 
ATOM     11  N   LIG    1       20.598 -30.386  12.185  0.00  0.00    -0.340 NA
ATOM     12  C   LIG    1       24.217 -29.047  12.278  0.00  0.00    +0.110 C 
ENDROOT
BRANCH  12  13
ATOM     13  N   LIG    1       25.574 -29.362  11.949  0.00  0.00    -0.322 NA
ATOM     14  C   LIG    1       26.585 -29.073  13.001  0.00  0.00    +0.123 C 
ATOM     15  C   LIG    1       27.958 -29.701  12.612  0.00  0.00    +0.068 C 
ATOM     16  C   LIG    1       28.957 -29.542  13.753  0.00  0.00    +0.025 C 
ATOM     17  N   LIG    1       28.483 -29.087  11.375  0.00  0.00    -0.310 NA
ATOM     18  H   LIG    1       28.514 -28.075  11.507  0.00  0.00    +0.122 HD
ATOM     19  C   LIG    1       27.516 -29.382  10.298  0.00  0.00    +0.100 C 
ATOM     20  C   LIG    1       26.063 -28.939  10.599  0.00  0.00    +0.120 C 
ENDBRANCH  12  13
BRANCH  11  21
ATOM     21  C   LIG    1       20.354 -30.830  10.781  0.00  0.00    +0.088 C 
ATOM     22  C   LIG    1       20.090 -32.286  10.426  0.00  0.00    +0.027 C 
ATOM     23  C   LIG    1       18.988 -31.287  10.318  0.00  0.00    +0.027 C 
ENDBRANCH  11  21
BRANCH   1  25
ATOM     24  C   LIG    1       23.598 -32.263  12.179  0.00  0.00    +0.277 C 
ATOM     25  O   LIG    1       23.223 -31.142  11.371  0.00  0.00    -0.491 OA
ENDBRANCH   1  25
BRANCH   5  26
ATOM     26  C   LIG    1       17.879 -28.962  14.375  0.00  0.00    +0.342 C 
ATOM     27  O   LIG    1       17.445 -29.784  15.188  0.00  0.00    -0.245 OA
BRANCH  26  28
ATOM     28  O   LIG    1       17.166 -27.881  14.004  0.00  0.00    -0.477 OA
ATOM     29  H   LIG    1       16.242 -28.086  13.725  0.00  0.00    +0.295 HD
ENDBRANCH  26  28
ENDBRANCH   5  26
TORSDOF 5
ENDMDL
MODEL 6
REMARK VINA RESULT:      -5.7      9.490     10.779
REMARK  Name = *****
REMARK                            x       y       z     vdW  Elec       q    Type
REMARK                         _______ _______ _______ _____ _____    ______ ____
ROOT
ATOM      1  C   LIG    1       25.248 -30.002  11.792  0.00  0.00    +0.168 C 
ATOM      2  C   LIG    1       24.902 -30.694  10.570  0.00  0.00    +0.097 C 
ATOM      3  C   LIG    1       25.873 -30.821   9.561  0.00  0.00    +0.052 C 
ATOM      4  C   LIG    1       25.533 -31.423   8.247  0.00  0.00    +0.204 C 
ATOM      5  C   LIG    1       24.120 -31.733   7.965  0.00  0.00    +0.122 C 
ATOM      6  C   LIG    1       23.289 -31.674   9.017  0.00  0.00    +0.105 C 
ATOM      7  O   LIG    1       26.391 -31.652   7.399  0.00  0.00    -0.286 OA
ATOM      8  C   LIG    1       27.177 -30.422   9.787  0.00  0.00    +0.054 C 
ATOM      9  C   LIG    1       27.504 -29.771  10.972  0.00  0.00    +0.149 C 
ATOM     10  F   LIG    1       28.797 -29.425  11.072  0.00  0.00    -0.203 F 
ATOM     11  N   LIG    1       23.625 -31.317  10.319  0.00  0.00    -0.340 NA
ATOM     12  C   LIG    1       26.562 -29.449  11.990  0.00  0.00    +0.110 C 
ENDROOT
BRANCH  12  13
ATOM     13  N   LIG    1       26.934 -28.667  13.129  0.00  0.00    -0.322 NA
ATOM     14  C   LIG    1       27.115 -27.210  12.889  0.00  0.00    +0.123 C 
ATOM     15  C   LIG    1       27.257 -26.457  14.247  0.00  0.00    +0.068 C 
ATOM     16  C   LIG    1       27.289 -24.950  14.017  0.00  0.00    +0.025 C 
ATOM     17  N   LIG    1       28.471 -26.897  14.965  0.00  0.00    -0.310 NA
ATOM     18  H   LIG    1       29.272 -26.781  14.343  0.00  0.00    +0.122 HD
ATOM     19  C   LIG    1       28.312 -28.338  15.248  0.00  0.00    +0.100 C 
ATOM     20  C   LIG    1       28.022 -29.210  14.002  0.00  0.00    +0.120 C 
ENDBRANCH  12  13
BRANCH  11  21
ATOM     21  C   LIG    1       23.058 -32.219  11.363  0.00  0.00    +0.088 C 
ATOM     22  C   LIG    1       21.669 -32.011  11.947  0.00  0.00    +0.027 C 
ATOM     23  C   LIG    1       21.929 -33.178  11.056  0.00  0.00    +0.027 C 
ENDBRANCH  11  21
BRANCH   1  25
ATOM     24  C   LIG    1       23.474 -28.634  12.661  0.00  0.00    +0.277 C 
ATOM     25  O   LIG    1       24.211 -29.861  12.699  0.00  0.00    -0.491 OA
ENDBRANCH   1  25
BRANCH   5  26
ATOM     26  C   LIG    1       23.637 -32.191   6.652  0.00  0.00    +0.342 C 
ATOM     27  O   LIG    1       23.540 -33.384   6.348  0.00  0.00    -0.245 OA
BRANCH  26  28
ATOM     28  O   LIG    1       23.341 -31.208   5.779  0.00  0.00    -0.477 OA
ATOM     29  H   LIG    1       22.652 -31.452   5.117  0.00  0.00    +0.295 HD
ENDBRANCH  26  28
ENDBRANCH   5  26
TORSDOF 5
ENDMDL
MODEL 7
REMARK VINA RESULT:      -5.7      8.635     11.974
REMARK  Name = *****
REMARK                            x       y       z     vdW  Elec       q    Type
REMARK                         _______ _______ _______ _____ _____    ______ ____
ROOT
ATOM      1  C   LIG    1       23.778 -31.460   8.249  0.00  0.00    +0.168 C 
ATOM      2  C   LIG    1       24.519 -30.482   7.484  0.00  0.00    +0.097 C 
ATOM      3  C   LIG    1       25.047 -29.358   8.145  0.00  0.00    +0.052 C 
ATOM      4  C   LIG    1       25.716 -28.272   7.386  0.00  0.00    +0.204 C 
ATOM      5  C   LIG    1       25.672 -28.318   5.913  0.00  0.00    +0.122 C 
ATOM      6  C   LIG    1       25.241 -29.471   5.379  0.00  0.00    +0.105 C 
ATOM      7  O   LIG    1       26.287 -27.345   7.952  0.00  0.00    -0.286 OA
ATOM      8  C   LIG    1       24.984 -29.261   9.522  0.00  0.00    +0.054 C 
ATOM      9  C   LIG    1       24.283 -30.215  10.251  0.00  0.00    +0.149 C 
ATOM     10  F   LIG    1       24.287 -30.008  11.577  0.00  0.00    -0.203 F 
ATOM     11  N   LIG    1       24.805 -30.595   6.074  0.00  0.00    -0.340 NA
ATOM     12  C   LIG    1       23.577 -31.304   9.665  0.00  0.00    +0.110 C 
ENDROOT
BRANCH  12  13
ATOM     13  N   LIG    1       22.768 -32.180  10.457  0.00  0.00    -0.322 NA
ATOM     14  C   LIG    1       21.385 -31.713  10.741  0.00  0.00    +0.123 C 
ATOM     15  C   LIG    1       20.550 -32.866  11.377  0.00  0.00    +0.068 C 
ATOM     16  C   LIG    1       19.093 -32.443  11.531  0.00  0.00    +0.025 C 
ATOM     17  N   LIG    1       21.114 -33.262  12.684  0.00  0.00    -0.310 NA
ATOM     18  H   LIG    1       21.182 -32.429  13.271  0.00  0.00    +0.122 HD
ATOM     19  C   LIG    1       22.482 -33.762  12.435  0.00  0.00    +0.100 C 
ATOM     20  C   LIG    1       23.400 -32.772  11.678  0.00  0.00    +0.120 C 
ENDBRANCH  12  13
BRANCH  11  21
ATOM     21  C   LIG    1       25.362 -31.881   5.563  0.00  0.00    +0.088 C 
ATOM     22  C   LIG    1       24.630 -32.730   4.535  0.00  0.00    +0.027 C 
ATOM     23  C   LIG    1       25.881 -32.016   4.149  0.00  0.00    +0.027 C 
ENDBRANCH  11  21
BRANCH   1  25
ATOM     24  C   LIG    1       23.652 -33.825   7.837  0.00  0.00    +0.277 C 
ATOM     25  O   LIG    1       23.235 -32.496   7.506  0.00  0.00    -0.491 OA
ENDBRANCH   1  25
BRANCH   5  26
ATOM     26  C   LIG    1       26.167 -27.231   5.053  0.00  0.00    +0.342 C 
ATOM     27  O   LIG    1       25.421 -26.500   4.393  0.00  0.00    -0.245 OA
BRANCH  26  28
ATOM     28  O   LIG    1       27.508 -27.111   5.003  0.00  0.00    -0.477 OA
ATOM     29  H   LIG    1       27.985 -27.969   4.906  0.00  0.00    +0.295 HD
ENDBRANCH  26  28
ENDBRANCH   5  26
TORSDOF 5
ENDMDL
