MODEL 1
REMARK VINA RESULT:      -7.3      0.000      0.000
REMARK  Name = *****
REMARK                            x       y       z     vdW  Elec       q    Type
REMARK                         _______ _______ _______ _____ _____    ______ ____
ROOT
ATOM      1  N   LIG    1       26.797 -22.321   7.040  0.00  0.00    -0.298 NA
ATOM      2  C   LIG    1       26.068 -21.643   5.916  0.00  0.00    +0.069 C 
ATOM      3  C   LIG    1       24.536 -21.483   6.268  0.00  0.00    +0.037 C 
ATOM      4  C   LIG    1       23.791 -20.477   5.414  0.00  0.00    -0.033 C 
ATOM      5  C   LIG    1       24.537 -19.627   4.596  0.00  0.00    +0.006 C 
ATOM      6  C   LIG    1       23.959 -18.604   3.858  0.00  0.00    +0.047 C 
ATOM      7  N   LIG    1       24.994 -17.987   3.194  0.00  0.00    -0.360 NA
ATOM      8  H   LIG    1       24.885 -17.189   2.576  0.00  0.00    +0.165 HD
ATOM      9  C   LIG    1       26.198 -18.556   3.540  0.00  0.00    +0.087 C 
ATOM     10  C   LIG    1       22.590 -18.354   3.910  0.00  0.00    +0.026 C 
ATOM     11  C   LIG    1       21.828 -19.189   4.740  0.00  0.00    +0.002 C 
ATOM     12  C   LIG    1       25.933 -19.568   4.438  0.00  0.00    -0.021 C 
ATOM     13  C   LIG    1       22.411 -20.233   5.475  0.00  0.00    +0.005 C 
ATOM     14  C   LIG    1       23.903 -22.895   6.242  0.00  0.00    +0.015 C 
ATOM     15  C   LIG    1       24.844 -23.997   6.795  0.00  0.00    +0.013 C 
ATOM     16  C   LIG    1       26.826 -20.436   5.251  0.00  0.00    +0.056 C 
ATOM     17  C   LIG    1       25.983 -23.397   7.651  0.00  0.00    +0.089 C 
ENDROOT
BRANCH   1  18
ATOM     18  C   LIG    1       27.259 -21.379   8.096  0.00  0.00    +0.084 C 
BRANCH  18  20
ATOM     19  C   LIG    1       29.140 -19.677   7.896  0.00  0.00    +0.005 C 
ATOM     20  C   LIG    1       28.781 -21.145   8.120  0.00  0.00    +0.012 C 
ENDBRANCH  18  20
ENDBRANCH   1  18
BRANCH  15  21
ATOM     21  C   LIG    1       25.397 -24.975   5.736  0.00  0.00    +0.073 C 
BRANCH  21  22
ATOM     22  S   LIG    1       25.995 -26.569   6.408  0.00  0.00    -0.164 S 
ATOM     23  C   LIG    1       24.516 -27.575   6.145  0.00  0.00    +0.084 C 
ENDBRANCH  21  22
ENDBRANCH  15  21
TORSDOF 4
ENDMDL
MODEL 2
REMARK VINA RESULT:      -5.7      3.463      5.650
REMARK  Name = *****
REMARK                            x       y       z     vdW  Elec       q    Type
REMARK                         _______ _______ _______ _____ _____    ______ ____
ROOT
ATOM      1  N   LIG    1       29.575 -20.659   8.148  0.00  0.00    -0.298 NA
ATOM      2  C   LIG    1       28.179 -20.294   7.728  0.00  0.00    +0.069 C 
ATOM      3  C   LIG    1       28.134 -19.971   6.182  0.00  0.00    +0.037 C 
ATOM      4  C   LIG    1       26.747 -19.985   5.572  0.00  0.00    -0.033 C 
ATOM      5  C   LIG    1       25.699 -20.509   6.332  0.00  0.00    +0.006 C 
ATOM      6  C   LIG    1       24.416 -20.663   5.827  0.00  0.00    +0.047 C 
ATOM      7  N   LIG    1       23.673 -21.208   6.848  0.00  0.00    -0.360 NA
ATOM      8  H   LIG    1       22.688 -21.447   6.778  0.00  0.00    +0.165 HD
ATOM      9  C   LIG    1       24.464 -21.449   7.948  0.00  0.00    +0.087 C 
ATOM     10  C   LIG    1       24.106 -20.321   4.513  0.00  0.00    +0.026 C 
ATOM     11  C   LIG    1       25.151 -19.808   3.731  0.00  0.00    +0.002 C 
ATOM     12  C   LIG    1       25.743 -21.040   7.633  0.00  0.00    -0.021 C 
ATOM     13  C   LIG    1       26.445 -19.638   4.247  0.00  0.00    +0.005 C 
ATOM     14  C   LIG    1       28.884 -18.636   5.964  0.00  0.00    +0.015 C 
ATOM     15  C   LIG    1       30.125 -18.473   6.881  0.00  0.00    +0.013 C 
ATOM     16  C   LIG    1       27.035 -21.169   8.357  0.00  0.00    +0.056 C 
ATOM     17  C   LIG    1       30.589 -19.831   7.456  0.00  0.00    +0.089 C 
ENDROOT
BRANCH   1  18
ATOM     18  C   LIG    1       29.888 -22.102   7.957  0.00  0.00    +0.084 C 
BRANCH  18  20
ATOM     19  C   LIG    1       31.265 -21.979  10.094  0.00  0.00    +0.005 C 
ATOM     20  C   LIG    1       31.153 -22.581   8.694  0.00  0.00    +0.012 C 
ENDBRANCH  18  20
ENDBRANCH   1  18
BRANCH  15  21
ATOM     21  C   LIG    1       29.977 -17.416   7.996  0.00  0.00    +0.073 C 
BRANCH  21  22
ATOM     22  S   LIG    1       31.352 -17.385   9.205  0.00  0.00    -0.164 S 
ATOM     23  C   LIG    1       30.398 -17.472  10.739  0.00  0.00    +0.084 C 
ENDBRANCH  21  22
ENDBRANCH  15  21
TORSDOF 4
ENDMDL
MODEL 3
REMARK VINA RESULT:      -5.6      8.487     10.991
REMARK  Name = *****
REMARK                            x       y       z     vdW  Elec       q    Type
REMARK                         _______ _______ _______ _____ _____    ______ ____
ROOT
ATOM      1  N   LIG    1       26.238 -30.282  11.117  0.00  0.00    -0.298 NA
ATOM      2  C   LIG    1       24.948 -30.037  11.846  0.00  0.00    +0.069 C 
ATOM      3  C   LIG    1       24.883 -28.547  12.369  0.00  0.00    +0.037 C 
ATOM      4  C   LIG    1       23.498 -28.071  12.756  0.00  0.00    -0.033 C 
ATOM      5  C   LIG    1       22.405 -28.861  12.394  0.00  0.00    +0.006 C 
ATOM      6  C   LIG    1       21.093 -28.464  12.608  0.00  0.00    +0.047 C 
ATOM      7  N   LIG    1       20.307 -29.482  12.122  0.00  0.00    -0.360 NA
ATOM      8  H   LIG    1       19.291 -29.477  12.129  0.00  0.00    +0.165 HD
ATOM      9  C   LIG    1       21.085 -30.470  11.564  0.00  0.00    +0.087 C 
ATOM     10  C   LIG    1       20.791 -27.230  13.181  0.00  0.00    +0.026 C 
ATOM     11  C   LIG    1       21.878 -26.417  13.535  0.00  0.00    +0.002 C 
ATOM     12  C   LIG    1       22.402 -30.085  11.703  0.00  0.00    -0.021 C 
ATOM     13  C   LIG    1       23.205 -26.826  13.333  0.00  0.00    +0.005 C 
ATOM     14  C   LIG    1       25.918 -28.410  13.511  0.00  0.00    +0.015 C 
ATOM     15  C   LIG    1       27.217 -29.221  13.261  0.00  0.00    +0.013 C 
ATOM     16  C   LIG    1       23.669 -30.668  11.185  0.00  0.00    +0.056 C 
ATOM     17  C   LIG    1       27.376 -29.595  11.770  0.00  0.00    +0.089 C 
ENDROOT
BRANCH   1  18
ATOM     18  C   LIG    1       26.181 -29.904   9.678  0.00  0.00    +0.084 C 
BRANCH  18  20
ATOM     19  C   LIG    1       26.067 -27.951   8.051  0.00  0.00    +0.005 C 
ATOM     20  C   LIG    1       26.620 -28.457   9.382  0.00  0.00    +0.012 C 
ENDBRANCH  18  20
ENDBRANCH   1  18
BRANCH  15  21
ATOM     21  C   LIG    1       27.400 -30.455  14.170  0.00  0.00    +0.073 C 
BRANCH  21  22
ATOM     22  S   LIG    1       28.734 -30.296  15.413  0.00  0.00    -0.164 S 
ATOM     23  C   LIG    1       30.060 -29.681  14.347  0.00  0.00    +0.084 C 
ENDBRANCH  21  22
ENDBRANCH  15  21
TORSDOF 4
ENDMDL
MODEL 4
REMARK VINA RESULT:      -5.2      7.229     10.661
REMARK  Name = *****
REMARK                            x       y       z     vdW  Elec       q    Type
REMARK                         _______ _______ _______ _____ _____    ______ ____
ROOT
ATOM      1  N   LIG    1       26.593 -31.497   8.070  0.00  0.00    -0.298 NA
ATOM      2  C   LIG    1       26.225 -30.376   8.999  0.00  0.00    +0.069 C 
ATOM      3  C   LIG    1       24.721 -30.514   9.462  0.00  0.00    +0.037 C 
ATOM      4  C   LIG    1       24.357 -29.697  10.685  0.00  0.00    -0.033 C 
ATOM      5  C   LIG    1       25.393 -29.119  11.423  0.00  0.00    +0.006 C 
ATOM      6  C   LIG    1       25.173 -28.444  12.614  0.00  0.00    +0.047 C 
ATOM      7  N   LIG    1       26.411 -28.029  13.046  0.00  0.00    -0.360 NA
ATOM      8  H   LIG    1       26.577 -27.511  13.904  0.00  0.00    +0.165 HD
ATOM      9  C   LIG    1       27.395 -28.473  12.193  0.00  0.00    +0.087 C 
ATOM     10  C   LIG    1       23.896 -28.324  13.158  0.00  0.00    +0.026 C 
ATOM     11  C   LIG    1       22.846 -28.913  12.438  0.00  0.00    +0.002 C 
ATOM     12  C   LIG    1       26.776 -29.180  11.183  0.00  0.00    -0.021 C 
ATOM     13  C   LIG    1       23.067 -29.583  11.224  0.00  0.00    +0.005 C 
ATOM     14  C   LIG    1       23.827 -30.208   8.236  0.00  0.00    +0.015 C 
ATOM     15  C   LIG    1       24.412 -30.745   6.903  0.00  0.00    +0.013 C 
ATOM     16  C   LIG    1       27.317 -29.996  10.064  0.00  0.00    +0.056 C 
ATOM     17  C   LIG    1       25.483 -31.832   7.149  0.00  0.00    +0.089 C 
ENDROOT
BRANCH   1  18
ATOM     18  C   LIG    1       27.047 -32.724   8.779  0.00  0.00    +0.084 C 
BRANCH  18  20
ATOM     19  C   LIG    1       25.317 -33.825  10.286  0.00  0.00    +0.005 C 
ATOM     20  C   LIG    1       25.972 -33.820   8.906  0.00  0.00    +0.012 C 
ENDBRANCH  18  20
ENDBRANCH   1  18
BRANCH  15  21
ATOM     21  C   LIG    1       24.929 -29.661   5.933  0.00  0.00    +0.073 C 
BRANCH  21  22
ATOM     22  S   LIG    1       24.730 -27.943   6.533  0.00  0.00    -0.164 S 
ATOM     23  C   LIG    1       25.743 -27.082   5.307  0.00  0.00    +0.084 C 
ENDBRANCH  21  22
ENDBRANCH  15  21
TORSDOF 4
ENDMDL
MODEL 5
REMARK VINA RESULT:      -5.2      2.487      4.727
REMARK  Name = *****
REMARK                            x       y       z     vdW  Elec       q    Type
REMARK                         _______ _______ _______ _____ _____    ______ ____
ROOT
ATOM      1  N   LIG    1       26.751 -21.837   8.178  0.00  0.00    -0.298 NA
ATOM      2  C   LIG    1       25.960 -20.868   7.348  0.00  0.00    +0.069 C 
ATOM      3  C   LIG    1       26.581 -20.746   5.900  0.00  0.00    +0.037 C 
ATOM      4  C   LIG    1       25.662 -20.126   4.866  0.00  0.00    -0.033 C 
ATOM      5  C   LIG    1       24.316 -19.959   5.198  0.00  0.00    +0.006 C 
ATOM      6  C   LIG    1       23.374 -19.501   4.288  0.00  0.00    +0.047 C 
ATOM      7  N   LIG    1       22.177 -19.475   4.965  0.00  0.00    -0.360 NA
ATOM      8  H   LIG    1       21.292 -19.190   4.556  0.00  0.00    +0.165 HD
ATOM      9  C   LIG    1       22.335 -19.955   6.245  0.00  0.00    +0.087 C 
ATOM     10  C   LIG    1       23.720 -19.201   2.973  0.00  0.00    +0.026 C 
ATOM     11  C   LIG    1       25.066 -19.380   2.618  0.00  0.00    +0.002 C 
ATOM     12  C   LIG    1       23.664 -20.287   6.400  0.00  0.00    -0.021 C 
ATOM     13  C   LIG    1       26.021 -19.828   3.544  0.00  0.00    +0.005 C 
ATOM     14  C   LIG    1       27.934 -20.007   6.035  0.00  0.00    +0.015 C 
ATOM     15  C   LIG    1       28.714 -20.389   7.321  0.00  0.00    +0.013 C 
ATOM     16  C   LIG    1       24.398 -20.967   7.500  0.00  0.00    +0.056 C 
ATOM     17  C   LIG    1       28.205 -21.720   7.920  0.00  0.00    +0.089 C 
ENDROOT
BRANCH   1  18
ATOM     18  C   LIG    1       26.322 -23.251   8.002  0.00  0.00    +0.084 C 
BRANCH  18  20
ATOM     19  C   LIG    1       24.705 -24.486   6.474  0.00  0.00    +0.005 C 
ATOM     20  C   LIG    1       25.971 -23.634   6.552  0.00  0.00    +0.012 C 
ENDBRANCH  18  20
ENDBRANCH   1  18
BRANCH  15  21
ATOM     21  C   LIG    1       28.784 -19.283   8.395  0.00  0.00    +0.073 C 
BRANCH  21  22
ATOM     22  S   LIG    1       30.355 -18.344   8.421  0.00  0.00    -0.164 S 
ATOM     23  C   LIG    1       31.295 -19.305   7.210  0.00  0.00    +0.084 C 
ENDBRANCH  21  22
ENDBRANCH  15  21
TORSDOF 4
ENDMDL
MODEL 6
REMARK VINA RESULT:      -5.2      8.971     10.705
REMARK  Name = *****
REMARK                            x       y       z     vdW  Elec       q    Type
REMARK                         _______ _______ _______ _____ _____    ______ ____
ROOT
ATOM      1  N   LIG    1       25.117 -31.038  11.816  0.00  0.00    -0.298 NA
ATOM      2  C   LIG    1       25.056 -31.370  10.353  0.00  0.00    +0.069 C 
ATOM      3  C   LIG    1       24.403 -30.180   9.544  0.00  0.00    +0.037 C 
ATOM      4  C   LIG    1       24.649 -30.221   8.049  0.00  0.00    -0.033 C 
ATOM      5  C   LIG    1       25.602 -31.119   7.562  0.00  0.00    +0.006 C 
ATOM      6  C   LIG    1       25.975 -31.160   6.227  0.00  0.00    +0.047 C 
ATOM      7  N   LIG    1       26.926 -32.149   6.131  0.00  0.00    -0.360 NA
ATOM      8  H   LIG    1       27.399 -32.410   5.271  0.00  0.00    +0.165 HD
ATOM      9  C   LIG    1       27.195 -32.683   7.371  0.00  0.00    +0.087 C 
ATOM     10  C   LIG    1       25.430 -30.282   5.292  0.00  0.00    +0.026 C 
ATOM     11  C   LIG    1       24.484 -29.363   5.768  0.00  0.00    +0.002 C 
ATOM     12  C   LIG    1       26.392 -32.031   8.283  0.00  0.00    -0.021 C 
ATOM     13  C   LIG    1       24.095 -29.332   7.116  0.00  0.00    +0.005 C 
ATOM     14  C   LIG    1       22.902 -30.135   9.915  0.00  0.00    +0.015 C 
ATOM     15  C   LIG    1       22.630 -30.465  11.406  0.00  0.00    +0.013 C 
ATOM     16  C   LIG    1       26.332 -32.079   9.768  0.00  0.00    +0.056 C 
ATOM     17  C   LIG    1       23.906 -30.313  12.264  0.00  0.00    +0.089 C 
ENDROOT
BRANCH   1  18
ATOM     18  C   LIG    1       26.333 -30.268  12.195  0.00  0.00    +0.084 C 
BRANCH  18  20
ATOM     19  C   LIG    1       26.943 -28.090  11.030  0.00  0.00    +0.005 C 
ATOM     20  C   LIG    1       26.153 -28.739  12.166  0.00  0.00    +0.012 C 
ENDBRANCH  18  20
ENDBRANCH   1  18
BRANCH  15  21
ATOM     21  C   LIG    1       21.946 -31.826  11.658  0.00  0.00    +0.073 C 
BRANCH  21  22
ATOM     22  S   LIG    1       21.015 -32.488  10.228  0.00  0.00    -0.164 S 
ATOM     23  C   LIG    1       19.482 -31.546  10.411  0.00  0.00    +0.084 C 
ENDBRANCH  21  22
ENDBRANCH  15  21
TORSDOF 4
ENDMDL
MODEL 7
REMARK VINA RESULT:      -5.1      9.553     10.975
REMARK  Name = *****
REMARK                            x       y       z     vdW  Elec       q    Type
REMARK                         _______ _______ _______ _____ _____    ______ ____
ROOT
ATOM      1  N   LIG    1       25.916 -31.232  12.222  0.00  0.00    -0.298 NA
ATOM      2  C   LIG    1       25.232 -29.898  12.140  0.00  0.00    +0.069 C 
ATOM      3  C   LIG    1       23.663 -30.080  12.153  0.00  0.00    +0.037 C 
ATOM      4  C   LIG    1       22.882 -28.823  12.476  0.00  0.00    -0.033 C 
ATOM      5  C   LIG    1       23.583 -27.720  12.967  0.00  0.00    +0.006 C 
ATOM      6  C   LIG    1       22.949 -26.561  13.392  0.00  0.00    +0.047 C 
ATOM      7  N   LIG    1       23.950 -25.715  13.808  0.00  0.00    -0.360 NA
ATOM      8  H   LIG    1       23.796 -24.784  14.185  0.00  0.00    +0.165 HD
ATOM      9  C   LIG    1       25.177 -26.331  13.710  0.00  0.00    +0.087 C 
ATOM     10  C   LIG    1       21.561 -26.442  13.372  0.00  0.00    +0.026 C 
ATOM     11  C   LIG    1       20.841 -27.548  12.897  0.00  0.00    +0.002 C 
ATOM     12  C   LIG    1       24.962 -27.597  13.208  0.00  0.00    -0.021 C 
ATOM     13  C   LIG    1       21.483 -28.714  12.453  0.00  0.00    +0.005 C 
ATOM     14  C   LIG    1       23.259 -30.720  10.803  0.00  0.00    +0.015 C 
ATOM     15  C   LIG    1       24.283 -31.767  10.291  0.00  0.00    +0.013 C 
ATOM     16  C   LIG    1       25.873 -28.757  13.012  0.00  0.00    +0.056 C 
ATOM     17  C   LIG    1       25.207 -32.261  11.427  0.00  0.00    +0.089 C 
ENDROOT
BRANCH   1  18
ATOM     18  C   LIG    1       26.101 -31.715  13.618  0.00  0.00    +0.084 C 
BRANCH  18  20
ATOM     19  C   LIG    1       24.076 -32.356  15.020  0.00  0.00    +0.005 C 
ATOM     20  C   LIG    1       25.139 -32.842  14.035  0.00  0.00    +0.012 C 
ENDBRANCH  18  20
ENDBRANCH   1  18
BRANCH  15  21
ATOM     21  C   LIG    1       25.100 -31.331   9.056  0.00  0.00    +0.073 C 
BRANCH  21  22
ATOM     22  S   LIG    1       24.366 -29.950   8.105  0.00  0.00    -0.164 S 
ATOM     23  C   LIG    1       24.307 -30.715   6.468  0.00  0.00    +0.084 C 
ENDBRANCH  21  22
ENDBRANCH  15  21
TORSDOF 4
ENDMDL
MODEL 8
REMARK VINA RESULT:      -5.1      1.687      2.624
REMARK  Name = *****
REMARK                            x       y       z     vdW  Elec       q    Type
REMARK                         _______ _______ _______ _____ _____    ______ ____
ROOT
ATOM      1  N   LIG    1       25.968 -22.877   7.593  0.00  0.00    -0.298 NA
ATOM      2  C   LIG    1       26.471 -22.007   6.477  0.00  0.00    +0.069 C 
ATOM      3  C   LIG    1       25.261 -21.375   5.681  0.00  0.00    +0.037 C 
ATOM      4  C   LIG    1       25.625 -20.189   4.811  0.00  0.00    -0.033 C 
ATOM      5  C   LIG    1       26.889 -19.617   4.974  0.00  0.00    +0.006 C 
ATOM      6  C   LIG    1       27.279 -18.466   4.303  0.00  0.00    +0.047 C 
ATOM      7  N   LIG    1       28.564 -18.206   4.718  0.00  0.00    -0.360 NA
ATOM      8  H   LIG    1       29.119 -17.415   4.405  0.00  0.00    +0.165 HD
ATOM      9  C   LIG    1       28.962 -19.122   5.664  0.00  0.00    +0.087 C 
ATOM     10  C   LIG    1       26.413 -17.800   3.439  0.00  0.00    +0.026 C 
ATOM     11  C   LIG    1       25.134 -18.353   3.276  0.00  0.00    +0.002 C 
ATOM     12  C   LIG    1       27.914 -19.998   5.855  0.00  0.00    -0.021 C 
ATOM     13  C   LIG    1       24.746 -19.525   3.943  0.00  0.00    +0.005 C 
ATOM     14  C   LIG    1       24.572 -22.518   4.898  0.00  0.00    +0.015 C 
ATOM     15  C   LIG    1       24.534 -23.858   5.679  0.00  0.00    +0.013 C 
ATOM     16  C   LIG    1       27.705 -21.100   6.832  0.00  0.00    +0.056 C 
ATOM     17  C   LIG    1       24.765 -23.642   7.192  0.00  0.00    +0.089 C 
ENDROOT
BRANCH   1  18
ATOM     18  C   LIG    1       25.689 -22.123   8.847  0.00  0.00    +0.084 C 
BRANCH  18  20
ATOM     19  C   LIG    1       23.732 -20.654   8.149  0.00  0.00    +0.005 C 
ATOM     20  C   LIG    1       25.184 -20.685   8.627  0.00  0.00    +0.012 C 
ENDBRANCH  18  20
ENDBRANCH   1  18
BRANCH  15  21
ATOM     21  C   LIG    1       25.459 -24.962   5.125  0.00  0.00    +0.073 C 
BRANCH  21  22
ATOM     22  S   LIG    1       25.847 -26.300   6.312  0.00  0.00    -0.164 S 
ATOM     23  C   LIG    1       24.469 -27.417   5.960  0.00  0.00    +0.084 C 
ENDBRANCH  21  22
ENDBRANCH  15  21
TORSDOF 4
ENDMDL
MODEL 9
REMARK VINA RESULT:      -5.0      9.542     12.121
REMARK  Name = *****
REMARK                            x       y       z     vdW  Elec       q    Type
REMARK                         _______ _______ _______ _____ _____    ______ ____
ROOT
ATOM      1  N   LIG    1       23.341 -29.923  12.824  0.00  0.00    -0.298 NA
ATOM      2  C   LIG    1       22.231 -29.358  13.663  0.00  0.00    +0.069 C 
ATOM      3  C   LIG    1       21.738 -27.978  13.072  0.00  0.00    +0.037 C 
ATOM      4  C   LIG    1       20.387 -27.518  13.579  0.00  0.00    -0.033 C 
ATOM      5  C   LIG    1       19.607 -28.428  14.295  0.00  0.00    +0.006 C 
ATOM      6  C   LIG    1       18.315 -28.140  14.710  0.00  0.00    +0.047 C 
ATOM      7  N   LIG    1       17.870 -29.264  15.367  0.00  0.00    -0.360 NA
ATOM      8  H   LIG    1       16.947 -29.360  15.780  0.00  0.00    +0.165 HD
ATOM      9  C   LIG    1       18.821 -30.258  15.324  0.00  0.00    +0.087 C 
ATOM     10  C   LIG    1       17.711 -26.921  14.412  0.00  0.00    +0.026 C 
ATOM     11  C   LIG    1       18.475 -26.000  13.680  0.00  0.00    +0.002 C 
ATOM     12  C   LIG    1       19.906 -29.759  14.633  0.00  0.00    -0.021 C 
ATOM     13  C   LIG    1       19.788 -26.287  13.273  0.00  0.00    +0.005 C 
ATOM     14  C   LIG    1       22.864 -26.943  13.308  0.00  0.00    +0.015 C 
ATOM     15  C   LIG    1       24.287 -27.538  13.140  0.00  0.00    +0.013 C 
ATOM     16  C   LIG    1       21.161 -30.399  14.157  0.00  0.00    +0.056 C 
ATOM     17  C   LIG    1       24.260 -28.864  12.346  0.00  0.00    +0.089 C 
ENDROOT
BRANCH   1  18
ATOM     18  C   LIG    1       22.855 -30.725  11.668  0.00  0.00    +0.084 C 
BRANCH  18  20
ATOM     19  C   LIG    1       23.875 -30.991   9.352  0.00  0.00    +0.005 C 
ATOM     20  C   LIG    1       23.096 -30.074  10.294  0.00  0.00    +0.012 C 
ENDBRANCH  18  20
ENDBRANCH   1  18
BRANCH  15  21
ATOM     21  C   LIG    1       25.090 -27.688  14.450  0.00  0.00    +0.073 C 
BRANCH  21  22
ATOM     22  S   LIG    1       26.498 -26.530  14.618  0.00  0.00    -0.164 S 
ATOM     23  C   LIG    1       26.587 -25.923  12.916  0.00  0.00    +0.084 C 
ENDBRANCH  21  22
ENDBRANCH  15  21
TORSDOF 4
ENDMDL
