MODEL 1
REMARK VINA RESULT:      -5.3      0.000      0.000
REMARK  Name = *****
REMARK                            x       y       z     vdW  Elec       q    Type
REMARK                         _______ _______ _______ _____ _____    ______ ____
ROOT
ATOM      1  C   LIG    1       27.750 -19.075   5.011  0.00  0.00    -0.014 A 
ATOM      2  C   LIG    1       26.527 -19.381   4.402  0.00  0.00    +0.056 A 
ATOM      3  C   LIG    1       25.760 -18.442   3.704  0.00  0.00    +0.174 A 
ATOM      4  C   LIG    1       26.288 -17.152   3.516  0.00  0.00    +0.174 A 
ATOM      5  C   LIG    1       27.555 -16.871   4.041  0.00  0.00    +0.050 A 
ATOM      6  C   LIG    1       28.261 -17.796   4.804  0.00  0.00    +0.010 A 
ENDROOT
BRANCH   1   7
ATOM      7  C   LIG    1       28.491 -20.148   5.796  0.00  0.00    +0.158 C 
BRANCH   7   8
ATOM      8  O   LIG    1       29.472 -19.609   6.692  0.00  0.00    -0.386 OA
ATOM      9  H   LIG    1       29.881 -18.837   6.276  0.00  0.00    +0.210 HD
ENDBRANCH   7   8
BRANCH   7  10
ATOM     10  C   LIG    1       27.601 -21.140   6.615  0.00  0.00    +0.116 C 
BRANCH  10  12
ATOM     11  C   LIG    1       25.261 -21.572   7.036  0.00  0.00    +0.101 C 
ATOM     12  N   LIG    1       26.314 -20.565   7.061  0.00  0.00    -0.316 NA
ATOM     13  H   LIG    1       26.441 -20.211   8.010  0.00  0.00    +0.122 HD
ENDBRANCH  10  12
ENDBRANCH   7  10
ENDBRANCH   1   7
BRANCH   3  14
ATOM     14  O   LIG    1       24.444 -18.781   3.298  0.00  0.00    -0.422 OA
BRANCH  14  15
ATOM     15  C   LIG    1       23.813 -19.932   3.817  0.00  0.00    +0.318 C 
ATOM     16  O   LIG    1       24.183 -21.098   3.658  0.00  0.00    -0.250 OA
BRANCH  15  17
ATOM     17  C   LIG    1       22.595 -19.582   4.669  0.00  0.00    +0.060 C 
ATOM     18  C   LIG    1       21.438 -20.469   4.178  0.00  0.00    +0.022 C 
ATOM     19  C   LIG    1       22.231 -18.105   4.469  0.00  0.00    +0.022 C 
ATOM     20  C   LIG    1       22.834 -19.825   6.160  0.00  0.00    +0.022 C 
ENDBRANCH  15  17
ENDBRANCH  14  15
ENDBRANCH   3  14
BRANCH   4  21
ATOM     21  O   LIG    1       25.638 -16.142   2.752  0.00  0.00    -0.422 OA
BRANCH  21  22
ATOM     22  C   LIG    1       26.145 -14.831   2.915  0.00  0.00    +0.318 C 
ATOM     23  O   LIG    1       27.169 -14.421   2.418  0.00  0.00    -0.250 OA
BRANCH  22  24
ATOM     24  C   LIG    1       25.253 -13.919   3.777  0.00  0.00    +0.060 C 
ATOM     25  C   LIG    1       24.717 -12.784   2.908  0.00  0.00    +0.022 C 
ATOM     26  C   LIG    1       26.008 -13.360   4.986  0.00  0.00    +0.022 C 
ATOM     27  C   LIG    1       24.064 -14.770   4.291  0.00  0.00    +0.022 C 
ENDBRANCH  22  24
ENDBRANCH  21  22
ENDBRANCH   4  21
TORSDOF 10
ENDMDL
