MODEL 1
REMARK VINA RESULT:      -7.8      0.000      0.000
REMARK  Name = *****
REMARK                            x       y       z     vdW  Elec       q    Type
REMARK                         _______ _______ _______ _____ _____    ______ ____
ROOT
ATOM      1  C   LIG    1       23.306 -20.325   5.702  0.00  0.00    +0.122 A 
ATOM      2  C   LIG    1       24.743 -20.438   5.643  0.00  0.00    +0.070 A 
ATOM      3  C   LIG    1       25.627 -21.439   6.010  0.00  0.00    +0.057 A 
ATOM      4  C   LIG    1       25.082 -22.577   6.108  0.00  0.00    +0.092 A 
ATOM      5  C   LIG    1       23.614 -22.688   6.110  0.00  0.00    +0.006 A 
ATOM      6  C   LIG    1       23.087 -23.864   6.478  0.00  0.00    +0.012 A 
ATOM      7  C   LIG    1       23.925 -24.950   6.746  0.00  0.00    +0.020 A 
ATOM      8  C   LIG    1       25.301 -24.792   6.625  0.00  0.00    +0.111 A 
ATOM      9  N   LIG    1       25.885 -23.656   6.337  0.00  0.00    -0.253 NA
ATOM     10  C   LIG    1       22.761 -21.542   5.865  0.00  0.00    +0.055 A 
ENDROOT
BRANCH   1  12
ATOM     11  C   LIG    1       21.990 -18.389   4.306  0.00  0.00    +0.277 C 
ATOM     12  O   LIG    1       22.448 -19.190   5.562  0.00  0.00    -0.495 OA
ENDBRANCH   1  12
BRANCH   3  13
ATOM     13  N   LIG    1       26.997 -21.010   6.155  0.00  0.00    -0.340 N 
ATOM     14  H   LIG    1       27.551 -21.535   5.464  0.00  0.00    +0.146 HD
BRANCH  13  15
ATOM     15  C   LIG    1       27.695 -20.835   7.490  0.00  0.00    +0.067 C 
ATOM     16  C   LIG    1       26.593 -20.516   8.524  0.00  0.00    +0.027 C 
BRANCH  15  17
ATOM     17  C   LIG    1       28.856 -19.785   7.718  0.00  0.00    +0.023 C 
BRANCH  17  18
ATOM     18  C   LIG    1       30.379 -20.247   7.828  0.00  0.00    +0.017 C 
BRANCH  18  19
ATOM     19  C   LIG    1       30.672 -21.393   8.748  0.00  0.00    +0.078 C 
BRANCH  19  20
ATOM     20  N   LIG    1       31.914 -21.818   9.337  0.00  0.00    -0.330 NA
ATOM     21  H   LIG    1       31.919 -22.858   9.210  0.00  0.00    +0.118 HD
ATOM     22  H   LIG    1       31.675 -21.758  10.333  0.00  0.00    +0.118 HD
ENDBRANCH  19  20
ENDBRANCH  18  19
ENDBRANCH  17  18
ENDBRANCH  15  17
ENDBRANCH  13  15
ENDBRANCH   3  13
TORSDOF 7
ENDMDL
MODEL 2
REMARK VINA RESULT:      -7.6      2.975      5.099
REMARK  Name = *****
REMARK                            x       y       z     vdW  Elec       q    Type
REMARK                         _______ _______ _______ _____ _____    ______ ____
ROOT
ATOM      1  C   LIG    1       26.621 -20.964   7.918  0.00  0.00    +0.122 A 
ATOM      2  C   LIG    1       25.240 -20.652   7.644  0.00  0.00    +0.070 A 
ATOM      3  C   LIG    1       24.214 -21.361   7.044  0.00  0.00    +0.057 A 
ATOM      4  C   LIG    1       24.412 -22.611   7.026  0.00  0.00    +0.092 A 
ATOM      5  C   LIG    1       25.745 -23.145   7.353  0.00  0.00    +0.006 A 
ATOM      6  C   LIG    1       25.978 -24.434   7.066  0.00  0.00    +0.012 A 
ATOM      7  C   LIG    1       24.946 -25.235   6.570  0.00  0.00    +0.020 A 
ATOM      8  C   LIG    1       23.686 -24.679   6.381  0.00  0.00    +0.111 A 
ATOM      9  N   LIG    1       23.406 -23.415   6.575  0.00  0.00    -0.253 NA
ATOM     10  C   LIG    1       26.812 -22.292   7.833  0.00  0.00    +0.055 A 
ENDROOT
BRANCH   1  12
ATOM     11  C   LIG    1       29.125 -19.915   7.666  0.00  0.00    +0.277 C 
ATOM     12  O   LIG    1       27.716 -20.126   8.298  0.00  0.00    -0.495 OA
ENDBRANCH   1  12
BRANCH   3  13
ATOM     13  N   LIG    1       23.098 -20.556   6.610  0.00  0.00    -0.340 N 
ATOM     14  H   LIG    1       22.268 -20.890   7.120  0.00  0.00    +0.146 HD
BRANCH  13  15
ATOM     15  C   LIG    1       22.820 -20.202   5.161  0.00  0.00    +0.067 C 
ATOM     16  C   LIG    1       21.517 -20.933   4.772  0.00  0.00    +0.027 C 
BRANCH  15  17
ATOM     17  C   LIG    1       23.861 -20.470   4.001  0.00  0.00    +0.023 C 
BRANCH  17  18
ATOM     18  C   LIG    1       25.261 -19.706   3.953  0.00  0.00    +0.017 C 
BRANCH  18  19
ATOM     19  C   LIG    1       25.241 -18.291   3.463  0.00  0.00    +0.078 C 
BRANCH  19  20
ATOM     20  N   LIG    1       26.326 -17.406   3.133  0.00  0.00    -0.330 NA
ATOM     21  H   LIG    1       27.152 -18.040   3.014  0.00  0.00    +0.118 HD
ATOM     22  H   LIG    1       26.532 -17.014   4.059  0.00  0.00    +0.118 HD
ENDBRANCH  19  20
ENDBRANCH  18  19
ENDBRANCH  17  18
ENDBRANCH  15  17
ENDBRANCH  13  15
ENDBRANCH   3  13
TORSDOF 7
ENDMDL
MODEL 3
REMARK VINA RESULT:      -7.5      1.537      1.787
REMARK  Name = *****
REMARK                            x       y       z     vdW  Elec       q    Type
REMARK                         _______ _______ _______ _____ _____    ______ ____
ROOT
ATOM      1  C   LIG    1       23.221 -20.322   5.683  0.00  0.00    +0.122 A 
ATOM      2  C   LIG    1       24.651 -20.457   5.563  0.00  0.00    +0.070 A 
ATOM      3  C   LIG    1       25.535 -21.471   5.891  0.00  0.00    +0.057 A 
ATOM      4  C   LIG    1       24.977 -22.602   6.013  0.00  0.00    +0.092 A 
ATOM      5  C   LIG    1       23.509 -22.690   6.077  0.00  0.00    +0.006 A 
ATOM      6  C   LIG    1       22.981 -23.858   6.468  0.00  0.00    +0.012 A 
ATOM      7  C   LIG    1       23.813 -24.956   6.700  0.00  0.00    +0.020 A 
ATOM      8  C   LIG    1       25.185 -24.819   6.520  0.00  0.00    +0.111 A 
ATOM      9  N   LIG    1       25.773 -23.693   6.207  0.00  0.00    -0.253 NA
ATOM     10  C   LIG    1       22.665 -21.532   5.869  0.00  0.00    +0.055 A 
ENDROOT
BRANCH   1  12
ATOM     11  C   LIG    1       22.028 -18.250   4.372  0.00  0.00    +0.277 C 
ATOM     12  O   LIG    1       22.374 -19.175   5.579  0.00  0.00    -0.495 OA
ENDBRANCH   1  12
BRANCH   3  13
ATOM     13  N   LIG    1       26.917 -21.063   5.977  0.00  0.00    -0.340 N 
ATOM     14  H   LIG    1       27.391 -21.430   5.141  0.00  0.00    +0.146 HD
BRANCH  13  15
ATOM     15  C   LIG    1       27.751 -21.155   7.241  0.00  0.00    +0.067 C 
ATOM     16  C   LIG    1       26.993 -20.361   8.327  0.00  0.00    +0.027 C 
BRANCH  15  17
ATOM     17  C   LIG    1       29.262 -20.692   7.303  0.00  0.00    +0.023 C 
BRANCH  17  18
ATOM     18  C   LIG    1       29.652 -19.147   7.391  0.00  0.00    +0.017 C 
BRANCH  18  19
ATOM     19  C   LIG    1       29.678 -18.384   6.102  0.00  0.00    +0.078 C 
BRANCH  19  20
ATOM     20  N   LIG    1       28.824 -18.480   4.948  0.00  0.00    -0.330 NA
ATOM     21  H   LIG    1       29.225 -17.788   4.271  0.00  0.00    +0.118 HD
ATOM     22  H   LIG    1       28.007 -17.956   5.280  0.00  0.00    +0.118 HD
ENDBRANCH  19  20
ENDBRANCH  18  19
ENDBRANCH  17  18
ENDBRANCH  15  17
ENDBRANCH  13  15
ENDBRANCH   3  13
TORSDOF 7
ENDMDL
MODEL 4
REMARK VINA RESULT:      -7.3      2.123      5.708
REMARK  Name = *****
REMARK                            x       y       z     vdW  Elec       q    Type
REMARK                         _______ _______ _______ _____ _____    ______ ____
ROOT
ATOM      1  C   LIG    1       25.388 -20.342   4.847  0.00  0.00    +0.122 A 
ATOM      2  C   LIG    1       25.236 -21.370   5.847  0.00  0.00    +0.070 A 
ATOM      3  C   LIG    1       26.126 -21.986   6.710  0.00  0.00    +0.057 A 
ATOM      4  C   LIG    1       27.185 -21.319   6.897  0.00  0.00    +0.092 A 
ATOM      5  C   LIG    1       27.492 -20.173   6.026  0.00  0.00    +0.006 A 
ATOM      6  C   LIG    1       28.732 -19.668   6.088  0.00  0.00    +0.012 A 
ATOM      7  C   LIG    1       29.642 -20.168   7.023  0.00  0.00    +0.020 A 
ATOM      8  C   LIG    1       29.243 -21.187   7.881  0.00  0.00    +0.111 A 
ATOM      9  N   LIG    1       28.073 -21.771   7.829  0.00  0.00    -0.253 NA
ATOM     10  C   LIG    1       26.548 -19.691   5.037  0.00  0.00    +0.055 A 
ENDROOT
BRANCH   1  12
ATOM     11  C   LIG    1       23.241 -19.013   3.818  0.00  0.00    +0.277 C 
ATOM     12  O   LIG    1       24.513 -19.914   3.800  0.00  0.00    -0.495 OA
ENDBRANCH   1  12
BRANCH   3  13
ATOM     13  N   LIG    1       25.658 -23.231   7.271  0.00  0.00    -0.340 N 
ATOM     14  H   LIG    1       26.324 -23.497   8.009  0.00  0.00    +0.146 HD
BRANCH  13  15
ATOM     15  C   LIG    1       25.167 -24.403   6.442  0.00  0.00    +0.067 C 
ATOM     16  C   LIG    1       23.635 -24.461   6.628  0.00  0.00    +0.027 C 
BRANCH  15  17
ATOM     17  C   LIG    1       25.710 -25.875   6.637  0.00  0.00    +0.023 C 
BRANCH  17  18
ATOM     18  C   LIG    1       25.303 -27.048   5.634  0.00  0.00    +0.017 C 
BRANCH  18  19
ATOM     19  C   LIG    1       24.380 -28.101   6.166  0.00  0.00    +0.078 C 
BRANCH  19  20
ATOM     20  N   LIG    1       23.599 -29.089   5.472  0.00  0.00    -0.330 NA
ATOM     21  H   LIG    1       23.171 -29.666   6.234  0.00  0.00    +0.118 HD
ATOM     22  H   LIG    1       24.342 -29.725   5.159  0.00  0.00    +0.118 HD
ENDBRANCH  19  20
ENDBRANCH  18  19
ENDBRANCH  17  18
ENDBRANCH  15  17
ENDBRANCH  13  15
ENDBRANCH   3  13
TORSDOF 7
ENDMDL
MODEL 5
REMARK VINA RESULT:      -7.3      1.862      3.778
REMARK  Name = *****
REMARK                            x       y       z     vdW  Elec       q    Type
REMARK                         _______ _______ _______ _____ _____    ______ ____
ROOT
ATOM      1  C   LIG    1       24.373 -22.803   6.366  0.00  0.00    +0.122 A 
ATOM      2  C   LIG    1       25.477 -21.904   6.134  0.00  0.00    +0.070 A 
ATOM      3  C   LIG    1       25.611 -20.749   5.382  0.00  0.00    +0.057 A 
ATOM      4  C   LIG    1       24.505 -20.195   5.112  0.00  0.00    +0.092 A 
ATOM      5  C   LIG    1       23.247 -20.921   5.350  0.00  0.00    +0.006 A 
ATOM      6  C   LIG    1       22.131 -20.409   4.810  0.00  0.00    +0.012 A 
ATOM      7  C   LIG    1       22.180 -19.184   4.141  0.00  0.00    +0.020 A 
ATOM      8  C   LIG    1       23.393 -18.510   4.045  0.00  0.00    +0.111 A 
ATOM      9  N   LIG    1       24.530 -18.983   4.488  0.00  0.00    -0.253 NA
ATOM     10  C   LIG    1       23.221 -22.207   6.015  0.00  0.00    +0.055 A 
ENDROOT
BRANCH   1  12
ATOM     11  C   LIG    1       24.158 -25.519   6.274  0.00  0.00    +0.277 C 
ATOM     12  O   LIG    1       24.335 -24.116   6.930  0.00  0.00    -0.495 OA
ENDBRANCH   1  12
BRANCH   3  13
ATOM     13  N   LIG    1       26.975 -20.369   5.100  0.00  0.00    -0.340 N 
ATOM     14  H   LIG    1       27.343 -21.051   4.422  0.00  0.00    +0.146 HD
BRANCH  13  15
ATOM     15  C   LIG    1       27.979 -19.961   6.161  0.00  0.00    +0.067 C 
ATOM     16  C   LIG    1       28.883 -18.886   5.520  0.00  0.00    +0.027 C 
BRANCH  15  17
ATOM     17  C   LIG    1       28.934 -20.998   6.878  0.00  0.00    +0.023 C 
BRANCH  17  18
ATOM     18  C   LIG    1       30.173 -20.511   7.758  0.00  0.00    +0.017 C 
BRANCH  18  19
ATOM     19  C   LIG    1       30.814 -21.534   8.644  0.00  0.00    +0.078 C 
BRANCH  19  20
ATOM     20  N   LIG    1       32.004 -21.450   9.449  0.00  0.00    -0.330 NA
ATOM     21  H   LIG    1       32.554 -22.303   9.189  0.00  0.00    +0.118 HD
ATOM     22  H   LIG    1       31.631 -21.746  10.359  0.00  0.00    +0.118 HD
ENDBRANCH  19  20
ENDBRANCH  18  19
ENDBRANCH  17  18
ENDBRANCH  15  17
ENDBRANCH  13  15
ENDBRANCH   3  13
TORSDOF 7
ENDMDL
MODEL 6
REMARK VINA RESULT:      -7.2      2.015      2.500
REMARK  Name = *****
REMARK                            x       y       z     vdW  Elec       q    Type
REMARK                         _______ _______ _______ _____ _____    ______ ____
ROOT
ATOM      1  C   LIG    1       22.987 -19.380   4.608  0.00  0.00    +0.122 A 
ATOM      2  C   LIG    1       24.383 -19.648   4.365  0.00  0.00    +0.070 A 
ATOM      3  C   LIG    1       25.262 -20.596   4.861  0.00  0.00    +0.057 A 
ATOM      4  C   LIG    1       24.682 -21.605   5.359  0.00  0.00    +0.092 A 
ATOM      5  C   LIG    1       23.233 -21.563   5.616  0.00  0.00    +0.006 A 
ATOM      6  C   LIG    1       22.716 -22.537   6.378  0.00  0.00    +0.012 A 
ATOM      7  C   LIG    1       23.528 -23.588   6.811  0.00  0.00    +0.020 A 
ATOM      8  C   LIG    1       24.869 -23.607   6.442  0.00  0.00    +0.111 A 
ATOM      9  N   LIG    1       25.453 -22.657   5.759  0.00  0.00    -0.253 NA
ATOM     10  C   LIG    1       22.414 -20.447   5.190  0.00  0.00    +0.055 A 
ENDROOT
BRANCH   1  12
ATOM     11  C   LIG    1       22.252 -16.758   4.746  0.00  0.00    +0.277 C 
ATOM     12  O   LIG    1       22.179 -18.245   4.285  0.00  0.00    -0.495 OA
ENDBRANCH   1  12
BRANCH   3  13
ATOM     13  N   LIG    1       26.658 -20.283   4.668  0.00  0.00    -0.340 N 
ATOM     14  H   LIG    1       27.063 -21.048   4.110  0.00  0.00    +0.146 HD
BRANCH  13  15
ATOM     15  C   LIG    1       27.574 -19.779   5.766  0.00  0.00    +0.067 C 
ATOM     16  C   LIG    1       28.555 -18.790   5.100  0.00  0.00    +0.027 C 
BRANCH  15  17
ATOM     17  C   LIG    1       28.439 -20.746   6.670  0.00  0.00    +0.023 C 
BRANCH  17  18
ATOM     18  C   LIG    1       27.841 -21.389   8.002  0.00  0.00    +0.017 C 
BRANCH  18  19
ATOM     19  C   LIG    1       26.563 -20.803   8.519  0.00  0.00    +0.078 C 
BRANCH  19  20
ATOM     20  N   LIG    1       25.479 -21.423   9.233  0.00  0.00    -0.330 NA
ATOM     21  H   LIG    1       25.063 -20.645   9.799  0.00  0.00    +0.118 HD
ATOM     22  H   LIG    1       26.001 -21.919   9.965  0.00  0.00    +0.118 HD
ENDBRANCH  19  20
ENDBRANCH  18  19
ENDBRANCH  17  18
ENDBRANCH  15  17
ENDBRANCH  13  15
ENDBRANCH   3  13
TORSDOF 7
ENDMDL
MODEL 7
REMARK VINA RESULT:      -7.2      1.372      1.736
REMARK  Name = *****
REMARK                            x       y       z     vdW  Elec       q    Type
REMARK                         _______ _______ _______ _____ _____    ______ ____
ROOT
ATOM      1  C   LIG    1       23.286 -19.309   4.494  0.00  0.00    +0.122 A 
ATOM      2  C   LIG    1       24.687 -19.615   4.340  0.00  0.00    +0.070 A 
ATOM      3  C   LIG    1       25.522 -20.540   4.942  0.00  0.00    +0.057 A 
ATOM      4  C   LIG    1       24.900 -21.504   5.477  0.00  0.00    +0.092 A 
ATOM      5  C   LIG    1       23.441 -21.422   5.658  0.00  0.00    +0.006 A 
ATOM      6  C   LIG    1       22.869 -22.334   6.457  0.00  0.00    +0.012 A 
ATOM      7  C   LIG    1       23.639 -23.366   7.000  0.00  0.00    +0.020 A 
ATOM      8  C   LIG    1       24.995 -23.431   6.700  0.00  0.00    +0.111 A 
ATOM      9  N   LIG    1       25.631 -22.538   5.985  0.00  0.00    -0.253 NA
ATOM     10  C   LIG    1       22.665 -20.325   5.117  0.00  0.00    +0.055 A 
ENDROOT
BRANCH   1  12
ATOM     11  C   LIG    1       22.182 -16.829   4.742  0.00  0.00    +0.277 C 
ATOM     12  O   LIG    1       22.516 -18.187   4.055  0.00  0.00    -0.495 OA
ENDBRANCH   1  12
BRANCH   3  13
ATOM     13  N   LIG    1       26.932 -20.264   4.798  0.00  0.00    -0.340 N 
ATOM     14  H   LIG    1       27.323 -21.001   4.195  0.00  0.00    +0.146 HD
BRANCH  13  15
ATOM     15  C   LIG    1       27.840 -19.869   5.946  0.00  0.00    +0.067 C 
ATOM     16  C   LIG    1       28.747 -18.736   5.420  0.00  0.00    +0.027 C 
BRANCH  15  17
ATOM     17  C   LIG    1       28.780 -20.903   6.687  0.00  0.00    +0.023 C 
BRANCH  17  18
ATOM     18  C   LIG    1       29.439 -20.559   8.099  0.00  0.00    +0.017 C 
BRANCH  18  19
ATOM     19  C   LIG    1       30.890 -20.188   8.094  0.00  0.00    +0.078 C 
BRANCH  19  20
ATOM     20  N   LIG    1       31.904 -20.389   9.094  0.00  0.00    -0.330 NA
ATOM     21  H   LIG    1       31.543 -21.184   9.674  0.00  0.00    +0.118 HD
ATOM     22  H   LIG    1       31.703 -19.602   9.721  0.00  0.00    +0.118 HD
ENDBRANCH  19  20
ENDBRANCH  18  19
ENDBRANCH  17  18
ENDBRANCH  15  17
ENDBRANCH  13  15
ENDBRANCH   3  13
TORSDOF 7
ENDMDL
MODEL 8
REMARK VINA RESULT:      -7.1      2.979      6.462
REMARK  Name = *****
REMARK                            x       y       z     vdW  Elec       q    Type
REMARK                         _______ _______ _______ _____ _____    ______ ____
ROOT
ATOM      1  C   LIG    1       27.324 -21.488   7.365  0.00  0.00    +0.122 A 
ATOM      2  C   LIG    1       26.505 -22.633   7.050  0.00  0.00    +0.070 A 
ATOM      3  C   LIG    1       25.379 -22.799   6.263  0.00  0.00    +0.057 A 
ATOM      4  C   LIG    1       25.222 -21.876   5.411  0.00  0.00    +0.092 A 
ATOM      5  C   LIG    1       26.023 -20.645   5.511  0.00  0.00    +0.006 A 
ATOM      6  C   LIG    1       25.642 -19.601   4.760  0.00  0.00    +0.012 A 
ATOM      7  C   LIG    1       24.586 -19.742   3.856  0.00  0.00    +0.020 A 
ATOM      8  C   LIG    1       23.942 -20.970   3.749  0.00  0.00    +0.111 A 
ATOM      9  N   LIG    1       24.217 -22.008   4.498  0.00  0.00    -0.253 NA
ATOM     10  C   LIG    1       27.091 -20.505   6.478  0.00  0.00    +0.055 A 
ENDROOT
BRANCH   1  12
ATOM     11  C   LIG    1       29.855 -21.068   8.288  0.00  0.00    +0.277 C 
ATOM     12  O   LIG    1       28.315 -21.293   8.377  0.00  0.00    -0.495 OA
ENDBRANCH   1  12
BRANCH   3  13
ATOM     13  N   LIG    1       24.635 -24.009   6.521  0.00  0.00    -0.340 N 
ATOM     14  H   LIG    1       24.289 -23.948   7.489  0.00  0.00    +0.146 HD
BRANCH  13  15
ATOM     15  C   LIG    1       25.109 -25.396   6.130  0.00  0.00    +0.067 C 
ATOM     16  C   LIG    1       25.173 -25.419   4.587  0.00  0.00    +0.027 C 
BRANCH  15  17
ATOM     17  C   LIG    1       24.359 -26.714   6.579  0.00  0.00    +0.023 C 
BRANCH  17  18
ATOM     18  C   LIG    1       25.138 -28.099   6.728  0.00  0.00    +0.017 C 
BRANCH  18  19
ATOM     19  C   LIG    1       24.596 -29.264   5.959  0.00  0.00    +0.078 C 
BRANCH  19  20
ATOM     20  N   LIG    1       23.272 -29.507   5.451  0.00  0.00    -0.330 NA
ATOM     21  H   LIG    1       22.885 -28.551   5.266  0.00  0.00    +0.118 HD
ATOM     22  H   LIG    1       22.780 -29.736   6.322  0.00  0.00    +0.118 HD
ENDBRANCH  19  20
ENDBRANCH  18  19
ENDBRANCH  17  18
ENDBRANCH  15  17
ENDBRANCH  13  15
ENDBRANCH   3  13
TORSDOF 7
ENDMDL
MODEL 9
REMARK VINA RESULT:      -7.0      1.856      5.199
REMARK  Name = *****
REMARK                            x       y       z     vdW  Elec       q    Type
REMARK                         _______ _______ _______ _____ _____    ______ ____
ROOT
ATOM      1  C   LIG    1       25.772 -20.066   4.806  0.00  0.00    +0.122 A 
ATOM      2  C   LIG    1       25.375 -21.052   5.782  0.00  0.00    +0.070 A 
ATOM      3  C   LIG    1       26.076 -21.772   6.734  0.00  0.00    +0.057 A 
ATOM      4  C   LIG    1       27.191 -21.252   7.036  0.00  0.00    +0.092 A 
ATOM      5  C   LIG    1       27.741 -20.169   6.205  0.00  0.00    +0.006 A 
ATOM      6  C   LIG    1       29.025 -19.836   6.401  0.00  0.00    +0.012 A 
ATOM      7  C   LIG    1       29.753 -20.443   7.427  0.00  0.00    +0.020 A 
ATOM      8  C   LIG    1       29.130 -21.388   8.235  0.00  0.00    +0.111 A 
ATOM      9  N   LIG    1       27.904 -21.809   8.057  0.00  0.00    -0.253 NA
ATOM     10  C   LIG    1       26.983 -19.576   5.122  0.00  0.00    +0.055 A 
ENDROOT
BRANCH   1  12
ATOM     11  C   LIG    1       23.615 -19.037   3.495  0.00  0.00    +0.277 C 
ATOM     12  O   LIG    1       25.080 -19.537   3.672  0.00  0.00    -0.495 OA
ENDBRANCH   1  12
BRANCH   3  13
ATOM     13  N   LIG    1       25.387 -22.935   7.239  0.00  0.00    -0.340 N 
ATOM     14  H   LIG    1       26.095 -23.537   7.681  0.00  0.00    +0.146 HD
BRANCH  13  15
ATOM     15  C   LIG    1       24.336 -23.703   6.459  0.00  0.00    +0.067 C 
ATOM     16  C   LIG    1       22.965 -23.171   6.928  0.00  0.00    +0.027 C 
BRANCH  15  17
ATOM     17  C   LIG    1       24.246 -25.282   6.472  0.00  0.00    +0.023 C 
BRANCH  17  18
ATOM     18  C   LIG    1       25.560 -26.185   6.549  0.00  0.00    +0.017 C 
BRANCH  18  19
ATOM     19  C   LIG    1       26.170 -26.600   5.245  0.00  0.00    +0.078 C 
BRANCH  19  20
ATOM     20  N   LIG    1       27.422 -27.255   4.972  0.00  0.00    -0.330 NA
ATOM     21  H   LIG    1       28.148 -26.550   5.243  0.00  0.00    +0.118 HD
ATOM     22  H   LIG    1       27.456 -27.166   3.950  0.00  0.00    +0.118 HD
ENDBRANCH  19  20
ENDBRANCH  18  19
ENDBRANCH  17  18
ENDBRANCH  15  17
ENDBRANCH  13  15
ENDBRANCH   3  13
TORSDOF 7
ENDMDL
