MODEL 1
REMARK VINA RESULT:      -4.4      0.000      0.000
REMARK  Name = *****
REMARK                            x       y       z     vdW  Elec       q    Type
REMARK                         _______ _______ _______ _____ _____    ______ ____
ROOT
ATOM      1  C   LIG    1       29.340 -21.081   7.649  0.00  0.00    +0.049 C 
ATOM      2  C   LIG    1       30.598 -20.647   8.377  0.00  0.00    +0.219 C 
ENDROOT
BRANCH   2   3
ATOM      3  O   LIG    1       31.575 -20.239   7.407  0.00  0.00    -0.381 OA
ATOM      4  H   LIG    1       31.148 -20.324   6.532  0.00  0.00    +0.210 HD
ENDBRANCH   2   3
BRANCH   2   5
ATOM      5  C   LIG    1       31.165 -21.808   9.191  0.00  0.00    +0.333 C 
ATOM      6  O   LIG    1       30.760 -22.164  10.285  0.00  0.00    -0.248 OA
BRANCH   5   7
ATOM      7  O   LIG    1       32.185 -22.420   8.534  0.00  0.00    -0.479 OA
ATOM      8  H   LIG    1       32.852 -22.701   9.202  0.00  0.00    +0.295 HD
ENDBRANCH   5   7
ENDBRANCH   2   5
TORSDOF 3
ENDMDL
MODEL 2
REMARK VINA RESULT:      -4.4      3.313      4.154
REMARK  Name = *****
REMARK                            x       y       z     vdW  Elec       q    Type
REMARK                         _______ _______ _______ _____ _____    ______ ____
ROOT
ATOM      1  C   LIG    1       30.771 -16.769  10.143  0.00  0.00    +0.049 C 
ATOM      2  C   LIG    1       32.061 -17.262   9.516  0.00  0.00    +0.219 C 
ENDROOT
BRANCH   2   3
ATOM      3  O   LIG    1       32.623 -16.204   8.725  0.00  0.00    -0.381 OA
ATOM      4  H   LIG    1       33.418 -16.573   8.294  0.00  0.00    +0.210 HD
ENDBRANCH   2   3
BRANCH   2   5
ATOM      5  C   LIG    1       31.785 -18.461   8.611  0.00  0.00    +0.333 C 
ATOM      6  O   LIG    1       31.358 -18.398   7.470  0.00  0.00    -0.248 OA
BRANCH   5   7
ATOM      7  O   LIG    1       32.092 -19.630   9.232  0.00  0.00    -0.479 OA
ATOM      8  H   LIG    1       32.526 -20.220   8.573  0.00  0.00    +0.295 HD
ENDBRANCH   5   7
ENDBRANCH   2   5
TORSDOF 3
ENDMDL
MODEL 3
REMARK VINA RESULT:      -4.3      3.419      4.206
REMARK  Name = *****
REMARK                            x       y       z     vdW  Elec       q    Type
REMARK                         _______ _______ _______ _____ _____    ______ ____
ROOT
ATOM      1  C   LIG    1       30.170 -18.283   8.716  0.00  0.00    +0.049 C 
ATOM      2  C   LIG    1       31.680 -18.415   8.666  0.00  0.00    +0.219 C 
ENDROOT
BRANCH   2   3
ATOM      3  O   LIG    1       32.050 -19.697   9.195  0.00  0.00    -0.381 OA
ATOM      4  H   LIG    1       32.231 -20.272   8.426  0.00  0.00    +0.210 HD
ENDBRANCH   2   3
BRANCH   2   5
ATOM      5  C   LIG    1       32.334 -17.325   9.513  0.00  0.00    +0.333 C 
ATOM      6  O   LIG    1       32.637 -17.435  10.690  0.00  0.00    -0.248 OA
BRANCH   5   7
ATOM      7  O   LIG    1       32.559 -16.200   8.785  0.00  0.00    -0.479 OA
ATOM      8  H   LIG    1       32.957 -16.469   7.924  0.00  0.00    +0.295 HD
ENDBRANCH   5   7
ENDBRANCH   2   5
TORSDOF 3
ENDMDL
MODEL 4
REMARK VINA RESULT:      -4.2      2.454      3.271
REMARK  Name = *****
REMARK                            x       y       z     vdW  Elec       q    Type
REMARK                         _______ _______ _______ _____ _____    ______ ____
ROOT
ATOM      1  C   LIG    1       29.935 -18.719   7.099  0.00  0.00    +0.049 C 
ATOM      2  C   LIG    1       31.373 -19.098   7.395  0.00  0.00    +0.219 C 
ENDROOT
BRANCH   2   3
ATOM      3  O   LIG    1       31.437 -20.510   7.643  0.00  0.00    -0.381 OA
ATOM      4  H   LIG    1       31.989 -20.627   8.441  0.00  0.00    +0.210 HD
ENDBRANCH   2   3
BRANCH   2   5
ATOM      5  C   LIG    1       31.871 -18.357   8.635  0.00  0.00    +0.333 C 
ATOM      6  O   LIG    1       31.913 -18.821   9.762  0.00  0.00    -0.248 OA
BRANCH   5   7
ATOM      7  O   LIG    1       32.284 -17.100   8.326  0.00  0.00    -0.479 OA
ATOM      8  H   LIG    1       31.943 -16.488   9.020  0.00  0.00    +0.295 HD
ENDBRANCH   5   7
ENDBRANCH   2   5
TORSDOF 3
ENDMDL
MODEL 5
REMARK VINA RESULT:      -4.2      1.709      1.917
REMARK  Name = *****
REMARK                            x       y       z     vdW  Elec       q    Type
REMARK                         _______ _______ _______ _____ _____    ______ ____
ROOT
ATOM      1  C   LIG    1       31.191 -19.220   7.251  0.00  0.00    +0.049 C 
ATOM      2  C   LIG    1       31.105 -19.638   8.706  0.00  0.00    +0.219 C 
ENDROOT
BRANCH   2   3
ATOM      3  O   LIG    1       32.228 -19.088   9.412  0.00  0.00    -0.381 OA
ATOM      4  H   LIG    1       32.829 -19.834   9.599  0.00  0.00    +0.210 HD
ENDBRANCH   2   3
BRANCH   2   5
ATOM      5  C   LIG    1       31.146 -21.160   8.823  0.00  0.00    +0.333 C 
ATOM      6  O   LIG    1       31.989 -21.796   9.435  0.00  0.00    -0.248 OA
BRANCH   5   7
ATOM      7  O   LIG    1       30.105 -21.735   8.166  0.00  0.00    -0.479 OA
ATOM      8  H   LIG    1       29.615 -22.301   8.807  0.00  0.00    +0.295 HD
ENDBRANCH   5   7
ENDBRANCH   2   5
TORSDOF 3
ENDMDL
MODEL 6
REMARK VINA RESULT:      -4.2      3.106      3.902
REMARK  Name = *****
REMARK                            x       y       z     vdW  Elec       q    Type
REMARK                         _______ _______ _______ _____ _____    ______ ____
ROOT
ATOM      1  C   LIG    1       30.351 -17.454  10.851  0.00  0.00    +0.049 C 
ATOM      2  C   LIG    1       30.336 -17.808   9.376  0.00  0.00    +0.219 C 
ENDROOT
BRANCH   2   3
ATOM      3  O   LIG    1       29.348 -18.826   9.156  0.00  0.00    -0.381 OA
ATOM      4  H   LIG    1       28.801 -18.860   9.965  0.00  0.00    +0.210 HD
ENDBRANCH   2   3
BRANCH   2   5
ATOM      5  C   LIG    1       31.700 -18.343   8.946  0.00  0.00    +0.333 C 
ATOM      6  O   LIG    1       32.143 -19.446   9.223  0.00  0.00    -0.248 OA
BRANCH   5   7
ATOM      7  O   LIG    1       32.372 -17.435   8.190  0.00  0.00    -0.479 OA
ATOM      8  H   LIG    1       31.795 -16.644   8.080  0.00  0.00    +0.295 HD
ENDBRANCH   5   7
ENDBRANCH   2   5
TORSDOF 3
ENDMDL
MODEL 7
REMARK VINA RESULT:      -4.1      2.630      3.638
REMARK  Name = *****
REMARK                            x       y       z     vdW  Elec       q    Type
REMARK                         _______ _______ _______ _____ _____    ______ ____
ROOT
ATOM      1  C   LIG    1       30.278 -17.614   9.396  0.00  0.00    +0.049 C 
ATOM      2  C   LIG    1       31.530 -18.162   8.740  0.00  0.00    +0.219 C 
ENDROOT
BRANCH   2   3
ATOM      3  O   LIG    1       32.376 -17.062   8.370  0.00  0.00    -0.381 OA
ATOM      4  H   LIG    1       31.850 -16.251   8.506  0.00  0.00    +0.210 HD
ENDBRANCH   2   3
BRANCH   2   5
ATOM      5  C   LIG    1       31.168 -18.949   7.482  0.00  0.00    +0.333 C 
ATOM      6  O   LIG    1       30.518 -18.517   6.544  0.00  0.00    -0.248 OA
BRANCH   5   7
ATOM      7  O   LIG    1       31.677 -20.208   7.523  0.00  0.00    -0.479 OA
ATOM      8  H   LIG    1       31.008 -20.820   7.135  0.00  0.00    +0.295 HD
ENDBRANCH   5   7
ENDBRANCH   2   5
TORSDOF 3
ENDMDL
MODEL 8
REMARK VINA RESULT:      -4.1      2.344      3.027
REMARK  Name = *****
REMARK                            x       y       z     vdW  Elec       q    Type
REMARK                         _______ _______ _______ _____ _____    ______ ____
ROOT
ATOM      1  C   LIG    1       31.924 -17.504   9.008  0.00  0.00    +0.049 C 
ATOM      2  C   LIG    1       30.977 -18.671   9.211  0.00  0.00    +0.219 C 
ENDROOT
BRANCH   2   3
ATOM      3  O   LIG    1       30.721 -18.819  10.616  0.00  0.00    -0.381 OA
ATOM      4  H   LIG    1       31.138 -18.053  11.055  0.00  0.00    +0.210 HD
ENDBRANCH   2   3
BRANCH   2   5
ATOM      5  C   LIG    1       31.606 -19.960   8.686  0.00  0.00    +0.333 C 
ATOM      6  O   LIG    1       32.124 -20.822   9.376  0.00  0.00    -0.248 OA
BRANCH   5   7
ATOM      7  O   LIG    1       31.504 -20.045   7.334  0.00  0.00    -0.479 OA
ATOM      8  H   LIG    1       30.559 -19.909   7.090  0.00  0.00    +0.295 HD
ENDBRANCH   5   7
ENDBRANCH   2   5
TORSDOF 3
ENDMDL
MODEL 9
REMARK VINA RESULT:      -4.0      2.409      3.144
REMARK  Name = *****
REMARK                            x       y       z     vdW  Elec       q    Type
REMARK                         _______ _______ _______ _____ _____    ______ ____
ROOT
ATOM      1  C   LIG    1       29.169 -20.150   6.579  0.00  0.00    +0.049 C 
ATOM      2  C   LIG    1       29.839 -18.806   6.784  0.00  0.00    +0.219 C 
ENDROOT
BRANCH   2   3
ATOM      3  O   LIG    1       30.027 -18.183   5.504  0.00  0.00    -0.381 OA
ATOM      4  H   LIG    1       29.194 -18.312   5.009  0.00  0.00    +0.210 HD
ENDBRANCH   2   3
BRANCH   2   5
ATOM      5  C   LIG    1       31.202 -18.990   7.447  0.00  0.00    +0.333 C 
ATOM      6  O   LIG    1       31.895 -18.091   7.894  0.00  0.00    -0.248 OA
BRANCH   5   7
ATOM      7  O   LIG    1       31.554 -20.301   7.498  0.00  0.00    -0.479 OA
ATOM      8  H   LIG    1       31.912 -20.555   6.616  0.00  0.00    +0.295 HD
ENDBRANCH   5   7
ENDBRANCH   2   5
TORSDOF 3
ENDMDL
