MODEL 1
REMARK VINA RESULT:      -8.6      0.000      0.000
REMARK  Name = *****
REMARK                            x       y       z     vdW  Elec       q    Type
REMARK                         _______ _______ _______ _____ _____    ______ ____
ROOT
ATOM      1  C   LIG    1       27.870 -21.431   7.760  0.00  0.00    +0.138 C 
ENDROOT
BRANCH   1   2
ATOM      2  N   LIG    1       27.088 -20.912   6.639  0.00  0.00    -0.323 N 
ATOM      3  C   LIG    1       25.768 -21.148   6.359  0.00  0.00    +0.151 A 
ATOM      4  C   LIG    1       24.803 -21.999   6.970  0.00  0.00    +0.282 C 
ATOM      5  N   LIG    1       23.543 -21.915   6.363  0.00  0.00    -0.262 N 
ATOM      6  C   LIG    1       23.216 -21.112   5.253  0.00  0.00    +0.333 C 
ATOM      7  N   LIG    1       24.226 -20.301   4.734  0.00  0.00    -0.280 N 
ATOM      8  C   LIG    1       23.961 -19.436   3.597  0.00  0.00    +0.155 C 
ATOM      9  O   LIG    1       22.080 -21.131   4.769  0.00  0.00    -0.246 OA
ATOM     10  C   LIG    1       22.480 -22.749   6.889  0.00  0.00    +0.157 C 
ATOM     11  O   LIG    1       25.062 -22.716   7.923  0.00  0.00    -0.265 OA
ATOM     12  C   LIG    1       25.479 -20.338   5.302  0.00  0.00    +0.168 A 
ATOM     13  N   LIG    1       26.557 -19.602   4.915  0.00  0.00    -0.218 NA
ATOM     14  C   LIG    1       27.517 -19.963   5.742  0.00  0.00    +0.202 A 
ENDBRANCH   1   2
BRANCH   1  15
ATOM     15  C   LIG    1       29.353 -21.097   7.526  0.00  0.00    +0.103 C 
BRANCH  15  16
ATOM     16  N   LIG    1       30.149 -20.658   8.679  0.00  0.00    -0.311 NA
ATOM     17  H   LIG    1       29.533 -20.501   9.481  0.00  0.00    +0.122 HD
BRANCH  16  19
ATOM     18  C   LIG    1       30.880 -19.214   6.857  0.00  0.00    +0.024 C 
ATOM     19  C   LIG    1       30.854 -19.369   8.382  0.00  0.00    +0.055 C 
BRANCH  19  20
ATOM     20  C   LIG    1       30.204 -18.124   9.059  0.00  0.00    +0.053 C 
BRANCH  20  21
ATOM     21  C   LIG    1       31.103 -17.278   9.943  0.00  0.00    -0.046 A 
ATOM     22  C   LIG    1       32.189 -16.564   9.415  0.00  0.00    +0.003 A 
ATOM     23  C   LIG    1       33.025 -15.815  10.253  0.00  0.00    +0.000 A 
ATOM     24  C   LIG    1       32.793 -15.779  11.627  0.00  0.00    +0.000 A 
ATOM     25  C   LIG    1       31.726 -16.494  12.164  0.00  0.00    +0.000 A 
ATOM     26  C   LIG    1       30.887 -17.236  11.329  0.00  0.00    +0.003 A 
ENDBRANCH  20  21
ENDBRANCH  19  20
ENDBRANCH  16  19
ENDBRANCH  15  16
ENDBRANCH   1  15
TORSDOF 6
ENDMDL
MODEL 2
REMARK VINA RESULT:      -8.6      2.576      8.134
REMARK  Name = *****
REMARK                            x       y       z     vdW  Elec       q    Type
REMARK                         _______ _______ _______ _____ _____    ______ ____
ROOT
ATOM      1  C   LIG    1       27.380 -20.375   5.118  0.00  0.00    +0.138 C 
ENDROOT
BRANCH   1   2
ATOM      2  N   LIG    1       28.403 -19.557   5.767  0.00  0.00    -0.323 N 
ATOM      3  C   LIG    1       29.248 -19.922   6.782  0.00  0.00    +0.151 A 
ATOM      4  C   LIG    1       29.343 -21.112   7.559  0.00  0.00    +0.282 C 
ATOM      5  N   LIG    1       30.386 -21.068   8.493  0.00  0.00    -0.262 N 
ATOM      6  C   LIG    1       31.259 -19.983   8.702  0.00  0.00    +0.333 C 
ATOM      7  N   LIG    1       31.097 -18.867   7.880  0.00  0.00    -0.280 N 
ATOM      8  C   LIG    1       31.968 -17.714   8.026  0.00  0.00    +0.155 C 
ATOM      9  O   LIG    1       32.131 -20.029   9.575  0.00  0.00    -0.246 OA
ATOM     10  C   LIG    1       30.573 -22.219   9.356  0.00  0.00    +0.157 C 
ATOM     11  O   LIG    1       28.590 -22.062   7.410  0.00  0.00    -0.265 OA
ATOM     12  C   LIG    1       30.094 -18.866   6.938  0.00  0.00    +0.168 A 
ATOM     13  N   LIG    1       29.819 -17.860   6.061  0.00  0.00    -0.218 NA
ATOM     14  C   LIG    1       28.795 -18.304   5.361  0.00  0.00    +0.202 A 
ENDBRANCH   1   2
BRANCH   1  15
ATOM     15  C   LIG    1       26.043 -20.167   5.847  0.00  0.00    +0.103 C 
BRANCH  15  16
ATOM     16  N   LIG    1       24.841 -20.781   5.268  0.00  0.00    -0.311 NA
ATOM     17  H   LIG    1       24.590 -20.292   4.404  0.00  0.00    +0.122 HD
BRANCH  16  19
ATOM     18  C   LIG    1       22.406 -20.795   5.366  0.00  0.00    +0.024 C 
ATOM     19  C   LIG    1       23.679 -20.673   6.210  0.00  0.00    +0.055 C 
BRANCH  19  20
ATOM     20  C   LIG    1       23.695 -21.732   7.354  0.00  0.00    +0.053 C 
BRANCH  20  21
ATOM     21  C   LIG    1       24.185 -23.124   6.993  0.00  0.00    -0.046 A 
ATOM     22  C   LIG    1       23.306 -24.112   6.524  0.00  0.00    +0.003 A 
ATOM     23  C   LIG    1       23.773 -25.398   6.227  0.00  0.00    +0.000 A 
ATOM     24  C   LIG    1       25.118 -25.716   6.405  0.00  0.00    +0.000 A 
ATOM     25  C   LIG    1       25.997 -24.748   6.883  0.00  0.00    +0.000 A 
ATOM     26  C   LIG    1       25.534 -23.462   7.173  0.00  0.00    +0.003 A 
ENDBRANCH  20  21
ENDBRANCH  19  20
ENDBRANCH  16  19
ENDBRANCH  15  16
ENDBRANCH   1  15
TORSDOF 6
ENDMDL
MODEL 3
REMARK VINA RESULT:      -8.4      1.231      2.484
REMARK  Name = *****
REMARK                            x       y       z     vdW  Elec       q    Type
REMARK                         _______ _______ _______ _____ _____    ______ ____
ROOT
ATOM      1  C   LIG    1       28.148 -21.081   6.497  0.00  0.00    +0.138 C 
ENDROOT
BRANCH   1   2
ATOM      2  N   LIG    1       26.815 -21.622   6.753  0.00  0.00    -0.323 N 
ATOM      3  C   LIG    1       25.641 -21.289   6.130  0.00  0.00    +0.151 A 
ATOM      4  C   LIG    1       25.331 -20.299   5.153  0.00  0.00    +0.282 C 
ATOM      5  N   LIG    1       23.984 -20.318   4.770  0.00  0.00    -0.262 N 
ATOM      6  C   LIG    1       22.995 -21.182   5.280  0.00  0.00    +0.333 C 
ATOM      7  N   LIG    1       23.400 -22.128   6.222  0.00  0.00    -0.280 N 
ATOM      8  C   LIG    1       22.440 -23.062   6.784  0.00  0.00    +0.155 C 
ATOM      9  O   LIG    1       21.823 -21.099   4.900  0.00  0.00    -0.246 OA
ATOM     10  C   LIG    1       23.543 -19.343   3.790  0.00  0.00    +0.157 C 
ATOM     11  O   LIG    1       26.164 -19.527   4.705  0.00  0.00    -0.265 OA
ATOM     12  C   LIG    1       24.716 -22.158   6.623  0.00  0.00    +0.168 A 
ATOM     13  N   LIG    1       25.261 -23.025   7.521  0.00  0.00    -0.218 NA
ATOM     14  C   LIG    1       26.532 -22.683   7.579  0.00  0.00    +0.202 A 
ENDBRANCH   1   2
BRANCH   1  15
ATOM     15  C   LIG    1       28.907 -20.982   7.830  0.00  0.00    +0.103 C 
BRANCH  15  16
ATOM     16  N   LIG    1       30.373 -20.899   7.783  0.00  0.00    -0.311 NA
ATOM     17  H   LIG    1       30.768 -21.350   8.613  0.00  0.00    +0.122 HD
BRANCH  16  19
ATOM     18  C   LIG    1       30.622 -18.943   6.352  0.00  0.00    +0.024 C 
ATOM     19  C   LIG    1       30.828 -19.471   7.776  0.00  0.00    +0.055 C 
BRANCH  19  20
ATOM     20  C   LIG    1       30.095 -18.571   8.817  0.00  0.00    +0.053 C 
BRANCH  20  21
ATOM     21  C   LIG    1       30.968 -17.703   9.707  0.00  0.00    -0.046 A 
ATOM     22  C   LIG    1       30.570 -17.352  11.006  0.00  0.00    +0.003 A 
ATOM     23  C   LIG    1       31.375 -16.524  11.798  0.00  0.00    +0.000 A 
ATOM     24  C   LIG    1       32.580 -16.030  11.301  0.00  0.00    +0.000 A 
ATOM     25  C   LIG    1       32.978 -16.361  10.009  0.00  0.00    +0.000 A 
ATOM     26  C   LIG    1       32.179 -17.192   9.219  0.00  0.00    +0.003 A 
ENDBRANCH  20  21
ENDBRANCH  19  20
ENDBRANCH  16  19
ENDBRANCH  15  16
ENDBRANCH   1  15
TORSDOF 6
ENDMDL
MODEL 4
REMARK VINA RESULT:      -8.3      6.487      9.639
REMARK  Name = *****
REMARK                            x       y       z     vdW  Elec       q    Type
REMARK                         _______ _______ _______ _____ _____    ______ ____
ROOT
ATOM      1  C   LIG    1       25.883 -26.754   6.860  0.00  0.00    +0.138 C 
ENDROOT
BRANCH   1   2
ATOM      2  N   LIG    1       25.273 -28.082   6.820  0.00  0.00    -0.323 N 
ATOM      3  C   LIG    1       25.312 -29.052   7.787  0.00  0.00    +0.151 A 
ATOM      4  C   LIG    1       25.995 -29.124   9.035  0.00  0.00    +0.282 C 
ATOM      5  N   LIG    1       25.732 -30.311   9.729  0.00  0.00    -0.262 N 
ATOM      6  C   LIG    1       24.910 -31.363   9.280  0.00  0.00    +0.333 C 
ATOM      7  N   LIG    1       24.271 -31.192   8.052  0.00  0.00    -0.280 N 
ATOM      8  C   LIG    1       23.398 -32.228   7.528  0.00  0.00    +0.155 C 
ATOM      9  O   LIG    1       24.766 -32.388   9.954  0.00  0.00    -0.246 OA
ATOM     10  C   LIG    1       26.385 -30.508  11.009  0.00  0.00    +0.157 C 
ATOM     11  O   LIG    1       26.725 -28.234   9.442  0.00  0.00    -0.265 OA
ATOM     12  C   LIG    1       24.488 -30.037   7.335  0.00  0.00    +0.168 A 
ATOM     13  N   LIG    1       23.930 -29.724   6.133  0.00  0.00    -0.218 NA
ATOM     14  C   LIG    1       24.417 -28.534   5.844  0.00  0.00    +0.202 A 
ENDBRANCH   1   2
BRANCH   1  15
ATOM     15  C   LIG    1       25.106 -25.822   5.917  0.00  0.00    +0.103 C 
BRANCH  15  16
ATOM     16  N   LIG    1       25.590 -24.445   5.757  0.00  0.00    -0.311 NA
ATOM     17  H   LIG    1       26.220 -24.212   6.530  0.00  0.00    +0.122 HD
BRANCH  16  19
ATOM     18  C   LIG    1       23.375 -24.066   6.697  0.00  0.00    +0.024 C 
ATOM     19  C   LIG    1       24.451 -23.471   5.783  0.00  0.00    +0.055 C 
BRANCH  19  20
ATOM     20  C   LIG    1       24.855 -22.040   6.253  0.00  0.00    +0.053 C 
BRANCH  20  21
ATOM     21  C   LIG    1       24.259 -20.873   5.486  0.00  0.00    -0.046 A 
ATOM     22  C   LIG    1       22.992 -20.359   5.802  0.00  0.00    +0.003 A 
ATOM     23  C   LIG    1       22.446 -19.303   5.061  0.00  0.00    +0.000 A 
ATOM     24  C   LIG    1       23.154 -18.756   3.992  0.00  0.00    +0.000 A 
ATOM     25  C   LIG    1       24.405 -19.267   3.661  0.00  0.00    +0.000 A 
ATOM     26  C   LIG    1       24.954 -20.316   4.403  0.00  0.00    +0.003 A 
ENDBRANCH  20  21
ENDBRANCH  19  20
ENDBRANCH  16  19
ENDBRANCH  15  16
ENDBRANCH   1  15
TORSDOF 6
ENDMDL
MODEL 5
REMARK VINA RESULT:      -8.2      6.824      9.628
REMARK  Name = *****
REMARK                            x       y       z     vdW  Elec       q    Type
REMARK                         _______ _______ _______ _____ _____    ______ ____
ROOT
ATOM      1  C   LIG    1       24.391 -27.222   5.525  0.00  0.00    +0.138 C 
ENDROOT
BRANCH   1   2
ATOM      2  N   LIG    1       25.031 -27.786   6.712  0.00  0.00    -0.323 N 
ATOM      3  C   LIG    1       24.911 -29.059   7.205  0.00  0.00    +0.151 A 
ATOM      4  C   LIG    1       24.097 -30.159   6.807  0.00  0.00    +0.282 C 
ATOM      5  N   LIG    1       24.311 -31.301   7.589  0.00  0.00    -0.262 N 
ATOM      6  C   LIG    1       25.200 -31.400   8.678  0.00  0.00    +0.333 C 
ATOM      7  N   LIG    1       25.964 -30.273   8.980  0.00  0.00    -0.280 N 
ATOM      8  C   LIG    1       26.912 -30.302  10.080  0.00  0.00    +0.155 C 
ATOM      9  O   LIG    1       25.294 -32.446   9.327  0.00  0.00    -0.246 OA
ATOM     10  C   LIG    1       23.527 -32.485   7.290  0.00  0.00    +0.157 C 
ATOM     11  O   LIG    1       23.308 -30.097   5.878  0.00  0.00    -0.265 OA
ATOM     12  C   LIG    1       25.800 -29.128   8.233  0.00  0.00    +0.168 A 
ATOM     13  N   LIG    1       26.477 -27.958   8.400  0.00  0.00    -0.218 NA
ATOM     14  C   LIG    1       25.998 -27.164   7.465  0.00  0.00    +0.202 A 
ENDBRANCH   1   2
BRANCH   1  15
ATOM     15  C   LIG    1       24.662 -25.709   5.487  0.00  0.00    +0.103 C 
BRANCH  15  16
ATOM     16  N   LIG    1       23.674 -24.817   6.105  0.00  0.00    -0.311 NA
ATOM     17  H   LIG    1       22.871 -24.710   5.480  0.00  0.00    +0.122 HD
BRANCH  16  19
ATOM     18  C   LIG    1       25.452 -23.638   7.282  0.00  0.00    +0.024 C 
ATOM     19  C   LIG    1       24.256 -23.456   6.342  0.00  0.00    +0.055 C 
BRANCH  19  20
ATOM     20  C   LIG    1       24.679 -22.716   5.036  0.00  0.00    +0.053 C 
BRANCH  20  21
ATOM     21  C   LIG    1       24.051 -21.356   4.785  0.00  0.00    -0.046 A 
ATOM     22  C   LIG    1       24.507 -20.516   3.759  0.00  0.00    +0.003 A 
ATOM     23  C   LIG    1       23.935 -19.252   3.565  0.00  0.00    +0.000 A 
ATOM     24  C   LIG    1       22.909 -18.810   4.398  0.00  0.00    +0.000 A 
ATOM     25  C   LIG    1       22.458 -19.630   5.428  0.00  0.00    +0.000 A 
ATOM     26  C   LIG    1       23.023 -20.893   5.619  0.00  0.00    +0.003 A 
ENDBRANCH  20  21
ENDBRANCH  19  20
ENDBRANCH  16  19
ENDBRANCH  15  16
ENDBRANCH   1  15
TORSDOF 6
ENDMDL
MODEL 6
REMARK VINA RESULT:      -8.1      3.794      8.995
REMARK  Name = *****
REMARK                            x       y       z     vdW  Elec       q    Type
REMARK                         _______ _______ _______ _____ _____    ______ ____
ROOT
ATOM      1  C   LIG    1       24.998 -20.714   6.387  0.00  0.00    +0.138 C 
ENDROOT
BRANCH   1   2
ATOM      2  N   LIG    1       26.225 -21.092   7.088  0.00  0.00    -0.323 N 
ATOM      3  C   LIG    1       27.488 -20.603   6.889  0.00  0.00    +0.151 A 
ATOM      4  C   LIG    1       28.015 -19.691   5.929  0.00  0.00    +0.282 C 
ATOM      5  N   LIG    1       29.383 -19.449   6.104  0.00  0.00    -0.262 N 
ATOM      6  C   LIG    1       30.204 -20.034   7.088  0.00  0.00    +0.333 C 
ATOM      7  N   LIG    1       29.592 -20.903   7.993  0.00  0.00    -0.280 N 
ATOM      8  C   LIG    1       30.371 -21.536   9.043  0.00  0.00    +0.155 C 
ATOM      9  O   LIG    1       31.411 -19.780   7.141  0.00  0.00    -0.246 OA
ATOM     10  C   LIG    1       30.037 -18.547   5.175  0.00  0.00    +0.157 C 
ATOM     11  O   LIG    1       27.331 -19.180   5.056  0.00  0.00    -0.265 OA
ATOM     12  C   LIG    1       28.247 -21.165   7.870  0.00  0.00    +0.168 A 
ATOM     13  N   LIG    1       27.512 -21.978   8.678  0.00  0.00    -0.218 NA
ATOM     14  C   LIG    1       26.291 -21.914   8.187  0.00  0.00    +0.202 A 
ENDBRANCH   1   2
BRANCH   1  15
ATOM     15  C   LIG    1       24.282 -21.991   5.918  0.00  0.00    +0.103 C 
BRANCH  15  16
ATOM     16  N   LIG    1       25.093 -23.047   5.299  0.00  0.00    -0.311 NA
ATOM     17  H   LIG    1       24.745 -23.236   4.355  0.00  0.00    +0.122 HD
BRANCH  16  19
ATOM     18  C   LIG    1       23.556 -24.446   6.570  0.00  0.00    +0.024 C 
ATOM     19  C   LIG    1       25.003 -24.321   6.085  0.00  0.00    +0.055 C 
BRANCH  19  20
ATOM     20  C   LIG    1       25.437 -25.587   5.284  0.00  0.00    +0.053 C 
BRANCH  20  21
ATOM     21  C   LIG    1       25.235 -26.929   5.965  0.00  0.00    -0.046 A 
ATOM     22  C   LIG    1       24.348 -27.886   5.450  0.00  0.00    +0.003 A 
ATOM     23  C   LIG    1       24.152 -29.106   6.111  0.00  0.00    +0.000 A 
ATOM     24  C   LIG    1       24.831 -29.379   7.297  0.00  0.00    +0.000 A 
ATOM     25  C   LIG    1       25.704 -28.431   7.824  0.00  0.00    +0.000 A 
ATOM     26  C   LIG    1       25.905 -27.217   7.163  0.00  0.00    +0.003 A 
ENDBRANCH  20  21
ENDBRANCH  19  20
ENDBRANCH  16  19
ENDBRANCH  15  16
ENDBRANCH   1  15
TORSDOF 6
ENDMDL
MODEL 7
REMARK VINA RESULT:      -7.9      5.888      8.466
REMARK  Name = *****
REMARK                            x       y       z     vdW  Elec       q    Type
REMARK                         _______ _______ _______ _____ _____    ______ ____
ROOT
ATOM      1  C   LIG    1       25.807 -26.283   6.847  0.00  0.00    +0.138 C 
ENDROOT
BRANCH   1   2
ATOM      2  N   LIG    1       25.305 -27.621   6.541  0.00  0.00    -0.323 N 
ATOM      3  C   LIG    1       25.339 -28.732   7.343  0.00  0.00    +0.151 A 
ATOM      4  C   LIG    1       25.923 -28.965   8.621  0.00  0.00    +0.282 C 
ATOM      5  N   LIG    1       25.696 -30.265   9.092  0.00  0.00    -0.262 N 
ATOM      6  C   LIG    1       24.995 -31.277   8.409  0.00  0.00    +0.333 C 
ATOM      7  N   LIG    1       24.445 -30.947   7.170  0.00  0.00    -0.280 N 
ATOM      8  C   LIG    1       23.698 -31.935   6.411  0.00  0.00    +0.155 C 
ATOM      9  O   LIG    1       24.875 -32.406   8.896  0.00  0.00    -0.246 OA
ATOM     10  C   LIG    1       26.257 -30.628  10.379  0.00  0.00    +0.157 C 
ATOM     11  O   LIG    1       26.549 -28.111   9.228  0.00  0.00    -0.265 OA
ATOM     12  C   LIG    1       24.631 -29.679   6.667  0.00  0.00    +0.168 A 
ATOM     13  N   LIG    1       24.149 -29.208   5.484  0.00  0.00    -0.218 NA
ATOM     14  C   LIG    1       24.567 -27.959   5.433  0.00  0.00    +0.202 A 
ENDBRANCH   1   2
BRANCH   1  15
ATOM     15  C   LIG    1       24.878 -25.244   6.198  0.00  0.00    +0.103 C 
BRANCH  15  16
ATOM     16  N   LIG    1       25.440 -23.929   5.867  0.00  0.00    -0.311 NA
ATOM     17  H   LIG    1       26.313 -23.790   6.384  0.00  0.00    +0.122 HD
BRANCH  16  19
ATOM     18  C   LIG    1       23.223 -23.500   6.781  0.00  0.00    +0.024 C 
ATOM     19  C   LIG    1       24.497 -22.831   6.257  0.00  0.00    +0.055 C 
BRANCH  19  20
ATOM     20  C   LIG    1       25.083 -21.840   7.309  0.00  0.00    +0.053 C 
BRANCH  20  21
ATOM     21  C   LIG    1       26.475 -21.297   7.039  0.00  0.00    -0.046 A 
ATOM     22  C   LIG    1       27.565 -21.631   7.856  0.00  0.00    +0.003 A 
ATOM     23  C   LIG    1       28.834 -21.093   7.608  0.00  0.00    +0.000 A 
ATOM     24  C   LIG    1       29.026 -20.208   6.548  0.00  0.00    +0.000 A 
ATOM     25  C   LIG    1       27.950 -19.859   5.739  0.00  0.00    +0.000 A 
ATOM     26  C   LIG    1       26.684 -20.400   5.981  0.00  0.00    +0.003 A 
ENDBRANCH  20  21
ENDBRANCH  19  20
ENDBRANCH  16  19
ENDBRANCH  15  16
ENDBRANCH   1  15
TORSDOF 6
ENDMDL
MODEL 8
REMARK VINA RESULT:      -7.9      6.767     10.054
REMARK  Name = *****
REMARK                            x       y       z     vdW  Elec       q    Type
REMARK                         _______ _______ _______ _____ _____    ______ ____
ROOT
ATOM      1  C   LIG    1       25.473 -29.113   5.604  0.00  0.00    +0.138 C 
ENDROOT
BRANCH   1   2
ATOM      2  N   LIG    1       24.847 -30.105   6.476  0.00  0.00    -0.323 N 
ATOM      3  C   LIG    1       24.843 -30.135   7.846  0.00  0.00    +0.151 A 
ATOM      4  C   LIG    1       25.489 -29.315   8.816  0.00  0.00    +0.282 C 
ATOM      5  N   LIG    1       25.190 -29.694  10.131  0.00  0.00    -0.262 N 
ATOM      6  C   LIG    1       24.368 -30.773  10.510  0.00  0.00    +0.333 C 
ATOM      7  N   LIG    1       23.767 -31.507   9.487  0.00  0.00    -0.280 N 
ATOM      8  C   LIG    1       22.897 -32.626   9.800  0.00  0.00    +0.155 C 
ATOM      9  O   LIG    1       24.190 -31.047  11.701  0.00  0.00    -0.246 OA
ATOM     10  C   LIG    1       25.802 -28.942  11.210  0.00  0.00    +0.157 C 
ATOM     11  O   LIG    1       26.218 -28.383   8.516  0.00  0.00    -0.265 OA
ATOM     12  C   LIG    1       24.020 -31.168   8.177  0.00  0.00    +0.168 A 
ATOM     13  N   LIG    1       23.503 -31.780   7.077  0.00  0.00    -0.218 NA
ATOM     14  C   LIG    1       24.014 -31.116   6.060  0.00  0.00    +0.202 A 
ENDBRANCH   1   2
BRANCH   1  15
ATOM     15  C   LIG    1       24.469 -27.977   5.345  0.00  0.00    +0.103 C 
BRANCH  15  16
ATOM     16  N   LIG    1       24.144 -27.078   6.459  0.00  0.00    -0.311 NA
ATOM     17  H   LIG    1       23.128 -27.014   6.561  0.00  0.00    +0.122 HD
BRANCH  16  19
ATOM     18  C   LIG    1       25.111 -25.652   4.736  0.00  0.00    +0.024 C 
ATOM     19  C   LIG    1       24.668 -25.697   6.202  0.00  0.00    +0.055 C 
BRANCH  19  20
ATOM     20  C   LIG    1       23.641 -24.566   6.512  0.00  0.00    +0.053 C 
BRANCH  20  21
ATOM     21  C   LIG    1       24.205 -23.244   7.003  0.00  0.00    -0.046 A 
ATOM     22  C   LIG    1       23.434 -22.071   6.999  0.00  0.00    +0.003 A 
ATOM     23  C   LIG    1       23.984 -20.856   7.426  0.00  0.00    +0.000 A 
ATOM     24  C   LIG    1       25.310 -20.795   7.851  0.00  0.00    +0.000 A 
ATOM     25  C   LIG    1       26.088 -21.949   7.846  0.00  0.00    +0.000 A 
ATOM     26  C   LIG    1       25.539 -23.164   7.426  0.00  0.00    +0.003 A 
ENDBRANCH  20  21
ENDBRANCH  19  20
ENDBRANCH  16  19
ENDBRANCH  15  16
ENDBRANCH   1  15
TORSDOF 6
ENDMDL
MODEL 9
REMARK VINA RESULT:      -7.8      3.348      7.722
REMARK  Name = *****
REMARK                            x       y       z     vdW  Elec       q    Type
REMARK                         _______ _______ _______ _____ _____    ______ ____
ROOT
ATOM      1  C   LIG    1       26.082 -22.156   8.155  0.00  0.00    +0.138 C 
ENDROOT
BRANCH   1   2
ATOM      2  N   LIG    1       26.829 -21.143   7.411  0.00  0.00    -0.323 N 
ATOM      3  C   LIG    1       28.163 -20.846   7.509  0.00  0.00    +0.151 A 
ATOM      4  C   LIG    1       29.183 -21.326   8.381  0.00  0.00    +0.282 C 
ATOM      5  N   LIG    1       30.435 -20.758   8.115  0.00  0.00    -0.262 N 
ATOM      6  C   LIG    1       30.709 -19.795   7.124  0.00  0.00    +0.333 C 
ATOM      7  N   LIG    1       29.647 -19.399   6.309  0.00  0.00    -0.280 N 
ATOM      8  C   LIG    1       29.854 -18.419   5.258  0.00  0.00    +0.155 C 
ATOM      9  O   LIG    1       31.844 -19.329   6.988  0.00  0.00    -0.246 OA
ATOM     10  C   LIG    1       31.552 -21.157   8.949  0.00  0.00    +0.157 C 
ATOM     11  O   LIG    1       28.971 -22.149   9.257  0.00  0.00    -0.265 OA
ATOM     12  C   LIG    1       28.398 -19.937   6.523  0.00  0.00    +0.168 A 
ATOM     13  N   LIG    1       27.273 -19.659   5.808  0.00  0.00    -0.218 NA
ATOM     14  C   LIG    1       26.338 -20.404   6.362  0.00  0.00    +0.202 A 
ENDBRANCH   1   2
BRANCH   1  15
ATOM     15  C   LIG    1       26.060 -23.457   7.336  0.00  0.00    +0.103 C 
BRANCH  15  16
ATOM     16  N   LIG    1       25.724 -23.366   5.909  0.00  0.00    -0.311 NA
ATOM     17  H   LIG    1       25.914 -22.418   5.572  0.00  0.00    +0.122 HD
BRANCH  16  19
ATOM     18  C   LIG    1       23.949 -24.954   6.420  0.00  0.00    +0.024 C 
ATOM     19  C   LIG    1       24.270 -23.650   5.683  0.00  0.00    +0.055 C 
BRANCH  19  20
ATOM     20  C   LIG    1       23.323 -22.499   6.143  0.00  0.00    +0.053 C 
BRANCH  20  21
ATOM     21  C   LIG    1       23.300 -21.247   5.284  0.00  0.00    -0.046 A 
ATOM     22  C   LIG    1       24.055 -21.152   4.105  0.00  0.00    +0.003 A 
ATOM     23  C   LIG    1       24.045 -19.975   3.345  0.00  0.00    +0.000 A 
ATOM     24  C   LIG    1       23.290 -18.879   3.759  0.00  0.00    +0.000 A 
ATOM     25  C   LIG    1       22.548 -18.957   4.934  0.00  0.00    +0.000 A 
ATOM     26  C   LIG    1       22.552 -20.132   5.690  0.00  0.00    +0.003 A 
ENDBRANCH  20  21
ENDBRANCH  19  20
ENDBRANCH  16  19
ENDBRANCH  15  16
ENDBRANCH   1  15
TORSDOF 6
ENDMDL
