MODEL 1
REMARK VINA RESULT:      -7.7      0.000      0.000
REMARK  Name = *****
REMARK                            x       y       z     vdW  Elec       q    Type
REMARK                         _______ _______ _______ _____ _____    ______ ____
ROOT
ATOM      1  C   LIG    1       28.552 -18.932   5.373  0.00  0.00    +0.044 C 
ATOM      2  C   LIG    1       27.787 -19.959   6.167  0.00  0.00    -0.047 A 
ATOM      3  C   LIG    1       26.499 -20.411   5.781  0.00  0.00    -0.044 A 
ATOM      4  C   LIG    1       25.838 -19.872   4.534  0.00  0.00    +0.044 C 
ATOM      5  C   LIG    1       25.825 -21.376   6.584  0.00  0.00    -0.036 A 
ATOM      6  C   LIG    1       26.483 -21.890   7.720  0.00  0.00    +0.004 A 
ATOM      7  C   LIG    1       27.741 -21.431   8.096  0.00  0.00    +0.001 A 
ATOM      8  C   LIG    1       28.383 -20.467   7.330  0.00  0.00    +0.003 A 
ENDROOT
BRANCH   5   9
ATOM      9  C   LIG    1       24.418 -21.885   6.231  0.00  0.00    +0.064 C 
ATOM     10  C   LIG    1       23.346 -21.404   7.225  0.00  0.00    +0.019 C 
BRANCH   9  11
ATOM     11  C   LIG    1       24.347 -23.375   6.039  0.00  0.00    +0.043 A 
ATOM     12  N   LIG    1       25.073 -24.077   5.106  0.00  0.00    -0.348 N 
ATOM     13  H   LIG    1       25.743 -23.687   4.453  0.00  0.00    +0.167 HD
ATOM     14  C   LIG    1       24.698 -25.387   5.179  0.00  0.00    +0.196 A 
ATOM     15  N   LIG    1       23.803 -25.578   6.121  0.00  0.00    -0.244 NA
ATOM     16  C   LIG    1       23.578 -24.340   6.660  0.00  0.00    +0.134 A 
ENDBRANCH   9  11
ENDBRANCH   5   9
TORSDOF 2
ENDMDL
MODEL 2
REMARK VINA RESULT:      -7.5      1.775      3.626
REMARK  Name = *****
REMARK                            x       y       z     vdW  Elec       q    Type
REMARK                         _______ _______ _______ _____ _____    ______ ____
ROOT
ATOM      1  C   LIG    1       21.869 -18.917   4.262  0.00  0.00    +0.044 C 
ATOM      2  C   LIG    1       23.305 -19.340   4.436  0.00  0.00    -0.047 A 
ATOM      3  C   LIG    1       23.712 -20.246   5.449  0.00  0.00    -0.044 A 
ATOM      4  C   LIG    1       22.700 -20.834   6.405  0.00  0.00    +0.044 C 
ATOM      5  C   LIG    1       25.088 -20.594   5.566  0.00  0.00    -0.036 A 
ATOM      6  C   LIG    1       26.003 -20.061   4.635  0.00  0.00    +0.004 A 
ATOM      7  C   LIG    1       25.596 -19.163   3.653  0.00  0.00    +0.001 A 
ATOM      8  C   LIG    1       24.258 -18.800   3.561  0.00  0.00    +0.003 A 
ENDROOT
BRANCH   5   9
ATOM      9  C   LIG    1       25.593 -21.550   6.658  0.00  0.00    +0.064 C 
ATOM     10  C   LIG    1       26.992 -21.173   7.177  0.00  0.00    +0.019 C 
BRANCH   9  11
ATOM     11  C   LIG    1       25.536 -23.000   6.263  0.00  0.00    +0.043 A 
ATOM     12  N   LIG    1       24.939 -23.475   5.119  0.00  0.00    -0.348 N 
ATOM     13  H   LIG    1       24.484 -22.916   4.406  0.00  0.00    +0.167 HD
ATOM     14  C   LIG    1       25.024 -24.836   5.134  0.00  0.00    +0.196 A 
ATOM     15  N   LIG    1       25.666 -25.267   6.196  0.00  0.00    -0.244 NA
ATOM     16  C   LIG    1       25.987 -24.139   6.902  0.00  0.00    +0.134 A 
ENDBRANCH   9  11
ENDBRANCH   5   9
TORSDOF 2
ENDMDL
MODEL 3
REMARK VINA RESULT:      -7.3      1.686      3.267
REMARK  Name = *****
REMARK                            x       y       z     vdW  Elec       q    Type
REMARK                         _______ _______ _______ _____ _____    ______ ____
ROOT
ATOM      1  C   LIG    1       25.595 -18.436   3.224  0.00  0.00    +0.044 C 
ATOM      2  C   LIG    1       24.623 -19.139   4.135  0.00  0.00    -0.047 A 
ATOM      3  C   LIG    1       25.046 -20.022   5.161  0.00  0.00    -0.044 A 
ATOM      4  C   LIG    1       26.517 -20.291   5.383  0.00  0.00    +0.044 C 
ATOM      5  C   LIG    1       24.074 -20.663   5.980  0.00  0.00    -0.036 A 
ATOM      6  C   LIG    1       22.712 -20.362   5.775  0.00  0.00    +0.004 A 
ATOM      7  C   LIG    1       22.306 -19.504   4.759  0.00  0.00    +0.001 A 
ATOM      8  C   LIG    1       23.254 -18.904   3.940  0.00  0.00    +0.003 A 
ENDROOT
BRANCH   5   9
ATOM      9  C   LIG    1       24.470 -21.649   7.090  0.00  0.00    +0.064 C 
ATOM     10  C   LIG    1       25.473 -21.047   8.090  0.00  0.00    +0.019 C 
BRANCH   9  11
ATOM     11  C   LIG    1       24.954 -22.976   6.573  0.00  0.00    +0.043 A 
ATOM     12  N   LIG    1       24.507 -23.574   5.418  0.00  0.00    -0.348 N 
ATOM     13  H   LIG    1       23.819 -23.196   4.777  0.00  0.00    +0.167 HD
ATOM     14  C   LIG    1       25.117 -24.790   5.310  0.00  0.00    +0.196 A 
ATOM     15  N   LIG    1       25.951 -24.999   6.302  0.00  0.00    -0.244 NA
ATOM     16  C   LIG    1       25.859 -23.883   7.090  0.00  0.00    +0.134 A 
ENDBRANCH   9  11
ENDBRANCH   5   9
TORSDOF 2
ENDMDL
MODEL 4
REMARK VINA RESULT:      -7.1      1.414      2.822
REMARK  Name = *****
REMARK                            x       y       z     vdW  Elec       q    Type
REMARK                         _______ _______ _______ _____ _____    ______ ____
ROOT
ATOM      1  C   LIG    1       23.247 -19.019   3.550  0.00  0.00    +0.044 C 
ATOM      2  C   LIG    1       24.304 -19.653   4.417  0.00  0.00    -0.047 A 
ATOM      3  C   LIG    1       23.987 -20.562   5.459  0.00  0.00    -0.044 A 
ATOM      4  C   LIG    1       22.549 -20.938   5.737  0.00  0.00    +0.044 C 
ATOM      5  C   LIG    1       25.034 -21.117   6.249  0.00  0.00    -0.036 A 
ATOM      6  C   LIG    1       26.367 -20.778   5.939  0.00  0.00    +0.004 A 
ATOM      7  C   LIG    1       26.667 -19.876   4.924  0.00  0.00    +0.001 A 
ATOM      8  C   LIG    1       25.643 -19.312   4.176  0.00  0.00    +0.003 A 
ENDROOT
BRANCH   5   9
ATOM      9  C   LIG    1       24.750 -22.087   7.406  0.00  0.00    +0.064 C 
ATOM     10  C   LIG    1       25.745 -21.930   8.570  0.00  0.00    +0.019 C 
BRANCH   9  11
ATOM     11  C   LIG    1       24.644 -23.524   6.976  0.00  0.00    +0.043 A 
ATOM     12  N   LIG    1       25.718 -24.357   6.764  0.00  0.00    -0.348 N 
ATOM     13  H   LIG    1       26.695 -24.115   6.883  0.00  0.00    +0.167 HD
ATOM     14  C   LIG    1       25.240 -25.555   6.319  0.00  0.00    +0.196 A 
ATOM     15  N   LIG    1       23.928 -25.558   6.262  0.00  0.00    -0.244 NA
ATOM     16  C   LIG    1       23.548 -24.307   6.666  0.00  0.00    +0.134 A 
ENDBRANCH   9  11
ENDBRANCH   5   9
TORSDOF 2
ENDMDL
MODEL 5
REMARK VINA RESULT:      -6.9      2.552      4.262
REMARK  Name = *****
REMARK                            x       y       z     vdW  Elec       q    Type
REMARK                         _______ _______ _______ _____ _____    ______ ____
ROOT
ATOM      1  C   LIG    1       25.438 -17.996   3.202  0.00  0.00    +0.044 C 
ATOM      2  C   LIG    1       24.428 -18.848   3.927  0.00  0.00    -0.047 A 
ATOM      3  C   LIG    1       24.803 -19.979   4.697  0.00  0.00    -0.044 A 
ATOM      4  C   LIG    1       26.256 -20.373   4.823  0.00  0.00    +0.044 C 
ATOM      5  C   LIG    1       23.796 -20.748   5.347  0.00  0.00    -0.036 A 
ATOM      6  C   LIG    1       22.453 -20.332   5.244  0.00  0.00    +0.004 A 
ATOM      7  C   LIG    1       22.095 -19.229   4.476  0.00  0.00    +0.001 A 
ATOM      8  C   LIG    1       23.075 -18.498   3.817  0.00  0.00    +0.003 A 
ENDROOT
BRANCH   5   9
ATOM      9  C   LIG    1       24.138 -21.998   6.174  0.00  0.00    +0.064 C 
ATOM     10  C   LIG    1       22.886 -22.760   6.643  0.00  0.00    +0.019 C 
BRANCH   9  11
ATOM     11  C   LIG    1       25.067 -21.723   7.325  0.00  0.00    +0.043 A 
ATOM     12  N   LIG    1       24.973 -20.637   8.163  0.00  0.00    -0.348 N 
ATOM     13  H   LIG    1       24.272 -19.906   8.118  0.00  0.00    +0.167 HD
ATOM     14  C   LIG    1       26.019 -20.687   9.037  0.00  0.00    +0.196 A 
ATOM     15  N   LIG    1       26.761 -21.753   8.838  0.00  0.00    -0.244 NA
ATOM     16  C   LIG    1       26.181 -22.402   7.781  0.00  0.00    +0.134 A 
ENDBRANCH   9  11
ENDBRANCH   5   9
TORSDOF 2
ENDMDL
MODEL 6
REMARK VINA RESULT:      -6.9      0.642      2.031
REMARK  Name = *****
REMARK                            x       y       z     vdW  Elec       q    Type
REMARK                         _______ _______ _______ _____ _____    ______ ____
ROOT
ATOM      1  C   LIG    1       28.936 -21.067   7.961  0.00  0.00    +0.044 C 
ATOM      2  C   LIG    1       27.848 -20.784   6.958  0.00  0.00    -0.047 A 
ATOM      3  C   LIG    1       26.564 -21.383   7.041  0.00  0.00    -0.044 A 
ATOM      4  C   LIG    1       26.235 -22.339   8.164  0.00  0.00    +0.044 C 
ATOM      5  C   LIG    1       25.585 -21.081   6.052  0.00  0.00    -0.036 A 
ATOM      6  C   LIG    1       25.908 -20.155   5.040  0.00  0.00    +0.004 A 
ATOM      7  C   LIG    1       27.174 -19.583   4.959  0.00  0.00    +0.001 A 
ATOM      8  C   LIG    1       28.138 -19.903   5.907  0.00  0.00    +0.003 A 
ENDROOT
BRANCH   5   9
ATOM      9  C   LIG    1       24.186 -21.718   6.075  0.00  0.00    +0.064 C 
ATOM     10  C   LIG    1       23.338 -21.245   7.269  0.00  0.00    +0.019 C 
BRANCH   9  11
ATOM     11  C   LIG    1       24.206 -23.219   5.986  0.00  0.00    +0.043 A 
ATOM     12  N   LIG    1       24.975 -23.940   5.103  0.00  0.00    -0.348 N 
ATOM     13  H   LIG    1       25.622 -23.556   4.424  0.00  0.00    +0.167 HD
ATOM     14  C   LIG    1       24.679 -25.261   5.267  0.00  0.00    +0.196 A 
ATOM     15  N   LIG    1       23.794 -25.440   6.221  0.00  0.00    -0.244 NA
ATOM     16  C   LIG    1       23.494 -24.184   6.673  0.00  0.00    +0.134 A 
ENDBRANCH   9  11
ENDBRANCH   5   9
TORSDOF 2
ENDMDL
MODEL 7
REMARK VINA RESULT:      -6.7      2.573      5.094
REMARK  Name = *****
REMARK                            x       y       z     vdW  Elec       q    Type
REMARK                         _______ _______ _______ _____ _____    ______ ____
ROOT
ATOM      1  C   LIG    1       22.101 -23.385   6.776  0.00  0.00    +0.044 C 
ATOM      2  C   LIG    1       23.589 -23.158   6.737  0.00  0.00    -0.047 A 
ATOM      3  C   LIG    1       24.156 -21.870   6.553  0.00  0.00    -0.044 A 
ATOM      4  C   LIG    1       23.269 -20.658   6.391  0.00  0.00    +0.044 C 
ATOM      5  C   LIG    1       25.572 -21.727   6.514  0.00  0.00    -0.036 A 
ATOM      6  C   LIG    1       26.374 -22.870   6.708  0.00  0.00    +0.004 A 
ATOM      7  C   LIG    1       25.809 -24.130   6.875  0.00  0.00    +0.001 A 
ATOM      8  C   LIG    1       24.428 -24.273   6.881  0.00  0.00    +0.003 A 
ENDROOT
BRANCH   5   9
ATOM      9  C   LIG    1       26.244 -20.362   6.292  0.00  0.00    +0.064 C 
ATOM     10  C   LIG    1       26.253 -19.938   4.813  0.00  0.00    +0.019 C 
BRANCH   9  11
ATOM     11  C   LIG    1       27.620 -20.264   6.891  0.00  0.00    +0.043 A 
ATOM     12  N   LIG    1       28.792 -20.373   6.180  0.00  0.00    -0.348 N 
ATOM     13  H   LIG    1       28.872 -20.517   5.180  0.00  0.00    +0.167 HD
ATOM     14  C   LIG    1       29.829 -20.301   7.062  0.00  0.00    +0.196 A 
ATOM     15  N   LIG    1       29.403 -20.119   8.291  0.00  0.00    -0.244 NA
ATOM     16  C   LIG    1       28.037 -20.094   8.197  0.00  0.00    +0.134 A 
ENDBRANCH   9  11
ENDBRANCH   5   9
TORSDOF 2
ENDMDL
MODEL 8
REMARK VINA RESULT:      -6.7      2.417      5.197
REMARK  Name = *****
REMARK                            x       y       z     vdW  Elec       q    Type
REMARK                         _______ _______ _______ _____ _____    ______ ____
ROOT
ATOM      1  C   LIG    1       23.943 -25.740   5.991  0.00  0.00    +0.044 C 
ATOM      2  C   LIG    1       23.892 -24.328   6.515  0.00  0.00    -0.047 A 
ATOM      3  C   LIG    1       25.055 -23.633   6.935  0.00  0.00    -0.044 A 
ATOM      4  C   LIG    1       26.412 -24.295   6.867  0.00  0.00    +0.044 C 
ATOM      5  C   LIG    1       24.936 -22.303   7.431  0.00  0.00    -0.036 A 
ATOM      6  C   LIG    1       23.663 -21.698   7.445  0.00  0.00    +0.004 A 
ATOM      7  C   LIG    1       22.527 -22.392   7.042  0.00  0.00    +0.001 A 
ATOM      8  C   LIG    1       22.641 -23.700   6.589  0.00  0.00    +0.003 A 
ENDROOT
BRANCH   5   9
ATOM      9  C   LIG    1       26.155 -21.509   7.925  0.00  0.00    +0.064 C 
ATOM     10  C   LIG    1       25.822 -20.583   9.108  0.00  0.00    +0.019 C 
BRANCH   9  11
ATOM     11  C   LIG    1       26.867 -20.757   6.834  0.00  0.00    +0.043 A 
ATOM     12  N   LIG    1       28.187 -20.374   6.881  0.00  0.00    -0.348 N 
ATOM     13  H   LIG    1       28.836 -20.559   7.637  0.00  0.00    +0.167 HD
ATOM     14  C   LIG    1       28.459 -19.659   5.752  0.00  0.00    +0.196 A 
ATOM     15  N   LIG    1       27.410 -19.585   4.965  0.00  0.00    -0.244 NA
ATOM     16  C   LIG    1       26.419 -20.261   5.624  0.00  0.00    +0.134 A 
ENDBRANCH   9  11
ENDBRANCH   5   9
TORSDOF 2
ENDMDL
MODEL 9
REMARK VINA RESULT:      -6.6      2.516      4.611
REMARK  Name = *****
REMARK                            x       y       z     vdW  Elec       q    Type
REMARK                         _______ _______ _______ _____ _____    ______ ____
ROOT
ATOM      1  C   LIG    1       23.409 -18.842   3.792  0.00  0.00    +0.044 C 
ATOM      2  C   LIG    1       23.516 -20.031   4.712  0.00  0.00    -0.047 A 
ATOM      3  C   LIG    1       24.765 -20.587   5.091  0.00  0.00    -0.044 A 
ATOM      4  C   LIG    1       26.057 -19.993   4.578  0.00  0.00    +0.044 C 
ATOM      5  C   LIG    1       24.795 -21.718   5.955  0.00  0.00    -0.036 A 
ATOM      6  C   LIG    1       23.576 -22.226   6.449  0.00  0.00    +0.004 A 
ATOM      7  C   LIG    1       22.356 -21.681   6.061  0.00  0.00    +0.001 A 
ATOM      8  C   LIG    1       22.327 -20.598   5.193  0.00  0.00    +0.003 A 
ENDROOT
BRANCH   5   9
ATOM      9  C   LIG    1       26.116 -22.380   6.379  0.00  0.00    +0.064 C 
ATOM     10  C   LIG    1       25.900 -23.660   7.206  0.00  0.00    +0.019 C 
BRANCH   9  11
ATOM     11  C   LIG    1       27.064 -21.442   7.074  0.00  0.00    +0.043 A 
ATOM     12  N   LIG    1       28.413 -21.365   6.819  0.00  0.00    -0.348 N 
ATOM     13  H   LIG    1       28.925 -21.912   6.136  0.00  0.00    +0.167 HD
ATOM     14  C   LIG    1       28.954 -20.457   7.682  0.00  0.00    +0.196 A 
ATOM     15  N   LIG    1       28.036 -19.920   8.452  0.00  0.00    -0.244 NA
ATOM     16  C   LIG    1       26.862 -20.521   8.084  0.00  0.00    +0.134 A 
ENDBRANCH   9  11
ENDBRANCH   5   9
TORSDOF 2
ENDMDL
