MODEL 1
REMARK VINA RESULT:       8.0      0.000      0.000
REMARK  Name = *****
REMARK                            x       y       z     vdW  Elec       q    Type
REMARK                         _______ _______ _______ _____ _____    ______ ____
ROOT
ATOM      1  C   LIG    1       22.686 -19.574   3.300  0.00  0.00    +0.201 C 
ATOM      2  C   LIG    1       21.710 -18.375   3.174  0.00  0.00    +0.042 C 
ATOM      3  C   LIG    1       21.849 -17.666   1.813  0.00  0.00    +0.025 C 
ATOM      4  C   LIG    1       20.225 -18.701   3.375  0.00  0.00    +0.025 C 
ATOM      5  S   LIG    1       22.221 -17.162   4.484  0.00  0.00    -0.127 S 
ATOM      6  C   LIG    1       23.865 -17.954   4.790  0.00  0.00    +0.165 C 
ATOM      7  C   LIG    1       25.115 -17.303   4.150  0.00  0.00    +0.190 C 
ATOM      8  C   LIG    1       24.839 -18.312   2.998  0.00  0.00    +0.240 C 
ATOM      9  O   LIG    1       25.119 -18.402   1.812  0.00  0.00    -0.273 OA
ATOM     10  N   LIG    1       23.963 -19.012   3.759  0.00  0.00    -0.271 N 
ENDROOT
BRANCH   7  11
ATOM     11  N   LIG    1       25.054 -15.854   3.792  0.00  0.00    -0.300 N 
ATOM     12  H   LIG    1       24.213 -15.330   4.000  0.00  0.00    +0.150 HD
ATOM     13  C   LIG    1       26.123 -15.191   3.211  0.00  0.00    +0.235 C 
ATOM     14  O   LIG    1       27.186 -15.764   2.963  0.00  0.00    -0.274 OA
BRANCH  13  15
ATOM     15  C   LIG    1       25.875 -13.681   2.891  0.00  0.00    +0.168 C 
BRANCH  15  16
ATOM     16  C   LIG    1       25.234 -12.945   4.057  0.00  0.00    -0.022 A 
ATOM     17  C   LIG    1       23.961 -12.362   3.933  0.00  0.00    +0.006 A 
ATOM     18  C   LIG    1       23.376 -11.687   5.010  0.00  0.00    +0.000 A 
ATOM     19  C   LIG    1       24.057 -11.581   6.222  0.00  0.00    +0.000 A 
ATOM     20  C   LIG    1       25.323 -12.144   6.356  0.00  0.00    +0.000 A 
ATOM     21  C   LIG    1       25.907 -12.820   5.284  0.00  0.00    +0.006 A 
ENDBRANCH  15  16
BRANCH  15  22
ATOM     22  N   LIG    1       27.157 -13.053   2.504  0.00  0.00    -0.316 NA
ATOM     23  H   LIG    1       27.529 -13.533   1.686  0.00  0.00    +0.119 HD
ATOM     24  H   LIG    1       26.947 -12.098   2.202  0.00  0.00    +0.119 HD
ENDBRANCH  15  22
ENDBRANCH  13  15
ENDBRANCH   7  11
BRANCH   1  25
ATOM     25  C   LIG    1       22.324 -20.581   4.403  0.00  0.00    +0.332 C 
ATOM     26  O   LIG    1       21.234 -20.609   4.971  0.00  0.00    -0.249 OA
BRANCH  25  27
ATOM     27  O   LIG    1       23.322 -21.470   4.672  0.00  0.00    -0.423 OA
BRANCH  27  28
ATOM     28  C   LIG    1       24.156 -21.014   5.755  0.00  0.00    +0.370 C 
ATOM     29  C   LIG    1       23.555 -21.533   7.061  0.00  0.00    +0.100 C 
BRANCH  28  30
ATOM     30  O   LIG    1       25.495 -21.513   5.671  0.00  0.00    -0.394 OA
BRANCH  30  31
ATOM     31  C   LIG    1       26.438 -20.635   6.088  0.00  0.00    +0.513 C 
ATOM     32  O   LIG    1       26.331 -19.828   6.998  0.00  0.00    -0.203 OA
BRANCH  31  33
ATOM     33  O   LIG    1       27.500 -20.746   5.245  0.00  0.00    -0.434 OA
BRANCH  33  35
ATOM     34  C   LIG    1       29.305 -20.744   6.824  0.00  0.00    +0.048 C 
ATOM     35  C   LIG    1       28.673 -20.024   5.644  0.00  0.00    +0.232 C 
ENDBRANCH  33  35
ENDBRANCH  31  33
ENDBRANCH  30  31
ENDBRANCH  28  30
ENDBRANCH  27  28
ENDBRANCH  25  27
ENDBRANCH   1  25
TORSDOF 11
ENDMDL
MODEL 2
REMARK VINA RESULT:       8.0      2.025      3.911
REMARK  Name = *****
REMARK                            x       y       z     vdW  Elec       q    Type
REMARK                         _______ _______ _______ _____ _____    ______ ____
ROOT
ATOM      1  C   LIG    1       26.545 -20.547   4.529  0.00  0.00    +0.201 C 
ATOM      2  C   LIG    1       25.670 -20.063   3.344  0.00  0.00    +0.042 C 
ATOM      3  C   LIG    1       26.500 -19.880   2.059  0.00  0.00    +0.025 C 
ATOM      4  C   LIG    1       24.470 -20.951   2.996  0.00  0.00    +0.025 C 
ATOM      5  S   LIG    1       25.032 -18.389   3.833  0.00  0.00    -0.127 S 
ATOM      6  C   LIG    1       26.233 -18.170   5.223  0.00  0.00    +0.165 C 
ATOM      7  C   LIG    1       27.471 -17.273   4.978  0.00  0.00    +0.190 C 
ATOM      8  C   LIG    1       28.154 -18.618   4.595  0.00  0.00    +0.240 C 
ATOM      9  O   LIG    1       29.122 -18.963   3.935  0.00  0.00    -0.273 OA
ATOM     10  N   LIG    1       27.134 -19.339   5.121  0.00  0.00    -0.271 N 
ENDROOT
BRANCH   7  11
ATOM     11  N   LIG    1       27.395 -16.238   3.904  0.00  0.00    -0.300 N 
ATOM     12  H   LIG    1       27.344 -16.534   2.937  0.00  0.00    +0.150 HD
ATOM     13  C   LIG    1       27.359 -14.883   4.186  0.00  0.00    +0.235 C 
ATOM     14  O   LIG    1       27.384 -14.458   5.344  0.00  0.00    -0.274 OA
BRANCH  13  15
ATOM     15  C   LIG    1       27.296 -13.944   2.937  0.00  0.00    +0.168 C 
BRANCH  15  16
ATOM     16  C   LIG    1       26.036 -13.094   2.922  0.00  0.00    -0.022 A 
ATOM     17  C   LIG    1       25.124 -13.133   3.991  0.00  0.00    +0.006 A 
ATOM     18  C   LIG    1       23.966 -12.347   3.971  0.00  0.00    +0.000 A 
ATOM     19  C   LIG    1       23.702 -11.517   2.882  0.00  0.00    +0.000 A 
ATOM     20  C   LIG    1       24.591 -11.476   1.812  0.00  0.00    +0.000 A 
ATOM     21  C   LIG    1       25.747 -12.258   1.831  0.00  0.00    +0.006 A 
ENDBRANCH  15  16
BRANCH  15  22
ATOM     22  N   LIG    1       28.510 -13.099   2.907  0.00  0.00    -0.316 NA
ATOM     23  H   LIG    1       29.159 -13.423   3.622  0.00  0.00    +0.119 HD
ATOM     24  H   LIG    1       28.972 -13.265   2.009  0.00  0.00    +0.119 HD
ENDBRANCH  15  22
ENDBRANCH  13  15
ENDBRANCH   7  11
BRANCH   1  25
ATOM     25  C   LIG    1       25.757 -21.165   5.696  0.00  0.00    +0.332 C 
ATOM     26  O   LIG    1       26.212 -21.303   6.830  0.00  0.00    -0.249 OA
BRANCH  25  27
ATOM     27  O   LIG    1       24.483 -21.518   5.360  0.00  0.00    -0.423 OA
BRANCH  27  28
ATOM     28  C   LIG    1       23.590 -21.402   6.485  0.00  0.00    +0.370 C 
ATOM     29  C   LIG    1       23.742 -19.995   7.062  0.00  0.00    +0.100 C 
BRANCH  28  30
ATOM     30  O   LIG    1       22.216 -21.571   6.122  0.00  0.00    -0.394 OA
BRANCH  30  31
ATOM     31  C   LIG    1       21.820 -20.795   5.085  0.00  0.00    +0.513 C 
ATOM     32  O   LIG    1       21.310 -21.175   4.043  0.00  0.00    -0.203 OA
BRANCH  31  33
ATOM     33  O   LIG    1       22.183 -19.516   5.372  0.00  0.00    -0.434 OA
BRANCH  33  35
ATOM     34  C   LIG    1       21.972 -17.181   4.865  0.00  0.00    +0.048 C 
ATOM     35  C   LIG    1       22.044 -18.586   4.289  0.00  0.00    +0.232 C 
ENDBRANCH  33  35
ENDBRANCH  31  33
ENDBRANCH  30  31
ENDBRANCH  28  30
ENDBRANCH  27  28
ENDBRANCH  25  27
ENDBRANCH   1  25
TORSDOF 11
ENDMDL
MODEL 3
REMARK VINA RESULT:       8.5      2.847      8.173
REMARK  Name = *****
REMARK                            x       y       z     vdW  Elec       q    Type
REMARK                         _______ _______ _______ _____ _____    ______ ____
ROOT
ATOM      1  C   LIG    1       28.097 -14.431   4.320  0.00  0.00    +0.201 C 
ATOM      2  C   LIG    1       26.860 -14.364   5.252  0.00  0.00    +0.042 C 
ATOM      3  C   LIG    1       27.183 -14.878   6.669  0.00  0.00    +0.025 C 
ATOM      4  C   LIG    1       26.211 -12.983   5.400  0.00  0.00    +0.025 C 
ATOM      5  S   LIG    1       25.606 -15.519   4.517  0.00  0.00    -0.127 S 
ATOM      6  C   LIG    1       26.815 -16.367   3.403  0.00  0.00    +0.165 C 
ATOM      7  C   LIG    1       27.360 -17.748   3.841  0.00  0.00    +0.190 C 
ATOM      8  C   LIG    1       28.513 -16.906   4.459  0.00  0.00    +0.240 C 
ATOM      9  O   LIG    1       29.352 -17.058   5.334  0.00  0.00    -0.273 OA
ATOM     10  N   LIG    1       28.128 -15.797   3.781  0.00  0.00    -0.271 N 
ENDROOT
BRANCH   7  11
ATOM     11  N   LIG    1       26.547 -18.561   4.795  0.00  0.00    -0.300 N 
ATOM     12  H   LIG    1       25.557 -18.369   4.887  0.00  0.00    +0.150 HD
ATOM     13  C   LIG    1       27.094 -19.593   5.540  0.00  0.00    +0.235 C 
ATOM     14  O   LIG    1       28.286 -19.899   5.449  0.00  0.00    -0.274 OA
BRANCH  13  15
ATOM     15  C   LIG    1       26.098 -20.323   6.498  0.00  0.00    +0.168 C 
BRANCH  15  16
ATOM     16  C   LIG    1       24.764 -20.612   5.827  0.00  0.00    -0.022 A 
ATOM     17  C   LIG    1       24.695 -20.919   4.457  0.00  0.00    +0.006 A 
ATOM     18  C   LIG    1       23.465 -21.186   3.846  0.00  0.00    +0.000 A 
ATOM     19  C   LIG    1       22.289 -21.142   4.593  0.00  0.00    +0.000 A 
ATOM     20  C   LIG    1       22.341 -20.829   5.948  0.00  0.00    +0.000 A 
ATOM     21  C   LIG    1       23.567 -20.566   6.560  0.00  0.00    +0.006 A 
ENDBRANCH  15  16
BRANCH  15  22
ATOM     22  N   LIG    1       26.727 -21.568   6.990  0.00  0.00    -0.316 NA
ATOM     23  H   LIG    1       27.401 -21.896   6.300  0.00  0.00    +0.119 HD
ATOM     24  H   LIG    1       27.270 -21.324   7.823  0.00  0.00    +0.119 HD
ENDBRANCH  15  22
ENDBRANCH  13  15
ENDBRANCH   7  11
BRANCH   1  25
ATOM     25  C   LIG    1       27.998 -13.555   3.060  0.00  0.00    +0.332 C 
ATOM     26  O   LIG    1       28.708 -13.703   2.068  0.00  0.00    -0.249 OA
BRANCH  25  27
ATOM     27  O   LIG    1       27.016 -12.612   3.134  0.00  0.00    -0.423 OA
BRANCH  27  28
ATOM     28  C   LIG    1       26.156 -12.654   1.978  0.00  0.00    +0.370 C 
ATOM     29  C   LIG    1       25.169 -13.805   2.168  0.00  0.00    +0.100 C 
BRANCH  28  30
ATOM     30  O   LIG    1       25.391 -11.456   1.813  0.00  0.00    -0.394 OA
BRANCH  30  31
ATOM     31  C   LIG    1       24.168 -11.498   2.391  0.00  0.00    +0.513 C 
ATOM     32  O   LIG    1       23.090 -11.494   1.817  0.00  0.00    -0.203 OA
BRANCH  31  33
ATOM     33  O   LIG    1       24.351 -11.447   3.738  0.00  0.00    -0.434 OA
BRANCH  33  35
ATOM     34  C   LIG    1       23.063 -11.448   5.761  0.00  0.00    +0.048 C 
ATOM     35  C   LIG    1       23.428 -12.228   4.508  0.00  0.00    +0.232 C 
ENDBRANCH  33  35
ENDBRANCH  31  33
ENDBRANCH  30  31
ENDBRANCH  28  30
ENDBRANCH  27  28
ENDBRANCH  25  27
ENDBRANCH   1  25
TORSDOF 11
ENDMDL
MODEL 4
REMARK VINA RESULT:       9.4      2.863      7.303
REMARK  Name = *****
REMARK                            x       y       z     vdW  Elec       q    Type
REMARK                         _______ _______ _______ _____ _____    ______ ____
ROOT
ATOM      1  C   LIG    1       25.375 -14.448   3.643  0.00  0.00    +0.201 C 
ATOM      2  C   LIG    1       24.273 -14.973   4.599  0.00  0.00    +0.042 C 
ATOM      3  C   LIG    1       24.798 -15.146   6.038  0.00  0.00    +0.025 C 
ATOM      4  C   LIG    1       22.997 -14.126   4.673  0.00  0.00    +0.025 C 
ATOM      5  S   LIG    1       23.815 -16.659   3.971  0.00  0.00    -0.127 S 
ATOM      6  C   LIG    1       25.304 -16.826   2.885  0.00  0.00    +0.165 C 
ATOM      7  C   LIG    1       26.484 -17.686   3.398  0.00  0.00    +0.190 C 
ATOM      8  C   LIG    1       27.020 -16.327   3.932  0.00  0.00    +0.240 C 
ATOM      9  O   LIG    1       27.804 -15.959   4.794  0.00  0.00    -0.273 OA
ATOM     10  N   LIG    1       26.121 -15.630   3.194  0.00  0.00    -0.271 N 
ENDROOT
BRANCH   7  11
ATOM     11  N   LIG    1       26.202 -18.737   4.422  0.00  0.00    -0.300 N 
ATOM     12  H   LIG    1       25.261 -19.099   4.511  0.00  0.00    +0.150 HD
ATOM     13  C   LIG    1       27.193 -19.258   5.237  0.00  0.00    +0.235 C 
ATOM     14  O   LIG    1       28.365 -18.885   5.157  0.00  0.00    -0.274 OA
BRANCH  13  15
ATOM     15  C   LIG    1       26.712 -20.338   6.262  0.00  0.00    +0.168 C 
BRANCH  15  16
ATOM     16  C   LIG    1       25.274 -20.765   6.012  0.00  0.00    -0.022 A 
ATOM     17  C   LIG    1       24.853 -21.177   4.736  0.00  0.00    +0.006 A 
ATOM     18  C   LIG    1       23.529 -21.570   4.514  0.00  0.00    +0.000 A 
ATOM     19  C   LIG    1       22.608 -21.551   5.560  0.00  0.00    +0.000 A 
ATOM     20  C   LIG    1       23.008 -21.136   6.827  0.00  0.00    +0.000 A 
ATOM     21  C   LIG    1       24.329 -20.745   7.051  0.00  0.00    +0.006 A 
ENDBRANCH  15  16
BRANCH  15  22
ATOM     22  N   LIG    1       27.630 -21.497   6.207  0.00  0.00    -0.316 NA
ATOM     23  H   LIG    1       27.197 -22.286   6.684  0.00  0.00    +0.119 HD
ATOM     24  H   LIG    1       27.713 -21.771   5.224  0.00  0.00    +0.119 HD
ENDBRANCH  15  22
ENDBRANCH  13  15
ENDBRANCH   7  11
BRANCH   1  25
ATOM     25  C   LIG    1       24.850 -13.840   2.332  0.00  0.00    +0.332 C 
ATOM     26  O   LIG    1       23.783 -14.159   1.812  0.00  0.00    -0.249 OA
BRANCH  25  27
ATOM     27  O   LIG    1       25.670 -12.882   1.814  0.00  0.00    -0.423 OA
BRANCH  27  28
ATOM     28  C   LIG    1       25.896 -11.815   2.756  0.00  0.00    +0.370 C 
ATOM     29  C   LIG    1       24.553 -11.463   3.397  0.00  0.00    +0.100 C 
BRANCH  28  30
ATOM     30  O   LIG    1       26.790 -12.187   3.810  0.00  0.00    -0.394 OA
BRANCH  30  31
ATOM     31  C   LIG    1       28.006 -12.600   3.382  0.00  0.00    +0.513 C 
ATOM     32  O   LIG    1       28.369 -12.718   2.222  0.00  0.00    -0.203 OA
BRANCH  31  33
ATOM     33  O   LIG    1       28.725 -12.957   4.480  0.00  0.00    -0.434 OA
BRANCH  33  35
ATOM     34  C   LIG    1       27.197 -13.232   6.309  0.00  0.00    +0.048 C 
ATOM     35  C   LIG    1       28.293 -12.363   5.711  0.00  0.00    +0.232 C 
ENDBRANCH  33  35
ENDBRANCH  31  33
ENDBRANCH  30  31
ENDBRANCH  28  30
ENDBRANCH  27  28
ENDBRANCH  25  27
ENDBRANCH   1  25
TORSDOF 11
ENDMDL
MODEL 5
REMARK VINA RESULT:      10.0      2.536      7.660
REMARK  Name = *****
REMARK                            x       y       z     vdW  Elec       q    Type
REMARK                         _______ _______ _______ _____ _____    ______ ____
ROOT
ATOM      1  C   LIG    1       27.316 -14.441   2.925  0.00  0.00    +0.201 C 
ATOM      2  C   LIG    1       27.587 -14.634   4.440  0.00  0.00    +0.042 C 
ATOM      3  C   LIG    1       28.560 -15.800   4.702  0.00  0.00    +0.025 C 
ATOM      4  C   LIG    1       28.129 -13.406   5.181  0.00  0.00    +0.025 C 
ATOM      5  S   LIG    1       25.954 -15.095   5.195  0.00  0.00    -0.127 S 
ATOM      6  C   LIG    1       25.146 -15.489   3.578  0.00  0.00    +0.165 C 
ATOM      7  C   LIG    1       25.018 -16.978   3.175  0.00  0.00    +0.190 C 
ATOM      8  C   LIG    1       26.366 -16.717   2.442  0.00  0.00    +0.240 C 
ATOM      9  O   LIG    1       27.299 -17.393   2.035  0.00  0.00    -0.273 OA
ATOM     10  N   LIG    1       26.236 -15.376   2.583  0.00  0.00    -0.271 N 
ENDROOT
BRANCH   7  11
ATOM     11  N   LIG    1       25.039 -18.009   4.255  0.00  0.00    -0.300 N 
ATOM     12  H   LIG    1       25.374 -17.752   5.175  0.00  0.00    +0.150 HD
ATOM     13  C   LIG    1       24.585 -19.302   4.051  0.00  0.00    +0.235 C 
ATOM     14  O   LIG    1       24.133 -19.669   2.964  0.00  0.00    -0.274 OA
BRANCH  13  15
ATOM     15  C   LIG    1       24.697 -20.250   5.290  0.00  0.00    +0.168 C 
BRANCH  15  16
ATOM     16  C   LIG    1       26.127 -20.369   5.793  0.00  0.00    -0.022 A 
ATOM     17  C   LIG    1       27.093 -19.403   5.462  0.00  0.00    +0.006 A 
ATOM     18  C   LIG    1       28.407 -19.518   5.930  0.00  0.00    +0.000 A 
ATOM     19  C   LIG    1       28.774 -20.600   6.727  0.00  0.00    +0.000 A 
ATOM     20  C   LIG    1       27.831 -21.570   7.055  0.00  0.00    +0.000 A 
ATOM     21  C   LIG    1       26.519 -21.456   6.591  0.00  0.00    +0.006 A 
ENDBRANCH  15  16
BRANCH  15  22
ATOM     22  N   LIG    1       23.796 -19.759   6.356  0.00  0.00    -0.316 NA
ATOM     23  H   LIG    1       23.933 -18.757   6.472  0.00  0.00    +0.119 HD
ATOM     24  H   LIG    1       22.837 -19.877   6.019  0.00  0.00    +0.119 HD
ENDBRANCH  15  22
ENDBRANCH  13  15
ENDBRANCH   7  11
BRANCH   1  25
ATOM     25  C   LIG    1       26.731 -13.070   2.549  0.00  0.00    +0.332 C 
ATOM     26  O   LIG    1       27.348 -12.012   2.658  0.00  0.00    -0.249 OA
BRANCH  25  27
ATOM     27  O   LIG    1       25.465 -13.141   2.048  0.00  0.00    -0.423 OA
BRANCH  27  28
ATOM     28  C   LIG    1       24.546 -12.344   2.821  0.00  0.00    +0.370 C 
ATOM     29  C   LIG    1       23.756 -11.467   1.850  0.00  0.00    +0.100 C 
BRANCH  28  30
ATOM     30  O   LIG    1       23.603 -13.136   3.549  0.00  0.00    -0.394 OA
BRANCH  30  31
ATOM     31  C   LIG    1       23.488 -12.795   4.855  0.00  0.00    +0.513 C 
ATOM     32  O   LIG    1       24.009 -11.839   5.407  0.00  0.00    -0.203 OA
BRANCH  31  33
ATOM     33  O   LIG    1       22.763 -13.769   5.468  0.00  0.00    -0.434 OA
BRANCH  33  35
ATOM     34  C   LIG    1       22.376 -16.118   5.765  0.00  0.00    +0.048 C 
ATOM     35  C   LIG    1       22.704 -15.018   4.767  0.00  0.00    +0.232 C 
ENDBRANCH  33  35
ENDBRANCH  31  33
ENDBRANCH  30  31
ENDBRANCH  28  30
ENDBRANCH  27  28
ENDBRANCH  25  27
ENDBRANCH   1  25
TORSDOF 11
ENDMDL
MODEL 6
REMARK VINA RESULT:      10.3      1.433      2.009
REMARK  Name = *****
REMARK                            x       y       z     vdW  Elec       q    Type
REMARK                         _______ _______ _______ _____ _____    ______ ____
ROOT
ATOM      1  C   LIG    1       22.864 -19.599   3.313  0.00  0.00    +0.201 C 
ATOM      2  C   LIG    1       21.953 -18.344   3.345  0.00  0.00    +0.042 C 
ATOM      3  C   LIG    1       22.070 -17.521   2.046  0.00  0.00    +0.025 C 
ATOM      4  C   LIG    1       20.463 -18.608   3.591  0.00  0.00    +0.025 C 
ATOM      5  S   LIG    1       22.593 -17.286   4.729  0.00  0.00    -0.127 S 
ATOM      6  C   LIG    1       24.201 -18.189   4.879  0.00  0.00    +0.165 C 
ATOM      7  C   LIG    1       25.455 -17.549   4.236  0.00  0.00    +0.190 C 
ATOM      8  C   LIG    1       25.069 -18.431   3.015  0.00  0.00    +0.240 C 
ATOM      9  O   LIG    1       25.289 -18.427   1.813  0.00  0.00    -0.273 OA
ATOM     10  N   LIG    1       24.191 -19.151   3.754  0.00  0.00    -0.271 N 
ENDROOT
BRANCH   7  11
ATOM     11  N   LIG    1       25.462 -16.072   4.013  0.00  0.00    -0.300 N 
ATOM     12  H   LIG    1       24.667 -15.524   4.318  0.00  0.00    +0.150 HD
ATOM     13  C   LIG    1       26.534 -15.418   3.429  0.00  0.00    +0.235 C 
ATOM     14  O   LIG    1       27.546 -16.022   3.067  0.00  0.00    -0.274 OA
BRANCH  13  15
ATOM     15  C   LIG    1       26.359 -13.873   3.260  0.00  0.00    +0.168 C 
BRANCH  15  16
ATOM     16  C   LIG    1       27.438 -13.090   3.991  0.00  0.00    -0.022 A 
ATOM     17  C   LIG    1       27.561 -13.162   5.390  0.00  0.00    +0.006 A 
ATOM     18  C   LIG    1       28.557 -12.440   6.057  0.00  0.00    +0.000 A 
ATOM     19  C   LIG    1       29.437 -11.633   5.338  0.00  0.00    +0.000 A 
ATOM     20  C   LIG    1       29.320 -11.544   3.954  0.00  0.00    +0.000 A 
ATOM     21  C   LIG    1       28.329 -12.265   3.286  0.00  0.00    +0.006 A 
ENDBRANCH  15  16
BRANCH  15  22
ATOM     22  N   LIG    1       26.347 -13.544   1.818  0.00  0.00    -0.316 NA
ATOM     23  H   LIG    1       27.300 -13.353   1.512  0.00  0.00    +0.119 HD
ATOM     24  H   LIG    1       26.053 -14.387   1.317  0.00  0.00    +0.119 HD
ENDBRANCH  15  22
ENDBRANCH  13  15
ENDBRANCH   7  11
BRANCH   1  25
ATOM     25  C   LIG    1       22.495 -20.683   4.339  0.00  0.00    +0.332 C 
ATOM     26  O   LIG    1       21.341 -20.944   4.672  0.00  0.00    -0.249 OA
BRANCH  25  27
ATOM     27  O   LIG    1       23.576 -21.357   4.824  0.00  0.00    -0.423 OA
BRANCH  27  28
ATOM     28  C   LIG    1       23.852 -20.997   6.192  0.00  0.00    +0.370 C 
ATOM     29  C   LIG    1       22.727 -21.559   7.061  0.00  0.00    +0.100 C 
BRANCH  28  30
ATOM     30  O   LIG    1       25.082 -21.548   6.674  0.00  0.00    -0.394 OA
BRANCH  30  31
ATOM     31  C   LIG    1       26.141 -21.326   5.860  0.00  0.00    +0.513 C 
ATOM     32  O   LIG    1       26.158 -21.419   4.643  0.00  0.00    -0.203 OA
BRANCH  31  33
ATOM     33  O   LIG    1       27.218 -21.074   6.652  0.00  0.00    -0.434 OA
BRANCH  33  35
ATOM     34  C   LIG    1       29.316 -19.986   7.061  0.00  0.00    +0.048 C 
ATOM     35  C   LIG    1       28.308 -20.405   6.003  0.00  0.00    +0.232 C 
ENDBRANCH  33  35
ENDBRANCH  31  33
ENDBRANCH  30  31
ENDBRANCH  28  30
ENDBRANCH  27  28
ENDBRANCH  25  27
ENDBRANCH   1  25
TORSDOF 11
ENDMDL
