MODEL 1
REMARK VINA RESULT:      -8.2      0.000      0.000
REMARK  Name = *****
REMARK                            x       y       z     vdW  Elec       q    Type
REMARK                         _______ _______ _______ _____ _____    ______ ____
ROOT
ATOM      1  C   LIG    1       25.535 -20.350   5.593  0.00  0.00    +0.083 C 
ENDROOT
BRANCH   1   6
ATOM      2 CL   LIG    1       30.870 -19.724   8.423  0.00  0.00    -0.084 Cl
ATOM      3  C   LIG    1       29.366 -19.920   7.610  0.00  0.00    +0.041 A 
ATOM      4  C   LIG    1       29.295 -19.744   6.227  0.00  0.00    +0.020 A 
ATOM      5  C   LIG    1       28.071 -19.893   5.563  0.00  0.00    +0.006 A 
ATOM      6  C   LIG    1       26.905 -20.211   6.274  0.00  0.00    -0.037 A 
ATOM      7  C   LIG    1       27.004 -20.389   7.670  0.00  0.00    +0.006 A 
ATOM      8  C   LIG    1       28.227 -20.247   8.330  0.00  0.00    +0.020 A 
ENDBRANCH   1   6
BRANCH   1   9
ATOM      9  C   LIG    1       24.809 -21.636   6.039  0.00  0.00    -0.019 A 
ATOM     10  C   LIG    1       23.410 -21.679   6.219  0.00  0.00    +0.045 A 
ATOM     11 CL   LIG    1       22.393 -20.300   5.991  0.00  0.00    -0.083 Cl
ATOM     12  C   LIG    1       22.766 -22.872   6.574  0.00  0.00    +0.020 A 
ATOM     13  C   LIG    1       23.493 -24.045   6.747  0.00  0.00    +0.001 A 
ATOM     14  C   LIG    1       24.871 -24.026   6.588  0.00  0.00    +0.000 A 
ATOM     15  C   LIG    1       25.522 -22.834   6.257  0.00  0.00    +0.006 A 
ENDBRANCH   1   9
BRANCH   1  16
ATOM     16  C   LIG    1       25.602 -20.164   4.044  0.00  0.00    +0.183 C 
ATOM     17 CL   LIG    1       25.454 -18.449   3.538  0.00  0.00    -0.104 Cl
ATOM     18 CL   LIG    1       24.286 -21.071   3.213  0.00  0.00    -0.104 Cl
ENDBRANCH   1  16
TORSDOF 3
ENDMDL
MODEL 2
REMARK VINA RESULT:      -8.2      1.278      1.903
REMARK  Name = *****
REMARK                            x       y       z     vdW  Elec       q    Type
REMARK                         _______ _______ _______ _____ _____    ______ ____
ROOT
ATOM      1  C   LIG    1       24.958 -21.064   6.470  0.00  0.00    +0.083 C 
ENDROOT
BRANCH   1   6
ATOM      2 CL   LIG    1       30.657 -19.132   7.274  0.00  0.00    -0.084 Cl
ATOM      3  C   LIG    1       29.035 -19.661   7.058  0.00  0.00    +0.041 A 
ATOM      4  C   LIG    1       28.286 -20.077   8.161  0.00  0.00    +0.020 A 
ATOM      5  C   LIG    1       26.968 -20.519   7.987  0.00  0.00    +0.006 A 
ATOM      6  C   LIG    1       26.387 -20.556   6.712  0.00  0.00    -0.037 A 
ATOM      7  C   LIG    1       27.163 -20.125   5.614  0.00  0.00    +0.006 A 
ATOM      8  C   LIG    1       28.475 -19.679   5.790  0.00  0.00    +0.020 A 
ENDBRANCH   1   6
BRANCH   1   9
ATOM      9  C   LIG    1       24.891 -22.605   6.505  0.00  0.00    -0.019 A 
ATOM     10  C   LIG    1       23.667 -23.297   6.622  0.00  0.00    +0.045 A 
ATOM     11 CL   LIG    1       22.146 -22.490   6.770  0.00  0.00    -0.083 Cl
ATOM     12  C   LIG    1       23.627 -24.697   6.598  0.00  0.00    +0.020 A 
ATOM     13  C   LIG    1       24.794 -25.438   6.448  0.00  0.00    +0.001 A 
ATOM     14  C   LIG    1       26.012 -24.781   6.343  0.00  0.00    +0.000 A 
ATOM     15  C   LIG    1       26.062 -23.385   6.389  0.00  0.00    +0.006 A 
ENDBRANCH   1   9
BRANCH   1  16
ATOM     16  C   LIG    1       24.290 -20.428   5.210  0.00  0.00    +0.183 C 
ATOM     17 CL   LIG    1       22.663 -19.752   5.546  0.00  0.00    -0.104 Cl
ATOM     18 CL   LIG    1       24.094 -21.635   3.887  0.00  0.00    -0.104 Cl
ENDBRANCH   1  16
TORSDOF 3
ENDMDL
MODEL 3
REMARK VINA RESULT:      -8.2      2.535      5.655
REMARK  Name = *****
REMARK                            x       y       z     vdW  Elec       q    Type
REMARK                         _______ _______ _______ _____ _____    ______ ____
ROOT
ATOM      1  C   LIG    1       24.895 -22.533   6.170  0.00  0.00    +0.083 C 
ENDROOT
BRANCH   1   6
ATOM      2 CL   LIG    1       25.897 -28.463   5.333  0.00  0.00    -0.084 Cl
ATOM      3  C   LIG    1       25.635 -26.779   5.574  0.00  0.00    +0.041 A 
ATOM      4  C   LIG    1       25.876 -26.210   6.825  0.00  0.00    +0.020 A 
ATOM      5  C   LIG    1       25.655 -24.841   7.027  0.00  0.00    +0.006 A 
ATOM      6  C   LIG    1       25.185 -24.030   5.985  0.00  0.00    -0.037 A 
ATOM      7  C   LIG    1       24.954 -24.629   4.727  0.00  0.00    +0.006 A 
ATOM      8  C   LIG    1       25.182 -25.992   4.526  0.00  0.00    +0.020 A 
ENDBRANCH   1   6
BRANCH   1   9
ATOM      9  C   LIG    1       26.187 -21.737   6.448  0.00  0.00    -0.019 A 
ATOM     10  C   LIG    1       26.545 -20.604   5.687  0.00  0.00    +0.045 A 
ATOM     11 CL   LIG    1       25.596 -20.029   4.361  0.00  0.00    -0.083 Cl
ATOM     12  C   LIG    1       27.696 -19.865   5.992  0.00  0.00    +0.020 A 
ATOM     13  C   LIG    1       28.507 -20.228   7.062  0.00  0.00    +0.001 A 
ATOM     14  C   LIG    1       28.184 -21.345   7.819  0.00  0.00    +0.000 A 
ATOM     15  C   LIG    1       27.049 -22.100   7.505  0.00  0.00    +0.006 A 
ENDBRANCH   1   9
BRANCH   1  16
ATOM     16  C   LIG    1       23.746 -22.255   7.189  0.00  0.00    +0.183 C 
ATOM     17 CL   LIG    1       22.291 -23.264   6.896  0.00  0.00    -0.104 Cl
ATOM     18 CL   LIG    1       23.213 -20.536   7.130  0.00  0.00    -0.104 Cl
ENDBRANCH   1  16
TORSDOF 3
ENDMDL
MODEL 4
REMARK VINA RESULT:      -8.0      2.280      5.360
REMARK  Name = *****
REMARK                            x       y       z     vdW  Elec       q    Type
REMARK                         _______ _______ _______ _____ _____    ______ ____
ROOT
ATOM      1  C   LIG    1       25.130 -21.312   5.968  0.00  0.00    +0.083 C 
ENDROOT
BRANCH   1   6
ATOM      2 CL   LIG    1       25.518 -27.369   5.806  0.00  0.00    -0.084 Cl
ATOM      3  C   LIG    1       25.430 -25.651   5.851  0.00  0.00    +0.041 A 
ATOM      4  C   LIG    1       25.927 -24.959   6.957  0.00  0.00    +0.020 A 
ATOM      5  C   LIG    1       25.849 -23.560   7.001  0.00  0.00    +0.006 A 
ATOM      6  C   LIG    1       25.268 -22.842   5.947  0.00  0.00    -0.037 A 
ATOM      7  C   LIG    1       24.778 -23.565   4.838  0.00  0.00    +0.006 A 
ATOM      8  C   LIG    1       24.863 -24.958   4.792  0.00  0.00    +0.020 A 
ENDBRANCH   1   6
BRANCH   1   9
ATOM      9  C   LIG    1       26.451 -20.629   6.380  0.00  0.00    -0.019 A 
ATOM     10  C   LIG    1       26.813 -20.460   7.733  0.00  0.00    +0.045 A 
ATOM     11 CL   LIG    1       25.806 -20.967   9.043  0.00  0.00    -0.083 Cl
ATOM     12  C   LIG    1       28.043 -19.886   8.083  0.00  0.00    +0.020 A 
ATOM     13  C   LIG    1       28.939 -19.476   7.101  0.00  0.00    +0.001 A 
ATOM     14  C   LIG    1       28.600 -19.621   5.763  0.00  0.00    +0.000 A 
ATOM     15  C   LIG    1       27.366 -20.173   5.407  0.00  0.00    +0.006 A 
ENDBRANCH   1   9
BRANCH   1  16
ATOM     16  C   LIG    1       23.885 -20.823   6.773  0.00  0.00    +0.183 C 
ATOM     17 CL   LIG    1       22.912 -22.173   7.446  0.00  0.00    -0.104 Cl
ATOM     18 CL   LIG    1       22.779 -19.841   5.746  0.00  0.00    -0.104 Cl
ENDBRANCH   1  16
TORSDOF 3
ENDMDL
MODEL 5
REMARK VINA RESULT:      -7.8      2.030      3.363
REMARK  Name = *****
REMARK                            x       y       z     vdW  Elec       q    Type
REMARK                         _______ _______ _______ _____ _____    ______ ____
ROOT
ATOM      1  C   LIG    1       25.565 -21.748   5.876  0.00  0.00    +0.083 C 
ENDROOT
BRANCH   1   6
ATOM      2 CL   LIG    1       30.225 -18.653   8.237  0.00  0.00    -0.084 Cl
ATOM      3  C   LIG    1       28.890 -19.516   7.578  0.00  0.00    +0.041 A 
ATOM      4  C   LIG    1       28.010 -20.190   8.427  0.00  0.00    +0.020 A 
ATOM      5  C   LIG    1       26.928 -20.901   7.893  0.00  0.00    +0.006 A 
ATOM      6  C   LIG    1       26.718 -20.953   6.508  0.00  0.00    -0.037 A 
ATOM      7  C   LIG    1       27.618 -20.258   5.671  0.00  0.00    +0.006 A 
ATOM      8  C   LIG    1       28.693 -19.544   6.206  0.00  0.00    +0.020 A 
ENDBRANCH   1   6
BRANCH   1   9
ATOM      9  C   LIG    1       24.494 -20.814   5.277  0.00  0.00    -0.019 A 
ATOM     10  C   LIG    1       23.469 -20.251   6.067  0.00  0.00    +0.045 A 
ATOM     11 CL   LIG    1       23.300 -20.579   7.755  0.00  0.00    -0.083 Cl
ATOM     12  C   LIG    1       22.538 -19.363   5.512  0.00  0.00    +0.020 A 
ATOM     13  C   LIG    1       22.610 -19.009   4.168  0.00  0.00    +0.001 A 
ATOM     14  C   LIG    1       23.601 -19.559   3.368  0.00  0.00    +0.000 A 
ATOM     15  C   LIG    1       24.519 -20.463   3.911  0.00  0.00    +0.006 A 
ENDBRANCH   1   9
BRANCH   1  16
ATOM     16  C   LIG    1       24.991 -22.847   6.825  0.00  0.00    +0.183 C 
ATOM     17 CL   LIG    1       26.075 -24.268   6.989  0.00  0.00    -0.104 Cl
ATOM     18 CL   LIG    1       23.404 -23.463   6.237  0.00  0.00    -0.104 Cl
ENDBRANCH   1  16
TORSDOF 3
ENDMDL
MODEL 6
REMARK VINA RESULT:      -7.8      2.630      5.223
REMARK  Name = *****
REMARK                            x       y       z     vdW  Elec       q    Type
REMARK                         _______ _______ _______ _____ _____    ______ ____
ROOT
ATOM      1  C   LIG    1       25.068 -22.281   6.952  0.00  0.00    +0.083 C 
ENDROOT
BRANCH   1   6
ATOM      2 CL   LIG    1       25.808 -27.947   4.898  0.00  0.00    -0.084 Cl
ATOM      3  C   LIG    1       25.576 -26.344   5.477  0.00  0.00    +0.041 A 
ATOM      4  C   LIG    1       25.065 -25.363   4.625  0.00  0.00    +0.020 A 
ATOM      5  C   LIG    1       24.884 -24.054   5.091  0.00  0.00    +0.006 A 
ATOM      6  C   LIG    1       25.217 -23.710   6.408  0.00  0.00    -0.037 A 
ATOM      7  C   LIG    1       25.726 -24.721   7.252  0.00  0.00    +0.006 A 
ATOM      8  C   LIG    1       25.900 -26.027   6.788  0.00  0.00    +0.020 A 
ENDBRANCH   1   6
BRANCH   1   9
ATOM      9  C   LIG    1       24.917 -21.254   5.811  0.00  0.00    -0.019 A 
ATOM     10  C   LIG    1       23.662 -20.941   5.249  0.00  0.00    +0.045 A 
ATOM     11 CL   LIG    1       22.193 -21.696   5.759  0.00  0.00    -0.083 Cl
ATOM     12  C   LIG    1       23.542 -19.966   4.250  0.00  0.00    +0.020 A 
ATOM     13  C   LIG    1       24.662 -19.276   3.795  0.00  0.00    +0.001 A 
ATOM     14  C   LIG    1       25.910 -19.575   4.323  0.00  0.00    +0.000 A 
ATOM     15  C   LIG    1       26.039 -20.563   5.304  0.00  0.00    +0.006 A 
ENDBRANCH   1   9
BRANCH   1  16
ATOM     16  C   LIG    1       26.165 -21.910   8.000  0.00  0.00    +0.183 C 
ATOM     17 CL   LIG    1       25.872 -20.325   8.787  0.00  0.00    -0.104 Cl
ATOM     18 CL   LIG    1       27.798 -21.828   7.244  0.00  0.00    -0.104 Cl
ENDBRANCH   1  16
TORSDOF 3
ENDMDL
MODEL 7
REMARK VINA RESULT:      -7.7      2.625      5.250
REMARK  Name = *****
REMARK                            x       y       z     vdW  Elec       q    Type
REMARK                         _______ _______ _______ _____ _____    ______ ____
ROOT
ATOM      1  C   LIG    1       24.915 -21.353   6.927  0.00  0.00    +0.083 C 
ENDROOT
BRANCH   1   6
ATOM      2 CL   LIG    1       25.614 -27.064   4.987  0.00  0.00    -0.084 Cl
ATOM      3  C   LIG    1       25.438 -25.444   5.539  0.00  0.00    +0.041 A 
ATOM      4  C   LIG    1       25.819 -25.106   6.838  0.00  0.00    +0.020 A 
ATOM      5  C   LIG    1       25.669 -23.790   7.294  0.00  0.00    +0.006 A 
ATOM      6  C   LIG    1       25.130 -22.801   6.460  0.00  0.00    -0.037 A 
ATOM      7  C   LIG    1       24.758 -23.165   5.148  0.00  0.00    +0.006 A 
ATOM      8  C   LIG    1       24.915 -24.477   4.693  0.00  0.00    +0.020 A 
ENDBRANCH   1   6
BRANCH   1   9
ATOM      9  C   LIG    1       24.219 -20.505   5.843  0.00  0.00    -0.019 A 
ATOM     10  C   LIG    1       24.940 -19.892   4.797  0.00  0.00    +0.045 A 
ATOM     11 CL   LIG    1       26.659 -20.005   4.653  0.00  0.00    -0.083 Cl
ATOM     12  C   LIG    1       24.281 -19.171   3.793  0.00  0.00    +0.020 A 
ATOM     13  C   LIG    1       22.895 -19.051   3.800  0.00  0.00    +0.001 A 
ATOM     14  C   LIG    1       22.163 -19.635   4.825  0.00  0.00    +0.000 A 
ATOM     15  C   LIG    1       22.817 -20.336   5.842  0.00  0.00    +0.006 A 
ENDBRANCH   1   9
BRANCH   1  16
ATOM     16  C   LIG    1       26.209 -20.701   7.509  0.00  0.00    +0.183 C 
ATOM     17 CL   LIG    1       27.666 -21.725   7.293  0.00  0.00    -0.104 Cl
ATOM     18 CL   LIG    1       26.049 -20.381   9.274  0.00  0.00    -0.104 Cl
ENDBRANCH   1  16
TORSDOF 3
ENDMDL
MODEL 8
REMARK VINA RESULT:      -7.4      1.876      3.134
REMARK  Name = *****
REMARK                            x       y       z     vdW  Elec       q    Type
REMARK                         _______ _______ _______ _____ _____    ______ ____
ROOT
ATOM      1  C   LIG    1       25.049 -22.725   7.070  0.00  0.00    +0.083 C 
ENDROOT
BRANCH   1   6
ATOM      2 CL   LIG    1       29.805 -19.047   6.225  0.00  0.00    -0.084 Cl
ATOM      3  C   LIG    1       28.461 -20.098   6.443  0.00  0.00    +0.041 A 
ATOM      4  C   LIG    1       27.319 -19.939   5.656  0.00  0.00    +0.020 A 
ATOM      5  C   LIG    1       26.218 -20.787   5.838  0.00  0.00    +0.006 A 
ATOM      6  C   LIG    1       26.244 -21.795   6.812  0.00  0.00    -0.037 A 
ATOM      7  C   LIG    1       27.412 -21.939   7.591  0.00  0.00    +0.006 A 
ATOM      8  C   LIG    1       28.511 -21.097   7.403  0.00  0.00    +0.020 A 
ENDBRANCH   1   6
BRANCH   1   9
ATOM      9  C   LIG    1       25.283 -24.128   6.472  0.00  0.00    -0.019 A 
ATOM     10  C   LIG    1       25.051 -24.407   5.109  0.00  0.00    +0.045 A 
ATOM     11 CL   LIG    1       24.456 -23.223   3.999  0.00  0.00    -0.083 Cl
ATOM     12  C   LIG    1       25.322 -25.675   4.577  0.00  0.00    +0.020 A 
ATOM     13  C   LIG    1       25.835 -26.686   5.382  0.00  0.00    +0.001 A 
ATOM     14  C   LIG    1       26.061 -26.440   6.729  0.00  0.00    +0.000 A 
ATOM     15  C   LIG    1       25.771 -25.184   7.271  0.00  0.00    +0.006 A 
ENDBRANCH   1   9
BRANCH   1  16
ATOM     16  C   LIG    1       23.681 -22.085   6.671  0.00  0.00    +0.183 C 
ATOM     17 CL   LIG    1       23.272 -20.639   7.651  0.00  0.00    -0.104 Cl
ATOM     18 CL   LIG    1       22.325 -23.254   6.867  0.00  0.00    -0.104 Cl
ENDBRANCH   1  16
TORSDOF 3
ENDMDL
MODEL 9
REMARK VINA RESULT:      -7.3      2.038      3.543
REMARK  Name = *****
REMARK                            x       y       z     vdW  Elec       q    Type
REMARK                         _______ _______ _______ _____ _____    ______ ____
ROOT
ATOM      1  C   LIG    1       25.596 -21.409   5.492  0.00  0.00    +0.083 C 
ENDROOT
BRANCH   1   6
ATOM      2 CL   LIG    1       30.048 -18.807   8.696  0.00  0.00    -0.084 Cl
ATOM      3  C   LIG    1       28.773 -19.527   7.793  0.00  0.00    +0.041 A 
ATOM      4  C   LIG    1       27.612 -19.949   8.444  0.00  0.00    +0.020 A 
ATOM      5  C   LIG    1       26.576 -20.544   7.713  0.00  0.00    +0.006 A 
ATOM      6  C   LIG    1       26.691 -20.730   6.328  0.00  0.00    -0.037 A 
ATOM      7  C   LIG    1       27.872 -20.290   5.693  0.00  0.00    +0.006 A 
ATOM      8  C   LIG    1       28.902 -19.690   6.422  0.00  0.00    +0.020 A 
ENDBRANCH   1   6
BRANCH   1   9
ATOM      9  C   LIG    1       24.461 -20.425   5.139  0.00  0.00    -0.019 A 
ATOM     10  C   LIG    1       24.550 -19.548   4.037  0.00  0.00    +0.045 A 
ATOM     11 CL   LIG    1       25.938 -19.471   3.010  0.00  0.00    -0.083 Cl
ATOM     12  C   LIG    1       23.485 -18.700   3.704  0.00  0.00    +0.020 A 
ATOM     13  C   LIG    1       22.310 -18.712   4.449  0.00  0.00    +0.001 A 
ATOM     14  C   LIG    1       22.203 -19.556   5.544  0.00  0.00    +0.000 A 
ATOM     15  C   LIG    1       23.270 -20.388   5.895  0.00  0.00    +0.006 A 
ENDBRANCH   1   9
BRANCH   1  16
ATOM     16  C   LIG    1       25.099 -22.753   6.113  0.00  0.00    +0.183 C 
ATOM     17 CL   LIG    1       26.273 -23.466   7.267  0.00  0.00    -0.104 Cl
ATOM     18 CL   LIG    1       24.793 -23.993   4.842  0.00  0.00    -0.104 Cl
ENDBRANCH   1  16
TORSDOF 3
ENDMDL
