MODEL 1
REMARK VINA RESULT:      -5.1      0.000      0.000
REMARK  Name = *****
REMARK                            x       y       z     vdW  Elec       q    Type
REMARK                         _______ _______ _______ _____ _____    ______ ____
ROOT
ATOM      1  C   LIG    1       30.512 -17.360   9.239  0.00  0.00    +0.131 C 
ENDROOT
BRANCH   1   3
ATOM      2  O   LIG    1       30.670 -18.478  11.363  0.00  0.00    -0.251 OA
ATOM      3  C   LIG    1       30.495 -17.436  10.743  0.00  0.00    +0.305 C 
BRANCH   3   4
ATOM      4  O   LIG    1       30.327 -16.246  11.354  0.00  0.00    -0.481 OA
ATOM      5  H   LIG    1       29.785 -16.290  12.176  0.00  0.00    +0.295 HD
ENDBRANCH   3   4
ENDBRANCH   1   3
BRANCH   1   6
ATOM      6  C   LIG    1       30.126 -18.694   8.619  0.00  0.00    +0.131 C 
BRANCH   6   7
ATOM      7  C   LIG    1       31.353 -19.447   8.178  0.00  0.00    +0.305 C 
ATOM      8  O   LIG    1       31.696 -19.541   7.005  0.00  0.00    -0.251 OA
BRANCH   7   9
ATOM      9  O   LIG    1       32.032 -20.016   9.191  0.00  0.00    -0.481 OA
ATOM     10  H   LIG    1       31.648 -19.866  10.077  0.00  0.00    +0.295 HD
ENDBRANCH   7   9
ENDBRANCH   6   7
ENDBRANCH   1   6
TORSDOF 5
ENDMDL
MODEL 2
REMARK VINA RESULT:      -5.1      0.018      3.761
REMARK  Name = *****
REMARK                            x       y       z     vdW  Elec       q    Type
REMARK                         _______ _______ _______ _____ _____    ______ ____
ROOT
ATOM      1  C   LIG    1       30.131 -18.692   8.634  0.00  0.00    +0.131 C 
ENDROOT
BRANCH   1   3
ATOM      2  O   LIG    1       31.691 -19.552   7.017  0.00  0.00    -0.251 OA
ATOM      3  C   LIG    1       31.345 -19.464   8.189  0.00  0.00    +0.305 C 
BRANCH   3   4
ATOM      4  O   LIG    1       32.055 -20.005   9.199  0.00  0.00    -0.481 OA
ATOM      5  H   LIG    1       32.965 -19.636   9.293  0.00  0.00    +0.295 HD
ENDBRANCH   3   4
ENDBRANCH   1   3
BRANCH   1   6
ATOM      6  C   LIG    1       30.526 -17.353   9.239  0.00  0.00    +0.131 C 
BRANCH   6   7
ATOM      7  C   LIG    1       30.517 -17.430  10.742  0.00  0.00    +0.305 C 
ATOM      8  O   LIG    1       30.666 -18.478  11.361  0.00  0.00    -0.251 OA
BRANCH   7   9
ATOM      9  O   LIG    1       30.320 -16.242  11.344  0.00  0.00    -0.481 OA
ATOM     10  H   LIG    1       30.855 -15.507  10.984  0.00  0.00    +0.295 HD
ENDBRANCH   7   9
ENDBRANCH   6   7
ENDBRANCH   1   6
TORSDOF 5
ENDMDL
MODEL 3
REMARK VINA RESULT:      -5.0      1.877      2.112
REMARK  Name = *****
REMARK                            x       y       z     vdW  Elec       q    Type
REMARK                         _______ _______ _______ _____ _____    ______ ____
ROOT
ATOM      1  C   LIG    1       30.813 -18.070   8.458  0.00  0.00    +0.131 C 
ENDROOT
BRANCH   1   3
ATOM      2  O   LIG    1       32.374 -17.941  10.283  0.00  0.00    -0.251 OA
ATOM      3  C   LIG    1       31.973 -17.485   9.220  0.00  0.00    +0.305 C 
BRANCH   3   4
ATOM      4  O   LIG    1       32.570 -16.446   8.603  0.00  0.00    -0.481 OA
ATOM      5  H   LIG    1       33.538 -16.569   8.457  0.00  0.00    +0.295 HD
ENDBRANCH   3   4
ENDBRANCH   1   3
BRANCH   1   6
ATOM      6  C   LIG    1       31.229 -19.329   7.711  0.00  0.00    +0.131 C 
BRANCH   6   7
ATOM      7  C   LIG    1       31.061 -20.542   8.586  0.00  0.00    +0.305 C 
ATOM      8  O   LIG    1       30.002 -21.152   8.690  0.00  0.00    -0.251 OA
BRANCH   7   9
ATOM      9  O   LIG    1       32.178 -20.888   9.253  0.00  0.00    -0.481 OA
ATOM     10  H   LIG    1       32.769 -21.499   8.771  0.00  0.00    +0.295 HD
ENDBRANCH   7   9
ENDBRANCH   6   7
ENDBRANCH   1   6
TORSDOF 5
ENDMDL
MODEL 4
REMARK VINA RESULT:      -4.9      1.999      3.887
REMARK  Name = *****
REMARK                            x       y       z     vdW  Elec       q    Type
REMARK                         _______ _______ _______ _____ _____    ______ ____
ROOT
ATOM      1  C   LIG    1       30.336 -20.966   8.216  0.00  0.00    +0.131 C 
ENDROOT
BRANCH   1   3
ATOM      2  O   LIG    1       30.763 -22.098  10.295  0.00  0.00    -0.251 OA
ATOM      3  C   LIG    1       31.106 -21.870   9.141  0.00  0.00    +0.305 C 
BRANCH   3   4
ATOM      4  O   LIG    1       32.179 -22.455   8.573  0.00  0.00    -0.481 OA
ATOM      5  H   LIG    1       33.042 -22.162   8.948  0.00  0.00    +0.295 HD
ENDBRANCH   3   4
ENDBRANCH   1   3
BRANCH   1   6
ATOM      6  C   LIG    1       31.089 -19.668   7.966  0.00  0.00    +0.131 C 
BRANCH   6   7
ATOM      7  C   LIG    1       31.105 -18.818   9.209  0.00  0.00    +0.305 C 
ATOM      8  O   LIG    1       32.135 -18.516   9.801  0.00  0.00    -0.251 OA
BRANCH   7   9
ATOM      9  O   LIG    1       29.882 -18.429   9.616  0.00  0.00    -0.481 OA
ATOM     10  H   LIG    1       29.795 -18.297  10.580  0.00  0.00    +0.295 HD
ENDBRANCH   7   9
ENDBRANCH   6   7
ENDBRANCH   1   6
TORSDOF 5
ENDMDL
MODEL 5
REMARK VINA RESULT:      -4.9      2.500      3.717
REMARK  Name = *****
REMARK                            x       y       z     vdW  Elec       q    Type
REMARK                         _______ _______ _______ _____ _____    ______ ____
ROOT
ATOM      1  C   LIG    1       30.143 -21.094   8.248  0.00  0.00    +0.131 C 
ENDROOT
BRANCH   1   3
ATOM      2  O   LIG    1       30.779 -22.097  10.339  0.00  0.00    -0.251 OA
ATOM      3  C   LIG    1       31.056 -21.857   9.171  0.00  0.00    +0.305 C 
BRANCH   3   4
ATOM      4  O   LIG    1       32.184 -22.305   8.583  0.00  0.00    -0.481 OA
ATOM      5  H   LIG    1       33.003 -22.130   9.103  0.00  0.00    +0.295 HD
ENDBRANCH   3   4
ENDBRANCH   1   3
BRANCH   1   6
ATOM      6  C   LIG    1       30.210 -19.599   8.525  0.00  0.00    +0.131 C 
BRANCH   6   7
ATOM      7  C   LIG    1       31.373 -18.979   7.799  0.00  0.00    +0.305 C 
ATOM      8  O   LIG    1       31.855 -17.894   8.108  0.00  0.00    -0.251 OA
BRANCH   7   9
ATOM      9  O   LIG    1       31.829 -19.720   6.772  0.00  0.00    -0.481 OA
ATOM     10  H   LIG    1       32.580 -19.328   6.286  0.00  0.00    +0.295 HD
ENDBRANCH   7   9
ENDBRANCH   6   7
ENDBRANCH   1   6
TORSDOF 5
ENDMDL
MODEL 6
REMARK VINA RESULT:      -4.8      1.783      3.486
REMARK  Name = *****
REMARK                            x       y       z     vdW  Elec       q    Type
REMARK                         _______ _______ _______ _____ _____    ______ ____
ROOT
ATOM      1  C   LIG    1       30.531 -18.145   8.355  0.00  0.00    +0.131 C 
ENDROOT
BRANCH   1   3
ATOM      2  O   LIG    1       31.017 -20.163   9.571  0.00  0.00    -0.251 OA
ATOM      3  C   LIG    1       31.106 -19.526   8.528  0.00  0.00    +0.305 C 
BRANCH   3   4
ATOM      4  O   LIG    1       31.679 -20.028   7.416  0.00  0.00    -0.481 OA
ATOM      5  H   LIG    1       32.060 -19.345   6.817  0.00  0.00    +0.295 HD
ENDBRANCH   3   4
ENDBRANCH   1   3
BRANCH   1   6
ATOM      6  C   LIG    1       30.765 -17.295   9.595  0.00  0.00    +0.131 C 
BRANCH   6   7
ATOM      7  C   LIG    1       32.217 -16.914   9.708  0.00  0.00    +0.305 C 
ATOM      8  O   LIG    1       32.933 -17.271  10.637  0.00  0.00    -0.251 OA
BRANCH   7   9
ATOM      9  O   LIG    1       32.654 -16.136   8.699  0.00  0.00    -0.481 OA
ATOM     10  H   LIG    1       32.063 -15.392   8.472  0.00  0.00    +0.295 HD
ENDBRANCH   7   9
ENDBRANCH   6   7
ENDBRANCH   1   6
TORSDOF 5
ENDMDL
MODEL 7
REMARK VINA RESULT:      -4.7      2.648      3.522
REMARK  Name = *****
REMARK                            x       y       z     vdW  Elec       q    Type
REMARK                         _______ _______ _______ _____ _____    ______ ____
ROOT
ATOM      1  C   LIG    1       29.804 -19.676   8.158  0.00  0.00    +0.131 C 
ENDROOT
BRANCH   1   3
ATOM      2  O   LIG    1       30.102 -18.409   6.136  0.00  0.00    -0.251 OA
ATOM      3  C   LIG    1       30.554 -18.775   7.214  0.00  0.00    +0.305 C 
BRANCH   3   4
ATOM      4  O   LIG    1       31.747 -18.356   7.681  0.00  0.00    -0.481 OA
ATOM      5  H   LIG    1       32.250 -17.791   7.049  0.00  0.00    +0.295 HD
ENDBRANCH   3   4
ENDBRANCH   1   3
BRANCH   1   6
ATOM      6  C   LIG    1       30.282 -21.115   8.037  0.00  0.00    +0.131 C 
BRANCH   6   7
ATOM      7  C   LIG    1       31.109 -21.500   9.235  0.00  0.00    +0.305 C 
ATOM      8  O   LIG    1       30.765 -22.360  10.039  0.00  0.00    -0.251 OA
BRANCH   7   9
ATOM      9  O   LIG    1       32.255 -20.804   9.349  0.00  0.00    -0.481 OA
ATOM     10  H   LIG    1       32.938 -21.229   9.904  0.00  0.00    +0.295 HD
ENDBRANCH   7   9
ENDBRANCH   6   7
ENDBRANCH   1   6
TORSDOF 5
ENDMDL
MODEL 8
REMARK VINA RESULT:      -4.6      2.241      2.903
REMARK  Name = *****
REMARK                            x       y       z     vdW  Elec       q    Type
REMARK                         _______ _______ _______ _____ _____    ______ ____
ROOT
ATOM      1  C   LIG    1       30.192 -18.150   8.443  0.00  0.00    +0.131 C 
ENDROOT
BRANCH   1   3
ATOM      2  O   LIG    1       32.127 -19.346   9.226  0.00  0.00    -0.251 OA
ATOM      3  C   LIG    1       31.657 -18.322   8.744  0.00  0.00    +0.305 C 
BRANCH   3   4
ATOM      4  O   LIG    1       32.421 -17.272   8.382  0.00  0.00    -0.481 OA
ATOM      5  H   LIG    1       32.385 -17.062   7.420  0.00  0.00    +0.295 HD
ENDBRANCH   3   4
ENDBRANCH   1   3
BRANCH   1   6
ATOM      6  C   LIG    1       29.808 -18.871   7.159  0.00  0.00    +0.131 C 
BRANCH   6   7
ATOM      7  C   LIG    1       28.988 -20.096   7.466  0.00  0.00    +0.305 C 
ATOM      8  O   LIG    1       28.071 -20.102   8.279  0.00  0.00    -0.251 OA
BRANCH   7   9
ATOM      9  O   LIG    1       29.363 -21.186   6.771  0.00  0.00    -0.481 OA
ATOM     10  H   LIG    1       30.098 -21.039   6.144  0.00  0.00    +0.295 HD
ENDBRANCH   7   9
ENDBRANCH   6   7
ENDBRANCH   1   6
TORSDOF 5
ENDMDL
MODEL 9
REMARK VINA RESULT:      -4.6      2.184      3.653
REMARK  Name = *****
REMARK                            x       y       z     vdW  Elec       q    Type
REMARK                         _______ _______ _______ _____ _____    ______ ____
ROOT
ATOM      1  C   LIG    1       29.998 -19.573   7.226  0.00  0.00    +0.131 C 
ENDROOT
BRANCH   1   3
ATOM      2  O   LIG    1       28.461 -21.153   8.189  0.00  0.00    -0.251 OA
ATOM      3  C   LIG    1       29.619 -20.849   7.930  0.00  0.00    +0.305 C 
BRANCH   3   4
ATOM      4  O   LIG    1       30.661 -21.660   8.203  0.00  0.00    -0.481 OA
ATOM      5  H   LIG    1       30.484 -22.614   8.027  0.00  0.00    +0.295 HD
ENDBRANCH   3   4
ENDBRANCH   1   3
BRANCH   1   6
ATOM      6  C   LIG    1       30.210 -18.441   8.221  0.00  0.00    +0.131 C 
BRANCH   6   7
ATOM      7  C   LIG    1       31.648 -18.386   8.660  0.00  0.00    +0.305 C 
ATOM      8  O   LIG    1       32.187 -19.277   9.307  0.00  0.00    -0.251 OA
BRANCH   7   9
ATOM      9  O   LIG    1       32.285 -17.260   8.288  0.00  0.00    -0.481 OA
ATOM     10  H   LIG    1       31.779 -16.685   7.680  0.00  0.00    +0.295 HD
ENDBRANCH   7   9
ENDBRANCH   6   7
ENDBRANCH   1   6
TORSDOF 5
ENDMDL
