MODEL 1
REMARK VINA RESULT:      -7.0      0.000      0.000
REMARK  Name = *****
REMARK                            x       y       z     vdW  Elec       q    Type
REMARK                         _______ _______ _______ _____ _____    ______ ____
ROOT
ATOM      1  N   LIG    1       25.198 -21.206   6.465  0.00  0.00    -0.297 N 
ATOM      2  C   LIG    1       24.323 -20.531   5.554  0.00  0.00    +0.048 A 
ATOM      3  C   LIG    1       24.800 -19.547   4.660  0.00  0.00    +0.034 A 
ATOM      4  C   LIG    1       23.928 -18.868   3.781  0.00  0.00    +0.017 A 
ATOM      5  C   LIG    1       22.572 -19.157   3.743  0.00  0.00    +0.001 A 
ATOM      6  C   LIG    1       22.076 -20.134   4.591  0.00  0.00    +0.002 A 
ATOM      7  S   LIG    1       26.504 -19.076   4.520  0.00  0.00    -0.086 S 
ATOM      8  C   LIG    1       27.291 -20.090   5.745  0.00  0.00    +0.034 A 
ATOM      9  C   LIG    1       28.684 -19.907   5.857  0.00  0.00    +0.017 A 
ATOM     10  C   LIG    1       29.432 -20.600   6.801  0.00  0.00    +0.001 A 
ATOM     11  C   LIG    1       28.788 -21.491   7.639  0.00  0.00    +0.002 A 
ATOM     12  C   LIG    1       27.412 -21.692   7.512  0.00  0.00    +0.024 A 
ATOM     13  C   LIG    1       22.936 -20.796   5.478  0.00  0.00    +0.024 A 
ATOM     14  C   LIG    1       26.607 -21.006   6.570  0.00  0.00    +0.048 A 
ENDROOT
BRANCH   1  15
ATOM     15  C   LIG    1       24.592 -22.238   7.349  0.00  0.00    +0.129 C 
BRANCH  15  17
ATOM     16  C   LIG    1       22.493 -23.679   6.826  0.00  0.00    +0.026 C 
ATOM     17  C   LIG    1       23.999 -23.468   6.577  0.00  0.00    +0.071 C 
BRANCH  17  18
ATOM     18  N   LIG    1       24.726 -24.755   6.793  0.00  0.00    -0.304 NA
ATOM     19  C   LIG    1       26.154 -24.703   6.480  0.00  0.00    +0.105 C 
ATOM     20  C   LIG    1       24.094 -25.880   6.105  0.00  0.00    +0.105 C 
ENDBRANCH  17  18
ENDBRANCH  15  17
ENDBRANCH   1  15
TORSDOF 3
ENDMDL
MODEL 2
REMARK VINA RESULT:      -7.0      0.997      4.386
REMARK  Name = *****
REMARK                            x       y       z     vdW  Elec       q    Type
REMARK                         _______ _______ _______ _____ _____    ______ ____
ROOT
ATOM      1  N   LIG    1       25.998 -21.297   6.391  0.00  0.00    -0.297 N 
ATOM      2  C   LIG    1       27.350 -21.036   6.784  0.00  0.00    +0.048 A 
ATOM      3  C   LIG    1       28.129 -20.044   6.148  0.00  0.00    +0.034 A 
ATOM      4  C   LIG    1       29.469 -19.809   6.524  0.00  0.00    +0.017 A 
ATOM      5  C   LIG    1       30.068 -20.526   7.549  0.00  0.00    +0.001 A 
ATOM      6  C   LIG    1       29.324 -21.489   8.210  0.00  0.00    +0.002 A 
ATOM      7  S   LIG    1       27.528 -18.989   4.855  0.00  0.00    -0.086 S 
ATOM      8  C   LIG    1       25.861 -19.555   4.633  0.00  0.00    +0.034 A 
ATOM      9  C   LIG    1       25.136 -18.877   3.633  0.00  0.00    +0.017 A 
ATOM     10  C   LIG    1       23.831 -19.235   3.315  0.00  0.00    +0.001 A 
ATOM     11  C   LIG    1       23.238 -20.275   4.006  0.00  0.00    +0.002 A 
ATOM     12  C   LIG    1       23.947 -20.930   5.016  0.00  0.00    +0.024 A 
ATOM     13  C   LIG    1       27.999 -21.739   7.826  0.00  0.00    +0.024 A 
ATOM     14  C   LIG    1       25.278 -20.605   5.371  0.00  0.00    +0.048 A 
ENDROOT
BRANCH   1  15
ATOM     15  C   LIG    1       25.265 -22.351   7.142  0.00  0.00    +0.129 C 
BRANCH  15  17
ATOM     16  C   LIG    1       23.318 -24.036   6.786  0.00  0.00    +0.026 C 
ATOM     17  C   LIG    1       24.635 -23.461   6.230  0.00  0.00    +0.071 C 
BRANCH  17  18
ATOM     18  N   LIG    1       25.557 -24.580   5.871  0.00  0.00    -0.304 NA
ATOM     19  C   LIG    1       25.131 -25.368   4.715  0.00  0.00    +0.105 C 
ATOM     20  C   LIG    1       25.847 -25.455   7.006  0.00  0.00    +0.105 C 
ENDBRANCH  17  18
ENDBRANCH  15  17
ENDBRANCH   1  15
TORSDOF 3
ENDMDL
MODEL 3
REMARK VINA RESULT:      -6.4      1.758      5.058
REMARK  Name = *****
REMARK                            x       y       z     vdW  Elec       q    Type
REMARK                         _______ _______ _______ _____ _____    ______ ____
ROOT
ATOM      1  N   LIG    1       27.472 -20.643   6.261  0.00  0.00    -0.297 N 
ATOM      2  C   LIG    1       28.753 -20.449   6.870  0.00  0.00    +0.048 A 
ATOM      3  C   LIG    1       29.596 -19.378   6.499  0.00  0.00    +0.034 A 
ATOM      4  C   LIG    1       30.868 -19.207   7.087  0.00  0.00    +0.017 A 
ATOM      5  C   LIG    1       31.332 -20.069   8.070  0.00  0.00    +0.001 A 
ATOM      6  C   LIG    1       30.520 -21.115   8.473  0.00  0.00    +0.002 A 
ATOM      7  S   LIG    1       29.162 -18.143   5.303  0.00  0.00    -0.086 S 
ATOM      8  C   LIG    1       27.551 -18.662   4.773  0.00  0.00    +0.034 A 
ATOM      9  C   LIG    1       26.958 -17.842   3.792  0.00  0.00    +0.017 A 
ATOM     10  C   LIG    1       25.716 -18.143   3.248  0.00  0.00    +0.001 A 
ATOM     11  C   LIG    1       25.049 -19.271   3.692  0.00  0.00    +0.002 A 
ATOM     12  C   LIG    1       25.623 -20.070   4.684  0.00  0.00    +0.024 A 
ATOM     13  C   LIG    1       29.264 -21.300   7.878  0.00  0.00    +0.024 A 
ATOM     14  C   LIG    1       26.888 -19.807   5.263  0.00  0.00    +0.048 A 
ENDROOT
BRANCH   1  15
ATOM     15  C   LIG    1       26.660 -21.793   6.742  0.00  0.00    +0.129 C 
BRANCH  15  17
ATOM     16  C   LIG    1       25.650 -20.946   8.981  0.00  0.00    +0.026 C 
ATOM     17  C   LIG    1       25.369 -21.376   7.528  0.00  0.00    +0.071 C 
BRANCH  17  18
ATOM     18  N   LIG    1       24.267 -22.384   7.509  0.00  0.00    -0.304 NA
ATOM     19  C   LIG    1       24.607 -23.639   6.839  0.00  0.00    +0.105 C 
ATOM     20  C   LIG    1       23.018 -21.843   6.974  0.00  0.00    +0.105 C 
ENDBRANCH  17  18
ENDBRANCH  15  17
ENDBRANCH   1  15
TORSDOF 3
ENDMDL
MODEL 4
REMARK VINA RESULT:      -6.4      1.735      2.776
REMARK  Name = *****
REMARK                            x       y       z     vdW  Elec       q    Type
REMARK                         _______ _______ _______ _____ _____    ______ ____
ROOT
ATOM      1  N   LIG    1       27.460 -20.660   6.277  0.00  0.00    -0.297 N 
ATOM      2  C   LIG    1       26.860 -19.845   5.264  0.00  0.00    +0.048 A 
ATOM      3  C   LIG    1       27.509 -18.697   4.756  0.00  0.00    +0.034 A 
ATOM      4  C   LIG    1       26.901 -17.885   3.775  0.00  0.00    +0.017 A 
ATOM      5  C   LIG    1       25.654 -18.193   3.252  0.00  0.00    +0.001 A 
ATOM      6  C   LIG    1       25.002 -19.325   3.712  0.00  0.00    +0.002 A 
ATOM      7  S   LIG    1       29.125 -18.168   5.256  0.00  0.00    -0.086 S 
ATOM      8  C   LIG    1       29.572 -19.378   6.475  0.00  0.00    +0.034 A 
ATOM      9  C   LIG    1       30.840 -19.187   7.060  0.00  0.00    +0.017 A 
ATOM     10  C   LIG    1       31.311 -20.029   8.060  0.00  0.00    +0.001 A 
ATOM     11  C   LIG    1       30.514 -21.079   8.478  0.00  0.00    +0.002 A 
ATOM     12  C   LIG    1       29.268 -21.284   7.881  0.00  0.00    +0.024 A 
ATOM     13  C   LIG    1       25.593 -20.123   4.700  0.00  0.00    +0.024 A 
ATOM     14  C   LIG    1       28.744 -20.451   6.864  0.00  0.00    +0.048 A 
ENDROOT
BRANCH   1  15
ATOM     15  C   LIG    1       26.696 -21.856   6.726  0.00  0.00    +0.129 C 
BRANCH  15  17
ATOM     16  C   LIG    1       25.574 -21.017   8.914  0.00  0.00    +0.026 C 
ATOM     17  C   LIG    1       25.360 -21.514   7.472  0.00  0.00    +0.071 C 
BRANCH  17  18
ATOM     18  N   LIG    1       24.339 -22.604   7.465  0.00  0.00    -0.304 NA
ATOM     19  C   LIG    1       24.771 -23.833   6.799  0.00  0.00    +0.105 C 
ATOM     20  C   LIG    1       23.049 -22.164   6.935  0.00  0.00    +0.105 C 
ENDBRANCH  17  18
ENDBRANCH  15  17
ENDBRANCH   1  15
TORSDOF 3
ENDMDL
MODEL 5
REMARK VINA RESULT:      -6.2      1.727      4.456
REMARK  Name = *****
REMARK                            x       y       z     vdW  Elec       q    Type
REMARK                         _______ _______ _______ _____ _____    ______ ____
ROOT
ATOM      1  N   LIG    1       25.167 -21.317   5.497  0.00  0.00    -0.297 N 
ATOM      2  C   LIG    1       24.135 -20.418   5.076  0.00  0.00    +0.048 A 
ATOM      3  C   LIG    1       22.775 -20.798   5.076  0.00  0.00    +0.034 A 
ATOM      4  C   LIG    1       21.765 -19.915   4.636  0.00  0.00    +0.017 A 
ATOM      5  C   LIG    1       22.065 -18.630   4.209  0.00  0.00    +0.001 A 
ATOM      6  C   LIG    1       23.387 -18.218   4.220  0.00  0.00    +0.002 A 
ATOM      7  S   LIG    1       22.186 -22.375   5.634  0.00  0.00    -0.086 S 
ATOM      8  C   LIG    1       23.683 -23.212   6.088  0.00  0.00    +0.034 A 
ATOM      9  C   LIG    1       23.504 -24.524   6.569  0.00  0.00    +0.017 A 
ATOM     10  C   LIG    1       24.586 -25.321   6.926  0.00  0.00    +0.001 A 
ATOM     11  C   LIG    1       25.862 -24.802   6.809  0.00  0.00    +0.002 A 
ATOM     12  C   LIG    1       26.040 -23.492   6.357  0.00  0.00    +0.024 A 
ATOM     13  C   LIG    1       24.394 -19.098   4.637  0.00  0.00    +0.024 A 
ATOM     14  C   LIG    1       24.970 -22.646   5.977  0.00  0.00    +0.048 A 
ENDROOT
BRANCH   1  15
ATOM     15  C   LIG    1       26.564 -20.805   5.474  0.00  0.00    +0.129 C 
BRANCH  15  17
ATOM     16  C   LIG    1       26.252 -20.354   8.014  0.00  0.00    +0.026 C 
ATOM     17  C   LIG    1       27.236 -20.726   6.888  0.00  0.00    +0.071 C 
BRANCH  17  18
ATOM     18  N   LIG    1       28.440 -19.843   6.964  0.00  0.00    -0.304 NA
ATOM     19  C   LIG    1       28.802 -19.206   5.699  0.00  0.00    +0.105 C 
ATOM     20  C   LIG    1       29.598 -20.520   7.545  0.00  0.00    +0.105 C 
ENDBRANCH  17  18
ENDBRANCH  15  17
ENDBRANCH   1  15
TORSDOF 3
ENDMDL
MODEL 6
REMARK VINA RESULT:      -6.0      1.739      5.546
REMARK  Name = *****
REMARK                            x       y       z     vdW  Elec       q    Type
REMARK                         _______ _______ _______ _____ _____    ______ ____
ROOT
ATOM      1  N   LIG    1       25.155 -21.307   5.444  0.00  0.00    -0.297 N 
ATOM      2  C   LIG    1       24.953 -22.638   5.932  0.00  0.00    +0.048 A 
ATOM      3  C   LIG    1       23.659 -23.186   6.076  0.00  0.00    +0.034 A 
ATOM      4  C   LIG    1       23.467 -24.491   6.580  0.00  0.00    +0.017 A 
ATOM      5  C   LIG    1       24.540 -25.296   6.932  0.00  0.00    +0.001 A 
ATOM      6  C   LIG    1       25.823 -24.796   6.780  0.00  0.00    +0.002 A 
ATOM      7  S   LIG    1       22.167 -22.338   5.632  0.00  0.00    -0.086 S 
ATOM      8  C   LIG    1       22.766 -20.767   5.065  0.00  0.00    +0.034 A 
ATOM      9  C   LIG    1       21.764 -19.868   4.648  0.00  0.00    +0.017 A 
ATOM     10  C   LIG    1       22.075 -18.584   4.217  0.00  0.00    +0.001 A 
ATOM     11  C   LIG    1       23.401 -18.192   4.193  0.00  0.00    +0.002 A 
ATOM     12  C   LIG    1       24.397 -19.091   4.580  0.00  0.00    +0.024 A 
ATOM     13  C   LIG    1       26.018 -23.495   6.298  0.00  0.00    +0.024 A 
ATOM     14  C   LIG    1       24.129 -20.406   5.032  0.00  0.00    +0.048 A 
ENDROOT
BRANCH   1  15
ATOM     15  C   LIG    1       26.561 -20.838   5.315  0.00  0.00    +0.129 C 
BRANCH  15  17
ATOM     16  C   LIG    1       26.740 -20.250   7.840  0.00  0.00    +0.026 C 
ATOM     17  C   LIG    1       27.396 -20.957   6.638  0.00  0.00    +0.071 C 
BRANCH  17  18
ATOM     18  N   LIG    1       28.822 -20.528   6.523  0.00  0.00    -0.304 NA
ATOM     19  C   LIG    1       29.592 -20.649   7.761  0.00  0.00    +0.105 C 
ATOM     20  C   LIG    1       28.962 -19.183   5.966  0.00  0.00    +0.105 C 
ENDBRANCH  17  18
ENDBRANCH  15  17
ENDBRANCH   1  15
TORSDOF 3
ENDMDL
MODEL 7
REMARK VINA RESULT:      -5.6      1.938      4.873
REMARK  Name = *****
REMARK                            x       y       z     vdW  Elec       q    Type
REMARK                         _______ _______ _______ _____ _____    ______ ____
ROOT
ATOM      1  N   LIG    1       26.544 -21.162   5.815  0.00  0.00    -0.297 N 
ATOM      2  C   LIG    1       25.632 -22.226   6.109  0.00  0.00    +0.048 A 
ATOM      3  C   LIG    1       24.314 -22.234   5.600  0.00  0.00    +0.034 A 
ATOM      4  C   LIG    1       23.413 -23.275   5.914  0.00  0.00    +0.017 A 
ATOM      5  C   LIG    1       23.791 -24.343   6.714  0.00  0.00    +0.001 A 
ATOM      6  C   LIG    1       25.085 -24.377   7.208  0.00  0.00    +0.002 A 
ATOM      7  S   LIG    1       23.660 -20.989   4.520  0.00  0.00    -0.086 S 
ATOM      8  C   LIG    1       25.021 -19.863   4.354  0.00  0.00    +0.034 A 
ATOM      9  C   LIG    1       24.766 -18.745   3.534  0.00  0.00    +0.017 A 
ATOM     10  C   LIG    1       25.721 -17.755   3.341  0.00  0.00    +0.001 A 
ATOM     11  C   LIG    1       26.949 -17.881   3.965  0.00  0.00    +0.002 A 
ATOM     12  C   LIG    1       27.212 -19.002   4.756  0.00  0.00    +0.024 A 
ATOM     13  C   LIG    1       25.976 -23.336   6.915  0.00  0.00    +0.024 A 
ATOM     14  C   LIG    1       26.269 -20.033   4.987  0.00  0.00    +0.048 A 
ENDROOT
BRANCH   1  15
ATOM     15  C   LIG    1       27.914 -21.265   6.388  0.00  0.00    +0.129 C 
BRANCH  15  17
ATOM     16  C   LIG    1       26.750 -20.232   8.469  0.00  0.00    +0.026 C 
ATOM     17  C   LIG    1       27.981 -20.985   7.930  0.00  0.00    +0.071 C 
BRANCH  17  18
ATOM     18  N   LIG    1       29.227 -20.301   8.391  0.00  0.00    -0.304 NA
ATOM     19  C   LIG    1       29.595 -19.123   7.607  0.00  0.00    +0.105 C 
ATOM     20  C   LIG    1       30.362 -21.216   8.501  0.00  0.00    +0.105 C 
ENDBRANCH  17  18
ENDBRANCH  15  17
ENDBRANCH   1  15
TORSDOF 3
ENDMDL
MODEL 8
REMARK VINA RESULT:      -5.5      2.172      4.833
REMARK  Name = *****
REMARK                            x       y       z     vdW  Elec       q    Type
REMARK                         _______ _______ _______ _____ _____    ______ ____
ROOT
ATOM      1  N   LIG    1       26.114 -20.211   5.316  0.00  0.00    -0.297 N 
ATOM      2  C   LIG    1       25.033 -20.979   5.859  0.00  0.00    +0.048 A 
ATOM      3  C   LIG    1       25.117 -21.578   7.135  0.00  0.00    +0.034 A 
ATOM      4  C   LIG    1       24.057 -22.353   7.652  0.00  0.00    +0.017 A 
ATOM      5  C   LIG    1       22.881 -22.538   6.940  0.00  0.00    +0.001 A 
ATOM      6  C   LIG    1       22.758 -21.943   5.696  0.00  0.00    +0.002 A 
ATOM      7  S   LIG    1       26.511 -21.415   8.218  0.00  0.00    -0.086 S 
ATOM      8  C   LIG    1       27.629 -20.417   7.268  0.00  0.00    +0.034 A 
ATOM      9  C   LIG    1       28.855 -20.134   7.903  0.00  0.00    +0.017 A 
ATOM     10  C   LIG    1       29.848 -19.399   7.268  0.00  0.00    +0.001 A 
ATOM     11  C   LIG    1       29.616 -18.932   5.987  0.00  0.00    +0.002 A 
ATOM     12  C   LIG    1       28.392 -19.190   5.366  0.00  0.00    +0.024 A 
ATOM     13  C   LIG    1       23.816 -21.189   5.170  0.00  0.00    +0.024 A 
ATOM     14  C   LIG    1       27.353 -19.938   5.970  0.00  0.00    +0.048 A 
ENDROOT
BRANCH   1  15
ATOM     15  C   LIG    1       25.911 -19.609   3.971  0.00  0.00    +0.129 C 
BRANCH  15  17
ATOM     16  C   LIG    1       23.683 -18.345   3.534  0.00  0.00    +0.026 C 
ATOM     17  C   LIG    1       25.149 -18.239   3.995  0.00  0.00    +0.071 C 
BRANCH  17  18
ATOM     18  N   LIG    1       25.826 -17.130   3.258  0.00  0.00    -0.304 NA
ATOM     19  C   LIG    1       27.237 -16.950   3.599  0.00  0.00    +0.105 C 
ATOM     20  C   LIG    1       25.110 -15.860   3.370  0.00  0.00    +0.105 C 
ENDBRANCH  17  18
ENDBRANCH  15  17
ENDBRANCH   1  15
TORSDOF 3
ENDMDL
MODEL 9
REMARK VINA RESULT:      -5.4      6.559      9.906
REMARK  Name = *****
REMARK                            x       y       z     vdW  Elec       q    Type
REMARK                         _______ _______ _______ _____ _____    ______ ____
ROOT
ATOM      1  N   LIG    1       24.665 -30.451   7.201  0.00  0.00    -0.297 N 
ATOM      2  C   LIG    1       25.069 -29.144   6.781  0.00  0.00    +0.048 A 
ATOM      3  C   LIG    1       25.751 -28.264   7.650  0.00  0.00    +0.034 A 
ATOM      4  C   LIG    1       26.125 -26.967   7.237  0.00  0.00    +0.017 A 
ATOM      5  C   LIG    1       25.861 -26.513   5.953  0.00  0.00    +0.001 A 
ATOM      6  C   LIG    1       25.216 -27.360   5.068  0.00  0.00    +0.002 A 
ATOM      7  S   LIG    1       26.225 -28.677   9.308  0.00  0.00    -0.086 S 
ATOM      8  C   LIG    1       25.601 -30.327   9.492  0.00  0.00    +0.034 A 
ATOM      9  C   LIG    1       25.836 -30.911  10.753  0.00  0.00    +0.017 A 
ATOM     10  C   LIG    1       25.371 -32.183  11.062  0.00  0.00    +0.001 A 
ATOM     11  C   LIG    1       24.668 -32.888  10.102  0.00  0.00    +0.002 A 
ATOM     12  C   LIG    1       24.456 -32.321   8.843  0.00  0.00    +0.024 A 
ATOM     13  C   LIG    1       24.825 -28.641   5.481  0.00  0.00    +0.024 A 
ATOM     14  C   LIG    1       24.906 -31.027   8.484  0.00  0.00    +0.048 A 
ENDROOT
BRANCH   1  15
ATOM     15  C   LIG    1       23.969 -31.301   6.197  0.00  0.00    +0.129 C 
BRANCH  15  17
ATOM     16  C   LIG    1       25.790 -31.952   4.460  0.00  0.00    +0.026 C 
ATOM     17  C   LIG    1       24.867 -32.438   5.594  0.00  0.00    +0.071 C 
BRANCH  17  18
ATOM     18  N   LIG    1       24.125 -33.656   5.149  0.00  0.00    -0.304 NA
ATOM     19  C   LIG    1       24.058 -33.825   3.697  0.00  0.00    +0.105 C 
ATOM     20  C   LIG    1       22.789 -33.746   5.735  0.00  0.00    +0.105 C 
ENDBRANCH  17  18
ENDBRANCH  15  17
ENDBRANCH   1  15
TORSDOF 3
ENDMDL
