MODEL 1
REMARK VINA RESULT:      -8.6      0.000      0.000
REMARK  Name = *****
REMARK                            x       y       z     vdW  Elec       q    Type
REMARK                         _______ _______ _______ _____ _____    ______ ____
ROOT
ATOM      1  C   LIG    1       27.593 -19.904   6.393  0.00  0.00    +0.144 C 
ENDROOT
BRANCH   1   2
ATOM      2  C   LIG    1       26.337 -20.830   6.473  0.00  0.00    -0.003 C 
ATOM      3  C   LIG    1       25.307 -20.345   7.531  0.00  0.00    +0.012 C 
ATOM      4  C   LIG    1       24.087 -21.278   7.590  0.00  0.00    -0.007 C 
ATOM      5  C   LIG    1       23.405 -21.313   6.216  0.00  0.00    +0.038 C 
ATOM      6  C   LIG    1       24.390 -21.848   5.165  0.00  0.00    +0.067 C 
ATOM      7  C   LIG    1       24.848 -23.260   5.544  0.00  0.00    +0.038 C 
ATOM      8  C   LIG    1       25.542 -23.225   6.911  0.00  0.00    -0.007 C 
ATOM      9  C   LIG    1       24.553 -22.694   7.964  0.00  0.00    +0.007 C 
ATOM     10  C   LIG    1       25.607 -20.918   5.109  0.00  0.00    +0.043 C 
ATOM     11  C   LIG    1       26.763 -22.286   6.845  0.00  0.00    +0.012 C 
BRANCH   6  12
ATOM     12  O   LIG    1       23.780 -21.869   3.882  0.00  0.00    -0.389 OA
ATOM     13  H   LIG    1       23.535 -20.955   3.654  0.00  0.00    +0.210 HD
ENDBRANCH   6  12
ENDBRANCH   1   2
BRANCH   1  16
ATOM     14  C   LIG    1       31.106 -20.303   8.068  0.00  0.00    +0.179 C 
ATOM     15  N   LIG    1       29.786 -19.770   7.655  0.00  0.00    -0.281 N 
ATOM     16  C   LIG    1       28.908 -20.546   6.930  0.00  0.00    +0.234 C 
ATOM     17  O   LIG    1       29.184 -21.720   6.653  0.00  0.00    -0.274 OA
ATOM     18  C   LIG    1       29.658 -18.392   8.039  0.00  0.00    +0.081 C 
ATOM     19  C   LIG    1       30.964 -17.923   8.612  0.00  0.00    +0.014 C 
ATOM     20  C   LIG    1       29.743 -17.978   9.485  0.00  0.00    +0.028 C 
ATOM     21  C   LIG    1       31.934 -19.069   8.495  0.00  0.00    +0.043 C 
BRANCH  14  23
ATOM     22  N   LIG    1       30.897 -22.063  10.019  0.00  0.00    -0.195 NA
ATOM     23  C   LIG    1       30.995 -21.272   9.182  0.00  0.00    +0.085 C 
ENDBRANCH  14  23
ENDBRANCH   1  16
BRANCH   1  24
ATOM     24  N   LIG    1       27.853 -19.473   4.991  0.00  0.00    -0.320 NA
ATOM     25  H   LIG    1       28.435 -20.184   4.543  0.00  0.00    +0.119 HD
ATOM     26  H   LIG    1       26.967 -19.560   4.482  0.00  0.00    +0.119 HD
ENDBRANCH   1  24
TORSDOF 5
ENDMDL
MODEL 2
REMARK VINA RESULT:      -8.4      0.961      1.746
REMARK  Name = *****
REMARK                            x       y       z     vdW  Elec       q    Type
REMARK                         _______ _______ _______ _____ _____    ______ ____
ROOT
ATOM      1  C   LIG    1       27.629 -19.745   6.424  0.00  0.00    +0.144 C 
ENDROOT
BRANCH   1   2
ATOM      2  C   LIG    1       26.371 -20.670   6.480  0.00  0.00    -0.003 C 
ATOM      3  C   LIG    1       25.464 -20.516   5.226  0.00  0.00    +0.012 C 
ATOM      4  C   LIG    1       24.234 -21.434   5.313  0.00  0.00    -0.007 C 
ATOM      5  C   LIG    1       24.693 -22.894   5.415  0.00  0.00    +0.038 C 
ATOM      6  C   LIG    1       25.542 -23.081   6.681  0.00  0.00    +0.067 C 
ATOM      7  C   LIG    1       24.722 -22.715   7.923  0.00  0.00    +0.038 C 
ATOM      8  C   LIG    1       24.273 -21.252   7.830  0.00  0.00    -0.007 C 
ATOM      9  C   LIG    1       23.419 -21.067   6.563  0.00  0.00    +0.007 C 
ATOM     10  C   LIG    1       26.767 -22.163   6.596  0.00  0.00    +0.043 C 
ATOM     11  C   LIG    1       25.513 -20.338   7.742  0.00  0.00    +0.012 C 
BRANCH   6  12
ATOM     12  O   LIG    1       25.992 -24.424   6.781  0.00  0.00    -0.389 OA
ATOM     13  H   LIG    1       25.622 -24.919   6.029  0.00  0.00    +0.210 HD
ENDBRANCH   6  12
ENDBRANCH   1   2
BRANCH   1  16
ATOM     14  C   LIG    1       31.133 -20.205   8.101  0.00  0.00    +0.179 C 
ATOM     15  N   LIG    1       29.813 -19.659   7.705  0.00  0.00    -0.281 N 
ATOM     16  C   LIG    1       28.943 -20.405   6.939  0.00  0.00    +0.234 C 
ATOM     17  O   LIG    1       29.227 -21.564   6.611  0.00  0.00    -0.274 OA
ATOM     18  C   LIG    1       29.677 -18.301   8.150  0.00  0.00    +0.081 C 
ATOM     19  C   LIG    1       30.977 -17.853   8.752  0.00  0.00    +0.014 C 
ATOM     20  C   LIG    1       29.751 -17.953   9.614  0.00  0.00    +0.028 C 
ATOM     21  C   LIG    1       31.953 -18.988   8.590  0.00  0.00    +0.043 C 
BRANCH  14  23
ATOM     22  N   LIG    1       30.918 -22.052   9.968  0.00  0.00    -0.195 NA
ATOM     23  C   LIG    1       31.019 -21.224   9.169  0.00  0.00    +0.085 C 
ENDBRANCH  14  23
ENDBRANCH   1  16
BRANCH   1  24
ATOM     24  N   LIG    1       27.887 -19.274   5.034  0.00  0.00    -0.320 NA
ATOM     25  H   LIG    1       27.269 -19.790   4.404  0.00  0.00    +0.119 HD
ATOM     26  H   LIG    1       27.520 -18.318   4.969  0.00  0.00    +0.119 HD
ENDBRANCH   1  24
TORSDOF 5
ENDMDL
MODEL 3
REMARK VINA RESULT:      -6.8      2.236      6.479
REMARK  Name = *****
REMARK                            x       y       z     vdW  Elec       q    Type
REMARK                         _______ _______ _______ _____ _____    ______ ____
ROOT
ATOM      1  C   LIG    1       27.746 -20.704   5.995  0.00  0.00    +0.144 C 
ENDROOT
BRANCH   1   2
ATOM      2  C   LIG    1       28.847 -20.113   6.934  0.00  0.00    -0.003 C 
ATOM      3  C   LIG    1       28.253 -19.496   8.231  0.00  0.00    +0.012 C 
ATOM      4  C   LIG    1       29.358 -18.919   9.131  0.00  0.00    -0.007 C 
ATOM      5  C   LIG    1       30.336 -20.036   9.517  0.00  0.00    +0.038 C 
ATOM      6  C   LIG    1       30.980 -20.619   8.250  0.00  0.00    +0.067 C 
ATOM      7  C   LIG    1       31.733 -19.522   7.490  0.00  0.00    +0.038 C 
ATOM      8  C   LIG    1       30.754 -18.410   7.091  0.00  0.00    -0.007 C 
ATOM      9  C   LIG    1       30.113 -17.824   8.361  0.00  0.00    +0.007 C 
ATOM     10  C   LIG    1       29.877 -21.192   7.353  0.00  0.00    +0.043 C 
ATOM     11  C   LIG    1       29.648 -18.997   6.190  0.00  0.00    +0.012 C 
BRANCH   6  12
ATOM     12  O   LIG    1       31.875 -21.669   8.589  0.00  0.00    -0.389 OA
ATOM     13  H   LIG    1       32.738 -21.269   8.796  0.00  0.00    +0.210 HD
ENDBRANCH   6  12
ENDBRANCH   1   2
BRANCH   1  16
ATOM     14  C   LIG    1       23.941 -21.066   6.827  0.00  0.00    +0.179 C 
ATOM     15  N   LIG    1       25.218 -20.822   6.116  0.00  0.00    -0.281 N 
ATOM     16  C   LIG    1       26.425 -21.107   6.718  0.00  0.00    +0.234 C 
ATOM     17  O   LIG    1       26.463 -21.620   7.843  0.00  0.00    -0.274 OA
ATOM     18  C   LIG    1       24.975 -20.202   4.844  0.00  0.00    +0.081 C 
ATOM     19  C   LIG    1       23.511 -19.891   4.726  0.00  0.00    +0.014 C 
ATOM     20  C   LIG    1       24.139 -20.888   3.794  0.00  0.00    +0.028 C 
ATOM     21  C   LIG    1       22.869 -20.287   6.029  0.00  0.00    +0.043 C 
BRANCH  14  23
ATOM     22  N   LIG    1       23.338 -23.631   6.894  0.00  0.00    -0.195 NA
ATOM     23  C   LIG    1       23.603 -22.506   6.892  0.00  0.00    +0.085 C 
ENDBRANCH  14  23
ENDBRANCH   1  16
BRANCH   1  24
ATOM     24  N   LIG    1       27.384 -19.739   4.920  0.00  0.00    -0.320 NA
ATOM     25  H   LIG    1       27.739 -20.104   4.033  0.00  0.00    +0.119 HD
ATOM     26  H   LIG    1       26.368 -19.801   4.792  0.00  0.00    +0.119 HD
ENDBRANCH   1  24
TORSDOF 5
ENDMDL
MODEL 4
REMARK VINA RESULT:      -6.8      1.899      3.174
REMARK  Name = *****
REMARK                            x       y       z     vdW  Elec       q    Type
REMARK                         _______ _______ _______ _____ _____    ______ ____
ROOT
ATOM      1  C   LIG    1       26.668 -21.696   8.133  0.00  0.00    +0.144 C 
ENDROOT
BRANCH   1   2
ATOM      2  C   LIG    1       25.548 -22.211   7.173  0.00  0.00    -0.003 C 
ATOM      3  C   LIG    1       25.712 -21.671   5.725  0.00  0.00    +0.012 C 
ATOM      4  C   LIG    1       24.594 -22.190   4.807  0.00  0.00    -0.007 C 
ATOM      5  C   LIG    1       24.635 -23.723   4.771  0.00  0.00    +0.038 C 
ATOM      6  C   LIG    1       24.415 -24.280   6.185  0.00  0.00    +0.067 C 
ATOM      7  C   LIG    1       23.057 -23.818   6.726  0.00  0.00    +0.038 C 
ATOM      8  C   LIG    1       23.019 -22.286   6.777  0.00  0.00    -0.007 C 
ATOM      9  C   LIG    1       23.235 -21.730   5.358  0.00  0.00    +0.007 C 
ATOM     10  C   LIG    1       25.529 -23.759   7.101  0.00  0.00    +0.043 C 
ATOM     11  C   LIG    1       24.144 -21.772   7.698  0.00  0.00    +0.012 C 
BRANCH   6  12
ATOM     12  O   LIG    1       24.470 -25.699   6.173  0.00  0.00    -0.389 OA
ATOM     13  H   LIG    1       25.385 -25.963   6.375  0.00  0.00    +0.210 HD
ENDBRANCH   6  12
ENDBRANCH   1   2
BRANCH   1  16
ATOM     14  C   LIG    1       29.410 -18.944   7.672  0.00  0.00    +0.179 C 
ATOM     15  N   LIG    1       28.718 -20.211   8.004  0.00  0.00    -0.281 N 
ATOM     16  C   LIG    1       27.403 -20.411   7.643  0.00  0.00    +0.234 C 
ATOM     17  O   LIG    1       26.791 -19.557   6.990  0.00  0.00    -0.274 OA
ATOM     18  C   LIG    1       29.573 -21.063   8.782  0.00  0.00    +0.081 C 
ATOM     19  C   LIG    1       30.835 -20.319   9.107  0.00  0.00    +0.014 C 
ATOM     20  C   LIG    1       30.894 -21.542   8.238  0.00  0.00    +0.028 C 
ATOM     21  C   LIG    1       30.685 -18.928   8.549  0.00  0.00    +0.043 C 
BRANCH  14  23
ATOM     22  N   LIG    1       30.042 -18.740   5.122  0.00  0.00    -0.195 NA
ATOM     23  C   LIG    1       29.759 -18.856   6.236  0.00  0.00    +0.085 C 
ENDBRANCH  14  23
ENDBRANCH   1  16
BRANCH   1  24
ATOM     24  N   LIG    1       26.121 -21.400   9.487  0.00  0.00    -0.320 NA
ATOM     25  H   LIG    1       25.108 -21.536   9.456  0.00  0.00    +0.119 HD
ATOM     26  H   LIG    1       26.426 -22.159  10.106  0.00  0.00    +0.119 HD
ENDBRANCH   1  24
TORSDOF 5
ENDMDL
MODEL 5
REMARK VINA RESULT:      -6.7      1.346      1.698
REMARK  Name = *****
REMARK                            x       y       z     vdW  Elec       q    Type
REMARK                         _______ _______ _______ _____ _____    ______ ____
ROOT
ATOM      1  C   LIG    1       26.715 -21.145   8.478  0.00  0.00    +0.144 C 
ENDROOT
BRANCH   1   2
ATOM      2  C   LIG    1       25.636 -21.287   7.357  0.00  0.00    -0.003 C 
ATOM      3  C   LIG    1       24.300 -20.584   7.726  0.00  0.00    +0.012 C 
ATOM      4  C   LIG    1       23.258 -20.746   6.607  0.00  0.00    -0.007 C 
ATOM      5  C   LIG    1       23.801 -20.128   5.312  0.00  0.00    +0.038 C 
ATOM      6  C   LIG    1       25.091 -20.851   4.897  0.00  0.00    +0.067 C 
ATOM      7  C   LIG    1       24.811 -22.341   4.675  0.00  0.00    +0.038 C 
ATOM      8  C   LIG    1       24.281 -22.963   5.972  0.00  0.00    -0.007 C 
ATOM      9  C   LIG    1       22.986 -22.242   6.385  0.00  0.00    +0.007 C 
ATOM     10  C   LIG    1       26.129 -20.692   6.014  0.00  0.00    +0.043 C 
ATOM     11  C   LIG    1       25.331 -22.796   7.090  0.00  0.00    +0.012 C 
BRANCH   6  12
ATOM     12  O   LIG    1       25.618 -20.278   3.709  0.00  0.00    -0.389 OA
ATOM     13  H   LIG    1       25.005 -20.486   2.981  0.00  0.00    +0.210 HD
ENDBRANCH   6  12
ENDBRANCH   1   2
BRANCH   1  16
ATOM     14  C   LIG    1       30.432 -20.510   7.435  0.00  0.00    +0.179 C 
ATOM     15  N   LIG    1       29.072 -20.346   8.001  0.00  0.00    -0.281 N 
ATOM     16  C   LIG    1       28.179 -21.396   8.005  0.00  0.00    +0.234 C 
ATOM     17  O   LIG    1       28.513 -22.510   7.583  0.00  0.00    -0.274 OA
ATOM     18  C   LIG    1       28.859 -18.987   8.413  0.00  0.00    +0.081 C 
ATOM     19  C   LIG    1       30.046 -18.164   8.005  0.00  0.00    +0.014 C 
ATOM     20  C   LIG    1       29.732 -18.349   9.463  0.00  0.00    +0.028 C 
ATOM     21  C   LIG    1       30.978 -19.075   7.251  0.00  0.00    +0.043 C 
BRANCH  14  23
ATOM     22  N   LIG    1       31.975 -21.907   9.052  0.00  0.00    -0.195 NA
ATOM     23  C   LIG    1       31.316 -21.298   8.323  0.00  0.00    +0.085 C 
ENDBRANCH  14  23
ENDBRANCH   1  16
BRANCH   1  24
ATOM     24  N   LIG    1       26.677 -19.788   9.091  0.00  0.00    -0.320 NA
ATOM     25  H   LIG    1       25.720 -19.608   9.403  0.00  0.00    +0.119 HD
ATOM     26  H   LIG    1       27.190 -19.845   9.977  0.00  0.00    +0.119 HD
ENDBRANCH   1  24
TORSDOF 5
ENDMDL
MODEL 6
REMARK VINA RESULT:      -6.6      1.622      2.627
REMARK  Name = *****
REMARK                            x       y       z     vdW  Elec       q    Type
REMARK                         _______ _______ _______ _____ _____    ______ ____
ROOT
ATOM      1  C   LIG    1       26.757 -21.699   8.049  0.00  0.00    +0.144 C 
ENDROOT
BRANCH   1   2
ATOM      2  C   LIG    1       25.574 -22.184   7.150  0.00  0.00    -0.003 C 
ATOM      3  C   LIG    1       24.188 -21.926   7.803  0.00  0.00    +0.012 C 
ATOM      4  C   LIG    1       23.046 -22.419   6.899  0.00  0.00    -0.007 C 
ATOM      5  C   LIG    1       23.106 -21.680   5.555  0.00  0.00    +0.038 C 
ATOM      6  C   LIG    1       24.447 -21.971   4.865  0.00  0.00    +0.067 C 
ATOM      7  C   LIG    1       24.601 -23.477   4.628  0.00  0.00    +0.038 C 
ATOM      8  C   LIG    1       24.555 -24.216   5.971  0.00  0.00    -0.007 C 
ATOM      9  C   LIG    1       23.209 -23.928   6.659  0.00  0.00    +0.007 C 
ATOM     10  C   LIG    1       25.585 -21.483   5.769  0.00  0.00    +0.043 C 
ATOM     11  C   LIG    1       25.702 -23.716   6.873  0.00  0.00    +0.012 C 
BRANCH   6  12
ATOM     12  O   LIG    1       24.527 -21.279   3.628  0.00  0.00    -0.389 OA
ATOM     13  H   LIG    1       25.460 -21.051   3.474  0.00  0.00    +0.210 HD
ENDBRANCH   6  12
ENDBRANCH   1   2
BRANCH   1  16
ATOM     14  C   LIG    1       29.413 -18.862   7.597  0.00  0.00    +0.179 C 
ATOM     15  N   LIG    1       28.758 -20.149   7.933  0.00  0.00    -0.281 N 
ATOM     16  C   LIG    1       27.455 -20.396   7.556  0.00  0.00    +0.234 C 
ATOM     17  O   LIG    1       26.825 -19.569   6.885  0.00  0.00    -0.274 OA
ATOM     18  C   LIG    1       29.630 -20.963   8.732  0.00  0.00    +0.081 C 
ATOM     19  C   LIG    1       30.862 -20.174   9.067  0.00  0.00    +0.014 C 
ATOM     20  C   LIG    1       30.973 -21.404   8.211  0.00  0.00    +0.028 C 
ATOM     21  C   LIG    1       30.673 -18.795   8.491  0.00  0.00    +0.043 C 
BRANCH  14  23
ATOM     22  N   LIG    1       30.061 -18.664   5.050  0.00  0.00    -0.195 NA
ATOM     23  C   LIG    1       29.779 -18.778   6.165  0.00  0.00    +0.085 C 
ENDBRANCH  14  23
ENDBRANCH   1  16
BRANCH   1  24
ATOM     24  N   LIG    1       26.302 -21.452   9.447  0.00  0.00    -0.320 NA
ATOM     25  H   LIG    1       25.948 -20.495   9.501  0.00  0.00    +0.119 HD
ATOM     26  H   LIG    1       25.453 -22.010   9.588  0.00  0.00    +0.119 HD
ENDBRANCH   1  24
TORSDOF 5
ENDMDL
MODEL 7
REMARK VINA RESULT:      -6.4      2.116      6.700
REMARK  Name = *****
REMARK                            x       y       z     vdW  Elec       q    Type
REMARK                         _______ _______ _______ _____ _____    ______ ____
ROOT
ATOM      1  C   LIG    1       27.282 -20.586   7.415  0.00  0.00    +0.144 C 
ENDROOT
BRANCH   1   2
ATOM      2  C   LIG    1       28.675 -19.993   7.804  0.00  0.00    -0.003 C 
ATOM      3  C   LIG    1       28.612 -19.122   9.090  0.00  0.00    +0.012 C 
ATOM      4  C   LIG    1       29.994 -18.549   9.443  0.00  0.00    -0.007 C 
ATOM      5  C   LIG    1       30.980 -19.702   9.673  0.00  0.00    +0.038 C 
ATOM      6  C   LIG    1       31.102 -20.541   8.392  0.00  0.00    +0.067 C 
ATOM      7  C   LIG    1       31.600 -19.666   7.236  0.00  0.00    +0.038 C 
ATOM      8  C   LIG    1       30.609 -18.521   6.995  0.00  0.00    -0.007 C 
ATOM      9  C   LIG    1       30.491 -17.678   8.278  0.00  0.00    +0.007 C 
ATOM     10  C   LIG    1       29.723 -21.109   8.039  0.00  0.00    +0.043 C 
ATOM     11  C   LIG    1       29.224 -19.103   6.643  0.00  0.00    +0.012 C 
BRANCH   6  12
ATOM     12  O   LIG    1       31.997 -21.625   8.594  0.00  0.00    -0.389 OA
ATOM     13  H   LIG    1       32.563 -21.694   7.806  0.00  0.00    +0.210 HD
ENDBRANCH   6  12
ENDBRANCH   1   2
BRANCH   1  16
ATOM     14  C   LIG    1       25.133 -20.450   4.149  0.00  0.00    +0.179 C 
ATOM     15  N   LIG    1       25.548 -20.553   5.568  0.00  0.00    -0.281 N 
ATOM     16  C   LIG    1       26.857 -20.329   5.938  0.00  0.00    +0.234 C 
ATOM     17  O   LIG    1       27.699 -19.988   5.099  0.00  0.00    -0.274 OA
ATOM     18  C   LIG    1       24.447 -20.983   6.384  0.00  0.00    +0.081 C 
ATOM     19  C   LIG    1       23.282 -21.311   5.496  0.00  0.00    +0.014 C 
ATOM     20  C   LIG    1       23.180 -20.171   6.469  0.00  0.00    +0.028 C 
ATOM     21  C   LIG    1       23.746 -21.130   4.074  0.00  0.00    +0.043 C 
BRANCH  14  23
ATOM     22  N   LIG    1       25.007 -17.934   3.375  0.00  0.00    -0.195 NA
ATOM     23  C   LIG    1       25.055 -19.045   3.689  0.00  0.00    +0.085 C 
ENDBRANCH  14  23
ENDBRANCH   1  16
BRANCH   1  24
ATOM     24  N   LIG    1       27.246 -22.059   7.634  0.00  0.00    -0.320 NA
ATOM     25  H   LIG    1       26.375 -22.417   7.236  0.00  0.00    +0.119 HD
ATOM     26  H   LIG    1       27.956 -22.470   7.019  0.00  0.00    +0.119 HD
ENDBRANCH   1  24
TORSDOF 5
ENDMDL
MODEL 8
REMARK VINA RESULT:      -6.2      2.512      6.282
REMARK  Name = *****
REMARK                            x       y       z     vdW  Elec       q    Type
REMARK                         _______ _______ _______ _____ _____    ______ ____
ROOT
ATOM      1  C   LIG    1       26.056 -20.540   8.244  0.00  0.00    +0.144 C 
ENDROOT
BRANCH   1   2
ATOM      2  C   LIG    1       27.511 -20.267   7.743  0.00  0.00    -0.003 C 
ATOM      3  C   LIG    1       28.297 -21.577   7.458  0.00  0.00    +0.012 C 
ATOM      4  C   LIG    1       29.725 -21.275   6.973  0.00  0.00    -0.007 C 
ATOM      5  C   LIG    1       29.660 -20.446   5.684  0.00  0.00    +0.038 C 
ATOM      6  C   LIG    1       28.938 -19.119   5.959  0.00  0.00    +0.067 C 
ATOM      7  C   LIG    1       29.685 -18.328   7.038  0.00  0.00    +0.038 C 
ATOM      8  C   LIG    1       29.739 -19.149   8.333  0.00  0.00    -0.007 C 
ATOM      9  C   LIG    1       30.466 -20.477   8.057  0.00  0.00    +0.007 C 
ATOM     10  C   LIG    1       27.516 -19.420   6.446  0.00  0.00    +0.043 C 
ATOM     11  C   LIG    1       28.304 -19.449   8.812  0.00  0.00    +0.012 C 
BRANCH   6  12
ATOM     12  O   LIG    1       28.853 -18.347   4.770  0.00  0.00    -0.389 OA
ATOM     13  H   LIG    1       29.750 -18.268   4.401  0.00  0.00    +0.210 HD
ENDBRANCH   6  12
ENDBRANCH   1   2
BRANCH   1  16
ATOM     14  C   LIG    1       23.765 -23.343   6.760  0.00  0.00    +0.179 C 
ATOM     15  N   LIG    1       24.410 -22.036   7.030  0.00  0.00    -0.281 N 
ATOM     16  C   LIG    1       25.496 -21.947   7.874  0.00  0.00    +0.234 C 
ATOM     17  O   LIG    1       25.985 -22.964   8.381  0.00  0.00    -0.274 OA
ATOM     18  C   LIG    1       23.690 -20.976   6.381  0.00  0.00    +0.081 C 
ATOM     19  C   LIG    1       22.448 -21.543   5.757  0.00  0.00    +0.014 C 
ATOM     20  C   LIG    1       23.521 -20.957   4.884  0.00  0.00    +0.028 C 
ATOM     21  C   LIG    1       22.399 -23.004   6.117  0.00  0.00    +0.043 C 
BRANCH  14  23
ATOM     22  N   LIG    1       25.216 -24.812   5.122  0.00  0.00    -0.195 NA
ATOM     23  C   LIG    1       24.575 -24.190   5.855  0.00  0.00    +0.085 C 
ENDBRANCH  14  23
ENDBRANCH   1  16
BRANCH   1  24
ATOM     24  N   LIG    1       25.964 -20.406   9.725  0.00  0.00    -0.320 NA
ATOM     25  H   LIG    1       26.543 -21.136  10.146  0.00  0.00    +0.119 HD
ATOM     26  H   LIG    1       26.469 -19.550   9.980  0.00  0.00    +0.119 HD
ENDBRANCH   1  24
TORSDOF 5
ENDMDL
MODEL 9
REMARK VINA RESULT:      -6.0      2.505      6.441
REMARK  Name = *****
REMARK                            x       y       z     vdW  Elec       q    Type
REMARK                         _______ _______ _______ _____ _____    ______ ____
ROOT
ATOM      1  C   LIG    1       26.032 -20.538   8.284  0.00  0.00    +0.144 C 
ENDROOT
BRANCH   1   2
ATOM      2  C   LIG    1       27.482 -20.254   7.775  0.00  0.00    -0.003 C 
ATOM      3  C   LIG    1       27.501 -19.647   6.345  0.00  0.00    +0.012 C 
ATOM      4  C   LIG    1       28.940 -19.385   5.870  0.00  0.00    -0.007 C 
ATOM      5  C   LIG    1       29.623 -18.405   6.832  0.00  0.00    +0.038 C 
ATOM      6  C   LIG    1       29.668 -19.012   8.242  0.00  0.00    +0.067 C 
ATOM      7  C   LIG    1       30.445 -20.333   8.221  0.00  0.00    +0.038 C 
ATOM      8  C   LIG    1       29.756 -21.319   7.270  0.00  0.00    -0.007 C 
ATOM      9  C   LIG    1       29.716 -20.711   5.857  0.00  0.00    +0.007 C 
ATOM     10  C   LIG    1       28.233 -19.277   8.713  0.00  0.00    +0.043 C 
ATOM     11  C   LIG    1       28.313 -21.576   7.752  0.00  0.00    +0.012 C 
BRANCH   6  12
ATOM     12  O   LIG    1       30.281 -18.108   9.151  0.00  0.00    -0.389 OA
ATOM     13  H   LIG    1       30.558 -17.323   8.647  0.00  0.00    +0.210 HD
ENDBRANCH   6  12
ENDBRANCH   1   2
BRANCH   1  16
ATOM     14  C   LIG    1       23.741 -23.303   6.732  0.00  0.00    +0.179 C 
ATOM     15  N   LIG    1       24.391 -22.004   7.028  0.00  0.00    -0.281 N 
ATOM     16  C   LIG    1       25.467 -21.935   7.888  0.00  0.00    +0.234 C 
ATOM     17  O   LIG    1       25.942 -22.963   8.387  0.00  0.00    -0.274 OA
ATOM     18  C   LIG    1       23.688 -20.931   6.384  0.00  0.00    +0.081 C 
ATOM     19  C   LIG    1       22.450 -21.480   5.736  0.00  0.00    +0.014 C 
ATOM     20  C   LIG    1       23.539 -20.890   4.885  0.00  0.00    +0.028 C 
ATOM     21  C   LIG    1       22.386 -22.945   6.077  0.00  0.00    +0.043 C 
BRANCH  14  23
ATOM     22  N   LIG    1       25.151 -24.816   5.100  0.00  0.00    -0.195 NA
ATOM     23  C   LIG    1       24.556 -24.144   5.827  0.00  0.00    +0.085 C 
ENDBRANCH  14  23
ENDBRANCH   1  16
BRANCH   1  24
ATOM     24  N   LIG    1       25.955 -20.437   9.769  0.00  0.00    -0.320 NA
ATOM     25  H   LIG    1       26.490 -19.615  10.059  0.00  0.00    +0.119 HD
ATOM     26  H   LIG    1       24.993 -20.167  10.001  0.00  0.00    +0.119 HD
ENDBRANCH   1  24
TORSDOF 5
ENDMDL
