MODEL 1
REMARK VINA RESULT:      -7.1      0.000      0.000
REMARK  Name = *****
REMARK                            x       y       z     vdW  Elec       q    Type
REMARK                         _______ _______ _______ _____ _____    ______ ____
ROOT
ATOM      1  N   LIG    1       29.206 -20.952   7.357  0.00  0.00    -0.155 NA
ATOM      2  C   LIG    1       29.969 -20.164   8.042  0.00  0.00    +0.184 C 
ATOM      3  N   LIG    1       31.072 -20.569   8.768  0.00  0.00    -0.244 N 
ATOM      4  C   LIG    1       31.462 -21.958   8.897  0.00  0.00    +0.175 C 
ATOM      5  N   LIG    1       31.774 -19.632   9.485  0.00  0.00    -0.141 NA
ATOM      6  C   LIG    1       31.212 -18.470   9.289  0.00  0.00    +0.254 C 
ATOM      7  S   LIG    1       29.785 -18.429   8.265  0.00  0.00    -0.011 S 
ENDROOT
BRANCH   1   9
ATOM      8  C   LIG    1       26.823 -20.661   7.273  0.00  0.00    +0.111 C 
ATOM      9  C   LIG    1       28.165 -20.447   6.624  0.00  0.00    +0.235 C 
ATOM     10  O   LIG    1       28.255 -19.995   5.489  0.00  0.00    -0.274 OA
ENDBRANCH   1   9
BRANCH   6  11
ATOM     11  S   LIG    1       31.899 -17.021  10.063  0.00  0.00    +0.081 S 
ATOM     12  O   LIG    1       32.948 -17.486  10.945  0.00  0.00    -0.151 OA
ATOM     13  O   LIG    1       30.784 -16.222  10.514  0.00  0.00    -0.151 OA
BRANCH  11  14
ATOM     14  N   LIG    1       32.662 -16.127   8.836  0.00  0.00    -0.202 NA
ATOM     15  H   LIG    1       32.804 -15.156   9.114  0.00  0.00    +0.144 HD
ATOM     16  H   LIG    1       33.515 -16.590   8.520  0.00  0.00    +0.144 HD
ENDBRANCH  11  14
ENDBRANCH   6  11
TORSDOF 3
ENDMDL
MODEL 2
REMARK VINA RESULT:      -6.7      3.003      3.865
REMARK  Name = *****
REMARK                            x       y       z     vdW  Elec       q    Type
REMARK                         _______ _______ _______ _____ _____    ______ ____
ROOT
ATOM      1  N   LIG    1       26.964 -20.315   6.092  0.00  0.00    -0.155 NA
ATOM      2  C   LIG    1       28.076 -20.429   6.742  0.00  0.00    +0.184 C 
ATOM      3  N   LIG    1       29.196 -19.648   6.532  0.00  0.00    -0.244 N 
ATOM      4  C   LIG    1       29.269 -18.642   5.493  0.00  0.00    +0.175 C 
ATOM      5  N   LIG    1       30.328 -19.901   7.267  0.00  0.00    -0.141 NA
ATOM      6  C   LIG    1       30.067 -20.888   8.082  0.00  0.00    +0.254 C 
ATOM      7  S   LIG    1       28.464 -21.602   7.995  0.00  0.00    -0.011 S 
ENDROOT
BRANCH   1   9
ATOM      8  C   LIG    1       25.158 -20.637   7.642  0.00  0.00    +0.111 C 
ATOM      9  C   LIG    1       25.889 -21.102   6.410  0.00  0.00    +0.235 C 
ATOM     10  O   LIG    1       25.605 -22.162   5.866  0.00  0.00    -0.274 OA
ENDBRANCH   1   9
BRANCH   6  11
ATOM     11  S   LIG    1       31.327 -21.454   9.206  0.00  0.00    +0.081 S 
ATOM     12  O   LIG    1       30.637 -22.046  10.331  0.00  0.00    -0.151 OA
ATOM     13  O   LIG    1       32.279 -20.376   9.341  0.00  0.00    -0.151 OA
BRANCH  11  14
ATOM     14  N   LIG    1       32.148 -22.719   8.423  0.00  0.00    -0.202 NA
ATOM     15  H   LIG    1       32.408 -22.463   7.470  0.00  0.00    +0.144 HD
ATOM     16  H   LIG    1       32.933 -23.051   8.984  0.00  0.00    +0.144 HD
ENDBRANCH  11  14
ENDBRANCH   6  11
TORSDOF 3
ENDMDL
MODEL 3
REMARK VINA RESULT:      -6.4      5.695      8.606
REMARK  Name = *****
REMARK                            x       y       z     vdW  Elec       q    Type
REMARK                         _______ _______ _______ _____ _____    ______ ____
ROOT
ATOM      1  N   LIG    1       25.625 -20.701   7.014  0.00  0.00    -0.155 NA
ATOM      2  C   LIG    1       25.500 -21.910   6.571  0.00  0.00    +0.184 C 
ATOM      3  N   LIG    1       24.852 -22.259   5.403  0.00  0.00    -0.244 N 
ATOM      4  C   LIG    1       24.170 -21.295   4.564  0.00  0.00    +0.175 C 
ATOM      5  N   LIG    1       24.757 -23.588   5.068  0.00  0.00    -0.141 NA
ATOM      6  C   LIG    1       25.368 -24.280   5.992  0.00  0.00    +0.254 C 
ATOM      7  S   LIG    1       26.062 -23.390   7.338  0.00  0.00    -0.011 S 
ENDROOT
BRANCH   1   9
ATOM      8  C   LIG    1       27.799 -20.209   7.908  0.00  0.00    +0.111 C 
ATOM      9  C   LIG    1       26.334 -20.450   8.158  0.00  0.00    +0.235 C 
ATOM     10  O   LIG    1       25.893 -20.548   9.298  0.00  0.00    -0.274 OA
ENDBRANCH   1   9
BRANCH   6  11
ATOM     11  S   LIG    1       25.453 -26.053   5.846  0.00  0.00    +0.081 S 
ATOM     12  O   LIG    1       25.974 -26.543   7.104  0.00  0.00    -0.151 OA
ATOM     13  O   LIG    1       26.070 -26.336   4.572  0.00  0.00    -0.151 OA
BRANCH  11  14
ATOM     14  N   LIG    1       23.853 -26.611   5.736  0.00  0.00    -0.202 NA
ATOM     15  H   LIG    1       23.719 -27.473   6.266  0.00  0.00    +0.144 HD
ATOM     16  H   LIG    1       23.189 -25.876   5.981  0.00  0.00    +0.144 HD
ENDBRANCH  11  14
ENDBRANCH   6  11
TORSDOF 3
ENDMDL
MODEL 4
REMARK VINA RESULT:      -6.1      3.479      5.370
REMARK  Name = *****
REMARK                            x       y       z     vdW  Elec       q    Type
REMARK                         _______ _______ _______ _____ _____    ______ ____
ROOT
ATOM      1  N   LIG    1       24.316 -21.424   6.109  0.00  0.00    -0.155 NA
ATOM      2  C   LIG    1       25.519 -20.991   6.304  0.00  0.00    +0.184 C 
ATOM      3  N   LIG    1       26.233 -20.217   5.410  0.00  0.00    -0.244 N 
ATOM      4  C   LIG    1       25.726 -19.857   4.102  0.00  0.00    +0.175 C 
ATOM      5  N   LIG    1       27.520 -19.857   5.726  0.00  0.00    -0.141 NA
ATOM      6  C   LIG    1       27.798 -20.347   6.904  0.00  0.00    +0.254 C 
ATOM      7  S   LIG    1       26.552 -21.300   7.694  0.00  0.00    -0.011 S 
ENDROOT
BRANCH   1   9
ATOM      8  C   LIG    1       23.577 -23.611   6.771  0.00  0.00    +0.111 C 
ATOM      9  C   LIG    1       23.669 -22.140   7.081  0.00  0.00    +0.235 C 
ATOM     10  O   LIG    1       23.084 -21.657   8.043  0.00  0.00    -0.274 OA
ENDBRANCH   1   9
BRANCH   6  11
ATOM     11  S   LIG    1       29.396 -20.038   7.627  0.00  0.00    +0.081 S 
ATOM     12  O   LIG    1       29.176 -19.136   8.737  0.00  0.00    -0.151 OA
ATOM     13  O   LIG    1       30.296 -19.745   6.537  0.00  0.00    -0.151 OA
BRANCH  11  14
ATOM     14  N   LIG    1       29.921 -21.508   8.297  0.00  0.00    -0.202 NA
ATOM     15  H   LIG    1       30.078 -21.427   9.302  0.00  0.00    +0.144 HD
ATOM     16  H   LIG    1       29.294 -22.273   8.044  0.00  0.00    +0.144 HD
ENDBRANCH  11  14
ENDBRANCH   6  11
TORSDOF 3
ENDMDL
MODEL 5
REMARK VINA RESULT:      -5.9      6.438      9.118
REMARK  Name = *****
REMARK                            x       y       z     vdW  Elec       q    Type
REMARK                         _______ _______ _______ _____ _____    ______ ____
ROOT
ATOM      1  N   LIG    1       24.467 -21.695   7.610  0.00  0.00    -0.155 NA
ATOM      2  C   LIG    1       24.544 -22.926   7.221  0.00  0.00    +0.184 C 
ATOM      3  N   LIG    1       23.487 -23.665   6.729  0.00  0.00    -0.244 N 
ATOM      4  C   LIG    1       22.134 -23.152   6.658  0.00  0.00    +0.175 C 
ATOM      5  N   LIG    1       23.698 -24.979   6.387  0.00  0.00    -0.141 NA
ATOM      6  C   LIG    1       24.957 -25.253   6.599  0.00  0.00    +0.254 C 
ATOM      7  S   LIG    1       25.961 -23.970   7.257  0.00  0.00    -0.011 S 
ENDROOT
BRANCH   1   9
ATOM      8  C   LIG    1       26.437 -20.517   6.900  0.00  0.00    +0.111 C 
ATOM      9  C   LIG    1       25.586 -21.029   8.033  0.00  0.00    +0.235 C 
ATOM     10  O   LIG    1       25.971 -20.961   9.195  0.00  0.00    -0.274 OA
ENDBRANCH   1   9
BRANCH   6  11
ATOM     11  S   LIG    1       25.574 -26.882   6.230  0.00  0.00    +0.081 S 
ATOM     12  O   LIG    1       24.641 -27.471   5.293  0.00  0.00    -0.151 OA
ATOM     13  O   LIG    1       25.918 -27.492   7.492  0.00  0.00    -0.151 OA
BRANCH  11  14
ATOM     14  N   LIG    1       27.035 -26.672   5.388  0.00  0.00    -0.202 NA
ATOM     15  H   LIG    1       27.740 -27.345   5.689  0.00  0.00    +0.144 HD
ATOM     16  H   LIG    1       26.881 -26.666   4.379  0.00  0.00    +0.144 HD
ENDBRANCH  11  14
ENDBRANCH   6  11
TORSDOF 3
ENDMDL
MODEL 6
REMARK VINA RESULT:      -5.9      2.370      3.189
REMARK  Name = *****
REMARK                            x       y       z     vdW  Elec       q    Type
REMARK                         _______ _______ _______ _____ _____    ______ ____
ROOT
ATOM      1  N   LIG    1       27.092 -20.473   6.203  0.00  0.00    -0.155 NA
ATOM      2  C   LIG    1       28.156 -19.951   6.722  0.00  0.00    +0.184 C 
ATOM      3  N   LIG    1       28.892 -18.930   6.153  0.00  0.00    -0.244 N 
ATOM      4  C   LIG    1       28.582 -18.367   4.854  0.00  0.00    +0.175 C 
ATOM      5  N   LIG    1       30.027 -18.494   6.791  0.00  0.00    -0.141 NA
ATOM      6  C   LIG    1       30.158 -19.181   7.894  0.00  0.00    +0.254 C 
ATOM      7  S   LIG    1       28.954 -20.419   8.219  0.00  0.00    -0.011 S 
ENDROOT
BRANCH   1   9
ATOM      8  C   LIG    1       25.304 -20.901   7.748  0.00  0.00    +0.111 C 
ATOM      9  C   LIG    1       26.400 -21.447   6.872  0.00  0.00    +0.235 C 
ATOM     10  O   LIG    1       26.701 -22.635   6.898  0.00  0.00    -0.274 OA
ENDBRANCH   1   9
BRANCH   6  11
ATOM     11  S   LIG    1       31.527 -18.844   8.981  0.00  0.00    +0.081 S 
ATOM     12  O   LIG    1       32.171 -17.653   8.470  0.00  0.00    -0.151 OA
ATOM     13  O   LIG    1       32.221 -20.095   9.176  0.00  0.00    -0.151 OA
BRANCH  11  14
ATOM     14  N   LIG    1       30.863 -18.426  10.488  0.00  0.00    -0.202 NA
ATOM     15  H   LIG    1       30.792 -17.414  10.598  0.00  0.00    +0.144 HD
ATOM     16  H   LIG    1       29.983 -18.916  10.651  0.00  0.00    +0.144 HD
ENDBRANCH  11  14
ENDBRANCH   6  11
TORSDOF 3
ENDMDL
MODEL 7
REMARK VINA RESULT:      -5.8      5.268      7.380
REMARK  Name = *****
REMARK                            x       y       z     vdW  Elec       q    Type
REMARK                         _______ _______ _______ _____ _____    ______ ____
ROOT
ATOM      1  N   LIG    1       24.157 -25.398   5.948  0.00  0.00    -0.155 NA
ATOM      2  C   LIG    1       24.521 -24.289   6.505  0.00  0.00    +0.184 C 
ATOM      3  N   LIG    1       23.658 -23.291   6.913  0.00  0.00    -0.244 N 
ATOM      4  C   LIG    1       22.227 -23.351   6.696  0.00  0.00    +0.175 C 
ATOM      5  N   LIG    1       24.181 -22.143   7.456  0.00  0.00    -0.141 NA
ATOM      6  C   LIG    1       25.481 -22.269   7.489  0.00  0.00    +0.254 C 
ATOM      7  S   LIG    1       26.163 -23.751   6.838  0.00  0.00    -0.011 S 
ENDROOT
BRANCH   1   9
ATOM      8  C   LIG    1       25.239 -27.412   6.686  0.00  0.00    +0.111 C 
ATOM      9  C   LIG    1       25.085 -26.352   5.627  0.00  0.00    +0.235 C 
ATOM     10  O   LIG    1       25.838 -26.307   4.661  0.00  0.00    -0.274 OA
ENDBRANCH   1   9
BRANCH   6  11
ATOM     11  S   LIG    1       26.472 -20.954   8.167  0.00  0.00    +0.081 S 
ATOM     12  O   LIG    1       25.834 -20.554   9.402  0.00  0.00    -0.151 OA
ATOM     13  O   LIG    1       26.743 -20.038   7.084  0.00  0.00    -0.151 OA
BRANCH  11  14
ATOM     14  N   LIG    1       27.966 -21.640   8.595  0.00  0.00    -0.202 NA
ATOM     15  H   LIG    1       28.648 -21.554   7.842  0.00  0.00    +0.144 HD
ATOM     16  H   LIG    1       28.297 -21.273   9.488  0.00  0.00    +0.144 HD
ENDBRANCH  11  14
ENDBRANCH   6  11
TORSDOF 3
ENDMDL
MODEL 8
REMARK VINA RESULT:      -5.8      3.486      5.162
REMARK  Name = *****
REMARK                            x       y       z     vdW  Elec       q    Type
REMARK                         _______ _______ _______ _____ _____    ______ ____
ROOT
ATOM      1  N   LIG    1       24.457 -21.799   5.448  0.00  0.00    -0.155 NA
ATOM      2  C   LIG    1       25.596 -21.616   6.031  0.00  0.00    +0.184 C 
ATOM      3  N   LIG    1       26.234 -22.548   6.827  0.00  0.00    -0.244 N 
ATOM      4  C   LIG    1       25.651 -23.832   7.154  0.00  0.00    +0.175 C 
ATOM      5  N   LIG    1       27.425 -22.209   7.420  0.00  0.00    -0.141 NA
ATOM      6  C   LIG    1       27.726 -20.992   7.054  0.00  0.00    +0.254 C 
ATOM      7  S   LIG    1       26.586 -20.161   6.008  0.00  0.00    -0.011 S 
ENDROOT
BRANCH   1   9
ATOM      8  C   LIG    1       22.848 -20.022   5.296  0.00  0.00    +0.111 C 
ATOM      9  C   LIG    1       23.931 -20.832   4.633  0.00  0.00    +0.235 C 
ATOM     10  O   LIG    1       24.179 -20.702   3.440  0.00  0.00    -0.274 OA
ENDBRANCH   1   9
BRANCH   6  11
ATOM     11  S   LIG    1       29.239 -20.251   7.633  0.00  0.00    +0.081 S 
ATOM     12  O   LIG    1       28.866 -19.320   8.676  0.00  0.00    -0.151 OA
ATOM     13  O   LIG    1       29.987 -19.865   6.460  0.00  0.00    -0.151 OA
BRANCH  11  14
ATOM     14  N   LIG    1       30.132 -21.486   8.383  0.00  0.00    -0.202 NA
ATOM     15  H   LIG    1       29.522 -22.201   8.779  0.00  0.00    +0.144 HD
ATOM     16  H   LIG    1       30.843 -21.860   7.754  0.00  0.00    +0.144 HD
ENDBRANCH  11  14
ENDBRANCH   6  11
TORSDOF 3
ENDMDL
MODEL 9
REMARK VINA RESULT:      -5.8      2.842      3.919
REMARK  Name = *****
REMARK                            x       y       z     vdW  Elec       q    Type
REMARK                         _______ _______ _______ _____ _____    ______ ____
ROOT
ATOM      1  N   LIG    1       25.931 -20.673   5.969  0.00  0.00    -0.155 NA
ATOM      2  C   LIG    1       27.037 -20.714   6.638  0.00  0.00    +0.184 C 
ATOM      3  N   LIG    1       27.228 -21.428   7.804  0.00  0.00    -0.244 N 
ATOM      4  C   LIG    1       26.166 -22.168   8.456  0.00  0.00    +0.175 C 
ATOM      5  N   LIG    1       28.444 -21.354   8.436  0.00  0.00    -0.141 NA
ATOM      6  C   LIG    1       29.221 -20.581   7.726  0.00  0.00    +0.254 C 
ATOM      7  S   LIG    1       28.535 -19.863   6.277  0.00  0.00    -0.011 S 
ENDROOT
BRANCH   1   9
ATOM      8  C   LIG    1       24.737 -20.443   3.898  0.00  0.00    +0.111 C 
ATOM      9  C   LIG    1       25.857 -19.979   4.791  0.00  0.00    +0.235 C 
ATOM     10  O   LIG    1       26.682 -19.161   4.400  0.00  0.00    -0.274 OA
ENDBRANCH   1   9
BRANCH   6  11
ATOM     11  S   LIG    1       30.896 -20.293   8.258  0.00  0.00    +0.081 S 
ATOM     12  O   LIG    1       30.810 -19.663   9.557  0.00  0.00    -0.151 OA
ATOM     13  O   LIG    1       31.592 -19.703   7.138  0.00  0.00    -0.151 OA
BRANCH  11  14
ATOM     14  N   LIG    1       31.600 -21.819   8.506  0.00  0.00    -0.202 NA
ATOM     15  H   LIG    1       32.355 -21.776   9.190  0.00  0.00    +0.144 HD
ATOM     16  H   LIG    1       30.891 -22.520   8.725  0.00  0.00    +0.144 HD
ENDBRANCH  11  14
ENDBRANCH   6  11
TORSDOF 3
ENDMDL
