MODEL 1
REMARK VINA RESULT:      -4.8      0.000      0.000
REMARK  Name = *****
REMARK                            x       y       z     vdW  Elec       q    Type
REMARK                         _______ _______ _______ _____ _____    ______ ____
ROOT
ATOM      1  C   LIG    1       23.778 -29.929  10.860  0.00  0.00    +0.061 A 
ATOM      2  C   LIG    1       22.656 -29.819  11.707  0.00  0.00    +0.049 A 
ATOM      3  I   LIG    1       20.810 -30.649  11.051  0.00  0.00    -0.041 I 
ATOM      4  C   LIG    1       22.786 -29.224  12.981  0.00  0.00    +0.066 A 
ATOM      5  C   LIG    1       24.069 -28.766  13.394  0.00  0.00    +0.040 A 
ATOM      6  I   LIG    1       24.495 -28.589  15.499  0.00  0.00    -0.042 I 
ATOM      7  C   LIG    1       25.155 -28.658  12.481  0.00  0.00    +0.065 A 
ATOM      8  C   LIG    1       24.983 -29.257  11.200  0.00  0.00    +0.049 A 
ATOM      9  I   LIG    1       26.389 -28.991   9.563  0.00  0.00    -0.041 I 
ENDROOT
BRANCH   1  11
ATOM     10  C   LIG    1       24.101 -32.068   9.745  0.00  0.00    +0.243 C 
ATOM     11  N   LIG    1       23.716 -30.723   9.667  0.00  0.00    -0.282 N 
ATOM     12  H   LIG    1       22.901 -30.593   9.074  0.00  0.00    +0.155 HD
ATOM     13  O   LIG    1       24.459 -32.608  10.794  0.00  0.00    -0.273 OA
BRANCH  10  14
ATOM     14  C   LIG    1       24.076 -32.828   8.405  0.00  0.00    +0.255 C 
BRANCH  14  16
ATOM     15  C   LIG    1       23.640 -32.527   6.110  0.00  0.00    +0.194 C 
ATOM     16  O   LIG    1       23.184 -32.286   7.442  0.00  0.00    -0.374 OA
ENDBRANCH  14  16
ENDBRANCH  10  14
ENDBRANCH   1  11
BRANCH   4  17
ATOM     17  C   LIG    1       21.600 -29.184  13.900  0.00  0.00    +0.248 C 
ATOM     18  N   LIG    1       20.796 -28.035  13.952  0.00  0.00    -0.298 N 
ATOM     19  C   LIG    1       21.035 -26.817  13.196  0.00  0.00    +0.132 C 
ATOM     20  O   LIG    1       21.358 -30.179  14.580  0.00  0.00    -0.270 OA
BRANCH  18  21
ATOM     21  C   LIG    1       19.707 -27.959  14.944  0.00  0.00    +0.141 C 
BRANCH  21  22
ATOM     22  C   LIG    1       18.288 -27.948  14.338  0.00  0.00    +0.157 C 
BRANCH  22  23
ATOM     23  O   LIG    1       17.611 -29.149  14.744  0.00  0.00    -0.388 OA
ATOM     24  H   LIG    1       18.221 -29.595  15.368  0.00  0.00    +0.210 HD
ENDBRANCH  22  23
BRANCH  22  25
ATOM     25  C   LIG    1       17.446 -26.757  14.786  0.00  0.00    +0.188 C 
BRANCH  25  26
ATOM     26  O   LIG    1       17.869 -25.577  14.102  0.00  0.00    -0.392 OA
ATOM     27  H   LIG    1       17.212 -24.880  14.319  0.00  0.00    +0.209 HD
ENDBRANCH  25  26
ENDBRANCH  22  25
ENDBRANCH  21  22
ENDBRANCH  18  21
ENDBRANCH   4  17
BRANCH   7  28
ATOM     28  C   LIG    1       26.403 -27.883  12.878  0.00  0.00    +0.246 C 
ATOM     29  N   LIG    1       26.303 -26.518  12.866  0.00  0.00    -0.309 N 
ATOM     30  H   LIG    1       25.357 -26.114  12.913  0.00  0.00    +0.149 HD
ATOM     31  O   LIG    1       27.454 -28.471  13.215  0.00  0.00    -0.270 OA
BRANCH  29  32
ATOM     32  C   LIG    1       27.356 -25.605  13.301  0.00  0.00    +0.138 C 
BRANCH  32  33
ATOM     33  C   LIG    1       26.982 -24.871  14.599  0.00  0.00    +0.157 C 
BRANCH  33  34
ATOM     34  O   LIG    1       27.738 -23.651  14.729  0.00  0.00    -0.388 OA
ATOM     35  H   LIG    1       27.181 -22.917  14.413  0.00  0.00    +0.210 HD
ENDBRANCH  33  34
BRANCH  33  36
ATOM     36  C   LIG    1       25.498 -24.503  14.626  0.00  0.00    +0.188 C 
BRANCH  36  37
ATOM     37  O   LIG    1       25.164 -23.692  13.502  0.00  0.00    -0.392 OA
ATOM     38  H   LIG    1       25.695 -24.023  12.751  0.00  0.00    +0.209 HD
ENDBRANCH  36  37
ENDBRANCH  33  36
ENDBRANCH  32  33
ENDBRANCH  29  32
ENDBRANCH   7  28
TORSDOF 15
ENDMDL
MODEL 2
REMARK VINA RESULT:      -4.8      1.651      6.661
REMARK  Name = *****
REMARK                            x       y       z     vdW  Elec       q    Type
REMARK                         _______ _______ _______ _____ _____    ______ ____
ROOT
ATOM      1  C   LIG    1       22.621 -29.653  12.734  0.00  0.00    +0.061 A 
ATOM      2  C   LIG    1       22.662 -30.237  11.451  0.00  0.00    +0.049 A 
ATOM      3  I   LIG    1       20.869 -31.073  10.665  0.00  0.00    -0.041 I 
ATOM      4  C   LIG    1       23.854 -30.206  10.696  0.00  0.00    +0.066 A 
ATOM      5  C   LIG    1       24.995 -29.556  11.247  0.00  0.00    +0.040 A 
ATOM      6  I   LIG    1       26.518 -28.806   9.920  0.00  0.00    -0.042 I 
ATOM      7  C   LIG    1       25.047 -29.165  12.613  0.00  0.00    +0.065 A 
ATOM      8  C   LIG    1       23.828 -29.223  13.348  0.00  0.00    +0.049 A 
ATOM      9  I   LIG    1       23.720 -28.931  15.500  0.00  0.00    -0.041 I 
ENDROOT
BRANCH   1  11
ATOM     10  C   LIG    1       20.719 -28.243  13.300  0.00  0.00    +0.243 C 
ATOM     11  N   LIG    1       21.372 -29.478  13.417  0.00  0.00    -0.282 N 
ATOM     12  H   LIG    1       20.721 -30.257  13.385  0.00  0.00    +0.155 HD
ATOM     13  O   LIG    1       21.151 -27.313  12.614  0.00  0.00    -0.273 OA
BRANCH  10  14
ATOM     14  C   LIG    1       19.424 -28.113  14.123  0.00  0.00    +0.255 C 
BRANCH  14  16
ATOM     15  C   LIG    1       18.088 -26.175  14.036  0.00  0.00    +0.194 C 
ATOM     16  O   LIG    1       19.200 -26.817  14.660  0.00  0.00    -0.374 OA
ENDBRANCH  14  16
ENDBRANCH  10  14
ENDBRANCH   1  11
BRANCH   4  17
ATOM     17  C   LIG    1       23.859 -30.764   9.303  0.00  0.00    +0.248 C 
ATOM     18  N   LIG    1       24.360 -32.055   9.070  0.00  0.00    -0.298 N 
ATOM     19  C   LIG    1       24.932 -32.922  10.088  0.00  0.00    +0.132 C 
ATOM     20  O   LIG    1       23.405 -30.069   8.397  0.00  0.00    -0.270 OA
BRANCH  18  21
ATOM     21  C   LIG    1       24.472 -32.548   7.684  0.00  0.00    +0.141 C 
BRANCH  21  22
ATOM     22  C   LIG    1       25.741 -32.082   6.939  0.00  0.00    +0.157 C 
BRANCH  22  23
ATOM     23  O   LIG    1       26.527 -33.239   6.614  0.00  0.00    -0.388 OA
ATOM     24  H   LIG    1       27.077 -33.413   7.407  0.00  0.00    +0.210 HD
ENDBRANCH  22  23
BRANCH  22  25
ATOM     25  C   LIG    1       25.442 -31.334   5.643  0.00  0.00    +0.188 C 
BRANCH  25  26
ATOM     26  O   LIG    1       25.943 -30.000   5.724  0.00  0.00    -0.392 OA
ATOM     27  H   LIG    1       25.273 -29.482   6.223  0.00  0.00    +0.209 HD
ENDBRANCH  25  26
ENDBRANCH  22  25
ENDBRANCH  21  22
ENDBRANCH  18  21
ENDBRANCH   4  17
BRANCH   7  28
ATOM     28  C   LIG    1       26.377 -28.761  13.235  0.00  0.00    +0.246 C 
ATOM     29  N   LIG    1       26.537 -27.433  13.525  0.00  0.00    -0.309 N 
ATOM     30  H   LIG    1       25.683 -26.863  13.614  0.00  0.00    +0.149 HD
ATOM     31  O   LIG    1       27.262 -29.608  13.484  0.00  0.00    -0.270 OA
BRANCH  29  32
ATOM     32  C   LIG    1       27.697 -26.866  14.204  0.00  0.00    +0.138 C 
BRANCH  32  33
ATOM     33  C   LIG    1       27.521 -25.365  14.489  0.00  0.00    +0.157 C 
BRANCH  33  34
ATOM     34  O   LIG    1       28.105 -24.576  13.433  0.00  0.00    -0.388 OA
ATOM     35  H   LIG    1       27.383 -24.115  12.969  0.00  0.00    +0.210 HD
ENDBRANCH  33  34
BRANCH  33  36
ATOM     36  C   LIG    1       26.045 -24.984  14.592  0.00  0.00    +0.188 C 
BRANCH  36  37
ATOM     37  O   LIG    1       25.555 -24.537  13.329  0.00  0.00    -0.392 OA
ATOM     38  H   LIG    1       26.184 -24.861  12.655  0.00  0.00    +0.209 HD
ENDBRANCH  36  37
ENDBRANCH  33  36
ENDBRANCH  32  33
ENDBRANCH  29  32
ENDBRANCH   7  28
TORSDOF 15
ENDMDL
MODEL 3
REMARK VINA RESULT:      -4.7      3.112      8.696
REMARK  Name = *****
REMARK                            x       y       z     vdW  Elec       q    Type
REMARK                         _______ _______ _______ _____ _____    ______ ____
ROOT
ATOM      1  C   LIG    1       24.686 -29.795  11.869  0.00  0.00    +0.061 A 
ATOM      2  C   LIG    1       24.837 -29.895  10.471  0.00  0.00    +0.049 A 
ATOM      3  I   LIG    1       26.439 -28.839   9.550  0.00  0.00    -0.041 I 
ATOM      4  C   LIG    1       23.977 -30.728   9.723  0.00  0.00    +0.066 A 
ATOM      5  C   LIG    1       22.979 -31.474  10.412  0.00  0.00    +0.040 A 
ATOM      6  I   LIG    1       22.197 -33.268   9.509  0.00  0.00    -0.042 I 
ATOM      7  C   LIG    1       22.661 -31.219  11.775  0.00  0.00    +0.065 A 
ATOM      8  C   LIG    1       23.543 -30.363  12.494  0.00  0.00    +0.049 A 
ATOM      9  I   LIG    1       23.117 -29.623  14.494  0.00  0.00    -0.041 I 
ENDROOT
BRANCH   1  11
ATOM     10  C   LIG    1       26.694 -29.916  13.239  0.00  0.00    +0.243 C 
ATOM     11  N   LIG    1       25.681 -29.136  12.666  0.00  0.00    -0.282 N 
ATOM     12  H   LIG    1       26.034 -28.250  12.314  0.00  0.00    +0.155 HD
ATOM     13  O   LIG    1       26.789 -31.133  13.066  0.00  0.00    -0.273 OA
BRANCH  10  14
ATOM     14  C   LIG    1       27.678 -29.143  14.138  0.00  0.00    +0.255 C 
BRANCH  14  16
ATOM     15  C   LIG    1       28.069 -27.078  15.200  0.00  0.00    +0.194 C 
ATOM     16  O   LIG    1       27.094 -28.059  14.846  0.00  0.00    -0.374 OA
ENDBRANCH  14  16
ENDBRANCH  10  14
ENDBRANCH   1  11
BRANCH   4  17
ATOM     17  C   LIG    1       24.200 -30.883   8.247  0.00  0.00    +0.248 C 
ATOM     18  N   LIG    1       25.129 -31.825   7.777  0.00  0.00    -0.298 N 
ATOM     19  C   LIG    1       25.955 -32.673   8.621  0.00  0.00    +0.132 C 
ATOM     20  O   LIG    1       23.544 -30.179   7.483  0.00  0.00    -0.270 OA
BRANCH  18  21
ATOM     21  C   LIG    1       25.429 -31.886   6.334  0.00  0.00    +0.141 C 
BRANCH  21  22
ATOM     22  C   LIG    1       24.587 -32.911   5.547  0.00  0.00    +0.157 C 
BRANCH  22  23
ATOM     23  O   LIG    1       23.273 -32.365   5.352  0.00  0.00    -0.388 OA
ATOM     24  H   LIG    1       23.155 -31.705   6.066  0.00  0.00    +0.210 HD
ENDBRANCH  22  23
BRANCH  22  25
ATOM     25  C   LIG    1       25.167 -33.247   4.176  0.00  0.00    +0.188 C 
BRANCH  25  26
ATOM     26  O   LIG    1       24.113 -33.554   3.263  0.00  0.00    -0.392 OA
ATOM     27  H   LIG    1       23.581 -32.734   3.167  0.00  0.00    +0.209 HD
ENDBRANCH  25  26
ENDBRANCH  22  25
ENDBRANCH  21  22
ENDBRANCH  18  21
ENDBRANCH   4  17
BRANCH   7  28
ATOM     28  C   LIG    1       21.397 -31.812  12.381  0.00  0.00    +0.246 C 
ATOM     29  N   LIG    1       20.217 -31.203  12.047  0.00  0.00    -0.309 N 
ATOM     30  H   LIG    1       20.209 -30.624  11.195  0.00  0.00    +0.149 HD
ATOM     31  O   LIG    1       21.441 -32.814  13.127  0.00  0.00    -0.270 OA
BRANCH  29  32
ATOM     32  C   LIG    1       18.896 -31.676  12.450  0.00  0.00    +0.138 C 
BRANCH  32  33
ATOM     33  C   LIG    1       17.893 -31.643  11.286  0.00  0.00    +0.157 C 
BRANCH  33  34
ATOM     34  O   LIG    1       16.806 -30.742  11.577  0.00  0.00    -0.388 OA
ATOM     35  H   LIG    1       17.158 -30.013  12.119  0.00  0.00    +0.210 HD
ENDBRANCH  33  34
BRANCH  33  36
ATOM     36  C   LIG    1       18.554 -31.172   9.991  0.00  0.00    +0.188 C 
BRANCH  36  37
ATOM     37  O   LIG    1       17.627 -30.430   9.199  0.00  0.00    -0.392 OA
ATOM     38  H   LIG    1       17.727 -29.493   9.456  0.00  0.00    +0.209 HD
ENDBRANCH  36  37
ENDBRANCH  33  36
ENDBRANCH  32  33
ENDBRANCH  29  32
ENDBRANCH   7  28
TORSDOF 15
ENDMDL
MODEL 4
REMARK VINA RESULT:      -4.7      1.980      6.886
REMARK  Name = *****
REMARK                            x       y       z     vdW  Elec       q    Type
REMARK                         _______ _______ _______ _____ _____    ______ ____
ROOT
ATOM      1  C   LIG    1       23.608 -29.998  10.579  0.00  0.00    +0.061 A 
ATOM      2  C   LIG    1       24.883 -29.616  11.044  0.00  0.00    +0.049 A 
ATOM      3  I   LIG    1       26.575 -30.059   9.832  0.00  0.00    -0.041 I 
ATOM      4  C   LIG    1       25.011 -28.905  12.257  0.00  0.00    +0.066 A 
ATOM      5  C   LIG    1       23.831 -28.565  12.978  0.00  0.00    +0.040 A 
ATOM      6  I   LIG    1       23.873 -26.892  14.335  0.00  0.00    -0.042 I 
ATOM      7  C   LIG    1       22.566 -29.130  12.652  0.00  0.00    +0.065 A 
ATOM      8  C   LIG    1       22.478 -29.853  11.429  0.00  0.00    +0.049 A 
ATOM      9  I   LIG    1       20.734 -31.018  10.857  0.00  0.00    -0.041 I 
ENDROOT
BRANCH   1  11
ATOM     10  C   LIG    1       23.639 -31.891   9.049  0.00  0.00    +0.243 C 
ATOM     11  N   LIG    1       23.441 -30.518   9.253  0.00  0.00    -0.282 N 
ATOM     12  H   LIG    1       22.651 -30.164   8.720  0.00  0.00    +0.155 HD
ATOM     13  O   LIG    1       23.920 -32.675   9.959  0.00  0.00    -0.273 OA
BRANCH  10  14
ATOM     14  C   LIG    1       23.513 -32.354   7.585  0.00  0.00    +0.255 C 
BRANCH  14  16
ATOM     15  C   LIG    1       24.780 -31.250   5.935  0.00  0.00    +0.194 C 
ATOM     16  O   LIG    1       23.536 -31.300   6.634  0.00  0.00    -0.374 OA
ENDBRANCH  14  16
ENDBRANCH  10  14
ENDBRANCH   1  11
BRANCH   4  17
ATOM     17  C   LIG    1       26.367 -28.439  12.699  0.00  0.00    +0.248 C 
ATOM     18  N   LIG    1       27.151 -29.259  13.527  0.00  0.00    -0.298 N 
ATOM     19  C   LIG    1       26.739 -30.553  14.047  0.00  0.00    +0.132 C 
ATOM     20  O   LIG    1       26.762 -27.344  12.307  0.00  0.00    -0.270 OA
BRANCH  18  21
ATOM     21  C   LIG    1       28.429 -28.743  14.054  0.00  0.00    +0.141 C 
BRANCH  21  22
ATOM     22  C   LIG    1       29.660 -29.604  13.703  0.00  0.00    +0.157 C 
BRANCH  22  23
ATOM     23  O   LIG    1       29.955 -29.428  12.308  0.00  0.00    -0.388 OA
ATOM     24  H   LIG    1       30.205 -30.317  11.979  0.00  0.00    +0.210 HD
ENDBRANCH  22  23
BRANCH  22  25
ATOM     25  C   LIG    1       30.907 -29.231  14.500  0.00  0.00    +0.188 C 
BRANCH  25  26
ATOM     26  O   LIG    1       31.843 -28.562  13.655  0.00  0.00    -0.392 OA
ATOM     27  H   LIG    1       31.464 -28.584  12.749  0.00  0.00    +0.209 HD
ENDBRANCH  25  26
ENDBRANCH  22  25
ENDBRANCH  21  22
ENDBRANCH  18  21
ENDBRANCH   4  17
BRANCH   7  28
ATOM     28  C   LIG    1       21.402 -28.988  13.623  0.00  0.00    +0.246 C 
ATOM     29  N   LIG    1       20.433 -28.082  13.285  0.00  0.00    -0.309 N 
ATOM     30  H   LIG    1       20.372 -27.803  12.295  0.00  0.00    +0.149 HD
ATOM     31  O   LIG    1       21.332 -29.683  14.660  0.00  0.00    -0.270 OA
BRANCH  29  32
ATOM     32  C   LIG    1       19.199 -27.869  14.035  0.00  0.00    +0.138 C 
BRANCH  32  33
ATOM     33  C   LIG    1       18.743 -26.401  13.987  0.00  0.00    +0.157 C 
BRANCH  33  34
ATOM     34  O   LIG    1       19.118 -25.793  12.735  0.00  0.00    -0.388 OA
ATOM     35  H   LIG    1       18.542 -26.159  12.040  0.00  0.00    +0.210 HD
ENDBRANCH  33  34
BRANCH  33  36
ATOM     36  C   LIG    1       17.226 -26.282  14.127  0.00  0.00    +0.188 C 
BRANCH  36  37
ATOM     37  O   LIG    1       16.655 -27.544  14.466  0.00  0.00    -0.392 OA
ATOM     38  H   LIG    1       15.799 -27.357  14.899  0.00  0.00    +0.209 HD
ENDBRANCH  36  37
ENDBRANCH  33  36
ENDBRANCH  32  33
ENDBRANCH  29  32
ENDBRANCH   7  28
TORSDOF 15
ENDMDL
MODEL 5
REMARK VINA RESULT:      -4.5      2.505      7.242
REMARK  Name = *****
REMARK                            x       y       z     vdW  Elec       q    Type
REMARK                         _______ _______ _______ _____ _____    ______ ____
ROOT
ATOM      1  C   LIG    1       25.846 -28.872  12.518  0.00  0.00    +0.061 A 
ATOM      2  C   LIG    1       25.471 -29.430  11.278  0.00  0.00    +0.049 A 
ATOM      3  I   LIG    1       27.001 -29.882   9.869  0.00  0.00    -0.041 I 
ATOM      4  C   LIG    1       24.117 -29.733  11.018  0.00  0.00    +0.066 A 
ATOM      5  C   LIG    1       23.153 -29.484  12.037  0.00  0.00    +0.040 A 
ATOM      6  I   LIG    1       21.304 -30.590  12.025  0.00  0.00    -0.042 I 
ATOM      7  C   LIG    1       23.468 -28.720  13.194  0.00  0.00    +0.065 A 
ATOM      8  C   LIG    1       24.843 -28.422  13.416  0.00  0.00    +0.049 A 
ATOM      9  I   LIG    1       25.529 -27.054  14.961  0.00  0.00    -0.041 I 
ENDROOT
BRANCH   1  11
ATOM     10  C   LIG    1       27.824 -29.851  13.544  0.00  0.00    +0.243 C 
ATOM     11  N   LIG    1       27.230 -28.768  12.882  0.00  0.00    -0.282 N 
ATOM     12  H   LIG    1       27.853 -28.352  12.195  0.00  0.00    +0.155 HD
ATOM     13  O   LIG    1       27.225 -30.898  13.799  0.00  0.00    -0.273 OA
BRANCH  10  14
ATOM     14  C   LIG    1       29.289 -29.628  13.965  0.00  0.00    +0.255 C 
BRANCH  14  16
ATOM     15  C   LIG    1       31.581 -29.856  13.470  0.00  0.00    +0.194 C 
ATOM     16  O   LIG    1       30.246 -30.092  13.023  0.00  0.00    -0.374 OA
ENDBRANCH  14  16
ENDBRANCH  10  14
ENDBRANCH   1  11
BRANCH   4  17
ATOM     17  C   LIG    1       23.745 -30.397   9.724  0.00  0.00    +0.248 C 
ATOM     18  N   LIG    1       23.858 -31.791   9.598  0.00  0.00    -0.298 N 
ATOM     19  C   LIG    1       24.356 -32.683  10.632  0.00  0.00    +0.132 C 
ATOM     20  O   LIG    1       23.335 -29.691   8.805  0.00  0.00    -0.270 OA
BRANCH  18  21
ATOM     21  C   LIG    1       23.607 -32.420   8.288  0.00  0.00    +0.141 C 
BRANCH  21  22
ATOM     22  C   LIG    1       24.829 -32.452   7.347  0.00  0.00    +0.157 C 
BRANCH  22  23
ATOM     23  O   LIG    1       25.129 -33.823   7.039  0.00  0.00    -0.388 OA
ATOM     24  H   LIG    1       25.755 -33.792   6.286  0.00  0.00    +0.210 HD
ENDBRANCH  22  23
BRANCH  22  25
ATOM     25  C   LIG    1       24.601 -31.712   6.032  0.00  0.00    +0.188 C 
BRANCH  25  26
ATOM     26  O   LIG    1       23.342 -31.039   6.064  0.00  0.00    -0.392 OA
ATOM     27  H   LIG    1       22.741 -31.547   5.475  0.00  0.00    +0.209 HD
ENDBRANCH  25  26
ENDBRANCH  22  25
ENDBRANCH  21  22
ENDBRANCH  18  21
ENDBRANCH   4  17
BRANCH   7  28
ATOM     28  C   LIG    1       22.350 -28.218  14.097  0.00  0.00    +0.246 C 
ATOM     29  N   LIG    1       21.705 -27.079  13.695  0.00  0.00    -0.309 N 
ATOM     30  H   LIG    1       21.777 -26.823  12.700  0.00  0.00    +0.149 HD
ATOM     31  O   LIG    1       22.029 -28.833  15.137  0.00  0.00    -0.270 OA
BRANCH  29  32
ATOM     32  C   LIG    1       20.553 -26.495  14.373  0.00  0.00    +0.138 C 
BRANCH  32  33
ATOM     33  C   LIG    1       19.228 -27.105  13.884  0.00  0.00    +0.157 C 
BRANCH  33  34
ATOM     34  O   LIG    1       18.971 -28.358  14.548  0.00  0.00    -0.388 OA
ATOM     35  H   LIG    1       19.163 -29.076  13.918  0.00  0.00    +0.210 HD
ENDBRANCH  33  34
BRANCH  33  36
ATOM     36  C   LIG    1       18.047 -26.178  14.167  0.00  0.00    +0.188 C 
BRANCH  36  37
ATOM     37  O   LIG    1       16.817 -26.820  13.833  0.00  0.00    -0.392 OA
ATOM     38  H   LIG    1       16.951 -27.242  12.962  0.00  0.00    +0.209 HD
ENDBRANCH  36  37
ENDBRANCH  33  36
ENDBRANCH  32  33
ENDBRANCH  29  32
ENDBRANCH   7  28
TORSDOF 15
ENDMDL
MODEL 6
REMARK VINA RESULT:      -4.5      2.526      6.138
REMARK  Name = *****
REMARK                            x       y       z     vdW  Elec       q    Type
REMARK                         _______ _______ _______ _____ _____    ______ ____
ROOT
ATOM      1  C   LIG    1       22.028 -29.746  11.960  0.00  0.00    +0.061 A 
ATOM      2  C   LIG    1       22.920 -30.504  11.173  0.00  0.00    +0.049 A 
ATOM      3  I   LIG    1       22.121 -32.047   9.945  0.00  0.00    -0.041 I 
ATOM      4  C   LIG    1       24.297 -30.195  11.166  0.00  0.00    +0.066 A 
ATOM      5  C   LIG    1       24.755 -29.094  11.946  0.00  0.00    +0.040 A 
ATOM      6  I   LIG    1       26.595 -28.114  11.402  0.00  0.00    -0.042 I 
ATOM      7  C   LIG    1       23.923 -28.466  12.913  0.00  0.00    +0.065 A 
ATOM      8  C   LIG    1       22.542 -28.813  12.900  0.00  0.00    +0.049 A 
ATOM      9  I   LIG    1       21.142 -28.186  14.442  0.00  0.00    -0.041 I 
ENDROOT
BRANCH   1  11
ATOM     10  C   LIG    1       19.975 -30.926  12.521  0.00  0.00    +0.243 C 
ATOM     11  N   LIG    1       20.610 -29.899  11.809  0.00  0.00    -0.282 N 
ATOM     12  H   LIG    1       20.057 -29.047  11.794  0.00  0.00    +0.155 HD
ATOM     13  O   LIG    1       20.570 -31.681  13.293  0.00  0.00    -0.273 OA
BRANCH  10  14
ATOM     14  C   LIG    1       18.466 -31.069  12.246  0.00  0.00    +0.255 C 
BRANCH  14  16
ATOM     15  C   LIG    1       17.976 -31.327   9.957  0.00  0.00    +0.194 C 
ATOM     16  O   LIG    1       18.145 -31.987  11.211  0.00  0.00    -0.374 OA
ENDBRANCH  14  16
ENDBRANCH  10  14
ENDBRANCH   1  11
BRANCH   4  17
ATOM     17  C   LIG    1       25.221 -30.962  10.265  0.00  0.00    +0.248 C 
ATOM     18  N   LIG    1       25.351 -30.588   8.918  0.00  0.00    -0.298 N 
ATOM     19  C   LIG    1       24.619 -29.507   8.280  0.00  0.00    +0.132 C 
ATOM     20  O   LIG    1       25.853 -31.900  10.744  0.00  0.00    -0.270 OA
BRANCH  18  21
ATOM     21  C   LIG    1       26.166 -31.420   8.013  0.00  0.00    +0.141 C 
BRANCH  21  22
ATOM     22  C   LIG    1       25.691 -31.426   6.545  0.00  0.00    +0.157 C 
BRANCH  22  23
ATOM     23  O   LIG    1       26.778 -31.868   5.718  0.00  0.00    -0.388 OA
ATOM     24  H   LIG    1       26.934 -32.803   5.967  0.00  0.00    +0.210 HD
ENDBRANCH  22  23
BRANCH  22  25
ATOM     25  C   LIG    1       24.502 -32.348   6.297  0.00  0.00    +0.188 C 
BRANCH  25  26
ATOM     26  O   LIG    1       23.389 -31.590   5.822  0.00  0.00    -0.392 OA
ATOM     27  H   LIG    1       22.782 -32.230   5.388  0.00  0.00    +0.209 HD
ENDBRANCH  25  26
ENDBRANCH  22  25
ENDBRANCH  21  22
ENDBRANCH  18  21
ENDBRANCH   4  17
BRANCH   7  28
ATOM     28  C   LIG    1       24.533 -27.512  13.931  0.00  0.00    +0.246 C 
ATOM     29  N   LIG    1       24.238 -26.184  13.777  0.00  0.00    -0.309 N 
ATOM     30  H   LIG    1       23.404 -25.948  13.221  0.00  0.00    +0.149 HD
ATOM     31  O   LIG    1       25.247 -27.931  14.868  0.00  0.00    -0.270 OA
BRANCH  29  32
ATOM     32  C   LIG    1       24.650 -25.131  14.699  0.00  0.00    +0.138 C 
BRANCH  32  33
ATOM     33  C   LIG    1       25.738 -24.228  14.092  0.00  0.00    +0.157 C 
BRANCH  33  34
ATOM     34  O   LIG    1       25.544 -22.858  14.496  0.00  0.00    -0.388 OA
ATOM     35  H   LIG    1       24.774 -22.509  14.012  0.00  0.00    +0.210 HD
ENDBRANCH  33  34
BRANCH  33  36
ATOM     36  C   LIG    1       27.134 -24.654  14.544  0.00  0.00    +0.188 C 
BRANCH  36  37
ATOM     37  O   LIG    1       27.990 -24.833  13.416  0.00  0.00    -0.392 OA
ATOM     38  H   LIG    1       28.552 -25.608  13.613  0.00  0.00    +0.209 HD
ENDBRANCH  36  37
ENDBRANCH  33  36
ENDBRANCH  32  33
ENDBRANCH  29  32
ENDBRANCH   7  28
TORSDOF 15
ENDMDL
MODEL 7
REMARK VINA RESULT:      -4.4      1.698      2.623
REMARK  Name = *****
REMARK                            x       y       z     vdW  Elec       q    Type
REMARK                         _______ _______ _______ _____ _____    ______ ____
ROOT
ATOM      1  C   LIG    1       23.471 -30.141  10.819  0.00  0.00    +0.061 A 
ATOM      2  C   LIG    1       22.308 -30.019  11.608  0.00  0.00    +0.049 A 
ATOM      3  I   LIG    1       20.485 -30.814  10.850  0.00  0.00    -0.041 I 
ATOM      4  C   LIG    1       22.382 -29.438  12.892  0.00  0.00    +0.066 A 
ATOM      5  C   LIG    1       23.649 -29.003  13.375  0.00  0.00    +0.040 A 
ATOM      6  I   LIG    1       23.968 -28.851  15.500  0.00  0.00    -0.042 I 
ATOM      7  C   LIG    1       24.782 -28.906  12.520  0.00  0.00    +0.065 A 
ATOM      8  C   LIG    1       24.667 -29.492  11.227  0.00  0.00    +0.049 A 
ATOM      9  I   LIG    1       26.160 -29.236   9.667  0.00  0.00    -0.041 I 
ENDROOT
BRANCH   1  11
ATOM     10  C   LIG    1       23.859 -32.265   9.695  0.00  0.00    +0.243 C 
ATOM     11  N   LIG    1       23.458 -30.924   9.617  0.00  0.00    -0.282 N 
ATOM     12  H   LIG    1       22.661 -30.800   8.999  0.00  0.00    +0.155 HD
ATOM     13  O   LIG    1       24.191 -32.810  10.750  0.00  0.00    -0.273 OA
BRANCH  10  14
ATOM     14  C   LIG    1       23.888 -33.012   8.348  0.00  0.00    +0.255 C 
BRANCH  14  16
ATOM     15  C   LIG    1       25.875 -32.446   7.218  0.00  0.00    +0.194 C 
ATOM     16  O   LIG    1       24.459 -32.271   7.280  0.00  0.00    -0.374 OA
ENDBRANCH  14  16
ENDBRANCH  10  14
ENDBRANCH   1  11
BRANCH   4  17
ATOM     17  C   LIG    1       21.150 -29.386  13.749  0.00  0.00    +0.248 C 
ATOM     18  N   LIG    1       20.391 -28.206  13.810  0.00  0.00    -0.298 N 
ATOM     19  C   LIG    1       20.720 -26.969  13.121  0.00  0.00    +0.132 C 
ATOM     20  O   LIG    1       20.832 -30.397  14.371  0.00  0.00    -0.270 OA
BRANCH  18  21
ATOM     21  C   LIG    1       19.254 -28.126  14.746  0.00  0.00    +0.141 C 
BRANCH  21  22
ATOM     22  C   LIG    1       17.879 -27.948  14.069  0.00  0.00    +0.157 C 
BRANCH  22  23
ATOM     23  O   LIG    1       17.355 -29.249  13.758  0.00  0.00    -0.388 OA
ATOM     24  H   LIG    1       18.022 -29.668  13.175  0.00  0.00    +0.210 HD
ENDBRANCH  22  23
BRANCH  22  25
ATOM     25  C   LIG    1       16.861 -27.226  14.947  0.00  0.00    +0.188 C 
BRANCH  25  26
ATOM     26  O   LIG    1       16.904 -25.822  14.687  0.00  0.00    -0.392 OA
ATOM     27  H   LIG    1       16.582 -25.379  15.503  0.00  0.00    +0.209 HD
ENDBRANCH  25  26
ENDBRANCH  22  25
ENDBRANCH  21  22
ENDBRANCH  18  21
ENDBRANCH   4  17
BRANCH   7  28
ATOM     28  C   LIG    1       26.020 -28.155  12.987  0.00  0.00    +0.246 C 
ATOM     29  N   LIG    1       27.024 -28.911  13.530  0.00  0.00    -0.309 N 
ATOM     30  H   LIG    1       27.033 -29.916  13.303  0.00  0.00    +0.149 HD
ATOM     31  O   LIG    1       26.116 -26.915  12.859  0.00  0.00    -0.270 OA
BRANCH  29  32
ATOM     32  C   LIG    1       28.321 -28.390  13.950  0.00  0.00    +0.138 C 
BRANCH  32  33
ATOM     33  C   LIG    1       29.361 -29.508  14.128  0.00  0.00    +0.157 C 
BRANCH  33  34
ATOM     34  O   LIG    1       28.711 -30.779  14.332  0.00  0.00    -0.388 OA
ATOM     35  H   LIG    1       27.880 -30.776  13.823  0.00  0.00    +0.210 HD
ENDBRANCH  33  34
BRANCH  33  36
ATOM     36  C   LIG    1       30.259 -29.638  12.899  0.00  0.00    +0.188 C 
BRANCH  36  37
ATOM     37  O   LIG    1       29.530 -29.326  11.713  0.00  0.00    -0.392 OA
ATOM     38  H   LIG    1       30.135 -28.818  11.138  0.00  0.00    +0.209 HD
ENDBRANCH  36  37
ENDBRANCH  33  36
ENDBRANCH  32  33
ENDBRANCH  29  32
ENDBRANCH   7  28
TORSDOF 15
ENDMDL
MODEL 8
REMARK VINA RESULT:      -4.1      2.609      6.381
REMARK  Name = *****
REMARK                            x       y       z     vdW  Elec       q    Type
REMARK                         _______ _______ _______ _____ _____    ______ ____
ROOT
ATOM      1  C   LIG    1       22.894 -31.233  12.306  0.00  0.00    +0.061 A 
ATOM      2  C   LIG    1       23.473 -31.638  11.086  0.00  0.00    +0.049 A 
ATOM      3  I   LIG    1       22.351 -32.923   9.813  0.00  0.00    -0.041 I 
ATOM      4  C   LIG    1       24.740 -31.145  10.705  0.00  0.00    +0.066 A 
ATOM      5  C   LIG    1       25.400 -30.221  11.564  0.00  0.00    +0.040 A 
ATOM      6  I   LIG    1       26.875 -28.886  10.735  0.00  0.00    -0.042 I 
ATOM      7  C   LIG    1       24.947 -29.976  12.890  0.00  0.00    +0.065 A 
ATOM      8  C   LIG    1       23.671 -30.501  13.243  0.00  0.00    +0.049 A 
ATOM      9  I   LIG    1       22.898 -30.482  15.275  0.00  0.00    -0.041 I 
ENDROOT
BRANCH   1  11
ATOM     10  C   LIG    1       20.551 -30.572  12.330  0.00  0.00    +0.243 C 
ATOM     11  N   LIG    1       21.525 -31.543  12.603  0.00  0.00    -0.282 N 
ATOM     12  H   LIG    1       21.207 -32.478  12.366  0.00  0.00    +0.155 HD
ATOM     13  O   LIG    1       20.811 -29.480  11.820  0.00  0.00    -0.273 OA
BRANCH  10  14
ATOM     14  C   LIG    1       19.118 -30.956  12.746  0.00  0.00    +0.255 C 
BRANCH  14  16
ATOM     15  C   LIG    1       18.231 -31.578  10.655  0.00  0.00    +0.194 C 
ATOM     16  O   LIG    1       18.548 -32.007  11.979  0.00  0.00    -0.374 OA
ENDBRANCH  14  16
ENDBRANCH  10  14
ENDBRANCH   1  11
BRANCH   4  17
ATOM     17  C   LIG    1       25.307 -31.525   9.369  0.00  0.00    +0.248 C 
ATOM     18  N   LIG    1       24.966 -30.781   8.228  0.00  0.00    -0.298 N 
ATOM     19  C   LIG    1       24.049 -29.653   8.214  0.00  0.00    +0.132 C 
ATOM     20  O   LIG    1       26.075 -32.484   9.315  0.00  0.00    -0.270 OA
BRANCH  18  21
ATOM     21  C   LIG    1       25.432 -31.234   6.904  0.00  0.00    +0.141 C 
BRANCH  21  22
ATOM     22  C   LIG    1       24.467 -32.198   6.181  0.00  0.00    +0.157 C 
BRANCH  22  23
ATOM     23  O   LIG    1       23.391 -31.429   5.622  0.00  0.00    -0.388 OA
ATOM     24  H   LIG    1       23.695 -30.497   5.644  0.00  0.00    +0.210 HD
ENDBRANCH  22  23
BRANCH  22  25
ATOM     25  C   LIG    1       25.128 -32.979   5.049  0.00  0.00    +0.188 C 
BRANCH  25  26
ATOM     26  O   LIG    1       24.236 -33.073   3.938  0.00  0.00    -0.392 OA
ATOM     27  H   LIG    1       24.794 -33.034   3.130  0.00  0.00    +0.209 HD
ENDBRANCH  25  26
ENDBRANCH  22  25
ENDBRANCH  21  22
ENDBRANCH  18  21
ENDBRANCH   4  17
BRANCH   7  28
ATOM     28  C   LIG    1       25.843 -29.231  13.870  0.00  0.00    +0.246 C 
ATOM     29  N   LIG    1       25.504 -27.931  14.138  0.00  0.00    -0.309 N 
ATOM     30  H   LIG    1       24.535 -27.646  13.939  0.00  0.00    +0.149 HD
ATOM     31  O   LIG    1       26.821 -29.790  14.412  0.00  0.00    -0.270 OA
BRANCH  29  32
ATOM     32  C   LIG    1       26.180 -27.083  15.114  0.00  0.00    +0.138 C 
BRANCH  32  33
ATOM     33  C   LIG    1       27.344 -26.299  14.487  0.00  0.00    +0.157 C 
BRANCH  33  34
ATOM     34  O   LIG    1       28.475 -27.164  14.259  0.00  0.00    -0.388 OA
ATOM     35  H   LIG    1       28.811 -26.987  13.362  0.00  0.00    +0.210 HD
ENDBRANCH  33  34
BRANCH  33  36
ATOM     36  C   LIG    1       26.948 -25.687  13.143  0.00  0.00    +0.188 C 
BRANCH  36  37
ATOM     37  O   LIG    1       25.797 -24.858  13.293  0.00  0.00    -0.392 OA
ATOM     38  H   LIG    1       25.415 -24.747  12.400  0.00  0.00    +0.209 HD
ENDBRANCH  36  37
ENDBRANCH  33  36
ENDBRANCH  32  33
ENDBRANCH  29  32
ENDBRANCH   7  28
TORSDOF 15
ENDMDL
MODEL 9
REMARK VINA RESULT:      -3.9      2.213      6.586
REMARK  Name = *****
REMARK                            x       y       z     vdW  Elec       q    Type
REMARK                         _______ _______ _______ _____ _____    ______ ____
ROOT
ATOM      1  C   LIG    1       25.373 -28.075  13.874  0.00  0.00    +0.061 A 
ATOM      2  C   LIG    1       23.970 -28.013  13.997  0.00  0.00    +0.049 A 
ATOM      3  I   LIG    1       23.137 -26.600  15.352  0.00  0.00    -0.041 I 
ATOM      4  C   LIG    1       23.151 -28.832  13.189  0.00  0.00    +0.066 A 
ATOM      5  C   LIG    1       23.771 -29.695  12.241  0.00  0.00    +0.040 A 
ATOM      6  I   LIG    1       22.647 -30.345  10.522  0.00  0.00    -0.042 I 
ATOM      7  C   LIG    1       25.171 -29.941  12.256  0.00  0.00    +0.065 A 
ATOM      8  C   LIG    1       25.964 -29.105  13.093  0.00  0.00    +0.049 A 
ATOM      9  I   LIG    1       28.074 -29.464  13.479  0.00  0.00    -0.041 I 
ENDROOT
BRANCH   1  11
ATOM     10  C   LIG    1       26.614 -25.983  13.777  0.00  0.00    +0.243 C 
ATOM     11  N   LIG    1       26.206 -27.101  14.518  0.00  0.00    -0.282 N 
ATOM     12  H   LIG    1       25.967 -26.858  15.475  0.00  0.00    +0.155 HD
ATOM     13  O   LIG    1       26.265 -25.782  12.612  0.00  0.00    -0.273 OA
BRANCH  10  14
ATOM     14  C   LIG    1       27.565 -25.025  14.519  0.00  0.00    +0.255 C 
BRANCH  14  16
ATOM     15  C   LIG    1       25.933 -23.549  15.358  0.00  0.00    +0.194 C 
ATOM     16  O   LIG    1       27.116 -23.678  14.570  0.00  0.00    -0.374 OA
ENDBRANCH  14  16
ENDBRANCH  10  14
ENDBRANCH   1  11
BRANCH   4  17
ATOM     17  C   LIG    1       21.659 -28.698  13.278  0.00  0.00    +0.248 C 
ATOM     18  N   LIG    1       20.932 -29.546  14.130  0.00  0.00    -0.298 N 
ATOM     19  C   LIG    1       21.509 -30.608  14.938  0.00  0.00    +0.132 C 
ATOM     20  O   LIG    1       21.112 -27.830  12.603  0.00  0.00    -0.270 OA
BRANCH  18  21
ATOM     21  C   LIG    1       19.458 -29.488  14.120  0.00  0.00    +0.141 C 
BRANCH  21  22
ATOM     22  C   LIG    1       18.769 -30.789  13.658  0.00  0.00    +0.157 C 
BRANCH  22  23
ATOM     23  O   LIG    1       17.347 -30.586  13.692  0.00  0.00    -0.388 OA
ATOM     24  H   LIG    1       16.999 -31.273  14.298  0.00  0.00    +0.210 HD
ENDBRANCH  22  23
BRANCH  22  25
ATOM     25  C   LIG    1       19.153 -31.208  12.242  0.00  0.00    +0.188 C 
BRANCH  25  26
ATOM     26  O   LIG    1       19.861 -32.448  12.277  0.00  0.00    -0.392 OA
ATOM     27  H   LIG    1       19.284 -33.109  11.834  0.00  0.00    +0.209 HD
ENDBRANCH  25  26
ENDBRANCH  22  25
ENDBRANCH  21  22
ENDBRANCH  18  21
ENDBRANCH   4  17
BRANCH   7  28
ATOM     28  C   LIG    1       25.747 -31.090  11.440  0.00  0.00    +0.246 C 
ATOM     29  N   LIG    1       26.209 -30.779  10.190  0.00  0.00    -0.309 N 
ATOM     30  H   LIG    1       26.438 -29.793  10.003  0.00  0.00    +0.149 HD
ATOM     31  O   LIG    1       25.810 -32.249  11.905  0.00  0.00    -0.270 OA
BRANCH  29  32
ATOM     32  C   LIG    1       26.876 -31.719   9.295  0.00  0.00    +0.138 C 
BRANCH  32  33
ATOM     33  C   LIG    1       26.386 -31.580   7.844  0.00  0.00    +0.157 C 
BRANCH  33  34
ATOM     34  O   LIG    1       27.302 -32.222   6.934  0.00  0.00    -0.388 OA
ATOM     35  H   LIG    1       27.936 -31.551   6.625  0.00  0.00    +0.210 HD
ENDBRANCH  33  34
BRANCH  33  36
ATOM     36  C   LIG    1       25.013 -32.223   7.653  0.00  0.00    +0.188 C 
BRANCH  36  37
ATOM     37  O   LIG    1       24.749 -33.156   8.699  0.00  0.00    -0.392 OA
ATOM     38  H   LIG    1       25.612 -33.379   9.099  0.00  0.00    +0.209 HD
ENDBRANCH  36  37
ENDBRANCH  33  36
ENDBRANCH  32  33
ENDBRANCH  29  32
ENDBRANCH   7  28
TORSDOF 15
ENDMDL
