MODEL 1
REMARK VINA RESULT:      -9.5      0.000      0.000
REMARK  Name = *****
REMARK                            x       y       z     vdW  Elec       q    Type
REMARK                         _______ _______ _______ _____ _____    ______ ____
ROOT
ATOM      1  C   LIG    1       24.932 -21.229   6.801  0.00  0.00    +0.169 C 
ENDROOT
BRANCH   1   5
ATOM      2  C   LIG    1       24.555 -25.566   6.403  0.00  0.00    +0.052 A 
ATOM      3  C   LIG    1       23.417 -24.755   6.480  0.00  0.00    +0.019 A 
ATOM      4  C   LIG    1       23.540 -23.364   6.603  0.00  0.00    +0.007 A 
ATOM      5  C   LIG    1       24.808 -22.752   6.644  0.00  0.00    -0.019 A 
ATOM      6  C   LIG    1       25.940 -23.585   6.582  0.00  0.00    +0.007 A 
ATOM      7  C   LIG    1       25.818 -24.972   6.460  0.00  0.00    +0.019 A 
BRANCH   2   9
ATOM      8  N   LIG    1       24.342 -28.142   6.149  0.00  0.00    -0.191 NA
ATOM      9  C   LIG    1       24.432 -26.985   6.265  0.00  0.00    +0.099 C 
ENDBRANCH   2   9
ENDBRANCH   1   5
BRANCH   1  10
ATOM     10  C   LIG    1       26.384 -20.733   6.839  0.00  0.00    -0.019 A 
ATOM     11  C   LIG    1       27.125 -20.773   8.034  0.00  0.00    +0.007 A 
ATOM     12  C   LIG    1       28.463 -20.354   8.064  0.00  0.00    +0.019 A 
ATOM     13  C   LIG    1       29.083 -19.868   6.908  0.00  0.00    +0.052 A 
ATOM     14  C   LIG    1       28.353 -19.805   5.719  0.00  0.00    +0.019 A 
ATOM     15  C   LIG    1       27.024 -20.238   5.686  0.00  0.00    +0.007 A 
BRANCH  13  16
ATOM     16  C   LIG    1       30.453 -19.439   6.945  0.00  0.00    +0.099 C 
ATOM     17  N   LIG    1       31.564 -19.101   6.974  0.00  0.00    -0.191 NA
ENDBRANCH  13  16
ENDBRANCH   1  10
BRANCH   1  18
ATOM     18  N   LIG    1       24.104 -20.497   5.820  0.00  0.00    -0.240 N 
ATOM     19  N   LIG    1       22.935 -19.896   6.151  0.00  0.00    -0.158 NA
ATOM     20  C   LIG    1       22.575 -19.340   4.994  0.00  0.00    +0.244 A 
ATOM     21  N   LIG    1       23.447 -19.530   3.963  0.00  0.00    -0.223 NA
ATOM     22  C   LIG    1       24.400 -20.252   4.508  0.00  0.00    +0.220 A 
ENDBRANCH   1  18
TORSDOF 5
ENDMDL
MODEL 2
REMARK VINA RESULT:      -8.2      1.795      6.427
REMARK  Name = *****
REMARK                            x       y       z     vdW  Elec       q    Type
REMARK                         _______ _______ _______ _____ _____    ______ ____
ROOT
ATOM      1  C   LIG    1       25.538 -21.925   6.815  0.00  0.00    +0.169 C 
ENDROOT
BRANCH   1   5
ATOM      2  C   LIG    1       29.527 -20.148   6.996  0.00  0.00    +0.052 A 
ATOM      3  C   LIG    1       29.151 -21.149   7.899  0.00  0.00    +0.019 A 
ATOM      4  C   LIG    1       27.873 -21.721   7.836  0.00  0.00    +0.007 A 
ATOM      5  C   LIG    1       26.943 -21.308   6.861  0.00  0.00    -0.019 A 
ATOM      6  C   LIG    1       27.335 -20.289   5.974  0.00  0.00    +0.007 A 
ATOM      7  C   LIG    1       28.609 -19.718   6.036  0.00  0.00    +0.019 A 
BRANCH   2   9
ATOM      8  N   LIG    1       31.899 -19.093   7.089  0.00  0.00    -0.191 NA
ATOM      9  C   LIG    1       30.837 -19.571   7.050  0.00  0.00    +0.099 C 
ENDBRANCH   2   9
ENDBRANCH   1   5
BRANCH   1  10
ATOM     10  C   LIG    1       24.519 -21.072   6.048  0.00  0.00    -0.019 A 
ATOM     11  C   LIG    1       23.348 -20.612   6.678  0.00  0.00    +0.007 A 
ATOM     12  C   LIG    1       22.432 -19.803   5.991  0.00  0.00    +0.019 A 
ATOM     13  C   LIG    1       22.656 -19.452   4.655  0.00  0.00    +0.052 A 
ATOM     14  C   LIG    1       23.804 -19.918   4.011  0.00  0.00    +0.019 A 
ATOM     15  C   LIG    1       24.725 -20.711   4.702  0.00  0.00    +0.007 A 
BRANCH  13  16
ATOM     16  C   LIG    1       21.713 -18.624   3.955  0.00  0.00    +0.099 C 
ATOM     17  N   LIG    1       20.954 -17.947   3.394  0.00  0.00    -0.191 NA
ENDBRANCH  13  16
ENDBRANCH   1  10
BRANCH   1  18
ATOM     18  N   LIG    1       25.560 -23.332   6.363  0.00  0.00    -0.240 N 
ATOM     19  N   LIG    1       26.071 -24.336   7.117  0.00  0.00    -0.158 NA
ATOM     20  C   LIG    1       25.842 -25.401   6.347  0.00  0.00    +0.244 A 
ATOM     21  N   LIG    1       25.202 -25.140   5.172  0.00  0.00    -0.223 NA
ATOM     22  C   LIG    1       25.031 -23.837   5.208  0.00  0.00    +0.220 A 
ENDBRANCH   1  18
TORSDOF 5
ENDMDL
MODEL 3
REMARK VINA RESULT:      -7.8      1.845      6.476
REMARK  Name = *****
REMARK                            x       y       z     vdW  Elec       q    Type
REMARK                         _______ _______ _______ _____ _____    ______ ____
ROOT
ATOM      1  C   LIG    1       25.275 -22.289   7.220  0.00  0.00    +0.169 C 
ENDROOT
BRANCH   1   5
ATOM      2  C   LIG    1       22.723 -19.640   4.859  0.00  0.00    +0.052 A 
ATOM      3  C   LIG    1       22.618 -19.674   6.254  0.00  0.00    +0.019 A 
ATOM      4  C   LIG    1       23.441 -20.521   7.010  0.00  0.00    +0.007 A 
ATOM      5  C   LIG    1       24.394 -21.349   6.385  0.00  0.00    -0.019 A 
ATOM      6  C   LIG    1       24.473 -21.311   4.980  0.00  0.00    +0.007 A 
ATOM      7  C   LIG    1       23.653 -20.468   4.227  0.00  0.00    +0.019 A 
BRANCH   2   9
ATOM      8  N   LIG    1       21.208 -18.063   3.457  0.00  0.00    -0.191 NA
ATOM      9  C   LIG    1       21.892 -18.767   4.085  0.00  0.00    +0.099 C 
ENDBRANCH   2   9
ENDBRANCH   1   5
BRANCH   1  10
ATOM     10  C   LIG    1       25.185 -23.758   6.786  0.00  0.00    -0.019 A 
ATOM     11  C   LIG    1       23.936 -24.369   6.573  0.00  0.00    +0.007 A 
ATOM     12  C   LIG    1       23.851 -25.700   6.143  0.00  0.00    +0.019 A 
ATOM     13  C   LIG    1       25.009 -26.457   5.936  0.00  0.00    +0.052 A 
ATOM     14  C   LIG    1       26.256 -25.869   6.162  0.00  0.00    +0.019 A 
ATOM     15  C   LIG    1       26.340 -24.536   6.575  0.00  0.00    +0.007 A 
BRANCH  13  16
ATOM     16  C   LIG    1       24.916 -27.821   5.496  0.00  0.00    +0.099 C 
ATOM     17  N   LIG    1       24.833 -28.926   5.146  0.00  0.00    -0.191 NA
ENDBRANCH  13  16
ENDBRANCH   1  10
BRANCH   1  18
ATOM     18  N   LIG    1       26.669 -21.807   7.320  0.00  0.00    -0.240 N 
ATOM     19  N   LIG    1       27.274 -21.107   6.329  0.00  0.00    -0.158 NA
ATOM     20  C   LIG    1       28.470 -20.854   6.864  0.00  0.00    +0.244 A 
ATOM     21  N   LIG    1       28.650 -21.325   8.131  0.00  0.00    -0.223 NA
ATOM     22  C   LIG    1       27.505 -21.913   8.396  0.00  0.00    +0.220 A 
ENDBRANCH   1  18
TORSDOF 5
ENDMDL
MODEL 4
REMARK VINA RESULT:      -7.5      1.181      6.148
REMARK  Name = *****
REMARK                            x       y       z     vdW  Elec       q    Type
REMARK                         _______ _______ _______ _____ _____    ______ ____
ROOT
ATOM      1  C   LIG    1       25.612 -21.459   5.342  0.00  0.00    +0.169 C 
ENDROOT
BRANCH   1   5
ATOM      2  C   LIG    1       28.638 -19.569   7.870  0.00  0.00    +0.052 A 
ATOM      3  C   LIG    1       28.803 -19.625   6.481  0.00  0.00    +0.019 A 
ATOM      4  C   LIG    1       27.829 -20.228   5.672  0.00  0.00    +0.007 A 
ATOM      5  C   LIG    1       26.663 -20.781   6.235  0.00  0.00    -0.019 A 
ATOM      6  C   LIG    1       26.523 -20.729   7.634  0.00  0.00    +0.007 A 
ATOM      7  C   LIG    1       27.493 -20.129   8.441  0.00  0.00    +0.019 A 
BRANCH   2   9
ATOM      8  N   LIG    1       30.434 -18.443   9.370  0.00  0.00    -0.191 NA
ATOM      9  C   LIG    1       29.624 -18.944   8.697  0.00  0.00    +0.099 C 
ENDBRANCH   2   9
ENDBRANCH   1   5
BRANCH   1  10
ATOM     10  C   LIG    1       25.392 -22.941   5.672  0.00  0.00    -0.019 A 
ATOM     11  C   LIG    1       24.714 -23.783   4.773  0.00  0.00    +0.007 A 
ATOM     12  C   LIG    1       24.541 -25.146   5.055  0.00  0.00    +0.019 A 
ATOM     13  C   LIG    1       25.023 -25.691   6.250  0.00  0.00    +0.052 A 
ATOM     14  C   LIG    1       25.680 -24.862   7.161  0.00  0.00    +0.019 A 
ATOM     15  C   LIG    1       25.867 -23.507   6.871  0.00  0.00    +0.007 A 
BRANCH  13  16
ATOM     16  C   LIG    1       24.842 -27.087   6.536  0.00  0.00    +0.099 C 
ATOM     17  N   LIG    1       24.686 -28.215   6.770  0.00  0.00    -0.191 NA
ENDBRANCH  13  16
ENDBRANCH   1  10
BRANCH   1  18
ATOM     18  N   LIG    1       24.350 -20.692   5.284  0.00  0.00    -0.240 N 
ATOM     19  N   LIG    1       23.418 -20.741   6.267  0.00  0.00    -0.158 NA
ATOM     20  C   LIG    1       22.501 -19.882   5.819  0.00  0.00    +0.244 A 
ATOM     21  N   LIG    1       22.803 -19.278   4.634  0.00  0.00    -0.223 NA
ATOM     22  C   LIG    1       23.970 -19.798   4.323  0.00  0.00    +0.220 A 
ENDBRANCH   1  18
TORSDOF 5
ENDMDL
MODEL 5
REMARK VINA RESULT:      -7.4      2.069      5.016
REMARK  Name = *****
REMARK                            x       y       z     vdW  Elec       q    Type
REMARK                         _______ _______ _______ _____ _____    ______ ____
ROOT
ATOM      1  C   LIG    1       25.777 -21.742   5.807  0.00  0.00    +0.169 C 
ENDROOT
BRANCH   1   5
ATOM      2  C   LIG    1       24.950 -26.016   6.209  0.00  0.00    +0.052 A 
ATOM      3  C   LIG    1       25.649 -25.328   7.208  0.00  0.00    +0.019 A 
ATOM      4  C   LIG    1       25.909 -23.956   7.079  0.00  0.00    +0.007 A 
ATOM      5  C   LIG    1       25.468 -23.240   5.949  0.00  0.00    -0.019 A 
ATOM      6  C   LIG    1       24.781 -23.953   4.949  0.00  0.00    +0.007 A 
ATOM      7  C   LIG    1       24.522 -25.320   5.077  0.00  0.00    +0.019 A 
BRANCH   2   9
ATOM      8  N   LIG    1       24.455 -28.554   6.449  0.00  0.00    -0.191 NA
ATOM      9  C   LIG    1       24.673 -27.414   6.344  0.00  0.00    +0.099 C 
ENDBRANCH   2   9
ENDBRANCH   1   5
BRANCH   1  10
ATOM     10  C   LIG    1       24.590 -20.918   5.290  0.00  0.00    -0.019 A 
ATOM     11  C   LIG    1       24.769 -19.961   4.276  0.00  0.00    +0.007 A 
ATOM     12  C   LIG    1       23.681 -19.231   3.776  0.00  0.00    +0.019 A 
ATOM     13  C   LIG    1       22.396 -19.427   4.292  0.00  0.00    +0.052 A 
ATOM     14  C   LIG    1       22.207 -20.361   5.313  0.00  0.00    +0.019 A 
ATOM     15  C   LIG    1       23.290 -21.100   5.799  0.00  0.00    +0.007 A 
BRANCH  13  16
ATOM     16  C   LIG    1       21.285 -18.676   3.777  0.00  0.00    +0.099 C 
ATOM     17  N   LIG    1       20.390 -18.069   3.352  0.00  0.00    -0.191 NA
ENDBRANCH  13  16
ENDBRANCH   1  10
BRANCH   1  18
ATOM     18  N   LIG    1       26.373 -21.176   7.036  0.00  0.00    -0.240 N 
ATOM     19  N   LIG    1       27.681 -20.831   7.124  0.00  0.00    -0.158 NA
ATOM     20  C   LIG    1       27.752 -20.340   8.362  0.00  0.00    +0.244 A 
ATOM     21  N   LIG    1       26.575 -20.330   9.050  0.00  0.00    -0.223 NA
ATOM     22  C   LIG    1       25.725 -20.853   8.195  0.00  0.00    +0.220 A 
ENDBRANCH   1  18
TORSDOF 5
ENDMDL
MODEL 6
REMARK VINA RESULT:      -6.8      1.985      4.869
REMARK  Name = *****
REMARK                            x       y       z     vdW  Elec       q    Type
REMARK                         _______ _______ _______ _____ _____    ______ ____
ROOT
ATOM      1  C   LIG    1       26.166 -21.427   5.517  0.00  0.00    +0.169 C 
ENDROOT
BRANCH   1   5
ATOM      2  C   LIG    1       22.636 -19.121   4.363  0.00  0.00    +0.052 A 
ATOM      3  C   LIG    1       22.642 -19.874   5.543  0.00  0.00    +0.019 A 
ATOM      4  C   LIG    1       23.777 -20.609   5.913  0.00  0.00    +0.007 A 
ATOM      5  C   LIG    1       24.936 -20.600   5.113  0.00  0.00    -0.019 A 
ATOM      6  C   LIG    1       24.905 -19.850   3.923  0.00  0.00    +0.007 A 
ATOM      7  C   LIG    1       23.774 -19.117   3.553  0.00  0.00    +0.019 A 
BRANCH   2   9
ATOM      8  N   LIG    1       20.545 -17.744   3.674  0.00  0.00    -0.191 NA
ATOM      9  C   LIG    1       21.483 -18.359   3.988  0.00  0.00    +0.099 C 
ENDBRANCH   2   9
ENDBRANCH   1   5
BRANCH   1  10
ATOM     10  C   LIG    1       27.178 -20.645   6.365  0.00  0.00    -0.019 A 
ATOM     11  C   LIG    1       27.014 -20.535   7.758  0.00  0.00    +0.007 A 
ATOM     12  C   LIG    1       27.954 -19.850   8.541  0.00  0.00    +0.019 A 
ATOM     13  C   LIG    1       29.067 -19.245   7.948  0.00  0.00    +0.052 A 
ATOM     14  C   LIG    1       29.232 -19.329   6.564  0.00  0.00    +0.019 A 
ATOM     15  C   LIG    1       28.303 -20.026   5.786  0.00  0.00    +0.007 A 
BRANCH  13  16
ATOM     16  C   LIG    1       30.028 -18.544   8.754  0.00  0.00    +0.099 C 
ATOM     17  N   LIG    1       30.799 -17.978   9.414  0.00  0.00    -0.191 NA
ENDBRANCH  13  16
ENDBRANCH   1  10
BRANCH   1  18
ATOM     18  N   LIG    1       25.794 -22.723   6.123  0.00  0.00    -0.240 N 
ATOM     19  N   LIG    1       25.012 -23.631   5.488  0.00  0.00    -0.158 NA
ATOM     20  C   LIG    1       24.983 -24.631   6.369  0.00  0.00    +0.244 A 
ATOM     21  N   LIG    1       25.711 -24.426   7.503  0.00  0.00    -0.223 NA
ATOM     22  C   LIG    1       26.215 -23.226   7.322  0.00  0.00    +0.220 A 
ENDBRANCH   1  18
TORSDOF 5
ENDMDL
