MODEL 1
REMARK VINA RESULT:      32.9      0.000      0.000
REMARK  Name = *****
REMARK                            x       y       z     vdW  Elec       q    Type
REMARK                         _______ _______ _______ _____ _____    ______ ____
ROOT
ATOM      1  C   LIG    1       24.929 -18.720   4.539  0.00  0.00    +0.165 C 
ATOM      2  C   LIG    1       25.518 -17.342   4.998  0.00  0.00    +0.012 C 
ATOM      3  C   LIG    1       25.957 -16.667   3.664  0.00  0.00    +0.004 C 
ATOM      4  C   LIG    1       24.942 -15.698   3.026  0.00  0.00    -0.000 C 
ATOM      5  C   LIG    1       24.359 -14.699   4.047  0.00  0.00    +0.035 C 
ATOM      6  C   LIG    1       23.645 -15.499   5.156  0.00  0.00    +0.120 C 
ATOM      7  C   LIG    1       25.326 -13.527   4.503  0.00  0.00    +0.013 C 
ATOM      8  C   LIG    1       26.142 -12.963   3.307  0.00  0.00    -0.056 C 
ATOM      9  C   LIG    1       27.038 -11.977   3.562  0.00  0.00    +0.051 C 
ATOM     10  C   LIG    1       28.091 -12.492   4.517  0.00  0.00    +0.179 C 
ATOM     11  C   LIG    1       27.615 -13.414   5.587  0.00  0.00    +0.047 C 
ATOM     12  O   LIG    1       29.248 -12.096   4.478  0.00  0.00    -0.288 OA
ATOM     13  C   LIG    1       26.569 -13.930   2.219  0.00  0.00    +0.032 C 
ATOM     14  C   LIG    1       24.427 -12.403   5.091  0.00  0.00    +0.020 C 
ATOM     15  C   LIG    1       26.342 -13.852   5.597  0.00  0.00    -0.012 C 
ATOM     16  C   LIG    1       25.490 -14.919   1.824  0.00  0.00    +0.008 C 
ATOM     17  C   LIG    1       26.359 -17.844   2.743  0.00  0.00    +0.039 C 
ATOM     18  C   LIG    1       26.821 -17.495   5.838  0.00  0.00    +0.015 C 
ATOM     19  C   LIG    1       24.497 -16.557   5.856  0.00  0.00    +0.042 C 
ATOM     20  C   LIG    1       25.797 -19.135   3.361  0.00  0.00    +0.162 C 
ATOM     21  O   LIG    1       24.888 -19.774   2.464  0.00  0.00    -0.344 OA
ATOM     22  C   LIG    1       23.660 -19.070   2.629  0.00  0.00    +0.255 C 
ATOM     23  O   LIG    1       23.613 -18.563   3.972  0.00  0.00    -0.334 OA
ENDROOT
BRANCH  22  24
ATOM     24  C   LIG    1       22.457 -19.966   2.284  0.00  0.00    +0.045 C 
ATOM     25  C   LIG    1       22.623 -21.413   2.781  0.00  0.00    +0.008 C 
ATOM     26  C   LIG    1       22.510 -21.546   4.300  0.00  0.00    +0.000 C 
ATOM     27  C   LIG    1       21.233 -20.910   4.844  0.00  0.00    +0.000 C 
ATOM     28  C   LIG    1       21.048 -19.475   4.359  0.00  0.00    +0.000 C 
ATOM     29  C   LIG    1       21.143 -19.378   2.836  0.00  0.00    +0.008 C 
ENDBRANCH  22  24
BRANCH   1  30
ATOM     30  C   LIG    1       24.934 -19.789   5.663  0.00  0.00    +0.205 C 
ATOM     31  O   LIG    1       24.094 -19.788   6.572  0.00  0.00    -0.291 OA
BRANCH  30  32
ATOM     32  C   LIG    1       26.035 -20.849   5.640  0.00  0.00    +0.309 C 
BRANCH  32  33
ATOM     33  O   LIG    1       26.813 -20.831   6.843  0.00  0.00    -0.457 OA
BRANCH  33  34
ATOM     34  C   LIG    1       28.163 -20.722   6.646  0.00  0.00    +0.310 C 
ATOM     35  O   LIG    1       28.984 -21.567   6.952  0.00  0.00    -0.251 OA
BRANCH  34  37
ATOM     36  C   LIG    1       29.459 -18.657   7.049  0.00  0.00    +0.019 C 
ATOM     37  C   LIG    1       28.486 -19.345   6.095  0.00  0.00    +0.092 C 
ATOM     38  C   LIG    1       29.066 -19.447   4.688  0.00  0.00    +0.019 C 
ENDBRANCH  34  37
ENDBRANCH  33  34
ENDBRANCH  32  33
ENDBRANCH  30  32
ENDBRANCH   1  30
BRANCH   6  39
ATOM     39  O   LIG    1       22.491 -16.127   4.578  0.00  0.00    -0.391 OA
ATOM     40  H   LIG    1       21.736 -15.509   4.634  0.00  0.00    +0.210 HD
ENDBRANCH   6  39
TORSDOF 7
ENDMDL
