MODEL 1
REMARK VINA RESULT:      -2.6      0.000      0.000
REMARK  Name = *****
REMARK                            x       y       z     vdW  Elec       q    Type
REMARK                         _______ _______ _______ _____ _____    ______ ____
ROOT
ATOM      1  N   LIG    1       26.173 -18.685   4.674  0.00  0.00    -0.298 N 
ATOM      2  C   LIG    1       24.872 -19.262   4.705  0.00  0.00    +0.048 A 
ATOM      3  C   LIG    1       24.627 -20.531   5.262  0.00  0.00    +0.034 A 
ATOM      4  C   LIG    1       23.322 -21.046   5.301  0.00  0.00    +0.017 A 
ATOM      5  C   LIG    1       22.245 -20.309   4.807  0.00  0.00    +0.013 A 
ATOM      6  C   LIG    1       22.456 -19.037   4.270  0.00  0.00    +0.057 A 
ATOM      7  S   LIG    1       25.925 -21.572   5.898  0.00  0.00    -0.086 S 
ATOM      8  C   LIG    1       27.262 -20.410   6.085  0.00  0.00    +0.034 A 
ATOM      9  C   LIG    1       28.376 -20.836   6.825  0.00  0.00    +0.017 A 
ATOM     10  C   LIG    1       29.475 -19.999   7.007  0.00  0.00    +0.001 A 
ATOM     11  C   LIG    1       29.462 -18.722   6.460  0.00  0.00    +0.002 A 
ATOM     12  C   LIG    1       28.362 -18.296   5.712  0.00  0.00    +0.024 A 
ATOM     13  C   LIG    1       23.766 -18.527   4.232  0.00  0.00    +0.037 A 
ATOM     14  C   LIG    1       27.256 -19.138   5.485  0.00  0.00    +0.048 A 
ENDROOT
BRANCH   6  15
ATOM     15  C   LIG    1       21.307 -18.211   3.746  0.00  0.00    +0.417 C 
ATOM     16  F   LIG    1       21.346 -18.075   2.391  0.00  0.00    -0.166 F 
ATOM     17  F   LIG    1       21.303 -16.944   4.247  0.00  0.00    -0.166 F 
ATOM     18  F   LIG    1       20.083 -18.731   4.033  0.00  0.00    -0.166 F 
ENDBRANCH   6  15
BRANCH   1  19
ATOM     19  C   LIG    1       26.616 -18.266   3.309  0.00  0.00    +0.112 C 
BRANCH  19  20
ATOM     20  C   LIG    1       27.151 -16.826   3.309  0.00  0.00    +0.035 C 
BRANCH  20  21
ATOM     21  C   LIG    1       26.069 -15.772   3.059  0.00  0.00    +0.086 C 
BRANCH  21  26
ATOM     22  C   LIG    1       23.900 -11.448   3.446  0.00  0.00    +0.105 C 
ATOM     23  N   LIG    1       23.842 -12.817   2.940  0.00  0.00    -0.303 NA
ATOM     24  C   LIG    1       24.925 -13.081   1.972  0.00  0.00    +0.099 C 
ATOM     25  C   LIG    1       26.311 -13.355   2.604  0.00  0.00    +0.100 C 
ATOM     26  N   LIG    1       26.324 -14.431   3.620  0.00  0.00    -0.300 NA
ATOM     27  C   LIG    1       25.284 -14.098   4.627  0.00  0.00    +0.100 C 
ATOM     28  C   LIG    1       23.877 -13.800   4.041  0.00  0.00    +0.099 C 
ENDBRANCH  21  26
ENDBRANCH  20  21
ENDBRANCH  19  20
ENDBRANCH   1  19
TORSDOF 5
ENDMDL
