MODEL 1
REMARK VINA RESULT:      -9.3      0.000      0.000
REMARK  Name = *****
REMARK                            x       y       z     vdW  Elec       q    Type
REMARK                         _______ _______ _______ _____ _____    ______ ____
ROOT
ATOM      1  C   LIG    1       25.525 -22.546   6.771  0.00  0.00    +0.011 C 
ATOM      2  C   LIG    1       25.504 -23.880   7.426  0.00  0.00    +0.269 C 
ATOM      3  O   LIG    1       24.213 -24.413   7.155  0.00  0.00    -0.456 OA
ATOM      4  C   LIG    1       23.495 -23.498   6.453  0.00  0.00    +0.341 C 
ATOM      5  O   LIG    1       22.339 -23.650   6.095  0.00  0.00    -0.245 OA
ATOM      6  C   LIG    1       24.332 -22.307   6.202  0.00  0.00    +0.073 C 
ENDROOT
BRANCH   1  10
ATOM      7  C   LIG    1       29.044 -20.086   6.965  0.00  0.00    +0.088 A 
ATOM      8  C   LIG    1       28.120 -19.885   5.946  0.00  0.00    +0.027 A 
ATOM      9  C   LIG    1       26.978 -20.690   5.887  0.00  0.00    +0.010 A 
ATOM     10  C   LIG    1       26.730 -21.692   6.837  0.00  0.00    -0.018 A 
ATOM     11  C   LIG    1       27.700 -21.892   7.836  0.00  0.00    +0.010 A 
ATOM     12  C   LIG    1       28.853 -21.098   7.903  0.00  0.00    +0.027 A 
BRANCH   7  14
ATOM     13  C   LIG    1       30.184 -18.079   8.497  0.00  0.00    +0.200 C 
ATOM     14  S   LIG    1       30.488 -19.058   7.049  0.00  0.00    -0.006 S 
ATOM     15  O   LIG    1       31.624 -19.920   7.311  0.00  0.00    -0.170 OA
ATOM     16  O   LIG    1       30.468 -18.179   5.895  0.00  0.00    -0.170 OA
ENDBRANCH   7  14
ENDBRANCH   1  10
BRANCH   6  17
ATOM     17  C   LIG    1       23.831 -21.137   5.489  0.00  0.00    -0.011 A 
ATOM     18  C   LIG    1       24.239 -20.881   4.173  0.00  0.00    +0.009 A 
ATOM     19  C   LIG    1       23.764 -19.758   3.493  0.00  0.00    +0.001 A 
ATOM     20  C   LIG    1       22.860 -18.899   4.114  0.00  0.00    +0.000 A 
ATOM     21  C   LIG    1       22.439 -19.154   5.419  0.00  0.00    +0.001 A 
ATOM     22  C   LIG    1       22.928 -20.265   6.108  0.00  0.00    +0.009 A 
ENDBRANCH   6  17
TORSDOF 3
ENDMDL
MODEL 2
REMARK VINA RESULT:      -9.3      0.041      1.031
REMARK  Name = *****
REMARK                            x       y       z     vdW  Elec       q    Type
REMARK                         _______ _______ _______ _____ _____    ______ ____
ROOT
ATOM      1  C   LIG    1       25.525 -22.522   6.763  0.00  0.00    +0.011 C 
ATOM      2  C   LIG    1       25.507 -23.852   7.427  0.00  0.00    +0.269 C 
ATOM      3  O   LIG    1       24.219 -24.392   7.154  0.00  0.00    -0.456 OA
ATOM      4  C   LIG    1       23.501 -23.485   6.444  0.00  0.00    +0.341 C 
ATOM      5  O   LIG    1       22.348 -23.643   6.081  0.00  0.00    -0.245 OA
ATOM      6  C   LIG    1       24.335 -22.292   6.188  0.00  0.00    +0.073 C 
ENDROOT
BRANCH   1  10
ATOM      7  C   LIG    1       29.034 -20.047   6.957  0.00  0.00    +0.088 A 
ATOM      8  C   LIG    1       28.122 -19.868   5.924  0.00  0.00    +0.027 A 
ATOM      9  C   LIG    1       26.983 -20.677   5.865  0.00  0.00    +0.010 A 
ATOM     10  C   LIG    1       26.727 -21.663   6.829  0.00  0.00    -0.018 A 
ATOM     11  C   LIG    1       27.686 -21.842   7.844  0.00  0.00    +0.010 A 
ATOM     12  C   LIG    1       28.835 -21.044   7.910  0.00  0.00    +0.027 A 
BRANCH   7  14
ATOM     13  C   LIG    1       30.198 -18.083   8.525  0.00  0.00    +0.200 C 
ATOM     14  S   LIG    1       30.474 -19.013   7.041  0.00  0.00    -0.006 S 
ATOM     15  O   LIG    1       31.620 -19.876   7.249  0.00  0.00    -0.170 OA
ATOM     16  O   LIG    1       30.422 -18.098   5.915  0.00  0.00    -0.170 OA
ENDBRANCH   7  14
ENDBRANCH   1  10
BRANCH   6  17
ATOM     17  C   LIG    1       23.832 -21.128   5.466  0.00  0.00    -0.011 A 
ATOM     18  C   LIG    1       22.926 -20.252   6.080  0.00  0.00    +0.009 A 
ATOM     19  C   LIG    1       22.440 -19.142   5.387  0.00  0.00    +0.001 A 
ATOM     20  C   LIG    1       22.874 -18.886   4.087  0.00  0.00    +0.000 A 
ATOM     21  C   LIG    1       23.785 -19.747   3.475  0.00  0.00    +0.001 A 
ATOM     22  C   LIG    1       24.258 -20.868   4.158  0.00  0.00    +0.009 A 
ENDBRANCH   6  17
TORSDOF 3
ENDMDL
MODEL 3
REMARK VINA RESULT:      -9.1      1.744      3.741
REMARK  Name = *****
REMARK                            x       y       z     vdW  Elec       q    Type
REMARK                         _______ _______ _______ _____ _____    ______ ____
ROOT
ATOM      1  C   LIG    1       24.840 -21.744   7.012  0.00  0.00    +0.011 C 
ATOM      2  C   LIG    1       23.711 -20.807   7.252  0.00  0.00    +0.269 C 
ATOM      3  O   LIG    1       22.532 -21.588   7.094  0.00  0.00    -0.456 OA
ATOM      4  C   LIG    1       22.883 -22.853   6.750  0.00  0.00    +0.341 C 
ATOM      5  O   LIG    1       22.094 -23.753   6.518  0.00  0.00    -0.245 OA
ATOM      6  C   LIG    1       24.356 -22.958   6.703  0.00  0.00    +0.073 C 
ENDROOT
BRANCH   1  10
ATOM      7  C   LIG    1       28.901 -20.361   7.267  0.00  0.00    +0.088 A 
ATOM      8  C   LIG    1       28.389 -21.179   8.267  0.00  0.00    +0.027 A 
ATOM      9  C   LIG    1       27.067 -21.624   8.180  0.00  0.00    +0.010 A 
ATOM     10  C   LIG    1       26.239 -21.277   7.101  0.00  0.00    -0.018 A 
ATOM     11  C   LIG    1       26.777 -20.421   6.122  0.00  0.00    +0.010 A 
ATOM     12  C   LIG    1       28.098 -19.961   6.201  0.00  0.00    +0.027 A 
BRANCH   7  14
ATOM     13  C   LIG    1       30.468 -18.424   8.479  0.00  0.00    +0.200 C 
ATOM     14  S   LIG    1       30.583 -19.804   7.370  0.00  0.00    -0.006 S 
ATOM     15  O   LIG    1       31.350 -20.849   8.019  0.00  0.00    -0.170 OA
ATOM     16  O   LIG    1       30.960 -19.304   6.061  0.00  0.00    -0.170 OA
ENDBRANCH   7  14
ENDBRANCH   1  10
BRANCH   6  17
ATOM     17  C   LIG    1       25.040 -24.194   6.336  0.00  0.00    -0.011 A 
ATOM     18  C   LIG    1       25.734 -24.932   7.304  0.00  0.00    +0.009 A 
ATOM     19  C   LIG    1       26.393 -26.111   6.952  0.00  0.00    +0.001 A 
ATOM     20  C   LIG    1       26.342 -26.573   5.638  0.00  0.00    +0.000 A 
ATOM     21  C   LIG    1       25.643 -25.849   4.672  0.00  0.00    +0.001 A 
ATOM     22  C   LIG    1       24.999 -24.660   5.017  0.00  0.00    +0.009 A 
ENDBRANCH   6  17
TORSDOF 3
ENDMDL
MODEL 4
REMARK VINA RESULT:      -8.6      2.054      3.787
REMARK  Name = *****
REMARK                            x       y       z     vdW  Elec       q    Type
REMARK                         _______ _______ _______ _____ _____    ______ ____
ROOT
ATOM      1  C   LIG    1       25.859 -19.923   4.864  0.00  0.00    +0.011 C 
ATOM      2  C   LIG    1       25.730 -18.822   3.873  0.00  0.00    +0.269 C 
ATOM      3  O   LIG    1       24.486 -19.047   3.220  0.00  0.00    -0.456 OA
ATOM      4  C   LIG    1       23.927 -20.182   3.713  0.00  0.00    +0.341 C 
ATOM      5  O   LIG    1       22.869 -20.656   3.333  0.00  0.00    -0.245 OA
ATOM      6  C   LIG    1       24.799 -20.740   4.767  0.00  0.00    +0.073 C 
ENDROOT
BRANCH   1  10
ATOM      7  C   LIG    1       29.305 -20.146   7.423  0.00  0.00    +0.088 A 
ATOM      8  C   LIG    1       28.118 -20.752   7.814  0.00  0.00    +0.027 A 
ATOM      9  C   LIG    1       26.999 -20.674   6.979  0.00  0.00    +0.010 A 
ATOM     10  C   LIG    1       27.044 -20.008   5.745  0.00  0.00    -0.018 A 
ATOM     11  C   LIG    1       28.251 -19.378   5.392  0.00  0.00    +0.010 A 
ATOM     12  C   LIG    1       29.377 -19.441   6.223  0.00  0.00    +0.027 A 
BRANCH   7  14
ATOM     13  C   LIG    1       30.729 -21.961   8.957  0.00  0.00    +0.200 C 
ATOM     14  S   LIG    1       30.730 -20.254   8.476  0.00  0.00    -0.006 S 
ATOM     15  O   LIG    1       31.900 -20.011   7.655  0.00  0.00    -0.170 OA
ATOM     16  O   LIG    1       30.465 -19.450   9.655  0.00  0.00    -0.170 OA
ENDBRANCH   7  14
ENDBRANCH   1  10
BRANCH   6  17
ATOM     17  C   LIG    1       24.478 -21.977   5.472  0.00  0.00    -0.011 A 
ATOM     18  C   LIG    1       23.494 -21.988   6.470  0.00  0.00    +0.009 A 
ATOM     19  C   LIG    1       23.192 -23.169   7.149  0.00  0.00    +0.001 A 
ATOM     20  C   LIG    1       23.851 -24.352   6.817  0.00  0.00    +0.000 A 
ATOM     21  C   LIG    1       24.823 -24.351   5.816  0.00  0.00    +0.001 A 
ATOM     22  C   LIG    1       25.141 -23.167   5.150  0.00  0.00    +0.009 A 
ENDBRANCH   6  17
TORSDOF 3
ENDMDL
MODEL 5
REMARK VINA RESULT:      -8.3      4.697      7.729
REMARK  Name = *****
REMARK                            x       y       z     vdW  Elec       q    Type
REMARK                         _______ _______ _______ _____ _____    ______ ____
ROOT
ATOM      1  C   LIG    1       25.017 -27.920   6.163  0.00  0.00    +0.011 C 
ATOM      2  C   LIG    1       24.937 -28.449   4.776  0.00  0.00    +0.269 C 
ATOM      3  O   LIG    1       25.058 -29.861   4.904  0.00  0.00    -0.456 OA
ATOM      4  C   LIG    1       25.240 -30.173   6.212  0.00  0.00    +0.341 C 
ATOM      5  O   LIG    1       25.404 -31.303   6.640  0.00  0.00    -0.245 OA
ATOM      6  C   LIG    1       25.209 -28.936   7.020  0.00  0.00    +0.073 C 
ENDROOT
BRANCH   1  10
ATOM      7  C   LIG    1       24.750 -23.694   6.900  0.00  0.00    +0.088 A 
ATOM      8  C   LIG    1       23.609 -24.404   6.545  0.00  0.00    +0.027 A 
ATOM      9  C   LIG    1       23.702 -25.778   6.304  0.00  0.00    +0.010 A 
ATOM     10  C   LIG    1       24.918 -26.468   6.422  0.00  0.00    -0.018 A 
ATOM     11  C   LIG    1       26.061 -25.716   6.751  0.00  0.00    +0.010 A 
ATOM     12  C   LIG    1       25.984 -24.337   6.987  0.00  0.00    +0.027 A 
BRANCH   7  14
ATOM     13  C   LIG    1       25.867 -21.700   8.465  0.00  0.00    +0.200 C 
ATOM     14  S   LIG    1       24.632 -21.952   7.217  0.00  0.00    -0.006 S 
ATOM     15  O   LIG    1       25.051 -21.259   6.014  0.00  0.00    -0.170 OA
ATOM     16  O   LIG    1       23.331 -21.701   7.808  0.00  0.00    -0.170 OA
ENDBRANCH   7  14
ENDBRANCH   1  10
BRANCH   6  17
ATOM     17  C   LIG    1       25.402 -28.942   8.466  0.00  0.00    -0.011 A 
ATOM     18  C   LIG    1       24.480 -29.590   9.300  0.00  0.00    +0.009 A 
ATOM     19  C   LIG    1       24.661 -29.591  10.684  0.00  0.00    +0.001 A 
ATOM     20  C   LIG    1       25.776 -28.967  11.241  0.00  0.00    +0.000 A 
ATOM     21  C   LIG    1       26.704 -28.332  10.416  0.00  0.00    +0.001 A 
ATOM     22  C   LIG    1       26.515 -28.312   9.034  0.00  0.00    +0.009 A 
ENDBRANCH   6  17
TORSDOF 3
ENDMDL
MODEL 6
REMARK VINA RESULT:      -8.1      1.043      1.525
REMARK  Name = *****
REMARK                            x       y       z     vdW  Elec       q    Type
REMARK                         _______ _______ _______ _____ _____    ______ ____
ROOT
ATOM      1  C   LIG    1       25.732 -22.338   6.921  0.00  0.00    +0.011 C 
ATOM      2  C   LIG    1       25.502 -23.663   7.555  0.00  0.00    +0.269 C 
ATOM      3  O   LIG    1       24.271 -24.130   7.016  0.00  0.00    -0.456 OA
ATOM      4  C   LIG    1       23.768 -23.186   6.180  0.00  0.00    +0.341 C 
ATOM      5  O   LIG    1       22.708 -23.280   5.584  0.00  0.00    -0.245 OA
ATOM      6  C   LIG    1       24.702 -22.043   6.113  0.00  0.00    +0.073 C 
ENDROOT
BRANCH   1  10
ATOM      7  C   LIG    1       29.237 -20.044   7.883  0.00  0.00    +0.088 A 
ATOM      8  C   LIG    1       29.362 -21.212   7.141  0.00  0.00    +0.027 A 
ATOM      9  C   LIG    1       28.219 -21.955   6.833  0.00  0.00    +0.010 A 
ATOM     10  C   LIG    1       26.940 -21.549   7.243  0.00  0.00    -0.018 A 
ATOM     11  C   LIG    1       26.851 -20.379   8.020  0.00  0.00    +0.010 A 
ATOM     12  C   LIG    1       27.989 -19.629   8.343  0.00  0.00    +0.027 A 
BRANCH   7  14
ATOM     13  C   LIG    1       30.061 -17.865   9.383  0.00  0.00    +0.200 C 
ATOM     14  S   LIG    1       30.686 -19.092   8.265  0.00  0.00    -0.006 S 
ATOM     15  O   LIG    1       31.595 -19.954   8.994  0.00  0.00    -0.170 OA
ATOM     16  O   LIG    1       31.105 -18.424   7.047  0.00  0.00    -0.170 OA
ENDBRANCH   7  14
ENDBRANCH   1  10
BRANCH   6  17
ATOM     17  C   LIG    1       24.426 -20.854   5.312  0.00  0.00    -0.011 A 
ATOM     18  C   LIG    1       23.220 -20.159   5.472  0.00  0.00    +0.009 A 
ATOM     19  C   LIG    1       22.953 -19.026   4.701  0.00  0.00    +0.001 A 
ATOM     20  C   LIG    1       23.899 -18.566   3.787  0.00  0.00    +0.000 A 
ATOM     21  C   LIG    1       25.107 -19.246   3.633  0.00  0.00    +0.001 A 
ATOM     22  C   LIG    1       25.368 -20.390   4.387  0.00  0.00    +0.009 A 
ENDBRANCH   6  17
TORSDOF 3
ENDMDL
MODEL 7
REMARK VINA RESULT:      -7.8      5.033      8.079
REMARK  Name = *****
REMARK                            x       y       z     vdW  Elec       q    Type
REMARK                         _______ _______ _______ _____ _____    ______ ____
ROOT
ATOM      1  C   LIG    1       25.205 -28.656   6.383  0.00  0.00    +0.011 C 
ATOM      2  C   LIG    1       25.136 -29.441   5.123  0.00  0.00    +0.269 C 
ATOM      3  O   LIG    1       25.197 -30.805   5.524  0.00  0.00    -0.456 OA
ATOM      4  C   LIG    1       25.335 -30.863   6.873  0.00  0.00    +0.341 C 
ATOM      5  O   LIG    1       25.444 -31.894   7.516  0.00  0.00    -0.245 OA
ATOM      6  C   LIG    1       25.336 -29.492   7.425  0.00  0.00    +0.073 C 
ENDROOT
BRANCH   1  10
ATOM      7  C   LIG    1       25.055 -24.361   6.319  0.00  0.00    +0.088 A 
ATOM      8  C   LIG    1       26.275 -25.004   6.493  0.00  0.00    +0.027 A 
ATOM      9  C   LIG    1       26.317 -26.401   6.516  0.00  0.00    +0.010 A 
ATOM     10  C   LIG    1       25.160 -27.179   6.355  0.00  0.00    -0.018 A 
ATOM     11  C   LIG    1       23.937 -26.498   6.212  0.00  0.00    +0.010 A 
ATOM     12  C   LIG    1       23.879 -25.098   6.196  0.00  0.00    +0.027 A 
BRANCH   7  14
ATOM     13  C   LIG    1       23.583 -22.220   7.278  0.00  0.00    +0.200 C 
ATOM     14  S   LIG    1       25.001 -22.588   6.278  0.00  0.00    -0.006 S 
ATOM     15  O   LIG    1       26.182 -22.098   6.962  0.00  0.00    -0.170 OA
ATOM     16  O   LIG    1       24.710 -22.189   4.913  0.00  0.00    -0.170 OA
ENDBRANCH   7  14
ENDBRANCH   1  10
BRANCH   6  17
ATOM     17  C   LIG    1       25.494 -29.225   8.851  0.00  0.00    -0.011 A 
ATOM     18  C   LIG    1       24.561 -29.720   9.772  0.00  0.00    +0.009 A 
ATOM     19  C   LIG    1       24.709 -29.460  11.135  0.00  0.00    +0.001 A 
ATOM     20  C   LIG    1       25.803 -28.725  11.589  0.00  0.00    +0.000 A 
ATOM     21  C   LIG    1       26.743 -28.240  10.680  0.00  0.00    +0.001 A 
ATOM     22  C   LIG    1       26.586 -28.483   9.314  0.00  0.00    +0.009 A 
ENDBRANCH   6  17
TORSDOF 3
ENDMDL
MODEL 8
REMARK VINA RESULT:      -7.3      6.815      9.808
REMARK  Name = *****
REMARK                            x       y       z     vdW  Elec       q    Type
REMARK                         _______ _______ _______ _____ _____    ______ ____
ROOT
ATOM      1  C   LIG    1       25.358 -30.602   9.995  0.00  0.00    +0.011 C 
ATOM      2  C   LIG    1       26.055 -31.902   9.815  0.00  0.00    +0.269 C 
ATOM      3  O   LIG    1       25.821 -32.625  11.018  0.00  0.00    -0.456 OA
ATOM      4  C   LIG    1       25.102 -31.848  11.867  0.00  0.00    +0.341 C 
ATOM      5  O   LIG    1       24.767 -32.177  12.993  0.00  0.00    -0.245 OA
ATOM      6  C   LIG    1       24.800 -30.557  11.215  0.00  0.00    +0.073 C 
ENDROOT
BRANCH   1  10
ATOM      7  C   LIG    1       25.393 -27.631   6.888  0.00  0.00    +0.088 A 
ATOM      8  C   LIG    1       26.281 -27.525   7.952  0.00  0.00    +0.027 A 
ATOM      9  C   LIG    1       26.263 -28.493   8.961  0.00  0.00    +0.010 A 
ATOM     10  C   LIG    1       25.378 -29.581   8.925  0.00  0.00    -0.018 A 
ATOM     11  C   LIG    1       24.471 -29.643   7.852  0.00  0.00    +0.010 A 
ATOM     12  C   LIG    1       24.471 -28.676   6.839  0.00  0.00    +0.027 A 
BRANCH   7  14
ATOM     13  C   LIG    1       25.953 -24.952   6.461  0.00  0.00    +0.200 C 
ATOM     14  S   LIG    1       25.421 -26.410   5.601  0.00  0.00    -0.006 S 
ATOM     15  O   LIG    1       26.458 -26.790   4.661  0.00  0.00    -0.170 OA
ATOM     16  O   LIG    1       24.054 -26.205   5.161  0.00  0.00    -0.170 OA
ENDBRANCH   7  14
ENDBRANCH   1  10
BRANCH   6  17
ATOM     17  C   LIG    1       24.059 -29.496  11.889  0.00  0.00    -0.011 A 
ATOM     18  C   LIG    1       24.742 -28.452  12.527  0.00  0.00    +0.009 A 
ATOM     19  C   LIG    1       24.033 -27.440  13.177  0.00  0.00    +0.001 A 
ATOM     20  C   LIG    1       22.640 -27.451  13.171  0.00  0.00    +0.000 A 
ATOM     21  C   LIG    1       21.953 -28.480  12.527  0.00  0.00    +0.001 A 
ATOM     22  C   LIG    1       22.660 -29.504  11.893  0.00  0.00    +0.009 A 
ENDBRANCH   6  17
TORSDOF 3
ENDMDL
MODEL 9
REMARK VINA RESULT:      -7.1      8.357     10.526
REMARK  Name = *****
REMARK                            x       y       z     vdW  Elec       q    Type
REMARK                         _______ _______ _______ _____ _____    ______ ____
ROOT
ATOM      1  C   LIG    1       25.898 -29.241  11.935  0.00  0.00    +0.011 C 
ATOM      2  C   LIG    1       27.227 -29.654  12.459  0.00  0.00    +0.269 C 
ATOM      3  O   LIG    1       27.156 -29.457  13.866  0.00  0.00    -0.456 OA
ATOM      4  C   LIG    1       25.941 -28.938  14.179  0.00  0.00    +0.341 C 
ATOM      5  O   LIG    1       25.585 -28.633  15.305  0.00  0.00    -0.245 OA
ATOM      6  C   LIG    1       25.134 -28.804  12.948  0.00  0.00    +0.073 C 
ENDROOT
BRANCH   1  10
ATOM      7  C   LIG    1       25.060 -29.469   7.726  0.00  0.00    +0.088 A 
ATOM      8  C   LIG    1       24.386 -30.305   8.608  0.00  0.00    +0.027 A 
ATOM      9  C   LIG    1       24.664 -30.228   9.976  0.00  0.00    +0.010 A 
ATOM     10  C   LIG    1       25.601 -29.318  10.489  0.00  0.00    -0.018 A 
ATOM     11  C   LIG    1       26.290 -28.508   9.568  0.00  0.00    +0.010 A 
ATOM     12  C   LIG    1       26.026 -28.581   8.193  0.00  0.00    +0.027 A 
BRANCH   7  14
ATOM     13  C   LIG    1       24.987 -27.892   5.450  0.00  0.00    +0.200 C 
ATOM     14  S   LIG    1       24.699 -29.557   5.991  0.00  0.00    -0.006 S 
ATOM     15  O   LIG    1       25.696 -30.415   5.380  0.00  0.00    -0.170 OA
ATOM     16  O   LIG    1       23.283 -29.841   5.851  0.00  0.00    -0.170 OA
ENDBRANCH   7  14
ENDBRANCH   1  10
BRANCH   6  17
ATOM     17  C   LIG    1       23.784 -28.249  12.956  0.00  0.00    -0.011 A 
ATOM     18  C   LIG    1       22.683 -29.063  12.655  0.00  0.00    +0.009 A 
ATOM     19  C   LIG    1       21.393 -28.531  12.657  0.00  0.00    +0.001 A 
ATOM     20  C   LIG    1       21.191 -27.191  12.984  0.00  0.00    +0.000 A 
ATOM     21  C   LIG    1       22.281 -26.379  13.296  0.00  0.00    +0.001 A 
ATOM     22  C   LIG    1       23.574 -26.903  13.276  0.00  0.00    +0.009 A 
ENDBRANCH   6  17
TORSDOF 3
ENDMDL
