MODEL 1
REMARK VINA RESULT:      -7.3      0.000      0.000
REMARK  Name = *****
REMARK                            x       y       z     vdW  Elec       q    Type
REMARK                         _______ _______ _______ _____ _____    ______ ____
ROOT
ATOM      1  C   LIG    1       25.048 -21.361   6.249  0.00  0.00    +0.126 C 
ATOM      2  C   LIG    1       25.799 -20.636   7.370  0.00  0.00    +0.236 C 
ATOM      3  O   LIG    1       25.339 -20.436   8.492  0.00  0.00    -0.274 OA
ATOM      4  N   LIG    1       27.081 -20.260   7.084  0.00  0.00    -0.239 N 
ATOM      5  H   LIG    1       27.573 -19.796   7.837  0.00  0.00    +0.159 HD
ATOM      6  C   LIG    1       27.501 -19.913   5.840  0.00  0.00    +0.312 C 
ATOM      7  O   LIG    1       28.464 -19.171   5.673  0.00  0.00    -0.252 OA
ATOM      8  N   LIG    1       26.743 -20.335   4.794  0.00  0.00    -0.239 N 
ATOM      9  H   LIG    1       26.992 -19.929   3.901  0.00  0.00    +0.159 HD
ATOM     10  C   LIG    1       25.438 -20.729   4.911  0.00  0.00    +0.236 C 
ATOM     11  O   LIG    1       24.676 -20.617   3.954  0.00  0.00    -0.274 OA
ENDROOT
BRANCH   1  12
ATOM     12  C   LIG    1       25.547 -22.870   6.235  0.00  0.00    +0.010 C 
ATOM     13  C   LIG    1       25.836 -23.405   7.651  0.00  0.00    +0.009 C 
BRANCH  12  14
ATOM     14  C   LIG    1       24.572 -23.823   5.488  0.00  0.00    +0.004 C 
BRANCH  14  16
ATOM     15  C   LIG    1       24.275 -26.301   5.859  0.00  0.00    +0.004 C 
ATOM     16  C   LIG    1       23.942 -24.908   6.371  0.00  0.00    -0.003 C 
ENDBRANCH  14  16
ENDBRANCH  12  14
ENDBRANCH   1  12
BRANCH   1  17
ATOM     17  C   LIG    1       23.515 -21.259   6.472  0.00  0.00    +0.022 C 
ATOM     18  C   LIG    1       22.871 -19.964   5.973  0.00  0.00    +0.005 C 
ENDBRANCH   1  17
TORSDOF 4
ENDMDL
MODEL 2
REMARK VINA RESULT:      -7.2      1.483      1.767
REMARK  Name = *****
REMARK                            x       y       z     vdW  Elec       q    Type
REMARK                         _______ _______ _______ _____ _____    ______ ____
ROOT
ATOM      1  C   LIG    1       24.136 -21.523   6.214  0.00  0.00    +0.126 C 
ATOM      2  C   LIG    1       24.105 -20.900   7.612  0.00  0.00    +0.236 C 
ATOM      3  O   LIG    1       23.077 -20.561   8.195  0.00  0.00    -0.274 OA
ATOM      4  N   LIG    1       25.312 -20.789   8.243  0.00  0.00    -0.239 N 
ATOM      5  H   LIG    1       25.278 -20.391   9.173  0.00  0.00    +0.159 HD
ATOM      6  C   LIG    1       26.485 -20.590   7.588  0.00  0.00    +0.312 C 
ATOM      7  O   LIG    1       27.442 -20.053   8.138  0.00  0.00    -0.252 OA
ATOM      8  N   LIG    1       26.516 -20.910   6.268  0.00  0.00    -0.239 N 
ATOM      9  H   LIG    1       27.346 -20.604   5.778  0.00  0.00    +0.159 HD
ATOM     10  C   LIG    1       25.397 -21.043   5.492  0.00  0.00    +0.236 C 
ATOM     11  O   LIG    1       25.461 -20.836   4.283  0.00  0.00    -0.274 OA
ENDROOT
BRANCH   1  12
ATOM     12  C   LIG    1       24.250 -23.098   6.392  0.00  0.00    +0.010 C 
ATOM     13  C   LIG    1       22.894 -23.751   6.720  0.00  0.00    +0.009 C 
BRANCH  12  14
ATOM     14  C   LIG    1       24.904 -23.801   5.168  0.00  0.00    +0.004 C 
BRANCH  14  16
ATOM     15  C   LIG    1       26.083 -25.797   6.165  0.00  0.00    +0.004 C 
ATOM     16  C   LIG    1       24.949 -25.331   5.264  0.00  0.00    -0.003 C 
ENDBRANCH  14  16
ENDBRANCH  12  14
ENDBRANCH   1  12
BRANCH   1  17
ATOM     17  C   LIG    1       22.866 -21.121   5.415  0.00  0.00    +0.022 C 
ATOM     18  C   LIG    1       22.646 -19.615   5.262  0.00  0.00    +0.005 C 
ENDBRANCH   1  17
TORSDOF 4
ENDMDL
MODEL 3
REMARK VINA RESULT:      -7.1      2.364      4.488
REMARK  Name = *****
REMARK                            x       y       z     vdW  Elec       q    Type
REMARK                         _______ _______ _______ _____ _____    ______ ____
ROOT
ATOM      1  C   LIG    1       24.442 -21.276   5.862  0.00  0.00    +0.126 C 
ATOM      2  C   LIG    1       24.422 -22.172   4.621  0.00  0.00    +0.236 C 
ATOM      3  O   LIG    1       24.201 -21.769   3.481  0.00  0.00    -0.274 OA
ATOM      4  N   LIG    1       24.736 -23.486   4.828  0.00  0.00    -0.239 N 
ATOM      5  H   LIG    1       24.734 -24.067   3.998  0.00  0.00    +0.159 HD
ATOM      6  C   LIG    1       24.459 -24.151   5.980  0.00  0.00    +0.312 C 
ATOM      7  O   LIG    1       24.319 -25.370   5.997  0.00  0.00    -0.252 OA
ATOM      8  N   LIG    1       24.235 -23.397   7.088  0.00  0.00    -0.239 N 
ATOM      9  H   LIG    1       23.879 -23.910   7.883  0.00  0.00    +0.159 HD
ATOM     10  C   LIG    1       23.896 -22.072   7.050  0.00  0.00    +0.236 C 
ATOM     11  O   LIG    1       23.241 -21.580   7.965  0.00  0.00    -0.274 OA
ENDROOT
BRANCH   1  12
ATOM     12  C   LIG    1       25.960 -20.922   6.173  0.00  0.00    +0.010 C 
ATOM     13  C   LIG    1       26.546 -19.914   5.166  0.00  0.00    +0.009 C 
BRANCH  12  14
ATOM     14  C   LIG    1       26.179 -20.418   7.628  0.00  0.00    +0.004 C 
BRANCH  14  16
ATOM     15  C   LIG    1       28.491 -21.424   7.725  0.00  0.00    +0.004 C 
ATOM     16  C   LIG    1       27.647 -20.190   8.007  0.00  0.00    -0.003 C 
ENDBRANCH  14  16
ENDBRANCH  12  14
ENDBRANCH   1  12
BRANCH   1  17
ATOM     17  C   LIG    1       23.588 -20.002   5.622  0.00  0.00    +0.022 C 
ATOM     18  C   LIG    1       22.200 -20.253   5.029  0.00  0.00    +0.005 C 
ENDBRANCH   1  17
TORSDOF 4
ENDMDL
MODEL 4
REMARK VINA RESULT:      -7.0      2.731      4.798
REMARK  Name = *****
REMARK                            x       y       z     vdW  Elec       q    Type
REMARK                         _______ _______ _______ _____ _____    ______ ____
ROOT
ATOM      1  C   LIG    1       24.627 -21.693   6.666  0.00  0.00    +0.126 C 
ATOM      2  C   LIG    1       23.368 -22.342   7.246  0.00  0.00    +0.236 C 
ATOM      3  O   LIG    1       22.615 -21.794   8.049  0.00  0.00    -0.274 OA
ATOM      4  N   LIG    1       23.062 -23.586   6.769  0.00  0.00    -0.239 N 
ATOM      5  H   LIG    1       22.219 -23.999   7.148  0.00  0.00    +0.159 HD
ATOM      6  C   LIG    1       23.997 -24.485   6.367  0.00  0.00    +0.312 C 
ATOM      7  O   LIG    1       23.773 -25.692   6.382  0.00  0.00    -0.252 OA
ATOM      8  N   LIG    1       25.226 -23.997   6.052  0.00  0.00    -0.239 N 
ATOM      9  H   LIG    1       25.938 -24.703   5.912  0.00  0.00    +0.159 HD
ATOM     10  C   LIG    1       25.688 -22.778   6.466  0.00  0.00    +0.236 C 
ATOM     11  O   LIG    1       26.896 -22.592   6.598  0.00  0.00    -0.274 OA
ENDROOT
BRANCH   1  12
ATOM     12  C   LIG    1       24.252 -21.113   5.235  0.00  0.00    +0.010 C 
ATOM     13  C   LIG    1       22.904 -20.367   5.239  0.00  0.00    +0.009 C 
BRANCH  12  14
ATOM     14  C   LIG    1       25.366 -20.208   4.637  0.00  0.00    +0.004 C 
BRANCH  14  16
ATOM     15  C   LIG    1       25.786 -18.059   3.383  0.00  0.00    +0.004 C 
ATOM     16  C   LIG    1       24.896 -19.287   3.503  0.00  0.00    -0.003 C 
ENDBRANCH  14  16
ENDBRANCH  12  14
ENDBRANCH   1  12
BRANCH   1  17
ATOM     17  C   LIG    1       25.154 -20.587   7.620  0.00  0.00    +0.022 C 
ATOM     18  C   LIG    1       25.834 -21.097   8.892  0.00  0.00    +0.005 C 
ENDBRANCH   1  17
TORSDOF 4
ENDMDL
MODEL 5
REMARK VINA RESULT:      -6.6      2.173      4.168
REMARK  Name = *****
REMARK                            x       y       z     vdW  Elec       q    Type
REMARK                         _______ _______ _______ _____ _____    ______ ____
ROOT
ATOM      1  C   LIG    1       24.955 -21.662   6.383  0.00  0.00    +0.126 C 
ATOM      2  C   LIG    1       25.456 -22.914   7.107  0.00  0.00    +0.236 C 
ATOM      3  O   LIG    1       26.083 -22.897   8.164  0.00  0.00    -0.274 OA
ATOM      4  N   LIG    1       25.107 -24.109   6.544  0.00  0.00    -0.239 N 
ATOM      5  H   LIG    1       25.430 -24.931   7.039  0.00  0.00    +0.159 HD
ATOM      6  C   LIG    1       24.940 -24.288   5.207  0.00  0.00    +0.312 C 
ATOM      7  O   LIG    1       25.082 -25.390   4.686  0.00  0.00    -0.252 OA
ATOM      8  N   LIG    1       24.718 -23.175   4.460  0.00  0.00    -0.239 N 
ATOM      9  H   LIG    1       24.757 -23.323   3.460  0.00  0.00    +0.159 HD
ATOM     10  C   LIG    1       25.026 -21.908   4.874  0.00  0.00    +0.236 C 
ATOM     11  O   LIG    1       25.280 -21.037   4.046  0.00  0.00    -0.274 OA
ENDROOT
BRANCH   1  12
ATOM     12  C   LIG    1       23.426 -21.462   6.769  0.00  0.00    +0.010 C 
ATOM     13  C   LIG    1       23.249 -20.592   8.029  0.00  0.00    +0.009 C 
BRANCH  12  14
ATOM     14  C   LIG    1       22.574 -20.894   5.599  0.00  0.00    +0.004 C 
BRANCH  14  16
ATOM     15  C   LIG    1       22.670 -18.837   4.142  0.00  0.00    +0.004 C 
ATOM     16  C   LIG    1       22.491 -19.364   5.558  0.00  0.00    -0.003 C 
ENDBRANCH  14  16
ENDBRANCH  12  14
ENDBRANCH   1  12
BRANCH   1  17
ATOM     17  C   LIG    1       25.817 -20.431   6.774  0.00  0.00    +0.022 C 
ATOM     18  C   LIG    1       27.306 -20.549   6.441  0.00  0.00    +0.005 C 
ENDBRANCH   1  17
TORSDOF 4
ENDMDL
MODEL 6
REMARK VINA RESULT:      -6.5      2.269      4.031
REMARK  Name = *****
REMARK                            x       y       z     vdW  Elec       q    Type
REMARK                         _______ _______ _______ _____ _____    ______ ____
ROOT
ATOM      1  C   LIG    1       24.359 -21.863   6.011  0.00  0.00    +0.126 C 
ATOM      2  C   LIG    1       25.411 -22.951   6.244  0.00  0.00    +0.236 C 
ATOM      3  O   LIG    1       25.293 -24.117   5.871  0.00  0.00    -0.274 OA
ATOM      4  N   LIG    1       26.566 -22.546   6.851  0.00  0.00    -0.239 N 
ATOM      5  H   LIG    1       27.260 -23.270   6.986  0.00  0.00    +0.159 HD
ATOM      6  C   LIG    1       26.621 -21.537   7.760  0.00  0.00    +0.312 C 
ATOM      7  O   LIG    1       27.511 -21.485   8.604  0.00  0.00    -0.252 OA
ATOM      8  N   LIG    1       25.589 -20.654   7.763  0.00  0.00    -0.239 N 
ATOM      9  H   LIG    1       25.582 -20.016   8.548  0.00  0.00    +0.159 HD
ATOM     10  C   LIG    1       24.364 -20.914   7.212  0.00  0.00    +0.236 C 
ATOM     11  O   LIG    1       23.363 -20.351   7.648  0.00  0.00    -0.274 OA
ENDROOT
BRANCH   1  12
ATOM     12  C   LIG    1       24.805 -21.030   4.733  0.00  0.00    +0.010 C 
ATOM     13  C   LIG    1       24.198 -21.585   3.430  0.00  0.00    +0.009 C 
BRANCH  12  14
ATOM     14  C   LIG    1       24.500 -19.511   4.864  0.00  0.00    +0.004 C 
BRANCH  14  16
ATOM     15  C   LIG    1       22.175 -18.592   4.521  0.00  0.00    +0.004 C 
ATOM     16  C   LIG    1       23.484 -18.977   3.847  0.00  0.00    -0.003 C 
ENDBRANCH  14  16
ENDBRANCH  12  14
ENDBRANCH   1  12
BRANCH   1  17
ATOM     17  C   LIG    1       22.955 -22.499   5.828  0.00  0.00    +0.022 C 
ATOM     18  C   LIG    1       22.570 -23.539   6.882  0.00  0.00    +0.005 C 
ENDBRANCH   1  17
TORSDOF 4
ENDMDL
MODEL 7
REMARK VINA RESULT:      -6.5      1.668      2.962
REMARK  Name = *****
REMARK                            x       y       z     vdW  Elec       q    Type
REMARK                         _______ _______ _______ _____ _____    ______ ____
ROOT
ATOM      1  C   LIG    1       25.112 -21.800   6.921  0.00  0.00    +0.126 C 
ATOM      2  C   LIG    1       25.838 -20.841   5.974  0.00  0.00    +0.236 C 
ATOM      3  O   LIG    1       27.015 -20.507   6.098  0.00  0.00    -0.274 OA
ATOM      4  N   LIG    1       25.117 -20.402   4.899  0.00  0.00    -0.239 N 
ATOM      5  H   LIG    1       25.611 -19.781   4.271  0.00  0.00    +0.159 HD
ATOM      6  C   LIG    1       23.770 -20.222   4.924  0.00  0.00    +0.312 C 
ATOM      7  O   LIG    1       23.217 -19.431   4.165  0.00  0.00    -0.252 OA
ATOM      8  N   LIG    1       23.080 -20.871   5.897  0.00  0.00    -0.239 N 
ATOM      9  H   LIG    1       22.111 -20.592   5.985  0.00  0.00    +0.159 HD
ATOM     10  C   LIG    1       23.652 -21.357   7.041  0.00  0.00    +0.236 C 
ATOM     11  O   LIG    1       22.981 -21.468   8.063  0.00  0.00    -0.274 OA
ENDROOT
BRANCH   1  12
ATOM     12  C   LIG    1       25.127 -23.241   6.251  0.00  0.00    +0.010 C 
ATOM     13  C   LIG    1       26.326 -24.091   6.715  0.00  0.00    +0.009 C 
BRANCH  12  14
ATOM     14  C   LIG    1       23.799 -24.022   6.462  0.00  0.00    +0.004 C 
BRANCH  14  16
ATOM     15  C   LIG    1       24.313 -26.087   5.107  0.00  0.00    +0.004 C 
ATOM     16  C   LIG    1       23.956 -25.547   6.484  0.00  0.00    -0.003 C 
ENDBRANCH  14  16
ENDBRANCH  12  14
ENDBRANCH   1  12
BRANCH   1  17
ATOM     17  C   LIG    1       25.795 -21.802   8.315  0.00  0.00    +0.022 C 
ATOM     18  C   LIG    1       26.023 -20.420   8.929  0.00  0.00    +0.005 C 
ENDBRANCH   1  17
TORSDOF 4
ENDMDL
MODEL 8
REMARK VINA RESULT:      -6.4      2.161      4.150
REMARK  Name = *****
REMARK                            x       y       z     vdW  Elec       q    Type
REMARK                         _______ _______ _______ _____ _____    ______ ____
ROOT
ATOM      1  C   LIG    1       24.635 -21.657   6.573  0.00  0.00    +0.126 C 
ATOM      2  C   LIG    1       23.342 -21.108   7.182  0.00  0.00    +0.236 C 
ATOM      3  O   LIG    1       22.831 -21.532   8.217  0.00  0.00    -0.274 OA
ATOM      4  N   LIG    1       22.786 -20.038   6.540  0.00  0.00    -0.239 N 
ATOM      5  H   LIG    1       21.940 -19.673   6.959  0.00  0.00    +0.159 HD
ATOM      6  C   LIG    1       22.880 -19.836   5.199  0.00  0.00    +0.312 C 
ATOM      7  O   LIG    1       22.042 -19.179   4.590  0.00  0.00    -0.252 OA
ATOM      8  N   LIG    1       23.881 -20.486   4.548  0.00  0.00    -0.239 N 
ATOM      9  H   LIG    1       23.826 -20.441   3.538  0.00  0.00    +0.159 HD
ATOM     10  C   LIG    1       24.527 -21.582   5.049  0.00  0.00    +0.236 C 
ATOM     11  O   LIG    1       25.028 -22.402   4.282  0.00  0.00    -0.274 OA
ENDROOT
BRANCH   1  12
ATOM     12  C   LIG    1       25.822 -20.699   7.022  0.00  0.00    +0.010 C 
ATOM     13  C   LIG    1       25.945 -20.596   8.555  0.00  0.00    +0.009 C 
BRANCH  12  14
ATOM     14  C   LIG    1       27.189 -21.095   6.397  0.00  0.00    +0.004 C 
BRANCH  14  16
ATOM     15  C   LIG    1       29.165 -19.580   6.804  0.00  0.00    +0.004 C 
ATOM     16  C   LIG    1       28.012 -19.913   5.869  0.00  0.00    -0.003 C 
ENDBRANCH  14  16
ENDBRANCH  12  14
ENDBRANCH   1  12
BRANCH   1  17
ATOM     17  C   LIG    1       24.868 -23.122   7.031  0.00  0.00    +0.022 C 
ATOM     18  C   LIG    1       23.763 -24.106   6.645  0.00  0.00    +0.005 C 
ENDBRANCH   1  17
TORSDOF 4
ENDMDL
MODEL 9
REMARK VINA RESULT:      -5.9      1.473      4.023
REMARK  Name = *****
REMARK                            x       y       z     vdW  Elec       q    Type
REMARK                         _______ _______ _______ _____ _____    ______ ____
ROOT
ATOM      1  C   LIG    1       24.401 -22.377   6.504  0.00  0.00    +0.126 C 
ATOM      2  C   LIG    1       24.862 -22.191   5.056  0.00  0.00    +0.236 C 
ATOM      3  O   LIG    1       24.589 -22.963   4.140  0.00  0.00    -0.274 OA
ATOM      4  N   LIG    1       25.567 -21.050   4.795  0.00  0.00    -0.239 N 
ATOM      5  H   LIG    1       25.853 -20.930   3.832  0.00  0.00    +0.159 HD
ATOM      6  C   LIG    1       26.377 -20.445   5.702  0.00  0.00    +0.312 C 
ATOM      7  O   LIG    1       27.315 -19.737   5.350  0.00  0.00    -0.252 OA
ATOM      8  N   LIG    1       26.169 -20.747   7.011  0.00  0.00    -0.239 N 
ATOM      9  H   LIG    1       26.885 -20.407   7.641  0.00  0.00    +0.159 HD
ATOM     10  C   LIG    1       25.498 -21.860   7.437  0.00  0.00    +0.236 C 
ATOM     11  O   LIG    1       25.753 -22.346   8.536  0.00  0.00    -0.274 OA
ENDROOT
BRANCH   1  12
ATOM     12  C   LIG    1       23.115 -21.467   6.719  0.00  0.00    +0.010 C 
ATOM     13  C   LIG    1       23.343 -20.370   7.776  0.00  0.00    +0.009 C 
BRANCH  12  14
ATOM     14  C   LIG    1       22.589 -20.839   5.397  0.00  0.00    +0.004 C 
BRANCH  14  16
ATOM     15  C   LIG    1       21.889 -18.770   4.134  0.00  0.00    +0.004 C 
ATOM     16  C   LIG    1       22.568 -19.306   5.386  0.00  0.00    -0.003 C 
ENDBRANCH  14  16
ENDBRANCH  12  14
ENDBRANCH   1  12
BRANCH   1  17
ATOM     17  C   LIG    1       24.105 -23.874   6.789  0.00  0.00    +0.022 C 
ATOM     18  C   LIG    1       25.302 -24.813   6.631  0.00  0.00    +0.005 C 
ENDBRANCH   1  17
TORSDOF 4
ENDMDL
