MODEL 1
REMARK VINA RESULT:       6.6      0.000      0.000
REMARK  Name = *****
REMARK                            x       y       z     vdW  Elec       q    Type
REMARK                         _______ _______ _______ _____ _____    ______ ____
ROOT
ATOM      1  C   LIG    1       25.220 -15.543   4.130  0.00  0.00    +0.064 A 
ATOM      2  C   LIG    1       24.226 -16.548   4.123  0.00  0.00    +0.049 A 
ATOM      3  I   LIG    1       22.504 -16.190   5.378  0.00  0.00    -0.041 I 
ATOM      4  C   LIG    1       24.527 -17.896   3.831  0.00  0.00    +0.065 A 
ATOM      5  C   LIG    1       25.872 -18.263   3.693  0.00  0.00    +0.040 A 
ATOM      6  I   LIG    1       26.421 -20.032   2.672  0.00  0.00    -0.042 I 
ATOM      7  C   LIG    1       26.853 -17.359   4.142  0.00  0.00    +0.065 A 
ATOM      8  C   LIG    1       26.552 -15.986   4.297  0.00  0.00    +0.049 A 
ATOM      9  I   LIG    1       28.186 -14.655   4.817  0.00  0.00    -0.041 I 
ENDROOT
BRANCH   4  10
ATOM     10  C   LIG    1       23.417 -18.800   3.484  0.00  0.00    +0.246 C 
ATOM     11  N   LIG    1       23.643 -20.151   3.473  0.00  0.00    -0.309 N 
ATOM     12  H   LIG    1       24.351 -20.482   4.119  0.00  0.00    +0.149 HD
ATOM     13  O   LIG    1       22.295 -18.286   3.300  0.00  0.00    -0.270 OA
BRANCH  11  14
ATOM     14  C   LIG    1       22.523 -21.082   3.287  0.00  0.00    +0.138 C 
BRANCH  14  15
ATOM     15  C   LIG    1       21.822 -21.337   4.630  0.00  0.00    +0.157 C 
BRANCH  15  16
ATOM     16  O   LIG    1       20.913 -20.259   4.907  0.00  0.00    -0.388 OA
ATOM     17  H   LIG    1       20.574 -19.924   4.057  0.00  0.00    +0.210 HD
ENDBRANCH  15  16
BRANCH  15  18
ATOM     18  C   LIG    1       22.814 -21.497   5.784  0.00  0.00    +0.188 C 
BRANCH  18  19
ATOM     19  O   LIG    1       22.865 -20.345   6.609  0.00  0.00    -0.392 OA
ATOM     20  H   LIG    1       23.803 -20.127   6.761  0.00  0.00    +0.209 HD
ENDBRANCH  18  19
ENDBRANCH  15  18
ENDBRANCH  14  15
ENDBRANCH  11  14
ENDBRANCH   4  10
BRANCH   1  23
ATOM     21  C   LIG    1       24.544 -12.611   1.812  0.00  0.00    +0.110 C 
ATOM     22  C   LIG    1       25.348 -13.708   2.490  0.00  0.00    +0.217 C 
ATOM     23  N   LIG    1       24.898 -14.180   3.723  0.00  0.00    -0.267 N 
ATOM     24  O   LIG    1       26.310 -14.206   1.903  0.00  0.00    -0.276 OA
BRANCH  23  25
ATOM     25  C   LIG    1       23.809 -13.494   4.463  0.00  0.00    +0.147 C 
BRANCH  25  26
ATOM     26  C   LIG    1       24.177 -12.131   5.097  0.00  0.00    +0.158 C 
BRANCH  26  27
ATOM     27  O   LIG    1       23.089 -11.693   5.928  0.00  0.00    -0.388 OA
ATOM     28  H   LIG    1       22.890 -12.401   6.569  0.00  0.00    +0.210 HD
ENDBRANCH  26  27
BRANCH  26  29
ATOM     29  C   LIG    1       25.433 -12.100   5.979  0.00  0.00    +0.188 C 
BRANCH  29  30
ATOM     30  O   LIG    1       26.612 -11.904   5.206  0.00  0.00    -0.392 OA
ATOM     31  H   LIG    1       26.339 -11.760   4.283  0.00  0.00    +0.209 HD
ENDBRANCH  29  30
ENDBRANCH  26  29
ENDBRANCH  25  26
ENDBRANCH  23  25
ENDBRANCH   1  23
BRANCH   7  32
ATOM     32  C   LIG    1       28.205 -17.855   4.501  0.00  0.00    +0.246 C 
ATOM     33  N   LIG    1       28.306 -18.722   5.578  0.00  0.00    -0.309 N 
ATOM     34  H   LIG    1       29.275 -18.891   5.830  0.00  0.00    +0.149 HD
ATOM     35  O   LIG    1       29.182 -17.489   3.904  0.00  0.00    -0.270 OA
BRANCH  33  36
ATOM     36  C   LIG    1       27.289 -19.225   6.482  0.00  0.00    +0.138 C 
BRANCH  36  37
ATOM     37  C   LIG    1       27.552 -20.627   7.036  0.00  0.00    +0.157 C 
BRANCH  37  38
ATOM     38  O   LIG    1       28.747 -21.103   6.404  0.00  0.00    -0.388 OA
ATOM     39  H   LIG    1       28.877 -22.029   6.676  0.00  0.00    +0.210 HD
ENDBRANCH  37  38
BRANCH  37  40
ATOM     40  C   LIG    1       26.380 -21.571   6.751  0.00  0.00    +0.188 C 
BRANCH  40  41
ATOM     41  O   LIG    1       25.979 -21.467   5.384  0.00  0.00    -0.392 OA
ATOM     42  H   LIG    1       25.700 -22.350   5.089  0.00  0.00    +0.209 HD
ENDBRANCH  40  41
ENDBRANCH  37  40
ENDBRANCH  36  37
ENDBRANCH  33  36
ENDBRANCH   7  32
TORSDOF 18
ENDMDL
MODEL 2
REMARK VINA RESULT:       8.9      1.102      2.041
REMARK  Name = *****
REMARK                            x       y       z     vdW  Elec       q    Type
REMARK                         _______ _______ _______ _____ _____    ______ ____
ROOT
ATOM      1  C   LIG    1       24.620 -15.511   4.190  0.00  0.00    +0.064 A 
ATOM      2  C   LIG    1       23.877 -16.713   4.192  0.00  0.00    +0.049 A 
ATOM      3  I   LIG    1       22.285 -16.844   5.646  0.00  0.00    -0.041 I 
ATOM      4  C   LIG    1       24.428 -17.933   3.745  0.00  0.00    +0.065 A 
ATOM      5  C   LIG    1       25.794 -17.974   3.435  0.00  0.00    +0.040 A 
ATOM      6  I   LIG    1       26.588 -19.497   2.201  0.00  0.00    -0.042 I 
ATOM      7  C   LIG    1       26.600 -16.902   3.863  0.00  0.00    +0.065 A 
ATOM      8  C   LIG    1       26.027 -15.648   4.176  0.00  0.00    +0.049 A 
ATOM      9  I   LIG    1       27.381 -14.018   4.647  0.00  0.00    -0.041 I 
ENDROOT
BRANCH   4  10
ATOM     10  C   LIG    1       23.509 -19.042   3.431  0.00  0.00    +0.246 C 
ATOM     11  N   LIG    1       23.788 -20.290   3.919  0.00  0.00    -0.309 N 
ATOM     12  H   LIG    1       24.289 -20.314   4.800  0.00  0.00    +0.149 HD
ATOM     13  O   LIG    1       22.469 -18.762   2.801  0.00  0.00    -0.270 OA
BRANCH  11  14
ATOM     14  C   LIG    1       22.814 -21.377   3.758  0.00  0.00    +0.138 C 
BRANCH  14  15
ATOM     15  C   LIG    1       21.861 -21.412   4.963  0.00  0.00    +0.157 C 
BRANCH  15  16
ATOM     16  O   LIG    1       20.872 -20.379   4.820  0.00  0.00    -0.388 OA
ATOM     17  H   LIG    1       20.537 -20.406   3.907  0.00  0.00    +0.210 HD
ENDBRANCH  15  16
BRANCH  15  18
ATOM     18  C   LIG    1       22.598 -21.255   6.294  0.00  0.00    +0.188 C 
BRANCH  18  19
ATOM     19  O   LIG    1       23.995 -21.460   6.159  0.00  0.00    -0.392 OA
ATOM     20  H   LIG    1       24.356 -21.652   7.044  0.00  0.00    +0.209 HD
ENDBRANCH  18  19
ENDBRANCH  15  18
ENDBRANCH  14  15
ENDBRANCH  11  14
ENDBRANCH   4  10
BRANCH   1  23
ATOM     21  C   LIG    1       23.942 -11.781   4.425  0.00  0.00    +0.110 C 
ATOM     22  C   LIG    1       24.058 -13.219   4.902  0.00  0.00    +0.217 C 
ATOM     23  N   LIG    1       23.961 -14.233   3.948  0.00  0.00    -0.267 N 
ATOM     24  O   LIG    1       24.317 -13.448   6.084  0.00  0.00    -0.276 OA
BRANCH  23  25
ATOM     25  C   LIG    1       23.538 -13.945   2.554  0.00  0.00    +0.147 C 
BRANCH  25  26
ATOM     26  C   LIG    1       24.341 -12.845   1.818  0.00  0.00    +0.158 C 
BRANCH  26  27
ATOM     27  O   LIG    1       23.865 -11.556   2.242  0.00  0.00    -0.388 OA
ATOM     28  H   LIG    1       24.638 -10.999   2.454  0.00  0.00    +0.210 HD
ENDBRANCH  26  27
BRANCH  26  29
ATOM     29  C   LIG    1       25.860 -12.837   2.041  0.00  0.00    +0.188 C 
BRANCH  29  30
ATOM     30  O   LIG    1       26.426 -14.128   1.838  0.00  0.00    -0.392 OA
ATOM     31  H   LIG    1       27.384 -14.058   2.000  0.00  0.00    +0.209 HD
ENDBRANCH  29  30
ENDBRANCH  26  29
ENDBRANCH  25  26
ENDBRANCH  23  25
ENDBRANCH   1  23
BRANCH   7  32
ATOM     32  C   LIG    1       28.062 -17.100   4.032  0.00  0.00    +0.246 C 
ATOM     33  N   LIG    1       28.481 -17.964   5.032  0.00  0.00    -0.309 N 
ATOM     34  H   LIG    1       29.487 -17.924   5.161  0.00  0.00    +0.149 HD
ATOM     35  O   LIG    1       28.854 -16.504   3.353  0.00  0.00    -0.270 OA
BRANCH  33  36
ATOM     36  C   LIG    1       27.718 -18.715   6.011  0.00  0.00    +0.138 C 
BRANCH  36  37
ATOM     37  C   LIG    1       27.374 -20.149   5.603  0.00  0.00    +0.157 C 
BRANCH  37  38
ATOM     38  O   LIG    1       25.976 -20.328   5.860  0.00  0.00    -0.388 OA
ATOM     39  H   LIG    1       25.889 -20.953   6.601  0.00  0.00    +0.210 HD
ENDBRANCH  37  38
BRANCH  37  40
ATOM     40  C   LIG    1       28.202 -21.169   6.391  0.00  0.00    +0.188 C 
BRANCH  40  41
ATOM     41  O   LIG    1       29.469 -20.614   6.744  0.00  0.00    -0.392 OA
ATOM     42  H   LIG    1       29.820 -21.129   7.490  0.00  0.00    +0.209 HD
ENDBRANCH  40  41
ENDBRANCH  37  40
ENDBRANCH  36  37
ENDBRANCH  33  36
ENDBRANCH   7  32
TORSDOF 18
ENDMDL
MODEL 3
REMARK VINA RESULT:       9.1      2.198      6.054
REMARK  Name = *****
REMARK                            x       y       z     vdW  Elec       q    Type
REMARK                         _______ _______ _______ _____ _____    ______ ____
ROOT
ATOM      1  C   LIG    1       26.298 -19.058   4.704  0.00  0.00    +0.064 A 
ATOM      2  C   LIG    1       24.991 -19.156   4.179  0.00  0.00    +0.049 A 
ATOM      3  I   LIG    1       24.496 -21.019   3.202  0.00  0.00    -0.041 I 
ATOM      4  C   LIG    1       24.258 -18.018   3.779  0.00  0.00    +0.065 A 
ATOM      5  C   LIG    1       24.909 -16.777   3.766  0.00  0.00    +0.040 A 
ATOM      6  I   LIG    1       23.812 -14.969   3.801  0.00  0.00    -0.042 I 
ATOM      7  C   LIG    1       26.313 -16.767   3.858  0.00  0.00    +0.065 A 
ATOM      8  C   LIG    1       27.009 -17.878   4.390  0.00  0.00    +0.049 A 
ATOM      9  I   LIG    1       29.155 -17.681   4.654  0.00  0.00    -0.041 I 
ENDROOT
BRANCH   4  10
ATOM     10  C   LIG    1       22.802 -18.153   3.594  0.00  0.00    +0.246 C 
ATOM     11  N   LIG    1       21.963 -17.450   4.417  0.00  0.00    -0.309 N 
ATOM     12  H   LIG    1       22.325 -16.569   4.763  0.00  0.00    +0.149 HD
ATOM     13  O   LIG    1       22.409 -18.842   2.632  0.00  0.00    -0.270 OA
BRANCH  11  14
ATOM     14  C   LIG    1       20.518 -17.441   4.158  0.00  0.00    +0.138 C 
BRANCH  14  15
ATOM     15  C   LIG    1       20.160 -18.530   3.135  0.00  0.00    +0.157 C 
BRANCH  15  16
ATOM     16  O   LIG    1       19.351 -17.959   2.093  0.00  0.00    -0.388 OA
ATOM     17  H   LIG    1       19.643 -17.040   1.953  0.00  0.00    +0.210 HD
ENDBRANCH  15  16
BRANCH  15  18
ATOM     18  C   LIG    1       19.433 -19.715   3.774  0.00  0.00    +0.188 C 
BRANCH  18  19
ATOM     19  O   LIG    1       20.287 -20.833   3.950  0.00  0.00    -0.392 OA
ATOM     20  H   LIG    1       19.947 -21.354   4.700  0.00  0.00    +0.209 HD
ENDBRANCH  18  19
ENDBRANCH  15  18
ENDBRANCH  14  15
ENDBRANCH  11  14
ENDBRANCH   4  10
BRANCH   1  23
ATOM     21  C   LIG    1       28.733 -20.965   6.911  0.00  0.00    +0.110 C 
ATOM     22  C   LIG    1       28.048 -20.529   5.626  0.00  0.00    +0.217 C 
ATOM     23  N   LIG    1       26.762 -19.998   5.719  0.00  0.00    -0.267 N 
ATOM     24  O   LIG    1       28.669 -20.573   4.563  0.00  0.00    -0.276 OA
BRANCH  23  25
ATOM     25  C   LIG    1       25.991 -20.057   6.987  0.00  0.00    +0.147 C 
BRANCH  25  26
ATOM     26  C   LIG    1       24.606 -20.743   6.904  0.00  0.00    +0.158 C 
BRANCH  26  27
ATOM     27  O   LIG    1       23.581 -19.738   6.975  0.00  0.00    -0.388 OA
ATOM     28  H   LIG    1       23.369 -19.584   7.915  0.00  0.00    +0.210 HD
ENDBRANCH  26  27
BRANCH  26  29
ATOM     29  C   LIG    1       24.320 -21.562   5.638  0.00  0.00    +0.188 C 
BRANCH  29  30
ATOM     30  O   LIG    1       22.932 -21.567   5.319  0.00  0.00    -0.392 OA
ATOM     31  H   LIG    1       22.465 -21.091   6.029  0.00  0.00    +0.209 HD
ENDBRANCH  29  30
ENDBRANCH  26  29
ENDBRANCH  25  26
ENDBRANCH  23  25
ENDBRANCH   1  23
BRANCH   7  32
ATOM     32  C   LIG    1       27.078 -15.601   3.350  0.00  0.00    +0.246 C 
ATOM     33  N   LIG    1       27.330 -14.564   4.234  0.00  0.00    -0.309 N 
ATOM     34  H   LIG    1       27.731 -13.760   3.761  0.00  0.00    +0.149 HD
ATOM     35  O   LIG    1       27.434 -15.540   2.203  0.00  0.00    -0.270 OA
BRANCH  33  36
ATOM     36  C   LIG    1       26.931 -14.386   5.618  0.00  0.00    +0.138 C 
BRANCH  36  37
ATOM     37  C   LIG    1       27.117 -12.970   6.168  0.00  0.00    +0.157 C 
BRANCH  37  38
ATOM     38  O   LIG    1       26.054 -12.175   5.629  0.00  0.00    -0.388 OA
ATOM     39  H   LIG    1       26.427 -11.308   5.388  0.00  0.00    +0.210 HD
ENDBRANCH  37  38
BRANCH  37  40
ATOM     40  C   LIG    1       28.479 -12.390   5.771  0.00  0.00    +0.188 C 
BRANCH  40  41
ATOM     41  O   LIG    1       28.840 -12.824   4.460  0.00  0.00    -0.392 OA
ATOM     42  H   LIG    1       29.811 -12.838   4.409  0.00  0.00    +0.209 HD
ENDBRANCH  40  41
ENDBRANCH  37  40
ENDBRANCH  36  37
ENDBRANCH  33  36
ENDBRANCH   7  32
TORSDOF 18
ENDMDL
MODEL 4
REMARK VINA RESULT:       9.2      1.235      1.521
REMARK  Name = *****
REMARK                            x       y       z     vdW  Elec       q    Type
REMARK                         _______ _______ _______ _____ _____    ______ ____
ROOT
ATOM      1  C   LIG    1       25.794 -15.206   3.720  0.00  0.00    +0.064 A 
ATOM      2  C   LIG    1       24.654 -16.022   3.899  0.00  0.00    +0.049 A 
ATOM      3  I   LIG    1       23.074 -15.193   5.117  0.00  0.00    -0.041 I 
ATOM      4  C   LIG    1       24.723 -17.430   3.824  0.00  0.00    +0.065 A 
ATOM      5  C   LIG    1       25.984 -18.031   3.718  0.00  0.00    +0.040 A 
ATOM      6  I   LIG    1       26.195 -20.004   2.987  0.00  0.00    -0.042 I 
ATOM      7  C   LIG    1       27.117 -17.241   3.991  0.00  0.00    +0.065 A 
ATOM      8  C   LIG    1       27.045 -15.830   3.927  0.00  0.00    +0.049 A 
ATOM      9  I   LIG    1       28.893 -14.721   4.186  0.00  0.00    -0.041 I 
ENDROOT
BRANCH   4  10
ATOM     10  C   LIG    1       23.468 -18.183   3.654  0.00  0.00    +0.246 C 
ATOM     11  N   LIG    1       23.532 -19.531   3.423  0.00  0.00    -0.309 N 
ATOM     12  H   LIG    1       24.328 -20.008   3.829  0.00  0.00    +0.149 HD
ATOM     13  O   LIG    1       22.400 -17.559   3.816  0.00  0.00    -0.270 OA
BRANCH  11  14
ATOM     14  C   LIG    1       22.301 -20.333   3.406  0.00  0.00    +0.138 C 
BRANCH  14  15
ATOM     15  C   LIG    1       22.152 -21.094   4.733  0.00  0.00    +0.157 C 
BRANCH  15  16
ATOM     16  O   LIG    1       20.799 -21.560   4.867  0.00  0.00    -0.388 OA
ATOM     17  H   LIG    1       20.465 -21.778   3.978  0.00  0.00    +0.210 HD
ENDBRANCH  15  16
BRANCH  15  18
ATOM     18  C   LIG    1       22.536 -20.238   5.942  0.00  0.00    +0.188 C 
BRANCH  18  19
ATOM     19  O   LIG    1       22.908 -21.028   7.059  0.00  0.00    -0.392 OA
ATOM     20  H   LIG    1       23.678 -20.607   7.481  0.00  0.00    +0.209 HD
ENDBRANCH  18  19
ENDBRANCH  15  18
ENDBRANCH  14  15
ENDBRANCH  11  14
ENDBRANCH   4  10
BRANCH   1  23
ATOM     21  C   LIG    1       24.187 -11.931   2.659  0.00  0.00    +0.110 C 
ATOM     22  C   LIG    1       24.418 -13.433   2.701  0.00  0.00    +0.217 C 
ATOM     23  N   LIG    1       25.673 -13.890   3.103  0.00  0.00    -0.267 N 
ATOM     24  O   LIG    1       23.480 -14.198   2.469  0.00  0.00    -0.276 OA
BRANCH  23  25
ATOM     25  C   LIG    1       26.818 -12.959   3.270  0.00  0.00    +0.147 C 
BRANCH  25  26
ATOM     26  C   LIG    1       27.352 -12.796   4.714  0.00  0.00    +0.158 C 
BRANCH  26  27
ATOM     27  O   LIG    1       28.215 -11.648   4.766  0.00  0.00    -0.388 OA
ATOM     28  H   LIG    1       27.879 -10.985   4.133  0.00  0.00    +0.210 HD
ENDBRANCH  26  27
BRANCH  26  29
ATOM     29  C   LIG    1       26.302 -12.598   5.816  0.00  0.00    +0.188 C 
BRANCH  29  30
ATOM     30  O   LIG    1       26.547 -13.447   6.933  0.00  0.00    -0.392 OA
ATOM     31  H   LIG    1       27.038 -14.224   6.609  0.00  0.00    +0.209 HD
ENDBRANCH  29  30
ENDBRANCH  26  29
ENDBRANCH  25  26
ENDBRANCH  23  25
ENDBRANCH   1  23
BRANCH   7  32
ATOM     32  C   LIG    1       28.389 -17.890   4.397  0.00  0.00    +0.246 C 
ATOM     33  N   LIG    1       28.339 -18.812   5.430  0.00  0.00    -0.309 N 
ATOM     34  H   LIG    1       29.269 -19.091   5.725  0.00  0.00    +0.149 HD
ATOM     35  O   LIG    1       29.431 -17.599   3.873  0.00  0.00    -0.270 OA
BRANCH  33  36
ATOM     36  C   LIG    1       27.225 -19.249   6.251  0.00  0.00    +0.138 C 
BRANCH  36  37
ATOM     37  C   LIG    1       27.469 -20.536   7.040  0.00  0.00    +0.157 C 
BRANCH  37  38
ATOM     38  O   LIG    1       28.740 -21.047   6.615  0.00  0.00    -0.388 OA
ATOM     39  H   LIG    1       28.647 -22.009   6.497  0.00  0.00    +0.210 HD
ENDBRANCH  37  38
BRANCH  37  40
ATOM     40  C   LIG    1       26.363 -21.566   6.788  0.00  0.00    +0.188 C 
BRANCH  40  41
ATOM     41  O   LIG    1       25.546 -21.159   5.691  0.00  0.00    -0.392 OA
ATOM     42  H   LIG    1       24.672 -21.571   5.803  0.00  0.00    +0.209 HD
ENDBRANCH  40  41
ENDBRANCH  37  40
ENDBRANCH  36  37
ENDBRANCH  33  36
ENDBRANCH   7  32
TORSDOF 18
ENDMDL
