MODEL 1
REMARK VINA RESULT:      -4.0      0.000      0.000
REMARK  Name = *****
REMARK                            x       y       z     vdW  Elec       q    Type
REMARK                         _______ _______ _______ _____ _____    ______ ____
ROOT
ATOM      1  C   LIG    1       28.254 -20.308   6.288  0.00  0.00    +0.370 C 
ATOM      2  N   LIG    1       27.266 -19.556   5.692  0.00  0.00    -0.182 N 
ATOM      3  C   LIG    1       27.986 -18.637   4.812  0.00  0.00    +0.212 C 
ATOM      4  C   LIG    1       27.268 -17.406   4.320  0.00  0.00    -0.006 A 
ATOM      5  C   LIG    1       26.101 -17.575   3.540  0.00  0.00    -0.037 A 
ATOM      6  C   LIG    1       25.533 -18.963   3.315  0.00  0.00    +0.074 C 
ATOM      7  C   LIG    1       25.056 -19.634   4.581  0.00  0.00    -0.006 A 
ATOM      8  C   LIG    1       23.730 -20.119   4.617  0.00  0.00    +0.007 A 
ATOM      9  C   LIG    1       23.208 -20.727   5.757  0.00  0.00    +0.001 A 
ATOM     10  C   LIG    1       23.990 -20.825   6.895  0.00  0.00    +0.003 A 
ATOM     11  C   LIG    1       25.310 -20.375   6.857  0.00  0.00    +0.040 A 
ATOM     12  C   LIG    1       25.502 -16.465   2.926  0.00  0.00    +0.004 A 
ATOM     13  C   LIG    1       26.060 -15.195   3.061  0.00  0.00    +0.000 A 
ATOM     14  C   LIG    1       27.208 -15.020   3.826  0.00  0.00    +0.000 A 
ATOM     15  C   LIG    1       27.806 -16.114   4.455  0.00  0.00    +0.007 A 
ATOM     16  C   LIG    1       29.269 -18.477   5.663  0.00  0.00    +0.287 C 
ATOM     17  C   LIG    1       25.899 -19.834   5.691  0.00  0.00    +0.099 A 
ATOM     18  N   LIG    1       29.475 -19.819   6.294  0.00  0.00    -0.113 NA
ENDROOT
BRANCH   1  19
ATOM     19  N   LIG    1       28.001 -21.572   6.685  0.00  0.00    -0.251 N 
ATOM     20  H   LIG    1       28.837 -22.139   6.776  0.00  0.00    +0.241 HD
ATOM     21  H   LIG    1       27.434 -21.591   7.525  0.00  0.00    +0.241 HD
ENDBRANCH   1  19
TORSDOF 1
ENDMDL
MODEL 2
REMARK VINA RESULT:      -3.9      2.727      5.525
REMARK  Name = *****
REMARK                            x       y       z     vdW  Elec       q    Type
REMARK                         _______ _______ _______ _____ _____    ______ ____
ROOT
ATOM      1  C   LIG    1       21.791 -19.086   4.149  0.00  0.00    +0.370 C 
ATOM      2  N   LIG    1       23.111 -18.780   4.394  0.00  0.00    -0.182 N 
ATOM      3  C   LIG    1       23.766 -20.078   4.547  0.00  0.00    +0.212 C 
ATOM      4  C   LIG    1       25.112 -20.126   5.224  0.00  0.00    -0.006 A 
ATOM      5  C   LIG    1       26.185 -19.416   4.638  0.00  0.00    -0.037 A 
ATOM      6  C   LIG    1       25.942 -18.537   3.426  0.00  0.00    +0.074 C 
ATOM      7  C   LIG    1       25.023 -17.371   3.700  0.00  0.00    -0.006 A 
ATOM      8  C   LIG    1       25.482 -16.074   3.377  0.00  0.00    +0.007 A 
ATOM      9  C   LIG    1       24.704 -14.944   3.624  0.00  0.00    +0.001 A 
ATOM     10  C   LIG    1       23.470 -15.088   4.234  0.00  0.00    +0.003 A 
ATOM     11  C   LIG    1       22.998 -16.367   4.528  0.00  0.00    +0.040 A 
ATOM     12  C   LIG    1       27.485 -19.571   5.142  0.00  0.00    +0.004 A 
ATOM     13  C   LIG    1       27.735 -20.436   6.205  0.00  0.00    +0.000 A 
ATOM     14  C   LIG    1       26.685 -21.138   6.787  0.00  0.00    +0.000 A 
ATOM     15  C   LIG    1       25.383 -20.983   6.305  0.00  0.00    +0.007 A 
ATOM     16  C   LIG    1       22.578 -20.852   5.168  0.00  0.00    +0.287 C 
ATOM     17  C   LIG    1       23.722 -17.539   4.211  0.00  0.00    +0.099 A 
ATOM     18  N   LIG    1       21.364 -20.279   4.504  0.00  0.00    -0.113 NA
ENDROOT
BRANCH   1  19
ATOM     19  N   LIG    1       21.025 -18.256   3.413  0.00  0.00    -0.251 N 
ATOM     20  H   LIG    1       20.121 -18.650   3.174  0.00  0.00    +0.241 HD
ATOM     21  H   LIG    1       20.940 -17.344   3.848  0.00  0.00    +0.241 HD
ENDBRANCH   1  19
TORSDOF 1
ENDMDL
