MODEL 1
REMARK VINA RESULT:      -5.9      0.000      0.000
REMARK  Name = *****
REMARK                            x       y       z     vdW  Elec       q    Type
REMARK                         _______ _______ _______ _____ _____    ______ ____
ROOT
ATOM      1  C   LIG    1       27.197 -29.084  11.845  0.00  0.00    +0.250 C 
ATOM      2  N   LIG    1       26.760 -30.232  11.206  0.00  0.00    -0.298 N 
ATOM      3  H   LIG    1       26.163 -30.874  11.709  0.00  0.00    +0.150 HD
ATOM      4  O   LIG    1       27.731 -28.182  11.209  0.00  0.00    -0.270 OA
ENDROOT
BRANCH   2   5
ATOM      5  CA  LIG    1       27.001 -30.467   9.745  0.00  0.00    +0.190 C 
ATOM      6  C   LIG    1       26.353 -31.724   9.094  0.00  0.00    +0.165 C 
ATOM      7  S   LIG    1       24.988 -32.529  10.029  0.00  0.00    -0.127 S 
ATOM      8  C   LIG    1       23.636 -31.678   9.097  0.00  0.00    +0.042 C 
ATOM      9  CA  LIG    1       24.286 -31.087   7.823  0.00  0.00    +0.201 C 
ATOM     10  C   LIG    1       23.077 -30.560   9.994  0.00  0.00    +0.025 C 
ATOM     11  C   LIG    1       22.511 -32.690   8.847  0.00  0.00    +0.025 C 
ATOM     12  N   LIG    1       25.692 -30.826   8.127  0.00  0.00    -0.271 N 
ATOM     13  C   LIG    1       26.060 -29.692   8.790  0.00  0.00    +0.240 C 
ATOM     14  O   LIG    1       25.581 -28.574   8.748  0.00  0.00    -0.273 OA
BRANCH   9  15
ATOM     15  C   LIG    1       24.183 -32.002   6.598  0.00  0.00    +0.327 C 
ATOM     16  O   LIG    1       24.784 -33.059   6.460  0.00  0.00    -0.249 OA
BRANCH  15  17
ATOM     17  OXT LIG    1       23.310 -31.557   5.659  0.00  0.00    -0.479 OA
ATOM     18  HXT LIG    1       22.805 -32.241   5.179  0.00  0.00    +0.295 HD
ENDBRANCH  15  17
ENDBRANCH   9  15
ENDBRANCH   2   5
BRANCH   1  21
ATOM     19  C   LIG    1       29.319 -29.377  14.390  0.00  0.00    +0.090 C 
ATOM     20  C   LIG    1       27.859 -29.188  14.298  0.00  0.00    +0.147 A 
ATOM     21  C   LIG    1       26.935 -29.012  13.278  0.00  0.00    +0.106 A 
ATOM     22  C   LIG    1       25.727 -28.668  13.995  0.00  0.00    +0.129 A 
ATOM     23  N   LIG    1       25.936 -28.761  15.320  0.00  0.00    -0.077 NA
ATOM     24  O   LIG    1       27.243 -29.102  15.497  0.00  0.00    -0.359 OA
BRANCH  22  25
ATOM     25  C   LIG    1       24.394 -28.227  13.560  0.00  0.00    +0.041 A 
ATOM     26  C   LIG    1       23.345 -29.162  13.389  0.00  0.00    +0.052 A 
ATOM     27 CL   LIG    1       23.589 -30.882  13.446  0.00  0.00    -0.083 Cl
ATOM     28  C   LIG    1       22.022 -28.746  13.176  0.00  0.00    +0.021 A 
ATOM     29  C   LIG    1       21.719 -27.393  13.077  0.00  0.00    +0.003 A 
ATOM     30  C   LIG    1       22.738 -26.455  13.220  0.00  0.00    +0.021 A 
ATOM     31  C   LIG    1       24.053 -26.862  13.498  0.00  0.00    +0.052 A 
ATOM     32 CL   LIG    1       25.161 -25.591  13.899  0.00  0.00    -0.083 Cl
ENDBRANCH  22  25
ENDBRANCH   1  21
TORSDOF 5
ENDMDL
MODEL 2
REMARK VINA RESULT:      -5.2      4.063      6.905
REMARK  Name = *****
REMARK                            x       y       z     vdW  Elec       q    Type
REMARK                         _______ _______ _______ _____ _____    ______ ____
ROOT
ATOM      1  C   LIG    1       24.374 -30.963  10.844  0.00  0.00    +0.250 C 
ATOM      2  N   LIG    1       23.033 -30.619  10.815  0.00  0.00    -0.298 N 
ATOM      3  H   LIG    1       22.758 -29.764  10.351  0.00  0.00    +0.150 HD
ATOM      4  O   LIG    1       24.723 -32.084  11.196  0.00  0.00    -0.270 OA
ENDROOT
BRANCH   2   5
ATOM      5  CA  LIG    1       21.965 -31.554  11.297  0.00  0.00    +0.190 C 
ATOM      6  C   LIG    1       21.634 -31.557  12.818  0.00  0.00    +0.165 C 
ATOM      7  S   LIG    1       22.221 -30.115  13.797  0.00  0.00    -0.127 S 
ATOM      8  C   LIG    1       20.612 -29.206  13.720  0.00  0.00    +0.042 C 
ATOM      9  CA  LIG    1       19.549 -30.235  13.266  0.00  0.00    +0.201 C 
ATOM     10  C   LIG    1       20.757 -28.077  12.685  0.00  0.00    +0.025 C 
ATOM     11  C   LIG    1       20.355 -28.563  15.088  0.00  0.00    +0.025 C 
ATOM     12  N   LIG    1       20.233 -31.251  12.468  0.00  0.00    -0.271 N 
ATOM     13  C   LIG    1       20.516 -31.026  11.152  0.00  0.00    +0.240 C 
ATOM     14  O   LIG    1       19.890 -30.401  10.315  0.00  0.00    -0.273 OA
BRANCH   9  15
ATOM     15  C   LIG    1       18.804 -30.904  14.427  0.00  0.00    +0.327 C 
ATOM     16  O   LIG    1       19.281 -31.750  15.170  0.00  0.00    -0.249 OA
BRANCH  15  17
ATOM     17  OXT LIG    1       17.540 -30.441  14.600  0.00  0.00    -0.479 OA
ATOM     18  HXT LIG    1       16.862 -30.798  13.995  0.00  0.00    +0.295 HD
ENDBRANCH  15  17
ENDBRANCH   9  15
ENDBRANCH   2   5
BRANCH   1  21
ATOM     19  C   LIG    1       26.048 -28.703  12.622  0.00  0.00    +0.090 C 
ATOM     20  C   LIG    1       25.942 -28.989  11.178  0.00  0.00    +0.147 A 
ATOM     21  C   LIG    1       25.306 -29.937  10.390  0.00  0.00    +0.106 A 
ATOM     22  C   LIG    1       25.865 -29.691   9.079  0.00  0.00    +0.129 A 
ATOM     23  N   LIG    1       26.664 -28.610   9.114  0.00  0.00    -0.077 NA
ATOM     24  O   LIG    1       26.689 -28.172  10.404  0.00  0.00    -0.359 OA
BRANCH  22  25
ATOM     25  C   LIG    1       25.750 -30.392   7.792  0.00  0.00    +0.041 A 
ATOM     26  C   LIG    1       25.223 -29.731   6.656  0.00  0.00    +0.052 A 
ATOM     27 CL   LIG    1       24.473 -28.165   6.732  0.00  0.00    -0.083 Cl
ATOM     28  C   LIG    1       25.292 -30.307   5.378  0.00  0.00    +0.021 A 
ATOM     29  C   LIG    1       25.839 -31.573   5.207  0.00  0.00    +0.003 A 
ATOM     30  C   LIG    1       26.343 -32.251   6.313  0.00  0.00    +0.021 A 
ATOM     31  C   LIG    1       26.337 -31.655   7.584  0.00  0.00    +0.052 A 
ATOM     32 CL   LIG    1       27.219 -32.501   8.814  0.00  0.00    -0.083 Cl
ENDBRANCH  22  25
ENDBRANCH   1  21
TORSDOF 5
ENDMDL
MODEL 3
REMARK VINA RESULT:      -5.2      1.217      1.491
REMARK  Name = *****
REMARK                            x       y       z     vdW  Elec       q    Type
REMARK                         _______ _______ _______ _____ _____    ______ ____
ROOT
ATOM      1  C   LIG    1       26.570 -28.497  11.989  0.00  0.00    +0.250 C 
ATOM      2  N   LIG    1       26.439 -29.766  11.452  0.00  0.00    -0.298 N 
ATOM      3  H   LIG    1       25.858 -30.442  11.929  0.00  0.00    +0.150 HD
ATOM      4  O   LIG    1       27.076 -27.592  11.335  0.00  0.00    -0.270 OA
ENDROOT
BRANCH   2   5
ATOM      5  CA  LIG    1       26.990 -30.116  10.103  0.00  0.00    +0.190 C 
ATOM      6  C   LIG    1       26.551 -31.468   9.466  0.00  0.00    +0.165 C 
ATOM      7  S   LIG    1       25.060 -32.273  10.181  0.00  0.00    -0.127 S 
ATOM      8  C   LIG    1       23.894 -31.602   8.912  0.00  0.00    +0.042 C 
ATOM      9  CA  LIG    1       24.767 -31.087   7.744  0.00  0.00    +0.201 C 
ATOM     10  C   LIG    1       23.109 -30.447   9.558  0.00  0.00    +0.025 C 
ATOM     11  C   LIG    1       22.894 -32.705   8.545  0.00  0.00    +0.025 C 
ATOM     12  N   LIG    1       26.065 -30.707   8.298  0.00  0.00    -0.271 N 
ATOM     13  C   LIG    1       26.234 -29.496   8.902  0.00  0.00    +0.240 C 
ATOM     14  O   LIG    1       25.722 -28.420   8.649  0.00  0.00    -0.273 OA
BRANCH   9  15
ATOM     15  C   LIG    1       24.964 -32.115   6.623  0.00  0.00    +0.327 C 
ATOM     16  O   LIG    1       25.637 -33.132   6.716  0.00  0.00    -0.249 OA
BRANCH  15  17
ATOM     17  OXT LIG    1       24.277 -31.822   5.490  0.00  0.00    -0.479 OA
ATOM     18  HXT LIG    1       24.350 -30.903   5.166  0.00  0.00    +0.295 HD
ENDBRANCH  15  17
ENDBRANCH   9  15
ENDBRANCH   2   5
BRANCH   1  21
ATOM     19  C   LIG    1       27.931 -26.980  14.618  0.00  0.00    +0.090 C 
ATOM     20  C   LIG    1       26.665 -27.708  14.404  0.00  0.00    +0.147 A 
ATOM     21  C   LIG    1       26.028 -28.312  13.331  0.00  0.00    +0.106 A 
ATOM     22  C   LIG    1       24.717 -28.612  13.863  0.00  0.00    +0.129 A 
ATOM     23  N   LIG    1       24.669 -28.302  15.170  0.00  0.00    -0.077 NA
ATOM     24  O   LIG    1       25.877 -27.767  15.500  0.00  0.00    -0.359 OA
BRANCH  22  25
ATOM     25  C   LIG    1       23.484 -29.134  13.257  0.00  0.00    +0.041 A 
ATOM     26  C   LIG    1       23.232 -30.527  13.221  0.00  0.00    +0.052 A 
ATOM     27 CL   LIG    1       24.418 -31.718  13.662  0.00  0.00    -0.083 Cl
ATOM     28  C   LIG    1       21.981 -31.034  12.838  0.00  0.00    +0.021 A 
ATOM     29  C   LIG    1       20.969 -30.173  12.430  0.00  0.00    +0.003 A 
ATOM     30  C   LIG    1       21.201 -28.800  12.436  0.00  0.00    +0.021 A 
ATOM     31  C   LIG    1       22.428 -28.282  12.880  0.00  0.00    +0.052 A 
ATOM     32 CL   LIG    1       22.489 -26.560  13.072  0.00  0.00    -0.083 Cl
ENDBRANCH  22  25
ENDBRANCH   1  21
TORSDOF 5
ENDMDL
MODEL 4
REMARK VINA RESULT:      -5.1      1.976      2.572
REMARK  Name = *****
REMARK                            x       y       z     vdW  Elec       q    Type
REMARK                         _______ _______ _______ _____ _____    ______ ____
ROOT
ATOM      1  C   LIG    1       24.583 -31.501  12.855  0.00  0.00    +0.250 C 
ATOM      2  N   LIG    1       25.336 -31.462  11.693  0.00  0.00    -0.298 N 
ATOM      3  H   LIG    1       26.165 -30.883  11.667  0.00  0.00    +0.150 HD
ATOM      4  O   LIG    1       23.710 -32.349  13.003  0.00  0.00    -0.270 OA
ENDROOT
BRANCH   2   5
ATOM      5  CA  LIG    1       25.060 -32.377  10.539  0.00  0.00    +0.190 C 
ATOM      6  C   LIG    1       24.086 -31.877   9.431  0.00  0.00    +0.165 C 
ATOM      7  S   LIG    1       23.743 -30.071   9.385  0.00  0.00    -0.127 S 
ATOM      8  C   LIG    1       24.996 -29.706   8.074  0.00  0.00    +0.042 C 
ATOM      9  CA  LIG    1       25.370 -31.064   7.435  0.00  0.00    +0.201 C 
ATOM     10  C   LIG    1       26.219 -29.067   8.756  0.00  0.00    +0.025 C 
ATOM     11  C   LIG    1       24.400 -28.672   7.111  0.00  0.00    +0.025 C 
ATOM     12  N   LIG    1       25.164 -32.098   8.447  0.00  0.00    -0.271 N 
ATOM     13  C   LIG    1       26.110 -32.335   9.401  0.00  0.00    +0.240 C 
ATOM     14  O   LIG    1       27.324 -32.263   9.330  0.00  0.00    -0.273 OA
BRANCH   9  15
ATOM     15  C   LIG    1       24.556 -31.399   6.180  0.00  0.00    +0.327 C 
ATOM     16  O   LIG    1       23.386 -31.757   6.178  0.00  0.00    -0.249 OA
BRANCH  15  17
ATOM     17  OXT LIG    1       25.244 -31.223   5.023  0.00  0.00    -0.479 OA
ATOM     18  HXT LIG    1       25.583 -30.324   4.854  0.00  0.00    +0.295 HD
ENDBRANCH  15  17
ENDBRANCH   9  15
ENDBRANCH   2   5
BRANCH   1  21
ATOM     19  C   LIG    1       27.392 -31.204  14.612  0.00  0.00    +0.090 C 
ATOM     20  C   LIG    1       26.109 -30.475  14.611  0.00  0.00    +0.147 A 
ATOM     21  C   LIG    1       24.933 -30.520  13.876  0.00  0.00    +0.106 A 
ATOM     22  C   LIG    1       24.231 -29.337  14.321  0.00  0.00    +0.129 A 
ATOM     23  N   LIG    1       24.915 -28.742  15.314  0.00  0.00    -0.077 NA
ATOM     24  O   LIG    1       26.057 -29.459  15.500  0.00  0.00    -0.359 OA
BRANCH  22  25
ATOM     25  C   LIG    1       22.988 -28.684  13.883  0.00  0.00    +0.041 A 
ATOM     26  C   LIG    1       21.732 -29.288  14.129  0.00  0.00    +0.052 A 
ATOM     27 CL   LIG    1       21.559 -30.907  14.738  0.00  0.00    -0.083 Cl
ATOM     28  C   LIG    1       20.532 -28.595  13.907  0.00  0.00    +0.021 A 
ATOM     29  C   LIG    1       20.551 -27.306  13.388  0.00  0.00    +0.003 A 
ATOM     30  C   LIG    1       21.775 -26.700  13.117  0.00  0.00    +0.021 A 
ATOM     31  C   LIG    1       22.981 -27.362  13.397  0.00  0.00    +0.052 A 
ATOM     32 CL   LIG    1       24.416 -26.401  13.250  0.00  0.00    -0.083 Cl
ENDBRANCH  22  25
ENDBRANCH   1  21
TORSDOF 5
ENDMDL
MODEL 5
REMARK VINA RESULT:      -5.1      3.609      5.810
REMARK  Name = *****
REMARK                            x       y       z     vdW  Elec       q    Type
REMARK                         _______ _______ _______ _____ _____    ______ ____
ROOT
ATOM      1  C   LIG    1       25.109 -28.651  12.125  0.00  0.00    +0.250 C 
ATOM      2  N   LIG    1       23.980 -29.444  12.010  0.00  0.00    -0.298 N 
ATOM      3  H   LIG    1       24.070 -30.368  11.607  0.00  0.00    +0.150 HD
ATOM      4  O   LIG    1       25.086 -27.628  12.800  0.00  0.00    -0.270 OA
ENDROOT
BRANCH   2   5
ATOM      5  CA  LIG    1       22.667 -29.047  12.615  0.00  0.00    +0.190 C 
ATOM      6  C   LIG    1       21.366 -29.524  11.905  0.00  0.00    +0.165 C 
ATOM      7  S   LIG    1       21.539 -30.899  10.696  0.00  0.00    -0.127 S 
ATOM      8  C   LIG    1       21.055 -32.224  11.892  0.00  0.00    +0.042 C 
ATOM      9  CA  LIG    1       20.395 -31.508  13.095  0.00  0.00    +0.201 C 
ATOM     10  C   LIG    1       22.335 -32.956  12.327  0.00  0.00    +0.025 C 
ATOM     11  C   LIG    1       20.160 -33.231  11.160  0.00  0.00    +0.025 C 
ATOM     12  N   LIG    1       20.964 -30.164  13.173  0.00  0.00    -0.271 N 
ATOM     13  C   LIG    1       22.174 -29.956  13.768  0.00  0.00    +0.240 C 
ATOM     14  O   LIG    1       22.684 -30.522  14.718  0.00  0.00    -0.273 OA
BRANCH   9  15
ATOM     15  C   LIG    1       18.867 -31.419  12.996  0.00  0.00    +0.327 C 
ATOM     16  O   LIG    1       18.083 -32.110  13.630  0.00  0.00    -0.249 OA
BRANCH  15  17
ATOM     17  OXT LIG    1       18.433 -30.450  12.150  0.00  0.00    -0.479 OA
ATOM     18  HXT LIG    1       17.595 -30.012  12.388  0.00  0.00    +0.295 HD
ENDBRANCH  15  17
ENDBRANCH   9  15
ENDBRANCH   2   5
BRANCH   1  21
ATOM     19  C   LIG    1       28.146 -29.225  13.357  0.00  0.00    +0.090 C 
ATOM     20  C   LIG    1       27.561 -29.315  12.005  0.00  0.00    +0.147 A 
ATOM     21  C   LIG    1       26.304 -29.138  11.445  0.00  0.00    +0.106 A 
ATOM     22  C   LIG    1       26.482 -29.629  10.096  0.00  0.00    +0.129 A 
ATOM     23  N   LIG    1       27.772 -29.946   9.888  0.00  0.00    -0.077 NA
ATOM     24  O   LIG    1       28.431 -29.731  11.060  0.00  0.00    -0.359 OA
BRANCH  22  25
ATOM     25  C   LIG    1       25.551 -29.863   8.982  0.00  0.00    +0.041 A 
ATOM     26  C   LIG    1       25.475 -28.950   7.903  0.00  0.00    +0.052 A 
ATOM     27 CL   LIG    1       26.275 -27.407   7.906  0.00  0.00    -0.083 Cl
ATOM     28  C   LIG    1       24.751 -29.253   6.739  0.00  0.00    +0.021 A 
ATOM     29  C   LIG    1       24.043 -30.445   6.644  0.00  0.00    +0.003 A 
ATOM     30  C   LIG    1       24.084 -31.348   7.702  0.00  0.00    +0.021 A 
ATOM     31  C   LIG    1       24.859 -31.081   8.842  0.00  0.00    +0.052 A 
ATOM     32 CL   LIG    1       25.020 -32.394   9.963  0.00  0.00    -0.083 Cl
ENDBRANCH  22  25
ENDBRANCH   1  21
TORSDOF 5
ENDMDL
MODEL 6
REMARK VINA RESULT:      -5.0      2.747      7.103
REMARK  Name = *****
REMARK                            x       y       z     vdW  Elec       q    Type
REMARK                         _______ _______ _______ _____ _____    ______ ____
ROOT
ATOM      1  C   LIG    1       25.880 -28.576   8.081  0.00  0.00    +0.250 C 
ATOM      2  N   LIG    1       25.939 -28.914   9.422  0.00  0.00    -0.298 N 
ATOM      3  H   LIG    1       25.431 -29.728   9.744  0.00  0.00    +0.150 HD
ATOM      4  O   LIG    1       26.648 -27.742   7.615  0.00  0.00    -0.270 OA
ENDROOT
BRANCH   2   5
ATOM      5  CA  LIG    1       26.864 -28.220  10.375  0.00  0.00    +0.190 C 
ATOM      6  C   LIG    1       26.302 -27.817  11.770  0.00  0.00    +0.165 C 
ATOM      7  S   LIG    1       24.741 -28.632  12.301  0.00  0.00    -0.127 S 
ATOM      8  C   LIG    1       25.580 -29.934  13.312  0.00  0.00    +0.042 C 
ATOM      9  CA  LIG    1       27.037 -29.457  13.520  0.00  0.00    +0.201 C 
ATOM     10  C   LIG    1       25.544 -31.248  12.511  0.00  0.00    +0.025 C 
ATOM     11  C   LIG    1       24.770 -30.143  14.597  0.00  0.00    +0.025 C 
ATOM     12  N   LIG    1       27.387 -28.606  12.385  0.00  0.00    -0.271 N 
ATOM     13  C   LIG    1       27.782 -29.155  11.201  0.00  0.00    +0.240 C 
ATOM     14  O   LIG    1       28.421 -30.170  10.985  0.00  0.00    -0.273 OA
BRANCH   9  15
ATOM     15  C   LIG    1       27.252 -28.689  14.829  0.00  0.00    +0.327 C 
ATOM     16  O   LIG    1       26.491 -27.843  15.278  0.00  0.00    -0.249 OA
BRANCH  15  17
ATOM     17  OXT LIG    1       28.372 -29.060  15.500  0.00  0.00    -0.479 OA
ATOM     18  HXT LIG    1       29.222 -28.868  15.060  0.00  0.00    +0.295 HD
ENDBRANCH  15  17
ENDBRANCH   9  15
ENDBRANCH   2   5
BRANCH   1  21
ATOM     19  C   LIG    1       24.168 -27.559   5.416  0.00  0.00    +0.090 C 
ATOM     20  C   LIG    1       24.181 -28.807   6.203  0.00  0.00    +0.147 A 
ATOM     21  C   LIG    1       24.899 -29.302   7.282  0.00  0.00    +0.106 A 
ATOM     22  C   LIG    1       24.489 -30.688   7.331  0.00  0.00    +0.129 A 
ATOM     23  N   LIG    1       23.526 -30.916   6.420  0.00  0.00    -0.077 NA
ATOM     24  O   LIG    1       23.328 -29.750   5.746  0.00  0.00    -0.359 OA
BRANCH  22  25
ATOM     25  C   LIG    1       24.934 -31.838   8.131  0.00  0.00    +0.041 A 
ATOM     26  C   LIG    1       26.135 -32.517   7.811  0.00  0.00    +0.052 A 
ATOM     27 CL   LIG    1       27.038 -32.213   6.358  0.00  0.00    -0.083 Cl
ATOM     28  C   LIG    1       26.683 -33.478   8.674  0.00  0.00    +0.021 A 
ATOM     29  C   LIG    1       26.025 -33.825   9.848  0.00  0.00    +0.003 A 
ATOM     30  C   LIG    1       24.831 -33.187  10.172  0.00  0.00    +0.021 A 
ATOM     31  C   LIG    1       24.310 -32.178   9.347  0.00  0.00    +0.052 A 
ATOM     32 CL   LIG    1       22.963 -31.300   9.995  0.00  0.00    -0.083 Cl
ENDBRANCH  22  25
ENDBRANCH   1  21
TORSDOF 5
ENDMDL
MODEL 7
REMARK VINA RESULT:      -5.0      2.213      3.017
REMARK  Name = *****
REMARK                            x       y       z     vdW  Elec       q    Type
REMARK                         _______ _______ _______ _____ _____    ______ ____
ROOT
ATOM      1  C   LIG    1       26.315 -27.560  13.222  0.00  0.00    +0.250 C 
ATOM      2  N   LIG    1       26.078 -27.855  11.891  0.00  0.00    -0.298 N 
ATOM      3  H   LIG    1       25.233 -27.509  11.456  0.00  0.00    +0.150 HD
ATOM      4  O   LIG    1       27.417 -27.766  13.719  0.00  0.00    -0.270 OA
ENDROOT
BRANCH   2   5
ATOM      5  CA  LIG    1       27.108 -28.522  11.031  0.00  0.00    +0.190 C 
ATOM      6  C   LIG    1       27.137 -30.079  11.005  0.00  0.00    +0.165 C 
ATOM      7  S   LIG    1       25.640 -30.945  11.632  0.00  0.00    -0.127 S 
ATOM      8  C   LIG    1       24.891 -31.196   9.960  0.00  0.00    +0.042 C 
ATOM      9  CA  LIG    1       26.019 -30.943   8.931  0.00  0.00    +0.201 C 
ATOM     10  C   LIG    1       23.758 -30.169   9.792  0.00  0.00    +0.025 C 
ATOM     11  C   LIG    1       24.269 -32.597   9.915  0.00  0.00    +0.025 C 
ATOM     12  N   LIG    1       26.968 -30.012   9.540  0.00  0.00    -0.271 N 
ATOM     13  C   LIG    1       26.723 -28.670   9.538  0.00  0.00    +0.240 C 
ATOM     14  O   LIG    1       26.164 -27.980   8.704  0.00  0.00    -0.273 OA
BRANCH   9  15
ATOM     15  C   LIG    1       26.752 -32.217   8.494  0.00  0.00    +0.327 C 
ATOM     16  O   LIG    1       27.515 -32.862   9.199  0.00  0.00    -0.249 OA
BRANCH  15  17
ATOM     17  OXT LIG    1       26.447 -32.613   7.233  0.00  0.00    -0.479 OA
ATOM     18  HXT LIG    1       25.968 -33.460   7.149  0.00  0.00    +0.295 HD
ENDBRANCH  15  17
ENDBRANCH   9  15
ENDBRANCH   2   5
BRANCH   1  21
ATOM     19  C   LIG    1       25.984 -24.446  14.347  0.00  0.00    +0.090 C 
ATOM     20  C   LIG    1       25.144 -25.656  14.435  0.00  0.00    +0.147 A 
ATOM     21  C   LIG    1       25.205 -26.955  13.950  0.00  0.00    +0.106 A 
ATOM     22  C   LIG    1       23.898 -27.480  14.274  0.00  0.00    +0.129 A 
ATOM     23  N   LIG    1       23.203 -26.579  14.989  0.00  0.00    -0.077 NA
ATOM     24  O   LIG    1       23.984 -25.469  15.102  0.00  0.00    -0.359 OA
BRANCH  22  25
ATOM     25  C   LIG    1       23.215 -28.742  13.950  0.00  0.00    +0.041 A 
ATOM     26  C   LIG    1       23.654 -29.964  14.513  0.00  0.00    +0.052 A 
ATOM     27 CL   LIG    1       25.129 -30.116  15.421  0.00  0.00    -0.083 Cl
ATOM     28  C   LIG    1       22.901 -31.141  14.384  0.00  0.00    +0.021 A 
ATOM     29  C   LIG    1       21.722 -31.142  13.648  0.00  0.00    +0.003 A 
ATOM     30  C   LIG    1       21.282 -29.957  13.065  0.00  0.00    +0.021 A 
ATOM     31  C   LIG    1       21.996 -28.761  13.245  0.00  0.00    +0.052 A 
ATOM     32 CL   LIG    1       21.207 -27.324  12.682  0.00  0.00    -0.083 Cl
ENDBRANCH  22  25
ENDBRANCH   1  21
TORSDOF 5
ENDMDL
MODEL 8
REMARK VINA RESULT:      -5.0      2.540      3.860
REMARK  Name = *****
REMARK                            x       y       z     vdW  Elec       q    Type
REMARK                         _______ _______ _______ _____ _____    ______ ____
ROOT
ATOM      1  C   LIG    1       22.867 -30.077  11.327  0.00  0.00    +0.250 C 
ATOM      2  N   LIG    1       24.015 -30.189  10.563  0.00  0.00    -0.298 N 
ATOM      3  H   LIG    1       24.888 -30.414  11.022  0.00  0.00    +0.150 HD
ATOM      4  O   LIG    1       21.765 -30.028  10.792  0.00  0.00    -0.270 OA
ENDROOT
BRANCH   2   5
ATOM      5  CA  LIG    1       23.977 -30.160   9.065  0.00  0.00    +0.190 C 
ATOM      6  C   LIG    1       25.309 -30.407   8.298  0.00  0.00    +0.165 C 
ATOM      7  S   LIG    1       26.683 -31.173   9.251  0.00  0.00    -0.127 S 
ATOM      8  C   LIG    1       26.339 -32.894   8.669  0.00  0.00    +0.042 C 
ATOM      9  CA  LIG    1       25.405 -32.763   7.442  0.00  0.00    +0.201 C 
ATOM     10  C   LIG    1       25.637 -33.647   9.813  0.00  0.00    +0.025 C 
ATOM     11  C   LIG    1       27.679 -33.589   8.400  0.00  0.00    +0.025 C 
ATOM     12  N   LIG    1       24.646 -31.524   7.598  0.00  0.00    -0.271 N 
ATOM     13  C   LIG    1       23.538 -31.484   8.392  0.00  0.00    +0.240 C 
ATOM     14  O   LIG    1       22.702 -32.342   8.609  0.00  0.00    -0.273 OA
BRANCH   9  15
ATOM     15  C   LIG    1       26.149 -32.750   6.101  0.00  0.00    +0.327 C 
ATOM     16  O   LIG    1       26.298 -33.722   5.374  0.00  0.00    -0.249 OA
BRANCH  15  17
ATOM     17  OXT LIG    1       26.612 -31.524   5.749  0.00  0.00    -0.479 OA
ATOM     18  HXT LIG    1       27.573 -31.453   5.595  0.00  0.00    +0.295 HD
ENDBRANCH  15  17
ENDBRANCH   9  15
ENDBRANCH   2   5
BRANCH   1  21
ATOM     19  C   LIG    1       22.081 -32.413  13.562  0.00  0.00    +0.090 C 
ATOM     20  C   LIG    1       22.668 -31.062  13.663  0.00  0.00    +0.147 A 
ATOM     21  C   LIG    1       23.060 -30.073  12.773  0.00  0.00    +0.106 A 
ATOM     22  C   LIG    1       23.752 -29.132  13.625  0.00  0.00    +0.129 A 
ATOM     23  N   LIG    1       23.651 -29.513  14.910  0.00  0.00    -0.077 NA
ATOM     24  O   LIG    1       22.965 -30.689  14.926  0.00  0.00    -0.359 OA
BRANCH  22  25
ATOM     25  C   LIG    1       24.534 -27.916  13.350  0.00  0.00    +0.041 A 
ATOM     26  C   LIG    1       24.003 -26.637  13.643  0.00  0.00    +0.052 A 
ATOM     27 CL   LIG    1       22.351 -26.380  14.117  0.00  0.00    -0.083 Cl
ATOM     28  C   LIG    1       24.801 -25.484  13.583  0.00  0.00    +0.021 A 
ATOM     29  C   LIG    1       26.128 -25.569  13.180  0.00  0.00    +0.003 A 
ATOM     30  C   LIG    1       26.666 -26.814  12.866  0.00  0.00    +0.021 A 
ATOM     31  C   LIG    1       25.893 -27.980  12.987  0.00  0.00    +0.052 A 
ATOM     32 CL   LIG    1       26.755 -29.473  12.809  0.00  0.00    -0.083 Cl
ENDBRANCH  22  25
ENDBRANCH   1  21
TORSDOF 5
ENDMDL
MODEL 9
REMARK VINA RESULT:      -4.9      4.040      6.740
REMARK  Name = *****
REMARK                            x       y       z     vdW  Elec       q    Type
REMARK                         _______ _______ _______ _____ _____    ______ ____
ROOT
ATOM      1  C   LIG    1       24.390 -31.001  10.749  0.00  0.00    +0.250 C 
ATOM      2  N   LIG    1       23.050 -30.653  10.740  0.00  0.00    -0.298 N 
ATOM      3  H   LIG    1       22.776 -29.775  10.319  0.00  0.00    +0.150 HD
ATOM      4  O   LIG    1       24.736 -32.139  11.045  0.00  0.00    -0.270 OA
ENDROOT
BRANCH   2   5
ATOM      5  CA  LIG    1       21.981 -31.606  11.179  0.00  0.00    +0.190 C 
ATOM      6  C   LIG    1       21.643 -31.671  12.698  0.00  0.00    +0.165 C 
ATOM      7  S   LIG    1       22.226 -30.269  13.736  0.00  0.00    -0.127 S 
ATOM      8  C   LIG    1       20.616 -29.360  13.690  0.00  0.00    +0.042 C 
ATOM      9  CA  LIG    1       19.556 -30.369  13.190  0.00  0.00    +0.201 C 
ATOM     10  C   LIG    1       20.765 -28.189  12.703  0.00  0.00    +0.025 C 
ATOM     11  C   LIG    1       20.354 -28.772  15.082  0.00  0.00    +0.025 C 
ATOM     12  N   LIG    1       20.244 -31.351  12.354  0.00  0.00    -0.271 N 
ATOM     13  C   LIG    1       20.532 -31.073  11.050  0.00  0.00    +0.240 C 
ATOM     14  O   LIG    1       19.909 -30.415  10.237  0.00  0.00    -0.273 OA
BRANCH   9  15
ATOM     15  C   LIG    1       18.806 -31.085  14.320  0.00  0.00    +0.327 C 
ATOM     16  O   LIG    1       19.282 -31.958  15.033  0.00  0.00    -0.249 OA
BRANCH  15  17
ATOM     17  OXT LIG    1       17.540 -30.633  14.503  0.00  0.00    -0.479 OA
ATOM     18  HXT LIG    1       17.426 -29.664  14.530  0.00  0.00    +0.295 HD
ENDBRANCH  15  17
ENDBRANCH   9  15
ENDBRANCH   2   5
BRANCH   1  21
ATOM     19  C   LIG    1       25.938 -28.719  12.610  0.00  0.00    +0.090 C 
ATOM     20  C   LIG    1       25.905 -29.000  11.162  0.00  0.00    +0.147 A 
ATOM     21  C   LIG    1       25.324 -29.957  10.342  0.00  0.00    +0.106 A 
ATOM     22  C   LIG    1       25.940 -29.696   9.060  0.00  0.00    +0.129 A 
ATOM     23  N   LIG    1       26.717 -28.601   9.136  0.00  0.00    -0.077 NA
ATOM     24  O   LIG    1       26.673 -28.168  10.426  0.00  0.00    -0.359 OA
BRANCH  22  25
ATOM     25  C   LIG    1       25.897 -30.394   7.766  0.00  0.00    +0.041 A 
ATOM     26  C   LIG    1       26.375 -31.721   7.648  0.00  0.00    +0.052 A 
ATOM     27 CL   LIG    1       27.238 -32.536   8.917  0.00  0.00    -0.083 Cl
ATOM     28  C   LIG    1       26.159 -32.474   6.484  0.00  0.00    +0.021 A 
ATOM     29  C   LIG    1       25.510 -31.909   5.392  0.00  0.00    +0.003 A 
ATOM     30  C   LIG    1       25.052 -30.598   5.477  0.00  0.00    +0.021 A 
ATOM     31  C   LIG    1       25.206 -29.859   6.662  0.00  0.00    +0.052 A 
ATOM     32 CL   LIG    1       24.371 -28.341   6.714  0.00  0.00    -0.083 Cl
ENDBRANCH  22  25
ENDBRANCH   1  21
TORSDOF 5
ENDMDL
