MODEL 1
REMARK VINA RESULT:      -3.8      0.000      0.000
REMARK  Name = *****
REMARK                            x       y       z     vdW  Elec       q    Type
REMARK                         _______ _______ _______ _____ _____    ______ ____
ROOT
ATOM      1  C   LIG    1       24.916 -13.471   3.736  0.00  0.00    +0.164 A 
ATOM      2  C   LIG    1       26.132 -13.978   3.270  0.00  0.00    +0.162 A 
ATOM      3  C   LIG    1       26.307 -15.369   3.232  0.00  0.00    +0.062 A 
ATOM      4  C   LIG    1       25.254 -16.257   3.579  0.00  0.00    +0.044 A 
ATOM      5  C   LIG    1       24.046 -15.751   4.038  0.00  0.00    +0.082 A 
ATOM      6  N   LIG    1       23.011 -16.547   4.344  0.00  0.00    -0.214 NA
ATOM      7  C   LIG    1       23.124 -17.879   4.187  0.00  0.00    +0.220 A 
ATOM      8  N   LIG    1       24.264 -18.453   3.789  0.00  0.00    -0.199 NA
ATOM      9  C   LIG    1       25.297 -17.653   3.490  0.00  0.00    +0.129 A 
ATOM     10  C   LIG    1       23.912 -14.369   4.139  0.00  0.00    +0.078 A 
ENDROOT
BRANCH   9  11
ATOM     11  N   LIG    1       26.438 -18.325   3.026  0.00  0.00    -0.343 N 
ATOM     12  H   LIG    1       26.767 -17.910   2.161  0.00  0.00    +0.144 HD
ATOM     13  H   LIG    1       26.146 -19.289   2.870  0.00  0.00    +0.144 HD
ENDBRANCH   9  11
BRANCH   1  15
ATOM     14  C   LIG    1       23.795 -11.542   2.867  0.00  0.00    +0.277 C 
ATOM     15  O   LIG    1       24.565 -12.155   3.896  0.00  0.00    -0.491 OA
ENDBRANCH   1  15
BRANCH   2  16
ATOM     16  O   LIG    1       27.130 -13.105   2.928  0.00  0.00    -0.491 OA
ATOM     17  C   LIG    1       28.176 -12.955   3.883  0.00  0.00    +0.277 C 
ENDBRANCH   2  16
BRANCH   7  18
ATOM     18  N   LIG    1       21.996 -18.675   4.421  0.00  0.00    -0.303 N 
ATOM     19  C   LIG    1       20.901 -18.395   3.499  0.00  0.00    +0.132 C 
BRANCH  18  20
ATOM     20  C   LIG    1       22.213 -20.083   4.776  0.00  0.00    +0.109 C 
BRANCH  20  21
ATOM     21  C   LIG    1       22.698 -20.259   6.220  0.00  0.00    +0.037 C 
BRANCH  21  22
ATOM     22  C   LIG    1       23.629 -21.453   6.411  0.00  0.00    +0.105 C 
BRANCH  22  23
ATOM     23  N   LIG    1       24.908 -21.081   6.985  0.00  0.00    -0.313 N 
ATOM     24  H   LIG    1       24.995 -20.988   7.995  0.00  0.00    +0.149 HD
ATOM     25  C   LIG    1       25.981 -20.680   6.230  0.00  0.00    +0.242 C 
ATOM     26  O   LIG    1       25.985 -20.712   4.995  0.00  0.00    -0.273 OA
BRANCH  25  27
ATOM     27  C   LIG    1       27.202 -20.249   7.062  0.00  0.00    +0.204 C 
ATOM     28  O   LIG    1       27.787 -19.036   6.547  0.00  0.00    -0.367 OA
ATOM     29  C   LIG    1       29.076 -19.354   5.999  0.00  0.00    +0.161 C 
ATOM     30  C   LIG    1       29.152 -20.860   5.893  0.00  0.00    +0.031 C 
ATOM     31  C   LIG    1       28.295 -21.305   7.051  0.00  0.00    +0.043 C 
ENDBRANCH  25  27
ENDBRANCH  22  23
ENDBRANCH  21  22
ENDBRANCH  20  21
ENDBRANCH  18  20
ENDBRANCH   7  18
TORSDOF 9
ENDMDL
MODEL 2
REMARK VINA RESULT:      -2.0      1.929      4.606
REMARK  Name = *****
REMARK                            x       y       z     vdW  Elec       q    Type
REMARK                         _______ _______ _______ _____ _____    ______ ____
ROOT
ATOM      1  C   LIG    1       27.180 -13.876   3.644  0.00  0.00    +0.164 A 
ATOM      2  C   LIG    1       26.144 -14.337   2.826  0.00  0.00    +0.162 A 
ATOM      3  C   LIG    1       25.946 -15.720   2.714  0.00  0.00    +0.062 A 
ATOM      4  C   LIG    1       26.718 -16.643   3.471  0.00  0.00    +0.044 A 
ATOM      5  C   LIG    1       27.743 -16.182   4.285  0.00  0.00    +0.082 A 
ATOM      6  N   LIG    1       28.476 -17.009   5.045  0.00  0.00    -0.214 NA
ATOM      7  C   LIG    1       28.208 -18.328   5.045  0.00  0.00    +0.220 A 
ATOM      8  N   LIG    1       27.265 -18.861   4.260  0.00  0.00    -0.199 NA
ATOM      9  C   LIG    1       26.540 -18.030   3.499  0.00  0.00    +0.129 A 
ATOM     10  C   LIG    1       27.975 -14.810   4.330  0.00  0.00    +0.078 A 
ENDROOT
BRANCH   9  11
ATOM     11  N   LIG    1       25.534 -18.658   2.748  0.00  0.00    -0.343 N 
ATOM     12  H   LIG    1       25.232 -19.511   3.204  0.00  0.00    +0.144 HD
ATOM     13  H   LIG    1       25.955 -18.866   1.844  0.00  0.00    +0.144 HD
ENDBRANCH   9  11
BRANCH   1  15
ATOM     14  C   LIG    1       28.770 -12.346   4.575  0.00  0.00    +0.277 C 
ATOM     15  O   LIG    1       27.567 -12.576   3.849  0.00  0.00    -0.491 OA
ENDBRANCH   1  15
BRANCH   2  16
ATOM     16  O   LIG    1       25.403 -13.431   2.116  0.00  0.00    -0.491 OA
ATOM     17  C   LIG    1       24.207 -12.981   2.746  0.00  0.00    +0.277 C 
ENDBRANCH   2  16
BRANCH   7  18
ATOM     18  N   LIG    1       28.924 -19.153   5.920  0.00  0.00    -0.303 N 
ATOM     19  C   LIG    1       29.475 -18.428   7.061  0.00  0.00    +0.132 C 
BRANCH  18  20
ATOM     20  C   LIG    1       28.392 -20.495   6.188  0.00  0.00    +0.109 C 
BRANCH  20  21
ATOM     21  C   LIG    1       27.108 -20.463   7.024  0.00  0.00    +0.037 C 
BRANCH  21  22
ATOM     22  C   LIG    1       26.119 -21.570   6.668  0.00  0.00    +0.105 C 
BRANCH  22  23
ATOM     23  N   LIG    1       25.271 -21.223   5.543  0.00  0.00    -0.313 N 
ATOM     24  H   LIG    1       25.697 -20.960   4.657  0.00  0.00    +0.149 HD
ATOM     25  C   LIG    1       23.912 -21.062   5.649  0.00  0.00    +0.242 C 
ATOM     26  O   LIG    1       23.283 -21.312   6.683  0.00  0.00    -0.273 OA
BRANCH  25  27
ATOM     27  C   LIG    1       23.235 -20.606   4.345  0.00  0.00    +0.204 C 
ATOM     28  O   LIG    1       23.688 -19.297   3.946  0.00  0.00    -0.367 OA
ATOM     29  C   LIG    1       22.593 -18.378   4.084  0.00  0.00    +0.161 C 
ATOM     30  C   LIG    1       21.525 -19.082   4.889  0.00  0.00    +0.031 C 
ATOM     31  C   LIG    1       21.724 -20.523   4.492  0.00  0.00    +0.043 C 
ENDBRANCH  25  27
ENDBRANCH  22  23
ENDBRANCH  21  22
ENDBRANCH  20  21
ENDBRANCH  18  20
ENDBRANCH   7  18
TORSDOF 9
ENDMDL
MODEL 3
REMARK VINA RESULT:      -1.1      1.610      6.170
REMARK  Name = *****
REMARK                            x       y       z     vdW  Elec       q    Type
REMARK                         _______ _______ _______ _____ _____    ______ ____
ROOT
ATOM      1  C   LIG    1       27.498 -19.709   5.172  0.00  0.00    +0.164 A 
ATOM      2  C   LIG    1       27.254 -20.727   6.098  0.00  0.00    +0.162 A 
ATOM      3  C   LIG    1       25.928 -20.996   6.462  0.00  0.00    +0.062 A 
ATOM      4  C   LIG    1       24.839 -20.315   5.853  0.00  0.00    +0.044 A 
ATOM      5  C   LIG    1       25.085 -19.307   4.931  0.00  0.00    +0.082 A 
ATOM      6  N   LIG    1       24.092 -18.660   4.303  0.00  0.00    -0.214 NA
ATOM      7  C   LIG    1       22.813 -19.000   4.548  0.00  0.00    +0.220 A 
ATOM      8  N   LIG    1       22.487 -19.931   5.451  0.00  0.00    -0.199 NA
ATOM      9  C   LIG    1       23.483 -20.571   6.080  0.00  0.00    +0.129 A 
ATOM     10  C   LIG    1       26.410 -19.001   4.633  0.00  0.00    +0.078 A 
ENDROOT
BRANCH   9  11
ATOM     11  N   LIG    1       23.062 -21.572   6.968  0.00  0.00    -0.343 N 
ATOM     12  H   LIG    1       23.842 -22.163   7.231  0.00  0.00    +0.144 HD
ATOM     13  H   LIG    1       22.359 -22.111   6.464  0.00  0.00    +0.144 HD
ENDBRANCH   9  11
BRANCH   1  15
ATOM     14  C   LIG    1       29.030 -17.886   4.916  0.00  0.00    +0.277 C 
ATOM     15  O   LIG    1       28.715 -19.261   4.723  0.00  0.00    -0.491 OA
ENDBRANCH   1  15
BRANCH   2  16
ATOM     16  O   LIG    1       28.316 -21.381   6.663  0.00  0.00    -0.491 OA
ATOM     17  C   LIG    1       29.410 -20.559   7.060  0.00  0.00    +0.277 C 
ENDBRANCH   2  16
BRANCH   7  18
ATOM     18  N   LIG    1       21.804 -18.375   3.807  0.00  0.00    -0.303 N 
ATOM     19  C   LIG    1       20.714 -19.278   3.456  0.00  0.00    +0.132 C 
BRANCH  18  20
ATOM     20  C   LIG    1       21.428 -17.005   4.178  0.00  0.00    +0.109 C 
BRANCH  20  21
ATOM     21  C   LIG    1       22.444 -16.351   5.121  0.00  0.00    +0.037 C 
BRANCH  21  22
ATOM     22  C   LIG    1       22.953 -14.998   4.629  0.00  0.00    +0.105 C 
BRANCH  22  23
ATOM     23  N   LIG    1       24.270 -15.079   4.028  0.00  0.00    -0.313 N 
ATOM     24  H   LIG    1       24.905 -15.823   4.312  0.00  0.00    +0.149 HD
ATOM     25  C   LIG    1       24.783 -14.104   3.210  0.00  0.00    +0.242 C 
ATOM     26  O   LIG    1       24.124 -13.133   2.825  0.00  0.00    -0.273 OA
BRANCH  25  27
ATOM     27  C   LIG    1       26.232 -14.365   2.763  0.00  0.00    +0.204 C 
ATOM     28  O   LIG    1       26.879 -15.335   3.611  0.00  0.00    -0.367 OA
ATOM     29  C   LIG    1       27.907 -14.667   4.359  0.00  0.00    +0.161 C 
ATOM     30  C   LIG    1       27.678 -13.182   4.195  0.00  0.00    +0.031 C 
ATOM     31  C   LIG    1       27.076 -13.102   2.815  0.00  0.00    +0.043 C 
ENDBRANCH  25  27
ENDBRANCH  22  23
ENDBRANCH  21  22
ENDBRANCH  20  21
ENDBRANCH  18  20
ENDBRANCH   7  18
TORSDOF 9
ENDMDL
