MODEL 1
REMARK VINA RESULT:      -6.1      0.000      0.000
REMARK  Name = *****
REMARK                            x       y       z     vdW  Elec       q    Type
REMARK                         _______ _______ _______ _____ _____    ______ ____
ROOT
ATOM      1  C   LIG    1       26.607 -17.483   4.041  0.00  0.00    +0.084 C 
ATOM      2  C   LIG    1       25.399 -17.906   3.192  0.00  0.00    +0.027 C 
ENDROOT
BRANCH   1   3
ATOM      3  N   LIG    1       27.460 -18.679   4.295  0.00  0.00    -0.308 NA
ATOM      4  H   LIG    1       27.019 -19.514   3.922  0.00  0.00    +0.122 HD
BRANCH   3   6
ATOM      5  C   LIG    1       29.475 -18.508   5.649  0.00  0.00    +0.024 C 
ATOM      6  C   LIG    1       28.037 -18.984   5.630  0.00  0.00    +0.051 C 
BRANCH   6   7
ATOM      7  C   LIG    1       27.753 -20.420   6.211  0.00  0.00    +0.023 C 
BRANCH   7   8
ATOM      8  C   LIG    1       26.468 -20.672   7.052  0.00  0.00    +0.036 C 
BRANCH   8   9
ATOM      9  C   LIG    1       25.153 -20.804   6.305  0.00  0.00    -0.047 A 
ATOM     10  C   LIG    1       23.923 -20.486   6.897  0.00  0.00    +0.003 A 
ATOM     11  C   LIG    1       22.746 -20.465   6.133  0.00  0.00    +0.000 A 
ATOM     12  C   LIG    1       22.797 -20.719   4.765  0.00  0.00    +0.000 A 
ATOM     13  C   LIG    1       24.000 -21.100   4.180  0.00  0.00    +0.000 A 
ATOM     14  C   LIG    1       25.149 -21.212   4.958  0.00  0.00    +0.003 A 
ENDBRANCH   8   9
ENDBRANCH   7   8
ENDBRANCH   6   7
ENDBRANCH   3   6
ENDBRANCH   1   3
BRANCH   1  15
ATOM     15  C   LIG    1       27.247 -16.103   3.532  0.00  0.00    +0.161 C 
BRANCH  15  16
ATOM     16  C   LIG    1       26.345 -14.878   3.465  0.00  0.00    -0.018 A 
ATOM     17  C   LIG    1       25.066 -14.846   4.046  0.00  0.00    +0.010 A 
ATOM     18  C   LIG    1       24.097 -13.946   3.673  0.00  0.00    +0.046 A 
ATOM     19  C   LIG    1       24.439 -12.891   2.821  0.00  0.00    +0.117 A 
ATOM     20  C   LIG    1       25.755 -12.772   2.370  0.00  0.00    +0.046 A 
ATOM     21  C   LIG    1       26.686 -13.760   2.675  0.00  0.00    +0.010 A 
BRANCH  19  22
ATOM     22  O   LIG    1       23.451 -12.040   2.465  0.00  0.00    -0.507 OA
ATOM     23  H   LIG    1       23.019 -12.395   1.668  0.00  0.00    +0.292 HD
ENDBRANCH  19  22
ENDBRANCH  15  16
BRANCH  15  24
ATOM     24  O   LIG    1       28.380 -15.739   4.324  0.00  0.00    -0.386 OA
ATOM     25  H   LIG    1       28.115 -15.791   5.256  0.00  0.00    +0.210 HD
ENDBRANCH  15  24
ENDBRANCH   1  15
TORSDOF 9
ENDMDL
MODEL 2
REMARK VINA RESULT:      -5.8      2.878      7.410
REMARK  Name = *****
REMARK                            x       y       z     vdW  Elec       q    Type
REMARK                         _______ _______ _______ _____ _____    ______ ____
ROOT
ATOM      1  C   LIG    1       22.644 -20.383   4.885  0.00  0.00    +0.084 C 
ATOM      2  C   LIG    1       21.315 -21.050   4.500  0.00  0.00    +0.027 C 
ENDROOT
BRANCH   1   3
ATOM      3  N   LIG    1       22.364 -19.009   5.392  0.00  0.00    -0.308 NA
ATOM      4  H   LIG    1       21.714 -19.045   6.172  0.00  0.00    +0.122 HD
BRANCH   3   6
ATOM      5  C   LIG    1       21.080 -18.418   3.412  0.00  0.00    +0.024 C 
ATOM      6  C   LIG    1       21.992 -17.884   4.496  0.00  0.00    +0.051 C 
BRANCH   6   7
ATOM      7  C   LIG    1       23.159 -16.928   4.041  0.00  0.00    +0.023 C 
BRANCH   7   8
ATOM      8  C   LIG    1       23.181 -15.450   4.528  0.00  0.00    +0.036 C 
BRANCH   8   9
ATOM      9  C   LIG    1       24.172 -14.508   3.870  0.00  0.00    -0.047 A 
ATOM     10  C   LIG    1       25.558 -14.701   3.960  0.00  0.00    +0.003 A 
ATOM     11  C   LIG    1       26.440 -13.908   3.210  0.00  0.00    +0.000 A 
ATOM     12  C   LIG    1       25.943 -12.946   2.335  0.00  0.00    +0.000 A 
ATOM     13  C   LIG    1       24.574 -12.701   2.287  0.00  0.00    +0.000 A 
ATOM     14  C   LIG    1       23.708 -13.425   3.101  0.00  0.00    +0.003 A 
ENDBRANCH   8   9
ENDBRANCH   7   8
ENDBRANCH   6   7
ENDBRANCH   3   6
ENDBRANCH   1   3
BRANCH   1  15
ATOM     15  C   LIG    1       23.608 -21.381   5.690  0.00  0.00    +0.161 C 
BRANCH  15  16
ATOM     16  C   LIG    1       25.104 -21.092   5.682  0.00  0.00    -0.018 A 
ATOM     17  C   LIG    1       25.973 -21.572   6.675  0.00  0.00    +0.010 A 
ATOM     18  C   LIG    1       27.206 -21.018   6.921  0.00  0.00    +0.046 A 
ATOM     19  C   LIG    1       27.713 -20.063   6.034  0.00  0.00    +0.117 A 
ATOM     20  C   LIG    1       26.959 -19.695   4.919  0.00  0.00    +0.046 A 
ATOM     21  C   LIG    1       25.669 -20.190   4.757  0.00  0.00    +0.010 A 
BRANCH  19  22
ATOM     22  O   LIG    1       28.921 -19.531   6.324  0.00  0.00    -0.507 OA
ATOM     23  H   LIG    1       29.575 -20.254   6.333  0.00  0.00    +0.292 HD
ENDBRANCH  19  22
ENDBRANCH  15  16
BRANCH  15  24
ATOM     24  O   LIG    1       23.214 -21.485   7.060  0.00  0.00    -0.386 OA
ATOM     25  H   LIG    1       23.377 -20.623   7.476  0.00  0.00    +0.210 HD
ENDBRANCH  15  24
ENDBRANCH   1  15
TORSDOF 9
ENDMDL
MODEL 3
REMARK VINA RESULT:      -5.5      2.231      4.169
REMARK  Name = *****
REMARK                            x       y       z     vdW  Elec       q    Type
REMARK                         _______ _______ _______ _____ _____    ______ ____
ROOT
ATOM      1  C   LIG    1       23.153 -15.321   4.920  0.00  0.00    +0.084 C 
ATOM      2  C   LIG    1       22.119 -14.956   5.995  0.00  0.00    +0.027 C 
ENDROOT
BRANCH   1   3
ATOM      3  N   LIG    1       22.588 -16.393   4.052  0.00  0.00    -0.308 NA
ATOM      4  H   LIG    1       21.599 -16.231   3.887  0.00  0.00    +0.122 HD
BRANCH   3   6
ATOM      5  C   LIG    1       24.126 -18.242   3.680  0.00  0.00    +0.024 C 
ATOM      6  C   LIG    1       22.811 -17.839   4.314  0.00  0.00    +0.051 C 
BRANCH   6   7
ATOM      7  C   LIG    1       21.582 -18.797   4.082  0.00  0.00    +0.023 C 
BRANCH   7   8
ATOM      8  C   LIG    1       21.663 -20.281   4.544  0.00  0.00    +0.036 C 
BRANCH   8   9
ATOM      9  C   LIG    1       22.974 -20.762   5.138  0.00  0.00    -0.047 A 
ATOM     10  C   LIG    1       24.005 -21.287   4.346  0.00  0.00    +0.003 A 
ATOM     11  C   LIG    1       25.261 -21.572   4.904  0.00  0.00    +0.000 A 
ATOM     12  C   LIG    1       25.508 -21.295   6.246  0.00  0.00    +0.000 A 
ATOM     13  C   LIG    1       24.475 -20.837   7.056  0.00  0.00    +0.000 A 
ATOM     14  C   LIG    1       23.204 -20.644   6.521  0.00  0.00    +0.003 A 
ENDBRANCH   8   9
ENDBRANCH   7   8
ENDBRANCH   6   7
ENDBRANCH   3   6
ENDBRANCH   1   3
BRANCH   1  15
ATOM     15  C   LIG    1       23.846 -14.021   4.284  0.00  0.00    +0.161 C 
BRANCH  15  16
ATOM     16  C   LIG    1       25.357 -14.038   4.093  0.00  0.00    -0.018 A 
ATOM     17  C   LIG    1       26.255 -13.699   5.120  0.00  0.00    +0.010 A 
ATOM     18  C   LIG    1       27.554 -13.319   4.882  0.00  0.00    +0.046 A 
ATOM     19  C   LIG    1       28.078 -13.454   3.593  0.00  0.00    +0.117 A 
ATOM     20  C   LIG    1       27.274 -13.971   2.576  0.00  0.00    +0.046 A 
ATOM     21  C   LIG    1       25.932 -14.242   2.821  0.00  0.00    +0.010 A 
BRANCH  19  22
ATOM     22  O   LIG    1       29.354 -13.051   3.401  0.00  0.00    -0.507 OA
ATOM     23  H   LIG    1       29.598 -13.249   2.479  0.00  0.00    +0.292 HD
ENDBRANCH  19  22
ENDBRANCH  15  16
BRANCH  15  24
ATOM     24  O   LIG    1       23.272 -13.701   3.015  0.00  0.00    -0.386 OA
ATOM     25  H   LIG    1       23.178 -14.530   2.519  0.00  0.00    +0.210 HD
ENDBRANCH  15  24
ENDBRANCH   1  15
TORSDOF 9
ENDMDL
MODEL 4
REMARK VINA RESULT:      -5.5      2.878      7.273
REMARK  Name = *****
REMARK                            x       y       z     vdW  Elec       q    Type
REMARK                         _______ _______ _______ _____ _____    ______ ____
ROOT
ATOM      1  C   LIG    1       22.368 -18.975   3.914  0.00  0.00    +0.084 C 
ATOM      2  C   LIG    1       20.854 -18.891   3.667  0.00  0.00    +0.027 C 
ENDROOT
BRANCH   1   3
ATOM      3  N   LIG    1       22.799 -17.767   4.674  0.00  0.00    -0.308 NA
ATOM      4  H   LIG    1       22.041 -17.427   5.259  0.00  0.00    +0.122 HD
BRANCH   3   6
ATOM      5  C   LIG    1       24.884 -17.028   3.661  0.00  0.00    +0.024 C 
ATOM      6  C   LIG    1       23.475 -16.612   4.028  0.00  0.00    +0.051 C 
BRANCH   6   7
ATOM      7  C   LIG    1       23.304 -15.211   4.728  0.00  0.00    +0.023 C 
BRANCH   7   8
ATOM      8  C   LIG    1       23.781 -13.921   3.999  0.00  0.00    +0.036 C 
BRANCH   8   9
ATOM      9  C   LIG    1       25.276 -13.689   3.887  0.00  0.00    -0.047 A 
ATOM     10  C   LIG    1       26.075 -13.417   5.006  0.00  0.00    +0.003 A 
ATOM     11  C   LIG    1       27.474 -13.368   4.892  0.00  0.00    +0.000 A 
ATOM     12  C   LIG    1       28.084 -13.631   3.668  0.00  0.00    +0.000 A 
ATOM     13  C   LIG    1       27.300 -13.837   2.538  0.00  0.00    +0.000 A 
ATOM     14  C   LIG    1       25.912 -13.792   2.636  0.00  0.00    +0.003 A 
ENDBRANCH   8   9
ENDBRANCH   7   8
ENDBRANCH   6   7
ENDBRANCH   3   6
ENDBRANCH   1   3
BRANCH   1  15
ATOM     15  C   LIG    1       22.824 -20.444   4.368  0.00  0.00    +0.161 C 
BRANCH  15  16
ATOM     16  C   LIG    1       24.208 -20.604   4.985  0.00  0.00    -0.018 A 
ATOM     17  C   LIG    1       24.402 -21.009   6.316  0.00  0.00    +0.010 A 
ATOM     18  C   LIG    1       25.568 -20.780   7.005  0.00  0.00    +0.046 A 
ATOM     19  C   LIG    1       26.685 -20.298   6.314  0.00  0.00    +0.117 A 
ATOM     20  C   LIG    1       26.592 -20.063   4.942  0.00  0.00    +0.046 A 
ATOM     21  C   LIG    1       25.369 -20.198   4.293  0.00  0.00    +0.010 A 
BRANCH  19  22
ATOM     22  O   LIG    1       27.805 -20.070   7.035  0.00  0.00    -0.507 OA
ATOM     23  H   LIG    1       28.075 -20.911   7.446  0.00  0.00    +0.292 HD
ENDBRANCH  19  22
ENDBRANCH  15  16
BRANCH  15  24
ATOM     24  O   LIG    1       21.892 -21.011   5.291  0.00  0.00    -0.386 OA
ATOM     25  H   LIG    1       22.308 -21.004   6.168  0.00  0.00    +0.210 HD
ENDBRANCH  15  24
ENDBRANCH   1  15
TORSDOF 9
ENDMDL
MODEL 5
REMARK VINA RESULT:      -5.3      2.295      5.868
REMARK  Name = *****
REMARK                            x       y       z     vdW  Elec       q    Type
REMARK                         _______ _______ _______ _____ _____    ______ ____
ROOT
ATOM      1  C   LIG    1       26.335 -20.016   5.564  0.00  0.00    +0.084 C 
ATOM      2  C   LIG    1       26.303 -20.800   6.884  0.00  0.00    +0.027 C 
ENDROOT
BRANCH   1   3
ATOM      3  N   LIG    1       27.755 -19.813   5.158  0.00  0.00    -0.308 NA
ATOM      4  H   LIG    1       28.382 -20.161   5.877  0.00  0.00    +0.122 HD
BRANCH   3   6
ATOM      5  C   LIG    1       29.249 -17.959   5.659  0.00  0.00    +0.024 C 
ATOM      6  C   LIG    1       28.266 -18.514   4.649  0.00  0.00    +0.051 C 
BRANCH   6   7
ATOM      7  C   LIG    1       27.198 -17.513   4.068  0.00  0.00    +0.023 C 
BRANCH   7   8
ATOM      8  C   LIG    1       27.513 -15.989   4.023  0.00  0.00    +0.036 C 
BRANCH   8   9
ATOM      9  C   LIG    1       26.418 -15.059   3.533  0.00  0.00    -0.047 A 
ATOM     10  C   LIG    1       25.103 -15.137   4.012  0.00  0.00    +0.003 A 
ATOM     11  C   LIG    1       24.156 -14.162   3.662  0.00  0.00    +0.000 A 
ATOM     12  C   LIG    1       24.526 -13.082   2.865  0.00  0.00    +0.000 A 
ATOM     13  C   LIG    1       25.809 -13.030   2.330  0.00  0.00    +0.000 A 
ATOM     14  C   LIG    1       26.720 -14.047   2.603  0.00  0.00    +0.003 A 
ENDBRANCH   8   9
ENDBRANCH   7   8
ENDBRANCH   6   7
ENDBRANCH   3   6
ENDBRANCH   1   3
BRANCH   1  15
ATOM     15  C   LIG    1       25.244 -20.553   4.519  0.00  0.00    +0.161 C 
BRANCH  15  16
ATOM     16  C   LIG    1       23.864 -19.906   4.528  0.00  0.00    -0.018 A 
ATOM     17  C   LIG    1       22.692 -20.625   4.812  0.00  0.00    +0.010 A 
ATOM     18  C   LIG    1       21.440 -20.191   4.445  0.00  0.00    +0.046 A 
ATOM     19  C   LIG    1       21.290 -18.897   3.938  0.00  0.00    +0.117 A 
ATOM     20  C   LIG    1       22.410 -18.073   3.817  0.00  0.00    +0.046 A 
ATOM     21  C   LIG    1       23.677 -18.577   4.092  0.00  0.00    +0.010 A 
BRANCH  19  22
ATOM     22  O   LIG    1       20.045 -18.519   3.572  0.00  0.00    -0.507 OA
ATOM     23  H   LIG    1       19.746 -19.112   2.859  0.00  0.00    +0.292 HD
ENDBRANCH  19  22
ENDBRANCH  15  16
BRANCH  15  24
ATOM     24  O   LIG    1       25.731 -20.469   3.178  0.00  0.00    -0.386 OA
ATOM     25  H   LIG    1       26.692 -20.342   3.224  0.00  0.00    +0.210 HD
ENDBRANCH  15  24
ENDBRANCH   1  15
TORSDOF 9
ENDMDL
MODEL 6
REMARK VINA RESULT:      -5.1      1.892      3.903
REMARK  Name = *****
REMARK                            x       y       z     vdW  Elec       q    Type
REMARK                         _______ _______ _______ _____ _____    ______ ____
ROOT
ATOM      1  C   LIG    1       24.099 -17.491   3.925  0.00  0.00    +0.084 C 
ATOM      2  C   LIG    1       23.098 -16.341   4.110  0.00  0.00    +0.027 C 
ENDROOT
BRANCH   1   3
ATOM      3  N   LIG    1       23.347 -18.734   3.588  0.00  0.00    -0.308 NA
ATOM      4  H   LIG    1       22.409 -18.506   3.272  0.00  0.00    +0.122 HD
BRANCH   3   6
ATOM      5  C   LIG    1       22.602 -19.481   5.780  0.00  0.00    +0.024 C 
ATOM      6  C   LIG    1       23.287 -19.907   4.498  0.00  0.00    +0.051 C 
BRANCH   6   7
ATOM      7  C   LIG    1       24.604 -20.759   4.641  0.00  0.00    +0.023 C 
BRANCH   7   8
ATOM      8  C   LIG    1       25.199 -21.028   6.054  0.00  0.00    +0.036 C 
BRANCH   8   9
ATOM      9  C   LIG    1       26.667 -20.711   6.270  0.00  0.00    -0.047 A 
ATOM     10  C   LIG    1       27.519 -21.567   6.981  0.00  0.00    +0.003 A 
ATOM     11  C   LIG    1       28.901 -21.326   7.026  0.00  0.00    +0.000 A 
ATOM     12  C   LIG    1       29.446 -20.252   6.326  0.00  0.00    +0.000 A 
ATOM     13  C   LIG    1       28.604 -19.359   5.672  0.00  0.00    +0.000 A 
ATOM     14  C   LIG    1       27.225 -19.548   5.708  0.00  0.00    +0.003 A 
ENDBRANCH   8   9
ENDBRANCH   7   8
ENDBRANCH   6   7
ENDBRANCH   3   6
ENDBRANCH   1   3
BRANCH   1  15
ATOM     15  C   LIG    1       25.381 -17.043   3.073  0.00  0.00    +0.161 C 
BRANCH  15  16
ATOM     16  C   LIG    1       26.026 -15.702   3.403  0.00  0.00    -0.018 A 
ATOM     17  C   LIG    1       25.640 -14.503   2.782  0.00  0.00    +0.010 A 
ATOM     18  C   LIG    1       26.439 -13.385   2.751  0.00  0.00    +0.046 A 
ATOM     19  C   LIG    1       27.604 -13.359   3.524  0.00  0.00    +0.117 A 
ATOM     20  C   LIG    1       27.929 -14.464   4.312  0.00  0.00    +0.046 A 
ATOM     21  C   LIG    1       27.160 -15.622   4.238  0.00  0.00    +0.010 A 
BRANCH  19  22
ATOM     22  O   LIG    1       28.369 -12.248   3.449  0.00  0.00    -0.507 OA
ATOM     23  H   LIG    1       29.298 -12.526   3.364  0.00  0.00    +0.292 HD
ENDBRANCH  19  22
ENDBRANCH  15  16
BRANCH  15  24
ATOM     24  O   LIG    1       26.415 -18.027   3.143  0.00  0.00    -0.386 OA
ATOM     25  H   LIG    1       26.103 -18.738   3.726  0.00  0.00    +0.210 HD
ENDBRANCH  15  24
ENDBRANCH   1  15
TORSDOF 9
ENDMDL
MODEL 7
REMARK VINA RESULT:      -5.1      2.891      7.370
REMARK  Name = *****
REMARK                            x       y       z     vdW  Elec       q    Type
REMARK                         _______ _______ _______ _____ _____    ______ ____
ROOT
ATOM      1  C   LIG    1       23.501 -19.146   4.063  0.00  0.00    +0.084 C 
ATOM      2  C   LIG    1       22.546 -19.442   5.229  0.00  0.00    +0.027 C 
ENDROOT
BRANCH   1   3
ATOM      3  N   LIG    1       23.821 -17.690   4.060  0.00  0.00    -0.308 NA
ATOM      4  H   LIG    1       24.735 -17.528   4.472  0.00  0.00    +0.122 HD
BRANCH   3   6
ATOM      5  C   LIG    1       21.479 -17.257   4.560  0.00  0.00    +0.024 C 
ATOM      6  C   LIG    1       22.871 -16.659   4.552  0.00  0.00    +0.051 C 
BRANCH   6   7
ATOM      7  C   LIG    1       23.023 -15.212   3.947  0.00  0.00    +0.023 C 
BRANCH   7   8
ATOM      8  C   LIG    1       23.879 -14.149   4.695  0.00  0.00    +0.036 C 
BRANCH   8   9
ATOM      9  C   LIG    1       25.365 -14.106   4.395  0.00  0.00    -0.047 A 
ATOM     10  C   LIG    1       25.907 -14.655   3.225  0.00  0.00    +0.003 A 
ATOM     11  C   LIG    1       27.259 -14.457   2.901  0.00  0.00    +0.000 A 
ATOM     12  C   LIG    1       28.067 -13.675   3.723  0.00  0.00    +0.000 A 
ATOM     13  C   LIG    1       27.558 -13.181   4.919  0.00  0.00    +0.000 A 
ATOM     14  C   LIG    1       26.243 -13.457   5.284  0.00  0.00    +0.003 A 
ENDBRANCH   8   9
ENDBRANCH   7   8
ENDBRANCH   6   7
ENDBRANCH   3   6
ENDBRANCH   1   3
BRANCH   1  15
ATOM     15  C   LIG    1       24.659 -20.249   3.938  0.00  0.00    +0.161 C 
BRANCH  15  16
ATOM     16  C   LIG    1       25.805 -20.198   4.940  0.00  0.00    -0.018 A 
ATOM     17  C   LIG    1       26.973 -19.449   4.719  0.00  0.00    +0.010 A 
ATOM     18  C   LIG    1       28.153 -19.691   5.379  0.00  0.00    +0.046 A 
ATOM     19  C   LIG    1       28.162 -20.587   6.453  0.00  0.00    +0.117 A 
ATOM     20  C   LIG    1       26.975 -21.214   6.832  0.00  0.00    +0.046 A 
ATOM     21  C   LIG    1       25.821 -21.034   6.077  0.00  0.00    +0.010 A 
BRANCH  19  22
ATOM     22  O   LIG    1       29.349 -20.808   7.061  0.00  0.00    -0.507 OA
ATOM     23  H   LIG    1       29.445 -20.157   7.780  0.00  0.00    +0.292 HD
ENDBRANCH  19  22
ENDBRANCH  15  16
BRANCH  15  24
ATOM     24  O   LIG    1       24.119 -21.571   3.993  0.00  0.00    -0.386 OA
ATOM     25  H   LIG    1       23.851 -21.739   4.911  0.00  0.00    +0.210 HD
ENDBRANCH  15  24
ENDBRANCH   1  15
TORSDOF 9
ENDMDL
MODEL 8
REMARK VINA RESULT:      -4.5      2.657      7.120
REMARK  Name = *****
REMARK                            x       y       z     vdW  Elec       q    Type
REMARK                         _______ _______ _______ _____ _____    ______ ____
ROOT
ATOM      1  C   LIG    1       22.993 -19.454   4.150  0.00  0.00    +0.084 C 
ATOM      2  C   LIG    1       22.133 -18.651   5.137  0.00  0.00    +0.027 C 
ENDROOT
BRANCH   1   3
ATOM      3  N   LIG    1       23.807 -18.505   3.338  0.00  0.00    -0.308 NA
ATOM      4  H   LIG    1       24.510 -19.008   2.805  0.00  0.00    +0.122 HD
BRANCH   3   6
ATOM      5  C   LIG    1       23.305 -16.270   4.158  0.00  0.00    +0.024 C 
ATOM      6  C   LIG    1       24.412 -17.274   3.909  0.00  0.00    +0.051 C 
BRANCH   6   7
ATOM      7  C   LIG    1       25.718 -16.739   3.211  0.00  0.00    +0.023 C 
BRANCH   7   8
ATOM      8  C   LIG    1       26.389 -15.433   3.728  0.00  0.00    +0.036 C 
BRANCH   8   9
ATOM      9  C   LIG    1       25.651 -14.126   3.501  0.00  0.00    -0.047 A 
ATOM     10  C   LIG    1       25.445 -13.599   2.219  0.00  0.00    +0.003 A 
ATOM     11  C   LIG    1       24.622 -12.477   2.032  0.00  0.00    +0.000 A 
ATOM     12  C   LIG    1       23.968 -11.900   3.118  0.00  0.00    +0.000 A 
ATOM     13  C   LIG    1       24.218 -12.374   4.402  0.00  0.00    +0.000 A 
ATOM     14  C   LIG    1       25.107 -13.428   4.595  0.00  0.00    +0.003 A 
ENDBRANCH   8   9
ENDBRANCH   7   8
ENDBRANCH   6   7
ENDBRANCH   3   6
ENDBRANCH   1   3
BRANCH   1  15
ATOM     15  C   LIG    1       23.663 -20.737   4.841  0.00  0.00    +0.161 C 
BRANCH  15  16
ATOM     16  C   LIG    1       25.125 -20.642   5.260  0.00  0.00    -0.018 A 
ATOM     17  C   LIG    1       25.547 -20.834   6.586  0.00  0.00    +0.010 A 
ATOM     18  C   LIG    1       26.751 -20.373   7.062  0.00  0.00    +0.046 A 
ATOM     19  C   LIG    1       27.688 -19.858   6.160  0.00  0.00    +0.117 A 
ATOM     20  C   LIG    1       27.384 -19.826   4.799  0.00  0.00    +0.046 A 
ATOM     21  C   LIG    1       26.116 -20.196   4.360  0.00  0.00    +0.010 A 
BRANCH  19  22
ATOM     22  O   LIG    1       28.851 -19.400   6.674  0.00  0.00    -0.507 OA
ATOM     23  H   LIG    1       29.496 -20.130   6.662  0.00  0.00    +0.292 HD
ENDBRANCH  19  22
ENDBRANCH  15  16
BRANCH  15  24
ATOM     24  O   LIG    1       22.928 -21.143   5.997  0.00  0.00    -0.386 OA
ATOM     25  H   LIG    1       23.422 -21.864   6.419  0.00  0.00    +0.210 HD
ENDBRANCH  15  24
ENDBRANCH   1  15
TORSDOF 9
ENDMDL
MODEL 9
REMARK VINA RESULT:      -4.2      2.030      4.193
REMARK  Name = *****
REMARK                            x       y       z     vdW  Elec       q    Type
REMARK                         _______ _______ _______ _____ _____    ______ ____
ROOT
ATOM      1  C   LIG    1       22.639 -18.144   4.348  0.00  0.00    +0.084 C 
ATOM      2  C   LIG    1       21.688 -18.004   3.151  0.00  0.00    +0.027 C 
ENDROOT
BRANCH   1   3
ATOM      3  N   LIG    1       23.634 -19.213   4.051  0.00  0.00    -0.308 NA
ATOM      4  H   LIG    1       23.744 -19.326   3.047  0.00  0.00    +0.122 HD
BRANCH   3   6
ATOM      5  C   LIG    1       22.748 -20.452   5.949  0.00  0.00    +0.024 C 
ATOM      6  C   LIG    1       23.589 -20.552   4.692  0.00  0.00    +0.051 C 
BRANCH   6   7
ATOM      7  C   LIG    1       24.955 -21.328   4.808  0.00  0.00    +0.023 C 
BRANCH   7   8
ATOM      8  C   LIG    1       25.744 -21.305   6.149  0.00  0.00    +0.036 C 
BRANCH   8   9
ATOM      9  C   LIG    1       27.013 -20.475   6.204  0.00  0.00    -0.047 A 
ATOM     10  C   LIG    1       28.075 -20.792   7.062  0.00  0.00    +0.003 A 
ATOM     11  C   LIG    1       29.295 -20.103   6.974  0.00  0.00    +0.000 A 
ATOM     12  C   LIG    1       29.475 -19.122   6.003  0.00  0.00    +0.000 A 
ATOM     13  C   LIG    1       28.407 -18.753   5.191  0.00  0.00    +0.000 A 
ATOM     14  C   LIG    1       27.170 -19.373   5.343  0.00  0.00    +0.003 A 
ENDBRANCH   8   9
ENDBRANCH   7   8
ENDBRANCH   6   7
ENDBRANCH   3   6
ENDBRANCH   1   3
BRANCH   1  15
ATOM     15  C   LIG    1       23.102 -16.718   4.920  0.00  0.00    +0.161 C 
BRANCH  15  16
ATOM     16  C   LIG    1       24.042 -15.877   4.066  0.00  0.00    -0.018 A 
ATOM     17  C   LIG    1       25.285 -16.351   3.615  0.00  0.00    +0.010 A 
ATOM     18  C   LIG    1       26.299 -15.519   3.205  0.00  0.00    +0.046 A 
ATOM     19  C   LIG    1       26.038 -14.155   3.044  0.00  0.00    +0.117 A 
ATOM     20  C   LIG    1       24.756 -13.667   3.298  0.00  0.00    +0.046 A 
ATOM     21  C   LIG    1       23.780 -14.513   3.817  0.00  0.00    +0.010 A 
BRANCH  19  22
ATOM     22  O   LIG    1       27.069 -13.371   2.658  0.00  0.00    -0.507 OA
ATOM     23  H   LIG    1       27.099 -13.369   1.684  0.00  0.00    +0.292 HD
ENDBRANCH  19  22
ENDBRANCH  15  16
BRANCH  15  24
ATOM     24  O   LIG    1       21.974 -15.896   5.227  0.00  0.00    -0.386 OA
ATOM     25  H   LIG    1       22.144 -15.478   6.087  0.00  0.00    +0.210 HD
ENDBRANCH  15  24
ENDBRANCH   1  15
TORSDOF 9
ENDMDL
