MODEL 1
REMARK VINA RESULT:      -8.1      0.000      0.000
REMARK  Name = *****
REMARK                            x       y       z     vdW  Elec       q    Type
REMARK                         _______ _______ _______ _____ _____    ______ ____
ROOT
ATOM      1  C   LIG    1       23.956 -22.151   6.812  0.00  0.00    +0.144 C 
ATOM      2  C   LIG    1       25.255 -22.621   6.600  0.00  0.00    +0.014 C 
ENDROOT
BRANCH   2   3
ATOM      3  C   LIG    1       25.408 -24.132   6.248  0.00  0.00    -0.016 A 
ATOM      4  C   LIG    1       25.100 -24.621   4.963  0.00  0.00    +0.012 A 
ATOM      5  C   LIG    1       25.298 -25.978   4.621  0.00  0.00    +0.046 A 
ATOM      6  C   LIG    1       25.666 -26.909   5.590  0.00  0.00    +0.120 A 
ATOM      7  C   LIG    1       25.906 -26.451   6.878  0.00  0.00    +0.046 A 
ATOM      8  C   LIG    1       25.875 -25.084   7.169  0.00  0.00    +0.012 A 
BRANCH   6   9
ATOM      9  O   LIG    1       25.767 -28.220   5.203  0.00  0.00    -0.495 OA
ATOM     10  C   LIG    1       24.639 -29.034   5.535  0.00  0.00    +0.277 C 
ENDBRANCH   6   9
ENDBRANCH   2   3
BRANCH   2  11
ATOM     11  C   LIG    1       26.577 -21.793   6.674  0.00  0.00    -0.016 A 
ATOM     12  C   LIG    1       27.559 -21.903   7.674  0.00  0.00    +0.008 A 
ATOM     13  C   LIG    1       28.711 -21.095   7.728  0.00  0.00    +0.001 A 
ATOM     14  C   LIG    1       28.868 -20.042   6.845  0.00  0.00    +0.000 A 
ATOM     15  C   LIG    1       27.913 -19.865   5.855  0.00  0.00    +0.001 A 
ATOM     16  C   LIG    1       26.816 -20.749   5.744  0.00  0.00    +0.008 A 
ENDBRANCH   2  11
BRANCH   1  17
ATOM     17  C   LIG    1       23.598 -20.786   7.162  0.00  0.00    +0.350 C 
ATOM     18  O   LIG    1       23.805 -20.265   8.202  0.00  0.00    -0.244 OA
BRANCH  17  19
ATOM     19  O   LIG    1       22.918 -20.197   6.140  0.00  0.00    -0.460 OA
BRANCH  19  20
ATOM     20  C   LIG    1       23.473 -20.516   4.864  0.00  0.00    +0.236 C 
BRANCH  20  21
ATOM     21  C   LIG    1       23.468 -19.337   3.877  0.00  0.00    +0.026 C 
BRANCH  21  22
ATOM     22  C   LIG    1       22.466 -18.255   4.284  0.00  0.00    +0.003 C 
ATOM     23  C   LIG    1       21.082 -18.429   3.692  0.00  0.00    +0.004 C 
ENDBRANCH  21  22
BRANCH  21  24
ATOM     24  C   LIG    1       24.851 -18.824   3.452  0.00  0.00    +0.007 C 
BRANCH  24  25
ATOM     25  C   LIG    1       25.139 -17.328   3.470  0.00  0.00    +0.000 C 
BRANCH  25  27
ATOM     26  C   LIG    1       26.799 -15.436   3.472  0.00  0.00    +0.004 C 
ATOM     27  C   LIG    1       26.617 -16.939   3.484  0.00  0.00    -0.003 C 
ENDBRANCH  25  27
ENDBRANCH  24  25
ENDBRANCH  21  24
ENDBRANCH  20  21
ENDBRANCH  19  20
ENDBRANCH  17  19
ENDBRANCH   1  17
BRANCH   1  28
ATOM     28  C   LIG    1       22.890 -23.067   6.792  0.00  0.00    +0.107 C 
ATOM     29  N   LIG    1       22.016 -23.816   6.775  0.00  0.00    -0.191 NA
ENDBRANCH   1  28
TORSDOF 12
ENDMDL
MODEL 2
REMARK VINA RESULT:      -8.1      0.916      2.002
REMARK  Name = *****
REMARK                            x       y       z     vdW  Elec       q    Type
REMARK                         _______ _______ _______ _____ _____    ______ ____
ROOT
ATOM      1  C   LIG    1       23.839 -22.103   6.764  0.00  0.00    +0.144 C 
ATOM      2  C   LIG    1       25.152 -22.517   6.527  0.00  0.00    +0.014 C 
ENDROOT
BRANCH   2   3
ATOM      3  C   LIG    1       25.363 -24.020   6.168  0.00  0.00    -0.016 A 
ATOM      4  C   LIG    1       25.854 -24.939   7.116  0.00  0.00    +0.012 A 
ATOM      5  C   LIG    1       25.987 -26.313   6.814  0.00  0.00    +0.046 A 
ATOM      6  C   LIG    1       25.775 -26.780   5.518  0.00  0.00    +0.120 A 
ATOM      7  C   LIG    1       25.357 -25.871   4.556  0.00  0.00    +0.046 A 
ATOM      8  C   LIG    1       25.063 -24.548   4.901  0.00  0.00    +0.012 A 
BRANCH   6   9
ATOM      9  O   LIG    1       25.995 -28.112   5.280  0.00  0.00    -0.495 OA
ATOM     10  C   LIG    1       24.842 -28.947   5.416  0.00  0.00    +0.277 C 
ENDBRANCH   6   9
ENDBRANCH   2   3
BRANCH   2  11
ATOM     11  C   LIG    1       26.440 -21.635   6.577  0.00  0.00    -0.016 A 
ATOM     12  C   LIG    1       26.758 -20.596   5.684  0.00  0.00    +0.008 A 
ATOM     13  C   LIG    1       27.960 -19.864   5.736  0.00  0.00    +0.001 A 
ATOM     14  C   LIG    1       28.962 -20.229   6.616  0.00  0.00    +0.000 A 
ATOM     15  C   LIG    1       28.717 -21.268   7.501  0.00  0.00    +0.001 A 
ATOM     16  C   LIG    1       27.466 -21.926   7.511  0.00  0.00    +0.008 A 
ENDBRANCH   2  11
BRANCH   1  17
ATOM     17  C   LIG    1       23.430 -20.755   7.124  0.00  0.00    +0.350 C 
ATOM     18  O   LIG    1       23.795 -20.155   8.074  0.00  0.00    -0.244 OA
BRANCH  17  19
ATOM     19  O   LIG    1       22.501 -20.291   6.244  0.00  0.00    -0.460 OA
BRANCH  19  20
ATOM     20  C   LIG    1       22.986 -20.270   4.902  0.00  0.00    +0.236 C 
BRANCH  20  21
ATOM     21  C   LIG    1       23.481 -18.888   4.445  0.00  0.00    +0.026 C 
BRANCH  21  22
ATOM     22  C   LIG    1       24.513 -18.994   3.319  0.00  0.00    +0.003 C 
ATOM     23  C   LIG    1       25.578 -17.915   3.344  0.00  0.00    +0.004 C 
ENDBRANCH  21  22
BRANCH  21  24
ATOM     24  C   LIG    1       22.389 -17.829   4.236  0.00  0.00    +0.007 C 
BRANCH  24  25
ATOM     25  C   LIG    1       22.515 -16.471   4.915  0.00  0.00    +0.000 C 
BRANCH  25  27
ATOM     26  C   LIG    1       24.119 -14.560   4.584  0.00  0.00    +0.004 C 
ATOM     27  C   LIG    1       22.939 -15.316   4.010  0.00  0.00    -0.003 C 
ENDBRANCH  25  27
ENDBRANCH  24  25
ENDBRANCH  21  24
ENDBRANCH  20  21
ENDBRANCH  19  20
ENDBRANCH  17  19
ENDBRANCH   1  17
BRANCH   1  28
ATOM     28  C   LIG    1       22.813 -23.063   6.761  0.00  0.00    +0.107 C 
ATOM     29  N   LIG    1       21.972 -23.850   6.758  0.00  0.00    -0.191 NA
ENDBRANCH   1  28
TORSDOF 12
ENDMDL
MODEL 3
REMARK VINA RESULT:      -7.1      2.215      7.735
REMARK  Name = *****
REMARK                            x       y       z     vdW  Elec       q    Type
REMARK                         _______ _______ _______ _____ _____    ______ ____
ROOT
ATOM      1  C   LIG    1       24.918 -22.461   6.683  0.00  0.00    +0.144 C 
ATOM      2  C   LIG    1       25.194 -21.177   6.208  0.00  0.00    +0.014 C 
ENDROOT
BRANCH   2   3
ATOM      3  C   LIG    1       26.565 -20.555   6.614  0.00  0.00    -0.016 A 
ATOM      4  C   LIG    1       27.533 -20.218   5.648  0.00  0.00    +0.012 A 
ATOM      5  C   LIG    1       28.751 -19.596   6.006  0.00  0.00    +0.046 A 
ATOM      6  C   LIG    1       29.096 -19.430   7.346  0.00  0.00    +0.120 A 
ATOM      7  C   LIG    1       28.179 -19.822   8.311  0.00  0.00    +0.046 A 
ATOM      8  C   LIG    1       26.909 -20.278   7.947  0.00  0.00    +0.012 A 
BRANCH   6   9
ATOM      9  O   LIG    1       30.325 -18.888   7.620  0.00  0.00    -0.495 OA
ATOM     10  C   LIG    1       30.361 -18.021   8.757  0.00  0.00    +0.277 C 
ENDBRANCH   6   9
ENDBRANCH   2   3
BRANCH   2  11
ATOM     11  C   LIG    1       24.276 -20.291   5.306  0.00  0.00    -0.016 A 
ATOM     12  C   LIG    1       24.639 -19.728   4.070  0.00  0.00    +0.008 A 
ATOM     13  C   LIG    1       23.795 -18.889   3.318  0.00  0.00    +0.001 A 
ATOM     14  C   LIG    1       22.584 -18.468   3.838  0.00  0.00    +0.000 A 
ATOM     15  C   LIG    1       22.188 -18.966   5.070  0.00  0.00    +0.001 A 
ATOM     16  C   LIG    1       22.996 -19.893   5.767  0.00  0.00    +0.008 A 
ENDBRANCH   2  11
BRANCH   1  17
ATOM     17  C   LIG    1       23.698 -23.212   6.432  0.00  0.00    +0.350 C 
ATOM     18  O   LIG    1       22.637 -22.975   6.894  0.00  0.00    -0.244 OA
BRANCH  17  19
ATOM     19  O   LIG    1       23.956 -24.284   5.634  0.00  0.00    -0.460 OA
BRANCH  19  20
ATOM     20  C   LIG    1       23.699 -25.525   6.291  0.00  0.00    +0.236 C 
BRANCH  20  21
ATOM     21  C   LIG    1       24.375 -26.731   5.620  0.00  0.00    +0.026 C 
BRANCH  21  22
ATOM     22  C   LIG    1       25.687 -26.342   4.934  0.00  0.00    +0.003 C 
ATOM     23  C   LIG    1       26.932 -26.677   5.731  0.00  0.00    +0.004 C 
ENDBRANCH  21  22
BRANCH  21  24
ATOM     24  C   LIG    1       24.431 -28.013   6.464  0.00  0.00    +0.007 C 
BRANCH  24  25
ATOM     25  C   LIG    1       24.215 -29.366   5.797  0.00  0.00    +0.000 C 
BRANCH  25  27
ATOM     26  C   LIG    1       25.682 -31.264   5.037  0.00  0.00    +0.004 C 
ATOM     27  C   LIG    1       25.173 -30.475   6.226  0.00  0.00    -0.003 C 
ENDBRANCH  25  27
ENDBRANCH  24  25
ENDBRANCH  21  24
ENDBRANCH  20  21
ENDBRANCH  19  20
ENDBRANCH  17  19
ENDBRANCH   1  17
BRANCH   1  28
ATOM     28  C   LIG    1       25.830 -23.072   7.561  0.00  0.00    +0.107 C 
ATOM     29  N   LIG    1       26.577 -23.573   8.280  0.00  0.00    -0.191 NA
ENDBRANCH   1  28
TORSDOF 12
ENDMDL
MODEL 4
REMARK VINA RESULT:      -6.6      1.872      4.936
REMARK  Name = *****
REMARK                            x       y       z     vdW  Elec       q    Type
REMARK                         _______ _______ _______ _____ _____    ______ ____
ROOT
ATOM      1  C   LIG    1       24.049 -22.319   7.087  0.00  0.00    +0.144 C 
ATOM      2  C   LIG    1       25.278 -22.884   6.740  0.00  0.00    +0.014 C 
ENDROOT
BRANCH   2   3
ATOM      3  C   LIG    1       26.555 -22.059   7.084  0.00  0.00    -0.016 A 
ATOM      4  C   LIG    1       27.049 -21.070   6.210  0.00  0.00    +0.012 A 
ATOM      5  C   LIG    1       28.169 -20.277   6.547  0.00  0.00    +0.046 A 
ATOM      6  C   LIG    1       28.913 -20.549   7.693  0.00  0.00    +0.120 A 
ATOM      7  C   LIG    1       28.478 -21.567   8.529  0.00  0.00    +0.046 A 
ATOM      8  C   LIG    1       27.274 -22.233   8.279  0.00  0.00    +0.012 A 
BRANCH   6   9
ATOM      9  O   LIG    1       30.031 -19.787   7.918  0.00  0.00    -0.495 OA
ATOM     10  C   LIG    1       30.074 -18.554   7.195  0.00  0.00    +0.277 C 
ENDBRANCH   6   9
ENDBRANCH   2   3
BRANCH   2  11
ATOM     11  C   LIG    1       25.516 -24.263   6.045  0.00  0.00    -0.016 A 
ATOM     12  C   LIG    1       25.048 -24.630   4.771  0.00  0.00    +0.008 A 
ATOM     13  C   LIG    1       25.241 -25.907   4.208  0.00  0.00    +0.001 A 
ATOM     14  C   LIG    1       25.806 -26.922   4.957  0.00  0.00    +0.000 A 
ATOM     15  C   LIG    1       26.258 -26.626   6.234  0.00  0.00    +0.001 A 
ATOM     16  C   LIG    1       26.156 -25.314   6.749  0.00  0.00    +0.008 A 
ENDBRANCH   2  11
BRANCH   1  17
ATOM     17  C   LIG    1       22.745 -22.916   6.844  0.00  0.00    +0.350 C 
ATOM     18  O   LIG    1       22.481 -24.062   6.957  0.00  0.00    -0.244 OA
BRANCH  17  19
ATOM     19  O   LIG    1       21.870 -21.975   6.394  0.00  0.00    -0.460 OA
BRANCH  19  20
ATOM     20  C   LIG    1       21.807 -21.928   4.969  0.00  0.00    +0.236 C 
BRANCH  20  21
ATOM     21  C   LIG    1       22.565 -20.738   4.357  0.00  0.00    +0.026 C 
BRANCH  21  22
ATOM     22  C   LIG    1       22.378 -19.459   5.176  0.00  0.00    +0.003 C 
ATOM     23  C   LIG    1       21.971 -18.248   4.361  0.00  0.00    +0.004 C 
ENDBRANCH  21  22
BRANCH  21  24
ATOM     24  C   LIG    1       24.007 -21.029   3.914  0.00  0.00    +0.007 C 
BRANCH  24  25
ATOM     25  C   LIG    1       24.763 -19.999   3.084  0.00  0.00    +0.000 C 
BRANCH  25  27
ATOM     26  C   LIG    1       25.699 -17.671   3.272  0.00  0.00    +0.004 C 
ATOM     27  C   LIG    1       25.680 -19.062   3.869  0.00  0.00    -0.003 C 
ENDBRANCH  25  27
ENDBRANCH  24  25
ENDBRANCH  21  24
ENDBRANCH  20  21
ENDBRANCH  19  20
ENDBRANCH  17  19
ENDBRANCH   1  17
BRANCH   1  28
ATOM     28  C   LIG    1       24.026 -21.022   7.629  0.00  0.00    +0.107 C 
ATOM     29  N   LIG    1       24.006 -19.960   8.073  0.00  0.00    -0.191 NA
ENDBRANCH   1  28
TORSDOF 12
ENDMDL
MODEL 5
REMARK VINA RESULT:      -6.5      2.074      4.774
REMARK  Name = *****
REMARK                            x       y       z     vdW  Elec       q    Type
REMARK                         _______ _______ _______ _____ _____    ______ ____
ROOT
ATOM      1  C   LIG    1       25.531 -21.794   7.658  0.00  0.00    +0.144 C 
ATOM      2  C   LIG    1       24.849 -22.033   6.463  0.00  0.00    +0.014 C 
ENDROOT
BRANCH   2   3
ATOM      3  C   LIG    1       24.644 -23.523   6.054  0.00  0.00    -0.016 A 
ATOM      4  C   LIG    1       23.740 -24.356   6.743  0.00  0.00    +0.012 A 
ATOM      5  C   LIG    1       23.505 -25.689   6.336  0.00  0.00    +0.046 A 
ATOM      6  C   LIG    1       24.271 -26.270   5.328  0.00  0.00    +0.120 A 
ATOM      7  C   LIG    1       25.214 -25.480   4.686  0.00  0.00    +0.046 A 
ATOM      8  C   LIG    1       25.323 -24.117   4.977  0.00  0.00    +0.012 A 
BRANCH   6   9
ATOM      9  O   LIG    1       24.039 -27.590   5.037  0.00  0.00    -0.495 OA
ATOM     10  C   LIG    1       25.080 -28.486   5.434  0.00  0.00    +0.277 C 
ENDBRANCH   6   9
ENDBRANCH   2   3
BRANCH   2  11
ATOM     11  C   LIG    1       24.261 -20.964   5.487  0.00  0.00    -0.016 A 
ATOM     12  C   LIG    1       24.963 -20.327   4.449  0.00  0.00    +0.008 A 
ATOM     13  C   LIG    1       24.404 -19.328   3.629  0.00  0.00    +0.001 A 
ATOM     14  C   LIG    1       23.144 -18.826   3.899  0.00  0.00    +0.000 A 
ATOM     15  C   LIG    1       22.416 -19.395   4.933  0.00  0.00    +0.001 A 
ATOM     16  C   LIG    1       22.945 -20.471   5.681  0.00  0.00    +0.008 A 
ENDBRANCH   2  11
BRANCH   1  17
ATOM     17  C   LIG    1       25.837 -20.484   8.210  0.00  0.00    +0.350 C 
ATOM     18  O   LIG    1       25.277 -19.971   9.115  0.00  0.00    -0.244 OA
BRANCH  17  19
ATOM     19  O   LIG    1       26.825 -19.885   7.491  0.00  0.00    -0.460 OA
BRANCH  19  20
ATOM     20  C   LIG    1       28.126 -20.209   7.980  0.00  0.00    +0.236 C 
BRANCH  20  21
ATOM     21  C   LIG    1       29.220 -20.168   6.900  0.00  0.00    +0.026 C 
BRANCH  21  22
ATOM     22  C   LIG    1       28.699 -19.594   5.581  0.00  0.00    +0.003 C 
ATOM     23  C   LIG    1       29.172 -18.185   5.283  0.00  0.00    +0.004 C 
ENDBRANCH  21  22
BRANCH  21  24
ATOM     24  C   LIG    1       30.583 -19.628   7.358  0.00  0.00    +0.007 C 
BRANCH  24  25
ATOM     25  C   LIG    1       30.752 -19.120   8.785  0.00  0.00    +0.000 C 
BRANCH  25  27
ATOM     26  C   LIG    1       30.380 -17.305  10.487  0.00  0.00    +0.004 C 
ATOM     27  C   LIG    1       30.372 -17.658   9.015  0.00  0.00    -0.003 C 
ENDBRANCH  25  27
ENDBRANCH  24  25
ENDBRANCH  21  24
ENDBRANCH  20  21
ENDBRANCH  19  20
ENDBRANCH  17  19
ENDBRANCH   1  17
BRANCH   1  28
ATOM     28  C   LIG    1       26.069 -22.885   8.364  0.00  0.00    +0.107 C 
ATOM     29  N   LIG    1       26.509 -23.779   8.940  0.00  0.00    -0.191 NA
ENDBRANCH   1  28
TORSDOF 12
ENDMDL
MODEL 6
REMARK VINA RESULT:      -6.4      6.647     10.431
REMARK  Name = *****
REMARK                            x       y       z     vdW  Elec       q    Type
REMARK                         _______ _______ _______ _____ _____    ______ ____
ROOT
ATOM      1  C   LIG    1       22.458 -30.469  10.923  0.00  0.00    +0.144 C 
ATOM      2  C   LIG    1       22.869 -29.688  12.006  0.00  0.00    +0.014 C 
ENDROOT
BRANCH   2   3
ATOM      3  C   LIG    1       21.747 -29.036  12.870  0.00  0.00    -0.016 A 
ATOM      4  C   LIG    1       21.380 -27.687  12.700  0.00  0.00    +0.012 A 
ATOM      5  C   LIG    1       20.321 -27.109  13.437  0.00  0.00    +0.046 A 
ATOM      6  C   LIG    1       19.701 -27.818  14.465  0.00  0.00    +0.120 A 
ATOM      7  C   LIG    1       20.101 -29.128  14.690  0.00  0.00    +0.046 A 
ATOM      8  C   LIG    1       21.028 -29.747  13.846  0.00  0.00    +0.012 A 
BRANCH   6   9
ATOM      9  O   LIG    1       18.733 -27.169  15.187  0.00  0.00    -0.495 OA
ATOM     10  C   LIG    1       17.746 -26.496  14.402  0.00  0.00    +0.277 C 
ENDBRANCH   6   9
ENDBRANCH   2   3
BRANCH   2  11
ATOM     11  C   LIG    1       24.337 -29.398  12.452  0.00  0.00    -0.016 A 
ATOM     12  C   LIG    1       25.210 -30.323  13.052  0.00  0.00    +0.008 A 
ATOM     13  C   LIG    1       26.509 -29.999  13.488  0.00  0.00    +0.001 A 
ATOM     14  C   LIG    1       26.949 -28.688  13.460  0.00  0.00    +0.000 A 
ATOM     15  C   LIG    1       26.117 -27.726  12.908  0.00  0.00    +0.001 A 
ATOM     16  C   LIG    1       24.857 -28.081  12.375  0.00  0.00    +0.008 A 
ENDBRANCH   2  11
BRANCH   1  17
ATOM     17  C   LIG    1       23.340 -31.151   9.989  0.00  0.00    +0.350 C 
ATOM     18  O   LIG    1       24.020 -32.083  10.241  0.00  0.00    -0.244 OA
BRANCH  17  19
ATOM     19  O   LIG    1       23.333 -30.519   8.783  0.00  0.00    -0.460 OA
BRANCH  19  20
ATOM     20  C   LIG    1       24.643 -30.379   8.235  0.00  0.00    +0.236 C 
BRANCH  20  21
ATOM     21  C   LIG    1       25.120 -28.921   8.141  0.00  0.00    +0.026 C 
BRANCH  21  22
ATOM     22  C   LIG    1       26.323 -28.654   9.050  0.00  0.00    +0.003 C 
ATOM     23  C   LIG    1       26.893 -29.892   9.712  0.00  0.00    +0.004 C 
ENDBRANCH  21  22
BRANCH  21  24
ATOM     24  C   LIG    1       25.234 -28.352   6.719  0.00  0.00    +0.007 C 
BRANCH  24  25
ATOM     25  C   LIG    1       24.871 -26.895   6.458  0.00  0.00    +0.000 C 
BRANCH  25  27
ATOM     26  C   LIG    1       25.746 -24.560   6.800  0.00  0.00    +0.004 C 
ATOM     27  C   LIG    1       26.051 -25.944   6.267  0.00  0.00    -0.003 C 
ENDBRANCH  25  27
ENDBRANCH  24  25
ENDBRANCH  21  24
ENDBRANCH  20  21
ENDBRANCH  19  20
ENDBRANCH  17  19
ENDBRANCH   1  17
BRANCH   1  28
ATOM     28  C   LIG    1       21.087 -30.544  10.620  0.00  0.00    +0.107 C 
ATOM     29  N   LIG    1       19.964 -30.606  10.373  0.00  0.00    -0.191 NA
ENDBRANCH   1  28
TORSDOF 12
ENDMDL
MODEL 7
REMARK VINA RESULT:      -6.3      2.001      7.393
REMARK  Name = *****
REMARK                            x       y       z     vdW  Elec       q    Type
REMARK                         _______ _______ _______ _____ _____    ______ ____
ROOT
ATOM      1  C   LIG    1       25.047 -22.413   6.760  0.00  0.00    +0.144 C 
ATOM      2  C   LIG    1       25.435 -21.148   6.314  0.00  0.00    +0.014 C 
ENDROOT
BRANCH   2   3
ATOM      3  C   LIG    1       24.370 -20.318   5.534  0.00  0.00    -0.016 A 
ATOM      4  C   LIG    1       23.148 -19.947   6.130  0.00  0.00    +0.012 A 
ATOM      5  C   LIG    1       22.207 -19.142   5.448  0.00  0.00    +0.046 A 
ATOM      6  C   LIG    1       22.394 -18.811   4.107  0.00  0.00    +0.120 A 
ATOM      7  C   LIG    1       23.562 -19.230   3.487  0.00  0.00    +0.046 A 
ATOM      8  C   LIG    1       24.565 -19.878   4.214  0.00  0.00    +0.012 A 
BRANCH   6   9
ATOM      9  O   LIG    1       21.404 -18.091   3.489  0.00  0.00    -0.495 OA
ATOM     10  C   LIG    1       20.157 -18.777   3.352  0.00  0.00    +0.277 C 
ENDBRANCH   6   9
ENDBRANCH   2   3
BRANCH   2  11
ATOM     11  C   LIG    1       26.826 -20.466   6.515  0.00  0.00    -0.016 A 
ATOM     12  C   LIG    1       27.680 -20.026   5.488  0.00  0.00    +0.008 A 
ATOM     13  C   LIG    1       28.952 -19.466   5.717  0.00  0.00    +0.001 A 
ATOM     14  C   LIG    1       29.483 -19.440   6.994  0.00  0.00    +0.000 A 
ATOM     15  C   LIG    1       28.698 -19.891   8.044  0.00  0.00    +0.001 A 
ATOM     16  C   LIG    1       27.381 -20.351   7.815  0.00  0.00    +0.008 A 
ENDBRANCH   2  11
BRANCH   1  17
ATOM     17  C   LIG    1       25.889 -23.347   7.490  0.00  0.00    +0.350 C 
ATOM     18  O   LIG    1       26.266 -23.209   8.602  0.00  0.00    -0.244 OA
BRANCH  17  19
ATOM     19  O   LIG    1       26.251 -24.386   6.689  0.00  0.00    -0.460 OA
BRANCH  19  20
ATOM     20  C   LIG    1       25.868 -25.650   7.232  0.00  0.00    +0.236 C 
BRANCH  20  21
ATOM     21  C   LIG    1       25.047 -26.515   6.263  0.00  0.00    +0.026 C 
BRANCH  21  22
ATOM     22  C   LIG    1       25.602 -26.461   4.837  0.00  0.00    +0.003 C 
ATOM     23  C   LIG    1       26.873 -27.262   4.631  0.00  0.00    +0.004 C 
ENDBRANCH  21  22
BRANCH  21  24
ATOM     24  C   LIG    1       24.684 -27.918   6.772  0.00  0.00    +0.007 C 
BRANCH  24  25
ATOM     25  C   LIG    1       24.039 -28.922   5.825  0.00  0.00    +0.000 C 
BRANCH  25  27
ATOM     26  C   LIG    1       25.620 -30.805   5.292  0.00  0.00    +0.004 C 
ATOM     27  C   LIG    1       24.392 -30.387   6.074  0.00  0.00    -0.003 C 
ENDBRANCH  25  27
ENDBRANCH  24  25
ENDBRANCH  21  24
ENDBRANCH  20  21
ENDBRANCH  19  20
ENDBRANCH  17  19
ENDBRANCH   1  17
BRANCH   1  28
ATOM     28  C   LIG    1       23.776 -22.899   6.406  0.00  0.00    +0.107 C 
ATOM     29  N   LIG    1       22.735 -23.297   6.116  0.00  0.00    -0.191 NA
ENDBRANCH   1  28
TORSDOF 12
ENDMDL
MODEL 8
REMARK VINA RESULT:      -6.2      3.437      7.075
REMARK  Name = *****
REMARK                            x       y       z     vdW  Elec       q    Type
REMARK                         _______ _______ _______ _____ _____    ______ ____
ROOT
ATOM      1  C   LIG    1       27.812 -19.237   5.628  0.00  0.00    +0.144 C 
ATOM      2  C   LIG    1       27.938 -19.814   6.894  0.00  0.00    +0.014 C 
ENDROOT
BRANCH   2   3
ATOM      3  C   LIG    1       29.192 -19.412   7.729  0.00  0.00    -0.016 A 
ATOM      4  C   LIG    1       29.293 -18.146   8.340  0.00  0.00    +0.012 A 
ATOM      5  C   LIG    1       30.399 -17.802   9.150  0.00  0.00    +0.046 A 
ATOM      6  C   LIG    1       31.498 -18.652   9.250  0.00  0.00    +0.120 A 
ATOM      7  C   LIG    1       31.441 -19.874   8.597  0.00  0.00    +0.046 A 
ATOM      8  C   LIG    1       30.276 -20.280   7.939  0.00  0.00    +0.012 A 
BRANCH   6   9
ATOM      9  O   LIG    1       32.567 -18.220   9.993  0.00  0.00    -0.495 OA
ATOM     10  C   LIG    1       32.347 -17.005  10.714  0.00  0.00    +0.277 C 
ENDBRANCH   6   9
ENDBRANCH   2   3
BRANCH   2  11
ATOM     11  C   LIG    1       26.953 -20.819   7.571  0.00  0.00    -0.016 A 
ATOM     12  C   LIG    1       25.977 -20.492   8.528  0.00  0.00    +0.008 A 
ATOM     13  C   LIG    1       25.148 -21.444   9.153  0.00  0.00    +0.001 A 
ATOM     14  C   LIG    1       25.350 -22.795   8.937  0.00  0.00    +0.000 A 
ATOM     15  C   LIG    1       26.323 -23.179   8.026  0.00  0.00    +0.001 A 
ATOM     16  C   LIG    1       27.076 -22.211   7.325  0.00  0.00    +0.008 A 
ENDBRANCH   2  11
BRANCH   1  17
ATOM     17  C   LIG    1       26.730 -19.487   4.689  0.00  0.00    +0.350 C 
ATOM     18  O   LIG    1       26.414 -18.778   3.799  0.00  0.00    -0.244 OA
BRANCH  17  19
ATOM     19  O   LIG    1       26.073 -20.633   5.017  0.00  0.00    -0.460 OA
BRANCH  19  20
ATOM     20  C   LIG    1       24.732 -20.650   4.528  0.00  0.00    +0.236 C 
BRANCH  20  21
ATOM     21  C   LIG    1       23.670 -20.518   5.632  0.00  0.00    +0.026 C 
BRANCH  21  22
ATOM     22  C   LIG    1       22.604 -19.478   5.279  0.00  0.00    +0.003 C 
ATOM     23  C   LIG    1       22.913 -18.664   4.038  0.00  0.00    +0.004 C 
ENDBRANCH  21  22
BRANCH  21  24
ATOM     24  C   LIG    1       23.133 -21.842   6.196  0.00  0.00    +0.007 C 
BRANCH  24  25
ATOM     25  C   LIG    1       23.771 -23.158   5.769  0.00  0.00    +0.000 C 
BRANCH  25  27
ATOM     26  C   LIG    1       24.149 -25.610   6.190  0.00  0.00    +0.004 C 
ATOM     27  C   LIG    1       23.321 -24.393   6.546  0.00  0.00    -0.003 C 
ENDBRANCH  25  27
ENDBRANCH  24  25
ENDBRANCH  21  24
ENDBRANCH  20  21
ENDBRANCH  19  20
ENDBRANCH  17  19
ENDBRANCH   1  17
BRANCH   1  28
ATOM     28  C   LIG    1       28.849 -18.419   5.147  0.00  0.00    +0.107 C 
ATOM     29  N   LIG    1       29.698 -17.748   4.753  0.00  0.00    -0.191 NA
ENDBRANCH   1  28
TORSDOF 12
ENDMDL
MODEL 9
REMARK VINA RESULT:      -6.1      4.597     10.643
REMARK  Name = *****
REMARK                            x       y       z     vdW  Elec       q    Type
REMARK                         _______ _______ _______ _____ _____    ______ ____
ROOT
ATOM      1  C   LIG    1       25.917 -30.306   8.207  0.00  0.00    +0.144 C 
ATOM      2  C   LIG    1       25.357 -30.204   6.932  0.00  0.00    +0.014 C 
ENDROOT
BRANCH   2   3
ATOM      3  C   LIG    1       25.256 -28.774   6.320  0.00  0.00    -0.016 A 
ATOM      4  C   LIG    1       26.218 -28.296   5.407  0.00  0.00    +0.012 A 
ATOM      5  C   LIG    1       26.096 -27.024   4.802  0.00  0.00    +0.046 A 
ATOM      6  C   LIG    1       25.096 -26.140   5.201  0.00  0.00    +0.120 A 
ATOM      7  C   LIG    1       24.181 -26.573   6.151  0.00  0.00    +0.046 A 
ATOM      8  C   LIG    1       24.206 -27.891   6.619  0.00  0.00    +0.012 A 
BRANCH   6   9
ATOM      9  O   LIG    1       25.083 -24.896   4.625  0.00  0.00    -0.495 OA
ATOM     10  C   LIG    1       24.990 -23.807   5.547  0.00  0.00    +0.277 C 
ENDBRANCH   6   9
ENDBRANCH   2   3
BRANCH   2  11
ATOM     11  C   LIG    1       24.821 -31.372   6.044  0.00  0.00    -0.016 A 
ATOM     12  C   LIG    1       23.593 -32.035   6.214  0.00  0.00    +0.008 A 
ATOM     13  C   LIG    1       23.177 -33.121   5.421  0.00  0.00    +0.001 A 
ATOM     14  C   LIG    1       24.039 -33.680   4.495  0.00  0.00    +0.000 A 
ATOM     15  C   LIG    1       25.278 -33.088   4.306  0.00  0.00    +0.001 A 
ATOM     16  C   LIG    1       25.643 -31.932   5.033  0.00  0.00    +0.008 A 
ENDBRANCH   2  11
BRANCH   1  17
ATOM     17  C   LIG    1       26.090 -31.540   8.958  0.00  0.00    +0.350 C 
ATOM     18  O   LIG    1       27.114 -32.101   9.134  0.00  0.00    -0.244 OA
BRANCH  17  19
ATOM     19  O   LIG    1       24.884 -32.009   9.382  0.00  0.00    -0.460 OA
BRANCH  19  20
ATOM     20  C   LIG    1       24.598 -31.633  10.729  0.00  0.00    +0.236 C 
BRANCH  20  21
ATOM     21  C   LIG    1       23.525 -30.538  10.850  0.00  0.00    +0.026 C 
BRANCH  21  22
ATOM     22  C   LIG    1       22.298 -30.842   9.987  0.00  0.00    +0.003 C 
ATOM     23  C   LIG    1       20.973 -30.659  10.698  0.00  0.00    +0.004 C 
ENDBRANCH  21  22
BRANCH  21  24
ATOM     24  C   LIG    1       23.221 -30.064  12.279  0.00  0.00    +0.007 C 
BRANCH  24  25
ATOM     25  C   LIG    1       23.411 -28.597  12.644  0.00  0.00    +0.000 C 
BRANCH  25  27
ATOM     26  C   LIG    1       22.428 -26.394  13.359  0.00  0.00    +0.004 C 
ATOM     27  C   LIG    1       22.132 -27.824  12.960  0.00  0.00    -0.003 C 
ENDBRANCH  25  27
ENDBRANCH  24  25
ENDBRANCH  21  24
ENDBRANCH  20  21
ENDBRANCH  19  20
ENDBRANCH  17  19
ENDBRANCH   1  17
BRANCH   1  28
ATOM     28  C   LIG    1       26.263 -29.130   8.894  0.00  0.00    +0.107 C 
ATOM     29  N   LIG    1       26.547 -28.167   9.458  0.00  0.00    -0.191 NA
ENDBRANCH   1  28
TORSDOF 12
ENDMDL
