MODEL 1
REMARK VINA RESULT:      -5.1      0.000      0.000
REMARK  Name = *****
REMARK                            x       y       z     vdW  Elec       q    Type
REMARK                         _______ _______ _______ _____ _____    ______ ____
ROOT
ATOM      1  C   LIG    1       25.827 -17.136   3.312  0.00  0.00    +0.206 C 
ENDROOT
BRANCH   1   2
ATOM      2  N   LIG    1       25.863 -18.582   3.097  0.00  0.00    -0.274 N 
ATOM      3  H   LIG    1       25.983 -18.818   2.122  0.00  0.00    +0.258 HD
BRANCH   2   4
ATOM      4  C   LIG    1       25.188 -19.466   3.899  0.00  0.00    +0.397 C 
ATOM      5  N   LIG    1       23.894 -19.383   4.012  0.00  0.00    +0.010 NA
BRANCH   4   7
ATOM      6  C   LIG    1       26.971 -20.076   5.564  0.00  0.00    +0.239 C 
ATOM      7  N   LIG    1       26.092 -20.337   4.447  0.00  0.00    -0.278 N 
ATOM      8  H   LIG    1       26.527 -20.963   3.784  0.00  0.00    +0.258 HD
ENDBRANCH   4   7
BRANCH   5   9
ATOM      9  C   LIG    1       23.199 -20.225   4.771  0.00  0.00    +0.295 C 
ATOM     10  N   LIG    1       22.623 -20.982   5.445  0.00  0.00    -0.150 NA
ENDBRANCH   5   9
ENDBRANCH   2   4
ENDBRANCH   1   2
BRANCH   1  11
ATOM     11  C   LIG    1       27.213 -16.596   3.690  0.00  0.00    +0.106 C 
BRANCH  11  12
ATOM     12  S   LIG    1       27.326 -14.765   3.845  0.00  0.00    -0.151 S 
BRANCH  12  13
ATOM     13  C   LIG    1       26.477 -14.221   2.322  0.00  0.00    +0.126 C 
BRANCH  13  14
ATOM     14  C   LIG    1       25.373 -13.246   2.558  0.00  0.00    +0.071 A 
ATOM     15  C   LIG    1       24.292 -13.309   3.424  0.00  0.00    +0.036 A 
ATOM     16  C   LIG    1       23.849 -14.313   4.418  0.00  0.00    +0.065 C 
ATOM     17  N   LIG    1       23.587 -12.154   3.195  0.00  0.00    -0.348 N 
ATOM     18  H   LIG    1       22.735 -11.868   3.659  0.00  0.00    +0.167 HD
ATOM     19  C   LIG    1       24.241 -11.450   2.228  0.00  0.00    +0.197 A 
ATOM     20  N   LIG    1       25.311 -12.085   1.812  0.00  0.00    -0.240 NA
ENDBRANCH  13  14
ENDBRANCH  12  13
ENDBRANCH  11  12
ENDBRANCH   1  11
TORSDOF 8
ENDMDL
MODEL 2
REMARK VINA RESULT:      -4.0      2.132      3.564
REMARK  Name = *****
REMARK                            x       y       z     vdW  Elec       q    Type
REMARK                         _______ _______ _______ _____ _____    ______ ____
ROOT
ATOM      1  C   LIG    1       25.191 -20.048   3.396  0.00  0.00    +0.206 C 
ENDROOT
BRANCH   1   2
ATOM      2  N   LIG    1       25.026 -20.831   4.620  0.00  0.00    -0.274 N 
ATOM      3  H   LIG    1       24.057 -20.897   4.901  0.00  0.00    +0.258 HD
BRANCH   2   4
ATOM      4  C   LIG    1       25.989 -20.892   5.595  0.00  0.00    +0.397 C 
ATOM      5  N   LIG    1       27.177 -20.416   5.364  0.00  0.00    +0.010 NA
BRANCH   4   7
ATOM      6  C   LIG    1       24.043 -21.525   7.058  0.00  0.00    +0.239 C 
ATOM      7  N   LIG    1       25.445 -21.476   6.709  0.00  0.00    -0.278 N 
ATOM      8  H   LIG    1       26.022 -21.421   7.536  0.00  0.00    +0.258 HD
ENDBRANCH   4   7
BRANCH   5   9
ATOM      9  C   LIG    1       28.137 -20.447   6.283  0.00  0.00    +0.295 C 
ATOM     10  N   LIG    1       29.006 -20.466   7.061  0.00  0.00    -0.150 NA
ENDBRANCH   5   9
ENDBRANCH   2   4
ENDBRANCH   1   2
BRANCH   1  11
ATOM     11  C   LIG    1       24.863 -18.568   3.635  0.00  0.00    +0.106 C 
BRANCH  11  12
ATOM     12  S   LIG    1       26.260 -17.401   3.356  0.00  0.00    -0.151 S 
BRANCH  12  13
ATOM     13  C   LIG    1       25.394 -15.793   3.367  0.00  0.00    +0.126 C 
BRANCH  13  14
ATOM     14  C   LIG    1       26.304 -14.613   3.285  0.00  0.00    +0.071 A 
ATOM     15  C   LIG    1       26.088 -13.351   2.755  0.00  0.00    +0.036 A 
ATOM     16  C   LIG    1       24.919 -12.708   2.114  0.00  0.00    +0.065 C 
ATOM     17  N   LIG    1       27.279 -12.689   2.925  0.00  0.00    -0.348 N 
ATOM     18  H   LIG    1       27.480 -11.735   2.653  0.00  0.00    +0.167 HD
ATOM     19  C   LIG    1       28.150 -13.543   3.533  0.00  0.00    +0.197 A 
ATOM     20  N   LIG    1       27.601 -14.715   3.750  0.00  0.00    -0.240 NA
ENDBRANCH  13  14
ENDBRANCH  12  13
ENDBRANCH  11  12
ENDBRANCH   1  11
TORSDOF 8
ENDMDL
MODEL 3
REMARK VINA RESULT:      -4.0      2.164      6.907
REMARK  Name = *****
REMARK                            x       y       z     vdW  Elec       q    Type
REMARK                         _______ _______ _______ _____ _____    ______ ____
ROOT
ATOM      1  C   LIG    1       26.886 -16.417   3.686  0.00  0.00    +0.206 C 
ENDROOT
BRANCH   1   2
ATOM      2  N   LIG    1       26.630 -15.146   3.010  0.00  0.00    -0.274 N 
ATOM      3  H   LIG    1       27.265 -14.991   2.240  0.00  0.00    +0.258 HD
BRANCH   2   4
ATOM      4  C   LIG    1       26.122 -14.050   3.660  0.00  0.00    +0.397 C 
ATOM      5  N   LIG    1       24.861 -13.751   3.540  0.00  0.00    +0.010 NA
BRANCH   4   7
ATOM      6  C   LIG    1       28.408 -13.022   3.861  0.00  0.00    +0.239 C 
ATOM      7  N   LIG    1       27.130 -13.461   4.376  0.00  0.00    -0.278 N 
ATOM      8  H   LIG    1       27.217 -13.788   5.327  0.00  0.00    +0.258 HD
ENDBRANCH   4   7
BRANCH   5   9
ATOM      9  C   LIG    1       24.325 -12.704   4.159  0.00  0.00    +0.295 C 
ATOM     10  N   LIG    1       23.859 -11.804   4.736  0.00  0.00    -0.150 NA
ENDBRANCH   5   9
ENDBRANCH   2   4
ENDBRANCH   1   2
BRANCH   1  11
ATOM     11  C   LIG    1       25.825 -17.464   3.320  0.00  0.00    +0.106 C 
BRANCH  11  12
ATOM     12  S   LIG    1       26.283 -19.208   3.695  0.00  0.00    -0.151 S 
BRANCH  12  13
ATOM     13  C   LIG    1       24.758 -20.092   3.218  0.00  0.00    +0.126 C 
BRANCH  13  14
ATOM     14  C   LIG    1       23.870 -20.434   4.367  0.00  0.00    +0.071 A 
ATOM     15  C   LIG    1       22.753 -19.781   4.862  0.00  0.00    +0.036 A 
ATOM     16  C   LIG    1       22.028 -18.558   4.446  0.00  0.00    +0.065 C 
ATOM     17  N   LIG    1       22.359 -20.525   5.946  0.00  0.00    -0.348 N 
ATOM     18  H   LIG    1       21.568 -20.337   6.548  0.00  0.00    +0.167 HD
ATOM     19  C   LIG    1       23.223 -21.572   6.071  0.00  0.00    +0.197 A 
ATOM     20  N   LIG    1       24.154 -21.539   5.147  0.00  0.00    -0.240 NA
ENDBRANCH  13  14
ENDBRANCH  12  13
ENDBRANCH  11  12
ENDBRANCH   1  11
TORSDOF 8
ENDMDL
MODEL 4
REMARK VINA RESULT:      -3.9      2.488      7.220
REMARK  Name = *****
REMARK                            x       y       z     vdW  Elec       q    Type
REMARK                         _______ _______ _______ _____ _____    ______ ____
ROOT
ATOM      1  C   LIG    1       23.067 -15.564   4.616  0.00  0.00    +0.206 C 
ENDROOT
BRANCH   1   2
ATOM      2  N   LIG    1       23.619 -14.490   3.791  0.00  0.00    -0.274 N 
ATOM      3  H   LIG    1       23.240 -14.498   2.854  0.00  0.00    +0.258 HD
BRANCH   2   4
ATOM      4  C   LIG    1       24.884 -13.992   3.974  0.00  0.00    +0.397 C 
ATOM      5  N   LIG    1       25.904 -14.600   3.444  0.00  0.00    +0.010 NA
BRANCH   4   7
ATOM      6  C   LIG    1       23.827 -11.790   4.576  0.00  0.00    +0.239 C 
ATOM      7  N   LIG    1       24.798 -12.851   4.727  0.00  0.00    -0.278 N 
ATOM      8  H   LIG    1       25.687 -12.485   5.039  0.00  0.00    +0.258 HD
ENDBRANCH   4   7
BRANCH   5   9
ATOM      9  C   LIG    1       27.146 -14.147   3.589  0.00  0.00    +0.295 C 
ATOM     10  N   LIG    1       28.230 -13.750   3.755  0.00  0.00    -0.150 NA
ENDBRANCH   5   9
ENDBRANCH   2   4
ENDBRANCH   1   2
BRANCH   1  11
ATOM     11  C   LIG    1       23.468 -16.943   4.073  0.00  0.00    +0.106 C 
BRANCH  11  12
ATOM     12  S   LIG    1       22.331 -18.322   4.520  0.00  0.00    -0.151 S 
BRANCH  12  13
ATOM     13  C   LIG    1       23.294 -19.774   3.972  0.00  0.00    +0.126 C 
BRANCH  13  14
ATOM     14  C   LIG    1       24.418 -20.135   4.884  0.00  0.00    +0.071 A 
ATOM     15  C   LIG    1       24.398 -20.679   6.159  0.00  0.00    +0.036 A 
ATOM     16  C   LIG    1       23.303 -21.111   7.058  0.00  0.00    +0.065 C 
ATOM     17  N   LIG    1       25.717 -20.768   6.526  0.00  0.00    -0.348 N 
ATOM     18  H   LIG    1       26.074 -21.126   7.402  0.00  0.00    +0.167 HD
ATOM     19  C   LIG    1       26.471 -20.290   5.496  0.00  0.00    +0.197 A 
ATOM     20  N   LIG    1       25.721 -19.887   4.498  0.00  0.00    -0.240 NA
ENDBRANCH  13  14
ENDBRANCH  12  13
ENDBRANCH  11  12
ENDBRANCH   1  11
TORSDOF 8
ENDMDL
MODEL 5
REMARK VINA RESULT:      -3.9      2.448      7.531
REMARK  Name = *****
REMARK                            x       y       z     vdW  Elec       q    Type
REMARK                         _______ _______ _______ _____ _____    ______ ____
ROOT
ATOM      1  C   LIG    1       23.330 -15.149   4.617  0.00  0.00    +0.206 C 
ENDROOT
BRANCH   1   2
ATOM      2  N   LIG    1       23.702 -14.086   3.684  0.00  0.00    -0.274 N 
ATOM      3  H   LIG    1       23.028 -13.982   2.938  0.00  0.00    +0.258 HD
BRANCH   2   4
ATOM      4  C   LIG    1       25.006 -13.746   3.430  0.00  0.00    +0.397 C 
ATOM      5  N   LIG    1       25.938 -14.070   4.278  0.00  0.00    +0.010 NA
BRANCH   4   7
ATOM      6  C   LIG    1       24.482 -11.811   1.913  0.00  0.00    +0.239 C 
ATOM      7  N   LIG    1       25.061 -13.097   2.225  0.00  0.00    -0.278 N 
ATOM      8  H   LIG    1       25.046 -13.706   1.419  0.00  0.00    +0.258 HD
ENDBRANCH   4   7
BRANCH   5   9
ATOM      9  C   LIG    1       27.216 -13.768   4.068  0.00  0.00    +0.295 C 
ATOM     10  N   LIG    1       28.326 -13.482   3.852  0.00  0.00    -0.150 NA
ENDBRANCH   5   9
ENDBRANCH   2   4
ENDBRANCH   1   2
BRANCH   1  11
ATOM     11  C   LIG    1       23.633 -16.534   4.029  0.00  0.00    +0.106 C 
BRANCH  11  12
ATOM     12  S   LIG    1       22.409 -17.846   4.442  0.00  0.00    -0.151 S 
BRANCH  12  13
ATOM     13  C   LIG    1       23.342 -19.357   4.018  0.00  0.00    +0.126 C 
BRANCH  13  14
ATOM     14  C   LIG    1       23.699 -20.201   5.195  0.00  0.00    +0.071 A 
ATOM     15  C   LIG    1       24.940 -20.543   5.709  0.00  0.00    +0.036 A 
ATOM     16  C   LIG    1       26.326 -20.201   5.319  0.00  0.00    +0.065 C 
ATOM     17  N   LIG    1       24.667 -21.362   6.776  0.00  0.00    -0.348 N 
ATOM     18  H   LIG    1       25.344 -21.797   7.388  0.00  0.00    +0.167 HD
ATOM     19  C   LIG    1       23.312 -21.488   6.871  0.00  0.00    +0.197 A 
ATOM     20  N   LIG    1       22.700 -20.815   5.927  0.00  0.00    -0.240 NA
ENDBRANCH  13  14
ENDBRANCH  12  13
ENDBRANCH  11  12
ENDBRANCH   1  11
TORSDOF 8
ENDMDL
MODEL 6
REMARK VINA RESULT:      -3.8      2.264      7.193
REMARK  Name = *****
REMARK                            x       y       z     vdW  Elec       q    Type
REMARK                         _______ _______ _______ _____ _____    ______ ____
ROOT
ATOM      1  C   LIG    1       26.854 -16.499   3.668  0.00  0.00    +0.206 C 
ENDROOT
BRANCH   1   2
ATOM      2  N   LIG    1       26.840 -15.141   3.125  0.00  0.00    -0.274 N 
ATOM      3  H   LIG    1       27.656 -14.948   2.561  0.00  0.00    +0.258 HD
BRANCH   2   4
ATOM      4  C   LIG    1       26.238 -14.091   3.772  0.00  0.00    +0.397 C 
ATOM      5  N   LIG    1       25.008 -13.776   3.490  0.00  0.00    +0.010 NA
BRANCH   4   7
ATOM      6  C   LIG    1       28.393 -12.935   4.356  0.00  0.00    +0.239 C 
ATOM      7  N   LIG    1       27.128 -13.561   4.667  0.00  0.00    -0.278 N 
ATOM      8  H   LIG    1       27.174 -14.047   5.552  0.00  0.00    +0.258 HD
ENDBRANCH   4   7
BRANCH   5   9
ATOM      9  C   LIG    1       24.382 -12.772   4.098  0.00  0.00    +0.295 C 
ATOM     10  N   LIG    1       23.850 -11.867   4.605  0.00  0.00    -0.150 NA
ENDBRANCH   5   9
ENDBRANCH   2   4
ENDBRANCH   1   2
BRANCH   1  11
ATOM     11  C   LIG    1       25.566 -17.252   3.310  0.00  0.00    +0.106 C 
BRANCH  11  12
ATOM     12  S   LIG    1       25.670 -19.087   3.438  0.00  0.00    -0.151 S 
BRANCH  12  13
ATOM     13  C   LIG    1       23.993 -19.502   4.030  0.00  0.00    +0.126 C 
BRANCH  13  14
ATOM     14  C   LIG    1       23.976 -20.336   5.267  0.00  0.00    +0.071 A 
ATOM     15  C   LIG    1       25.013 -20.719   6.104  0.00  0.00    +0.036 A 
ATOM     16  C   LIG    1       26.468 -20.443   6.104  0.00  0.00    +0.065 C 
ATOM     17  N   LIG    1       24.423 -21.505   7.062  0.00  0.00    -0.348 N 
ATOM     18  H   LIG    1       24.887 -21.955   7.840  0.00  0.00    +0.167 HD
ATOM     19  C   LIG    1       23.090 -21.572   6.785  0.00  0.00    +0.197 A 
ATOM     20  N   LIG    1       22.789 -20.892   5.703  0.00  0.00    -0.240 NA
ENDBRANCH  13  14
ENDBRANCH  12  13
ENDBRANCH  11  12
ENDBRANCH   1  11
TORSDOF 8
ENDMDL
MODEL 7
REMARK VINA RESULT:      -3.7      1.697      2.712
REMARK  Name = *****
REMARK                            x       y       z     vdW  Elec       q    Type
REMARK                         _______ _______ _______ _____ _____    ______ ____
ROOT
ATOM      1  C   LIG    1       25.855 -18.518   3.055  0.00  0.00    +0.206 C 
ENDROOT
BRANCH   1   2
ATOM      2  N   LIG    1       25.375 -19.417   4.104  0.00  0.00    -0.274 N 
ATOM      3  H   LIG    1       24.491 -19.113   4.489  0.00  0.00    +0.258 HD
BRANCH   2   4
ATOM      4  C   LIG    1       26.222 -20.130   4.914  0.00  0.00    +0.397 C 
ATOM      5  N   LIG    1       27.355 -19.611   5.284  0.00  0.00    +0.010 NA
BRANCH   4   7
ATOM      6  C   LIG    1       24.240 -21.572   5.478  0.00  0.00    +0.239 C 
ATOM      7  N   LIG    1       25.639 -21.336   5.200  0.00  0.00    -0.278 N 
ATOM      8  H   LIG    1       26.224 -21.971   5.724  0.00  0.00    +0.258 HD
ENDBRANCH   4   7
BRANCH   5   9
ATOM      9  C   LIG    1       28.203 -20.263   6.075  0.00  0.00    +0.295 C 
ATOM     10  N   LIG    1       28.919 -20.834   6.797  0.00  0.00    -0.150 NA
ENDBRANCH   5   9
ENDBRANCH   2   4
ENDBRANCH   1   2
BRANCH   1  11
ATOM     11  C   LIG    1       25.602 -17.050   3.423  0.00  0.00    +0.106 C 
BRANCH  11  12
ATOM     12  S   LIG    1       27.115 -16.022   3.634  0.00  0.00    -0.151 S 
BRANCH  12  13
ATOM     13  C   LIG    1       26.701 -14.558   2.625  0.00  0.00    +0.126 C 
BRANCH  13  14
ATOM     14  C   LIG    1       25.683 -13.661   3.247  0.00  0.00    +0.071 A 
ATOM     15  C   LIG    1       25.590 -13.172   4.540  0.00  0.00    +0.036 A 
ATOM     16  C   LIG    1       26.438 -13.327   5.744  0.00  0.00    +0.065 C 
ATOM     17  N   LIG    1       24.438 -12.427   4.554  0.00  0.00    -0.348 N 
ATOM     18  H   LIG    1       24.060 -11.918   5.344  0.00  0.00    +0.167 HD
ATOM     19  C   LIG    1       23.886 -12.485   3.309  0.00  0.00    +0.197 A 
ATOM     20  N   LIG    1       24.601 -13.232   2.502  0.00  0.00    -0.240 NA
ENDBRANCH  13  14
ENDBRANCH  12  13
ENDBRANCH  11  12
ENDBRANCH   1  11
TORSDOF 8
ENDMDL
MODEL 8
REMARK VINA RESULT:      -3.5      2.022      3.396
REMARK  Name = *****
REMARK                            x       y       z     vdW  Elec       q    Type
REMARK                         _______ _______ _______ _____ _____    ______ ____
ROOT
ATOM      1  C   LIG    1       23.525 -18.950   3.733  0.00  0.00    +0.206 C 
ENDROOT
BRANCH   1   2
ATOM      2  N   LIG    1       23.826 -20.239   4.355  0.00  0.00    -0.274 N 
ATOM      3  H   LIG    1       22.989 -20.770   4.551  0.00  0.00    +0.258 HD
BRANCH   2   4
ATOM      4  C   LIG    1       24.921 -20.436   5.156  0.00  0.00    +0.397 C 
ATOM      5  N   LIG    1       26.072 -19.933   4.817  0.00  0.00    +0.010 NA
BRANCH   4   7
ATOM      6  C   LIG    1       23.361 -20.951   7.060  0.00  0.00    +0.239 C 
ATOM      7  N   LIG    1       24.537 -21.169   6.248  0.00  0.00    -0.278 N 
ATOM      8  H   LIG    1       25.301 -21.525   6.805  0.00  0.00    +0.258 HD
ENDBRANCH   4   7
BRANCH   5   9
ATOM      9  C   LIG    1       27.157 -20.093   5.569  0.00  0.00    +0.295 C 
ATOM     10  N   LIG    1       28.132 -20.219   6.198  0.00  0.00    -0.150 NA
ENDBRANCH   5   9
ENDBRANCH   2   4
ENDBRANCH   1   2
BRANCH   1  11
ATOM     11  C   LIG    1       22.382 -18.233   4.465  0.00  0.00    +0.106 C 
BRANCH  11  12
ATOM     12  S   LIG    1       22.534 -16.400   4.552  0.00  0.00    -0.151 S 
BRANCH  12  13
ATOM     13  C   LIG    1       24.289 -16.162   4.109  0.00  0.00    +0.126 C 
BRANCH  13  14
ATOM     14  C   LIG    1       24.626 -14.770   3.691  0.00  0.00    +0.071 A 
ATOM     15  C   LIG    1       25.857 -14.180   3.448  0.00  0.00    +0.036 A 
ATOM     16  C   LIG    1       27.247 -14.687   3.488  0.00  0.00    +0.065 C 
ATOM     17  N   LIG    1       25.567 -12.878   3.127  0.00  0.00    -0.348 N 
ATOM     18  H   LIG    1       26.234 -12.155   2.887  0.00  0.00    +0.167 HD
ATOM     19  C   LIG    1       24.214 -12.723   3.184  0.00  0.00    +0.197 A 
ATOM     20  N   LIG    1       23.618 -13.838   3.535  0.00  0.00    -0.240 NA
ENDBRANCH  13  14
ENDBRANCH  12  13
ENDBRANCH  11  12
ENDBRANCH   1  11
TORSDOF 8
ENDMDL
MODEL 9
REMARK VINA RESULT:      -3.4      2.169      3.241
REMARK  Name = *****
REMARK                            x       y       z     vdW  Elec       q    Type
REMARK                         _______ _______ _______ _____ _____    ______ ____
ROOT
ATOM      1  C   LIG    1       22.182 -17.242   3.891  0.00  0.00    +0.206 C 
ENDROOT
BRANCH   1   2
ATOM      2  N   LIG    1       21.940 -18.575   4.443  0.00  0.00    -0.274 N 
ATOM      3  H   LIG    1       21.078 -18.618   4.968  0.00  0.00    +0.258 HD
BRANCH   2   4
ATOM      4  C   LIG    1       22.956 -19.426   4.795  0.00  0.00    +0.397 C 
ATOM      5  N   LIG    1       22.930 -20.025   5.950  0.00  0.00    +0.010 NA
BRANCH   4   7
ATOM      6  C   LIG    1       25.282 -19.277   3.850  0.00  0.00    +0.239 C 
ATOM      7  N   LIG    1       23.854 -19.485   3.762  0.00  0.00    -0.278 N 
ATOM      8  H   LIG    1       23.496 -19.161   2.875  0.00  0.00    +0.258 HD
ENDBRANCH   4   7
BRANCH   5   9
ATOM      9  C   LIG    1       23.889 -20.864   6.328  0.00  0.00    +0.295 C 
ATOM     10  N   LIG    1       24.758 -21.571   6.655  0.00  0.00    -0.150 NA
ENDBRANCH   5   9
ENDBRANCH   2   4
ENDBRANCH   1   2
BRANCH   1  11
ATOM     11  C   LIG    1       22.440 -16.219   5.006  0.00  0.00    +0.106 C 
BRANCH  11  12
ATOM     12  S   LIG    1       23.409 -14.737   4.500  0.00  0.00    -0.151 S 
BRANCH  12  13
ATOM     13  C   LIG    1       24.892 -15.508   3.767  0.00  0.00    +0.126 C 
BRANCH  13  14
ATOM     14  C   LIG    1       25.993 -14.545   3.470  0.00  0.00    +0.071 A 
ATOM     15  C   LIG    1       25.993 -13.397   2.693  0.00  0.00    +0.036 A 
ATOM     16  C   LIG    1       24.944 -12.703   1.913  0.00  0.00    +0.065 C 
ATOM     17  N   LIG    1       27.283 -12.931   2.752  0.00  0.00    -0.348 N 
ATOM     18  H   LIG    1       27.643 -12.101   2.299  0.00  0.00    +0.167 HD
ATOM     19  C   LIG    1       28.001 -13.785   3.536  0.00  0.00    +0.197 A 
ATOM     20  N   LIG    1       27.259 -14.775   3.972  0.00  0.00    -0.240 NA
ENDBRANCH  13  14
ENDBRANCH  12  13
ENDBRANCH  11  12
ENDBRANCH   1  11
TORSDOF 8
ENDMDL
