MODEL 1
REMARK VINA RESULT:      -2.7      0.000      0.000
REMARK  Name = *****
REMARK                            x       y       z     vdW  Elec       q    Type
REMARK                         _______ _______ _______ _____ _____    ______ ____
ROOT
ATOM      1  C   LIG    1       25.899 -17.787   3.310  0.00  0.00    +0.265 C 
ATOM      2  N   LIG    1       25.818 -18.508   4.483  0.00  0.00    -0.307 N 
ATOM      3  H   LIG    1       25.858 -17.945   5.329  0.00  0.00    +0.149 HD
ATOM      4  O   LIG    1       25.739 -18.279   2.197  0.00  0.00    -0.268 OA
ENDROOT
BRANCH   1  12
ATOM      5  C   LIG    1       28.462 -13.696   3.652  0.00  0.00    +0.173 C 
ATOM      6  N   LIG    1       27.302 -14.555   3.681  0.00  0.00    -0.266 N 
ATOM      7  C   LIG    1       26.007 -14.164   3.909  0.00  0.00    +0.069 A 
ATOM      8  C   LIG    1       25.254 -15.331   3.814  0.00  0.00    +0.032 A 
ATOM      9  C   LIG    1       23.860 -15.265   4.008  0.00  0.00    +0.012 A 
ATOM     10  C   LIG    1       23.270 -14.031   4.301  0.00  0.00    +0.001 A 
ATOM     11  C   LIG    1       24.043 -12.877   4.384  0.00  0.00    +0.002 A 
ATOM     12  C   LIG    1       26.194 -16.362   3.526  0.00  0.00    +0.155 A 
ATOM     13  C   LIG    1       25.428 -12.917   4.185  0.00  0.00    +0.028 A 
ATOM     14  N   LIG    1       27.454 -15.877   3.464  0.00  0.00    -0.166 NA
ENDBRANCH   1  12
BRANCH   2  15
ATOM     15  C   LIG    1       25.537 -19.933   4.537  0.00  0.00    +0.076 C 
ATOM     16  C   LIG    1       24.903 -20.375   5.866  0.00  0.00    +0.041 C 
ATOM     17  C   LIG    1       23.369 -20.366   5.894  0.00  0.00    +0.058 C 
ATOM     18  N   LIG    1       22.900 -21.164   4.754  0.00  0.00    -0.299 NA
ATOM     19  C   LIG    1       21.504 -21.572   4.884  0.00  0.00    +0.105 C 
ATOM     20  C   LIG    1       23.197 -20.460   3.503  0.00  0.00    +0.058 C 
ATOM     21  C   LIG    1       22.508 -19.089   3.413  0.00  0.00    +0.019 C 
ATOM     22  C   LIG    1       22.687 -18.199   4.637  0.00  0.00    +0.003 C 
ATOM     23  C   LIG    1       22.738 -18.961   5.955  0.00  0.00    +0.019 C 
ATOM     24  C   LIG    1       24.729 -20.408   3.318  0.00  0.00    +0.041 C 
ENDBRANCH   2  15
TORSDOF 2
ENDMDL
MODEL 2
REMARK VINA RESULT:      -2.3      2.081      6.663
REMARK  Name = *****
REMARK                            x       y       z     vdW  Elec       q    Type
REMARK                         _______ _______ _______ _____ _____    ______ ____
ROOT
ATOM      1  C   LIG    1       27.430 -16.971   4.112  0.00  0.00    +0.265 C 
ATOM      2  N   LIG    1       26.496 -16.087   3.613  0.00  0.00    -0.307 N 
ATOM      3  H   LIG    1       25.539 -16.432   3.628  0.00  0.00    +0.149 HD
ATOM      4  O   LIG    1       28.610 -16.683   4.292  0.00  0.00    -0.268 OA
ENDROOT
BRANCH   1  12
ATOM      5  C   LIG    1       24.504 -20.816   3.841  0.00  0.00    +0.173 C 
ATOM      6  N   LIG    1       25.597 -19.996   4.308  0.00  0.00    -0.266 N 
ATOM      7  C   LIG    1       26.527 -20.344   5.254  0.00  0.00    +0.069 A 
ATOM      8  C   LIG    1       27.379 -19.247   5.345  0.00  0.00    +0.032 A 
ATOM      9  C   LIG    1       28.457 -19.289   6.251  0.00  0.00    +0.012 A 
ATOM     10  C   LIG    1       28.638 -20.428   7.044  0.00  0.00    +0.001 A 
ATOM     11  C   LIG    1       27.776 -21.515   6.929  0.00  0.00    +0.002 A 
ATOM     12  C   LIG    1       26.870 -18.298   4.412  0.00  0.00    +0.155 A 
ATOM     13  C   LIG    1       26.704 -21.499   6.029  0.00  0.00    +0.028 A 
ATOM     14  N   LIG    1       25.762 -18.762   3.792  0.00  0.00    -0.166 NA
ENDBRANCH   1  12
BRANCH   2  15
ATOM     15  C   LIG    1       26.800 -14.716   3.240  0.00  0.00    +0.076 C 
ATOM     16  C   LIG    1       25.947 -14.205   2.068  0.00  0.00    +0.041 C 
ATOM     17  C   LIG    1       24.643 -13.501   2.465  0.00  0.00    +0.058 C 
ATOM     18  N   LIG    1       24.986 -12.438   3.418  0.00  0.00    -0.299 NA
ATOM     19  C   LIG    1       23.924 -11.447   3.567  0.00  0.00    +0.105 C 
ATOM     20  C   LIG    1       25.423 -13.032   4.685  0.00  0.00    +0.058 C 
ATOM     21  C   LIG    1       24.338 -13.899   5.342  0.00  0.00    +0.019 C 
ATOM     22  C   LIG    1       23.684 -14.920   4.418  0.00  0.00    +0.003 C 
ATOM     23  C   LIG    1       23.537 -14.445   2.977  0.00  0.00    +0.019 C 
ATOM     24  C   LIG    1       26.760 -13.767   4.449  0.00  0.00    +0.041 C 
ENDBRANCH   2  15
TORSDOF 2
ENDMDL
MODEL 3
REMARK VINA RESULT:      -2.1      1.441      6.164
REMARK  Name = *****
REMARK                            x       y       z     vdW  Elec       q    Type
REMARK                         _______ _______ _______ _____ _____    ______ ____
ROOT
ATOM      1  C   LIG    1       26.100 -17.583   3.312  0.00  0.00    +0.265 C 
ATOM      2  N   LIG    1       26.081 -16.399   4.021  0.00  0.00    -0.307 N 
ATOM      3  H   LIG    1       25.747 -16.487   4.978  0.00  0.00    +0.149 HD
ATOM      4  O   LIG    1       26.590 -17.696   2.192  0.00  0.00    -0.268 OA
ENDROOT
BRANCH   1  12
ATOM      5  C   LIG    1       25.724 -21.560   6.043  0.00  0.00    +0.173 C 
ATOM      6  N   LIG    1       25.290 -20.447   5.233  0.00  0.00    -0.266 N 
ATOM      7  C   LIG    1       23.991 -20.107   4.947  0.00  0.00    +0.069 A 
ATOM      8  C   LIG    1       24.081 -18.962   4.161  0.00  0.00    +0.032 A 
ATOM      9  C   LIG    1       22.898 -18.359   3.691  0.00  0.00    +0.012 A 
ATOM     10  C   LIG    1       21.664 -18.932   4.018  0.00  0.00    +0.001 A 
ATOM     11  C   LIG    1       21.600 -20.073   4.812  0.00  0.00    +0.002 A 
ATOM     12  C   LIG    1       25.476 -18.702   4.035  0.00  0.00    +0.155 A 
ATOM     13  C   LIG    1       22.762 -20.684   5.298  0.00  0.00    +0.028 A 
ATOM     14  N   LIG    1       26.212 -19.632   4.683  0.00  0.00    -0.166 NA
ENDBRANCH   1  12
BRANCH   2  15
ATOM     15  C   LIG    1       26.634 -15.151   3.524  0.00  0.00    +0.076 C 
ATOM     16  C   LIG    1       25.953 -14.657   2.238  0.00  0.00    +0.041 C 
ATOM     17  C   LIG    1       24.765 -13.709   2.449  0.00  0.00    +0.058 C 
ATOM     18  N   LIG    1       25.225 -12.606   3.302  0.00  0.00    -0.299 NA
ATOM     19  C   LIG    1       24.338 -11.447   3.255  0.00  0.00    +0.105 C 
ATOM     20  C   LIG    1       25.477 -13.103   4.658  0.00  0.00    +0.058 C 
ATOM     21  C   LIG    1       24.223 -13.697   5.318  0.00  0.00    +0.019 C 
ATOM     22  C   LIG    1       23.463 -14.704   4.463  0.00  0.00    +0.003 C 
ATOM     23  C   LIG    1       23.487 -14.393   2.972  0.00  0.00    +0.019 C 
ATOM     24  C   LIG    1       26.682 -14.067   4.613  0.00  0.00    +0.041 C 
ENDBRANCH   2  15
TORSDOF 2
ENDMDL
MODEL 4
REMARK VINA RESULT:      -2.1      2.176      6.818
REMARK  Name = *****
REMARK                            x       y       z     vdW  Elec       q    Type
REMARK                         _______ _______ _______ _____ _____    ______ ____
ROOT
ATOM      1  C   LIG    1       22.948 -15.763   4.743  0.00  0.00    +0.265 C 
ATOM      2  N   LIG    1       23.928 -15.155   3.986  0.00  0.00    -0.307 N 
ATOM      3  H   LIG    1       24.319 -15.742   3.253  0.00  0.00    +0.149 HD
ATOM      4  O   LIG    1       22.275 -15.173   5.584  0.00  0.00    -0.268 OA
ENDROOT
BRANCH   1  12
ATOM      5  C   LIG    1       20.771 -20.039   4.119  0.00  0.00    +0.173 C 
ATOM      6  N   LIG    1       21.848 -19.080   4.161  0.00  0.00    -0.266 N 
ATOM      7  C   LIG    1       23.160 -19.316   3.836  0.00  0.00    +0.069 A 
ATOM      8  C   LIG    1       23.803 -18.094   4.010  0.00  0.00    +0.032 A 
ATOM      9  C   LIG    1       25.186 -18.004   3.759  0.00  0.00    +0.012 A 
ATOM     10  C   LIG    1       25.880 -19.148   3.350  0.00  0.00    +0.001 A 
ATOM     11  C   LIG    1       25.214 -20.357   3.176  0.00  0.00    +0.002 A 
ATOM     12  C   LIG    1       22.786 -17.193   4.441  0.00  0.00    +0.155 A 
ATOM     13  C   LIG    1       23.838 -20.467   3.411  0.00  0.00    +0.028 A 
ATOM     14  N   LIG    1       21.590 -17.815   4.548  0.00  0.00    -0.166 NA
ENDBRANCH   1  12
BRANCH   2  15
ATOM     15  C   LIG    1       24.278 -13.749   4.097  0.00  0.00    +0.076 C 
ATOM     16  C   LIG    1       25.224 -13.452   5.272  0.00  0.00    +0.041 C 
ATOM     17  C   LIG    1       26.721 -13.500   4.936  0.00  0.00    +0.058 C 
ATOM     18  N   LIG    1       26.946 -12.607   3.793  0.00  0.00    -0.299 NA
ATOM     19  C   LIG    1       28.351 -12.247   3.624  0.00  0.00    +0.105 C 
ATOM     20  C   LIG    1       26.334 -13.181   2.590  0.00  0.00    +0.058 C 
ATOM     21  C   LIG    1       26.920 -14.552   2.219  0.00  0.00    +0.019 C 
ATOM     22  C   LIG    1       26.990 -15.552   3.368  0.00  0.00    +0.003 C 
ATOM     23  C   LIG    1       27.283 -14.919   4.722  0.00  0.00    +0.019 C 
ATOM     24  C   LIG    1       24.801 -13.178   2.769  0.00  0.00    +0.041 C 
ENDBRANCH   2  15
TORSDOF 2
ENDMDL
MODEL 5
REMARK VINA RESULT:      -1.9      1.563      6.600
REMARK  Name = *****
REMARK                            x       y       z     vdW  Elec       q    Type
REMARK                         _______ _______ _______ _____ _____    ______ ____
ROOT
ATOM      1  C   LIG    1       25.987 -17.650   3.314  0.00  0.00    +0.265 C 
ATOM      2  N   LIG    1       26.026 -16.455   4.001  0.00  0.00    -0.307 N 
ATOM      3  H   LIG    1       25.706 -16.512   4.965  0.00  0.00    +0.149 HD
ATOM      4  O   LIG    1       26.452 -17.802   2.187  0.00  0.00    -0.268 OA
ENDROOT
BRANCH   1  12
ATOM      5  C   LIG    1       22.514 -20.675   4.798  0.00  0.00    +0.173 C 
ATOM      6  N   LIG    1       23.822 -20.069   4.733  0.00  0.00    -0.266 N 
ATOM      7  C   LIG    1       24.933 -20.454   5.440  0.00  0.00    +0.069 A 
ATOM      8  C   LIG    1       25.944 -19.593   5.024  0.00  0.00    +0.032 A 
ATOM      9  C   LIG    1       27.231 -19.728   5.580  0.00  0.00    +0.012 A 
ATOM     10  C   LIG    1       27.458 -20.718   6.542  0.00  0.00    +0.001 A 
ATOM     11  C   LIG    1       26.432 -21.572   6.936  0.00  0.00    +0.002 A 
ATOM     12  C   LIG    1       25.333 -18.731   4.068  0.00  0.00    +0.155 A 
ATOM     13  C   LIG    1       25.148 -21.462   6.390  0.00  0.00    +0.028 A 
ATOM     14  N   LIG    1       24.023 -19.020   3.909  0.00  0.00    -0.166 NA
ENDBRANCH   1  12
BRANCH   2  15
ATOM     15  C   LIG    1       26.618 -15.237   3.472  0.00  0.00    +0.076 C 
ATOM     16  C   LIG    1       25.927 -14.735   2.194  0.00  0.00    +0.041 C 
ATOM     17  C   LIG    1       24.784 -13.736   2.417  0.00  0.00    +0.058 C 
ATOM     18  N   LIG    1       25.308 -12.641   3.242  0.00  0.00    -0.299 NA
ATOM     19  C   LIG    1       24.468 -11.447   3.197  0.00  0.00    +0.105 C 
ATOM     20  C   LIG    1       25.572 -13.127   4.600  0.00  0.00    +0.058 C 
ATOM     21  C   LIG    1       24.310 -13.659   5.298  0.00  0.00    +0.019 C 
ATOM     22  C   LIG    1       23.490 -14.647   4.476  0.00  0.00    +0.003 C 
ATOM     23  C   LIG    1       23.491 -14.359   2.980  0.00  0.00    +0.019 C 
ATOM     24  C   LIG    1       26.735 -14.140   4.542  0.00  0.00    +0.041 C 
ENDBRANCH   2  15
TORSDOF 2
ENDMDL
MODEL 6
REMARK VINA RESULT:      -1.1      1.651      6.725
REMARK  Name = *****
REMARK                            x       y       z     vdW  Elec       q    Type
REMARK                         _______ _______ _______ _____ _____    ______ ____
ROOT
ATOM      1  C   LIG    1       25.795 -17.871   3.648  0.00  0.00    +0.265 C 
ATOM      2  N   LIG    1       25.770 -16.527   3.336  0.00  0.00    -0.307 N 
ATOM      3  H   LIG    1       24.874 -16.074   3.498  0.00  0.00    +0.149 HD
ATOM      4  O   LIG    1       26.818 -18.551   3.641  0.00  0.00    -0.268 OA
ENDROOT
BRANCH   1  12
ATOM      5  C   LIG    1       20.981 -18.353   3.716  0.00  0.00    +0.173 C 
ATOM      6  N   LIG    1       22.359 -18.638   4.037  0.00  0.00    -0.266 N 
ATOM      7  C   LIG    1       22.814 -19.664   4.827  0.00  0.00    +0.069 A 
ATOM      8  C   LIG    1       24.200 -19.540   4.819  0.00  0.00    +0.032 A 
ATOM      9  C   LIG    1       24.975 -20.457   5.556  0.00  0.00    +0.012 A 
ATOM     10  C   LIG    1       24.331 -21.463   6.285  0.00  0.00    +0.001 A 
ATOM     11  C   LIG    1       22.943 -21.570   6.272  0.00  0.00    +0.002 A 
ATOM     12  C   LIG    1       24.471 -18.410   3.995  0.00  0.00    +0.155 A 
ATOM     13  C   LIG    1       22.154 -20.675   5.539  0.00  0.00    +0.028 A 
ATOM     14  N   LIG    1       23.330 -17.851   3.533  0.00  0.00    -0.166 NA
ENDBRANCH   1  12
BRANCH   2  15
ATOM     15  C   LIG    1       26.948 -15.763   2.961  0.00  0.00    +0.076 C 
ATOM     16  C   LIG    1       26.623 -14.542   2.087  0.00  0.00    +0.041 C 
ATOM     17  C   LIG    1       26.376 -13.235   2.852  0.00  0.00    +0.058 C 
ATOM     18  N   LIG    1       27.533 -13.009   3.727  0.00  0.00    -0.299 NA
ATOM     19  C   LIG    1       27.622 -11.631   4.203  0.00  0.00    +0.105 C 
ATOM     20  C   LIG    1       27.542 -14.007   4.801  0.00  0.00    +0.058 C 
ATOM     21  C   LIG    1       26.285 -13.946   5.683  0.00  0.00    +0.019 C 
ATOM     22  C   LIG    1       24.966 -13.926   4.920  0.00  0.00    +0.003 C 
ATOM     23  C   LIG    1       25.028 -13.175   3.596  0.00  0.00    +0.019 C 
ATOM     24  C   LIG    1       27.810 -15.395   4.181  0.00  0.00    +0.041 C 
ENDBRANCH   2  15
TORSDOF 2
ENDMDL
MODEL 7
REMARK VINA RESULT:      -1.0      1.326      2.387
REMARK  Name = *****
REMARK                            x       y       z     vdW  Elec       q    Type
REMARK                         _______ _______ _______ _____ _____    ______ ____
ROOT
ATOM      1  C   LIG    1       26.309 -17.122   3.612  0.00  0.00    +0.265 C 
ATOM      2  N   LIG    1       25.157 -17.879   3.558  0.00  0.00    -0.307 N 
ATOM      3  H   LIG    1       24.319 -17.354   3.318  0.00  0.00    +0.149 HD
ATOM      4  O   LIG    1       27.430 -17.600   3.758  0.00  0.00    -0.268 OA
ENDROOT
BRANCH   1  12
ATOM      5  C   LIG    1       23.873 -12.987   2.988  0.00  0.00    +0.173 C 
ATOM      6  N   LIG    1       25.009 -13.852   3.202  0.00  0.00    -0.266 N 
ATOM      7  C   LIG    1       26.308 -13.454   3.396  0.00  0.00    +0.069 A 
ATOM      8  C   LIG    1       27.024 -14.634   3.578  0.00  0.00    +0.032 A 
ATOM      9  C   LIG    1       28.414 -14.565   3.798  0.00  0.00    +0.012 A 
ATOM     10  C   LIG    1       29.040 -13.314   3.820  0.00  0.00    +0.001 A 
ATOM     11  C   LIG    1       28.300 -12.148   3.642  0.00  0.00    +0.002 A 
ATOM     12  C   LIG    1       26.061 -15.678   3.473  0.00  0.00    +0.155 A 
ATOM     13  C   LIG    1       26.917 -12.192   3.431  0.00  0.00    +0.028 A 
ATOM     14  N   LIG    1       24.826 -15.187   3.223  0.00  0.00    -0.166 NA
ENDBRANCH   1  12
BRANCH   2  15
ATOM     15  C   LIG    1       25.137 -19.327   3.670  0.00  0.00    +0.076 C 
ATOM     16  C   LIG    1       24.989 -19.820   5.118  0.00  0.00    +0.041 C 
ATOM     17  C   LIG    1       23.547 -20.053   5.587  0.00  0.00    +0.058 C 
ATOM     18  N   LIG    1       22.907 -20.953   4.618  0.00  0.00    -0.299 NA
ATOM     19  C   LIG    1       21.691 -21.572   5.138  0.00  0.00    +0.105 C 
ATOM     20  C   LIG    1       22.716 -20.252   3.344  0.00  0.00    +0.058 C 
ATOM     21  C   LIG    1       21.818 -19.011   3.476  0.00  0.00    +0.019 C 
ATOM     22  C   LIG    1       22.194 -18.064   4.609  0.00  0.00    +0.003 C 
ATOM     23  C   LIG    1       22.742 -18.765   5.846  0.00  0.00    +0.019 C 
ATOM     24  C   LIG    1       24.102 -19.965   2.728  0.00  0.00    +0.041 C 
ENDBRANCH   2  15
TORSDOF 2
ENDMDL
