MODEL 1
REMARK VINA RESULT:      -7.3      0.000      0.000
REMARK  Name = *****
REMARK                            x       y       z     vdW  Elec       q    Type
REMARK                         _______ _______ _______ _____ _____    ______ ____
ROOT
ATOM      1  C   LIG    1       25.333 -22.967   7.373  0.00  0.00    +0.079 A 
ATOM      2  C   LIG    1       23.964 -22.963   7.035  0.00  0.00    +0.134 A 
ATOM      3  C   LIG    1       23.409 -24.084   6.401  0.00  0.00    +0.070 A 
ATOM      4  C   LIG    1       24.170 -25.228   6.125  0.00  0.00    +0.042 A 
ATOM      5  C   LIG    1       25.550 -25.176   6.368  0.00  0.00    +0.039 A 
ATOM      6 BR   LIG    1       26.675 -26.628   5.883  0.00  0.00    -0.048 Br
ATOM      7  C   LIG    1       26.122 -24.073   7.006  0.00  0.00    +0.033 A 
ENDROOT
BRANCH   1  10
ATOM      8  N   LIG    1       27.041 -21.210   7.511  0.00  0.00    -0.310 N 
ATOM      9  H   LIG    1       27.214 -21.420   6.532  0.00  0.00    +0.149 HD
ATOM     10  C   LIG    1       26.018 -21.881   8.145  0.00  0.00    +0.248 C 
ATOM     11  O   LIG    1       25.659 -21.628   9.288  0.00  0.00    -0.270 OA
BRANCH   8  12
ATOM     12  C   LIG    1       27.659 -20.010   8.043  0.00  0.00    +0.120 C 
BRANCH  12  13
ATOM     13  C   LIG    1       29.163 -19.907   7.685  0.00  0.00    +0.103 C 
BRANCH  13  14
ATOM     14  N   LIG    1       30.100 -19.510   8.769  0.00  0.00    -0.301 NA
BRANCH  14  16
ATOM     15  C   LIG    1       31.084 -21.847   9.134  0.00  0.00    +0.020 C 
ATOM     16  C   LIG    1       31.300 -20.377   8.765  0.00  0.00    +0.081 C 
ENDBRANCH  14  16
BRANCH  14  17
ATOM     17  C   LIG    1       30.418 -18.077   8.774  0.00  0.00    +0.081 C 
ATOM     18  C   LIG    1       30.268 -17.433  10.151  0.00  0.00    +0.020 C 
ENDBRANCH  14  17
ENDBRANCH  13  14
ENDBRANCH  12  13
ENDBRANCH   8  12
ENDBRANCH   1  10
BRANCH   4  19
ATOM     19  N   LIG    1       23.564 -26.286   5.425  0.00  0.00    -0.357 N 
ATOM     20  H   LIG    1       22.719 -26.639   5.866  0.00  0.00    +0.142 HD
ATOM     21  H   LIG    1       24.219 -27.033   5.206  0.00  0.00    +0.142 HD
ENDBRANCH   4  19
BRANCH   2  22
ATOM     22  O   LIG    1       23.230 -21.846   7.349  0.00  0.00    -0.494 OA
ATOM     23  C   LIG    1       23.059 -20.861   6.335  0.00  0.00    +0.277 C 
ENDBRANCH   2  22
TORSDOF 8
ENDMDL
MODEL 2
REMARK VINA RESULT:      -7.1      0.785      1.744
REMARK  Name = *****
REMARK                            x       y       z     vdW  Elec       q    Type
REMARK                         _______ _______ _______ _____ _____    ______ ____
ROOT
ATOM      1  C   LIG    1       25.633 -22.513   7.454  0.00  0.00    +0.079 A 
ATOM      2  C   LIG    1       24.244 -22.394   7.240  0.00  0.00    +0.134 A 
ATOM      3  C   LIG    1       23.533 -23.482   6.715  0.00  0.00    +0.070 A 
ATOM      4  C   LIG    1       24.158 -24.703   6.427  0.00  0.00    +0.042 A 
ATOM      5  C   LIG    1       25.553 -24.771   6.542  0.00  0.00    +0.039 A 
ATOM      6 BR   LIG    1       26.492 -26.341   6.029  0.00  0.00    -0.048 Br
ATOM      7  C   LIG    1       26.280 -23.703   7.072  0.00  0.00    +0.033 A 
ENDROOT
BRANCH   1  10
ATOM      8  N   LIG    1       27.657 -21.125   7.473  0.00  0.00    -0.310 N 
ATOM      9  H   LIG    1       27.838 -21.527   6.557  0.00  0.00    +0.149 HD
ATOM     10  C   LIG    1       26.482 -21.467   8.107  0.00  0.00    +0.248 C 
ATOM     11  O   LIG    1       26.119 -20.959   9.160  0.00  0.00    -0.270 OA
BRANCH   8  12
ATOM     12  C   LIG    1       28.477 -19.996   7.866  0.00  0.00    +0.120 C 
BRANCH  12  13
ATOM     13  C   LIG    1       29.786 -19.897   7.042  0.00  0.00    +0.103 C 
BRANCH  13  14
ATOM     14  N   LIG    1       31.071 -19.948   7.788  0.00  0.00    -0.301 NA
BRANCH  14  16
ATOM     15  C   LIG    1       31.219 -17.708   9.022  0.00  0.00    +0.020 C 
ATOM     16  C   LIG    1       31.681 -18.602   7.868  0.00  0.00    +0.081 C 
ENDBRANCH  14  16
BRANCH  14  17
ATOM     17  C   LIG    1       30.968 -20.619   9.089  0.00  0.00    +0.081 C 
ATOM     18  C   LIG    1       31.362 -22.093   9.038  0.00  0.00    +0.020 C 
ENDBRANCH  14  17
ENDBRANCH  13  14
ENDBRANCH  12  13
ENDBRANCH   8  12
ENDBRANCH   1  10
BRANCH   4  19
ATOM     19  N   LIG    1       23.396 -25.726   5.837  0.00  0.00    -0.357 N 
ATOM     20  H   LIG    1       22.844 -25.419   5.040  0.00  0.00    +0.142 HD
ATOM     21  H   LIG    1       22.832 -26.233   6.516  0.00  0.00    +0.142 HD
ENDBRANCH   4  19
BRANCH   2  22
ATOM     22  O   LIG    1       23.646 -21.201   7.565  0.00  0.00    -0.494 OA
ATOM     23  C   LIG    1       23.195 -20.376   6.495  0.00  0.00    +0.277 C 
ENDBRANCH   2  22
TORSDOF 8
ENDMDL
MODEL 3
REMARK VINA RESULT:      -7.1      2.757      3.569
REMARK  Name = *****
REMARK                            x       y       z     vdW  Elec       q    Type
REMARK                         _______ _______ _______ _____ _____    ______ ____
ROOT
ATOM      1  C   LIG    1       26.383 -21.203   6.710  0.00  0.00    +0.079 A 
ATOM      2  C   LIG    1       25.654 -22.400   6.550  0.00  0.00    +0.134 A 
ATOM      3  C   LIG    1       24.782 -22.533   5.460  0.00  0.00    +0.070 A 
ATOM      4  C   LIG    1       24.639 -21.522   4.501  0.00  0.00    +0.042 A 
ATOM      5  C   LIG    1       25.285 -20.299   4.731  0.00  0.00    +0.039 A 
ATOM      6 BR   LIG    1       25.023 -18.829   3.558  0.00  0.00    -0.048 Br
ATOM      7  C   LIG    1       26.165 -20.147   5.805  0.00  0.00    +0.033 A 
ENDROOT
BRANCH   1  10
ATOM      8  N   LIG    1       28.652 -21.568   7.571  0.00  0.00    -0.310 N 
ATOM      9  H   LIG    1       28.820 -22.039   6.687  0.00  0.00    +0.149 HD
ATOM     10  C   LIG    1       27.421 -20.979   7.766  0.00  0.00    +0.248 C 
ATOM     11  O   LIG    1       27.154 -20.298   8.747  0.00  0.00    -0.270 OA
BRANCH   8  12
ATOM     12  C   LIG    1       29.813 -21.280   8.391  0.00  0.00    +0.120 C 
BRANCH  12  13
ATOM     13  C   LIG    1       30.848 -20.385   7.662  0.00  0.00    +0.103 C 
BRANCH  13  14
ATOM     14  N   LIG    1       30.863 -18.938   8.003  0.00  0.00    -0.301 NA
BRANCH  14  16
ATOM     15  C   LIG    1       29.587 -18.535   5.819  0.00  0.00    +0.020 C 
ATOM     16  C   LIG    1       29.767 -18.227   7.308  0.00  0.00    +0.081 C 
ENDBRANCH  14  16
BRANCH  14  17
ATOM     17  C   LIG    1       30.902 -18.676   9.447  0.00  0.00    +0.081 C 
ATOM     18  C   LIG    1       30.348 -17.303   9.824  0.00  0.00    +0.020 C 
ENDBRANCH  14  17
ENDBRANCH  13  14
ENDBRANCH  12  13
ENDBRANCH   8  12
ENDBRANCH   1  10
BRANCH   4  19
ATOM     19  N   LIG    1       23.694 -21.697   3.475  0.00  0.00    -0.357 N 
ATOM     20  H   LIG    1       23.002 -22.415   3.673  0.00  0.00    +0.142 HD
ATOM     21  H   LIG    1       24.129 -21.830   2.564  0.00  0.00    +0.142 HD
ENDBRANCH   4  19
BRANCH   2  22
ATOM     22  O   LIG    1       25.839 -23.392   7.482  0.00  0.00    -0.494 OA
ATOM     23  C   LIG    1       25.812 -24.740   7.025  0.00  0.00    +0.277 C 
ENDBRANCH   2  22
TORSDOF 8
ENDMDL
MODEL 4
REMARK VINA RESULT:      -6.8      2.613      3.288
REMARK  Name = *****
REMARK                            x       y       z     vdW  Elec       q    Type
REMARK                         _______ _______ _______ _____ _____    ______ ____
ROOT
ATOM      1  C   LIG    1       25.758 -21.376   6.452  0.00  0.00    +0.079 A 
ATOM      2  C   LIG    1       24.944 -22.494   6.729  0.00  0.00    +0.134 A 
ATOM      3  C   LIG    1       23.645 -22.546   6.204  0.00  0.00    +0.070 A 
ATOM      4  C   LIG    1       23.141 -21.531   5.379  0.00  0.00    +0.042 A 
ATOM      5  C   LIG    1       23.919 -20.379   5.203  0.00  0.00    +0.039 A 
ATOM      6 BR   LIG    1       23.246 -18.896   4.224  0.00  0.00    -0.048 Br
ATOM      7  C   LIG    1       25.219 -20.309   5.709  0.00  0.00    +0.033 A 
ENDROOT
BRANCH   1  10
ATOM      8  N   LIG    1       28.003 -20.458   6.078  0.00  0.00    -0.310 N 
ATOM      9  H   LIG    1       27.569 -19.930   5.326  0.00  0.00    +0.149 HD
ATOM     10  C   LIG    1       27.193 -21.251   6.862  0.00  0.00    +0.248 C 
ATOM     11  O   LIG    1       27.596 -21.843   7.855  0.00  0.00    -0.270 OA
BRANCH   8  12
ATOM     12  C   LIG    1       29.351 -20.076   6.454  0.00  0.00    +0.120 C 
BRANCH  12  13
ATOM     13  C   LIG    1       29.383 -19.170   7.711  0.00  0.00    +0.103 C 
BRANCH  13  14
ATOM     14  N   LIG    1       30.312 -19.553   8.808  0.00  0.00    -0.301 NA
BRANCH  14  16
ATOM     15  C   LIG    1       30.954 -21.987   9.279  0.00  0.00    +0.020 C 
ATOM     16  C   LIG    1       31.119 -20.731   8.420  0.00  0.00    +0.081 C 
ENDBRANCH  14  16
BRANCH  14  17
ATOM     17  C   LIG    1       31.119 -18.434   9.310  0.00  0.00    +0.081 C 
ATOM     18  C   LIG    1       30.283 -17.339   9.970  0.00  0.00    +0.020 C 
ENDBRANCH  14  17
ENDBRANCH  13  14
ENDBRANCH  12  13
ENDBRANCH   8  12
ENDBRANCH   1  10
BRANCH   4  19
ATOM     19  N   LIG    1       21.806 -21.617   4.948  0.00  0.00    -0.357 N 
ATOM     20  H   LIG    1       21.439 -20.747   4.570  0.00  0.00    +0.142 HD
ATOM     21  H   LIG    1       21.192 -22.010   5.657  0.00  0.00    +0.142 HD
ENDBRANCH   4  19
BRANCH   2  22
ATOM     22  O   LIG    1       25.473 -23.494   7.508  0.00  0.00    -0.494 OA
ATOM     23  C   LIG    1       25.752 -24.742   6.882  0.00  0.00    +0.277 C 
ENDBRANCH   2  22
TORSDOF 8
ENDMDL
MODEL 5
REMARK VINA RESULT:      -6.7      2.964      7.119
REMARK  Name = *****
REMARK                            x       y       z     vdW  Elec       q    Type
REMARK                         _______ _______ _______ _____ _____    ______ ____
ROOT
ATOM      1  C   LIG    1       27.093 -21.248   6.843  0.00  0.00    +0.079 A 
ATOM      2  C   LIG    1       26.558 -20.465   5.799  0.00  0.00    +0.134 A 
ATOM      3  C   LIG    1       27.347 -19.459   5.221  0.00  0.00    +0.070 A 
ATOM      4  C   LIG    1       28.668 -19.231   5.629  0.00  0.00    +0.042 A 
ATOM      5  C   LIG    1       29.147 -19.942   6.738  0.00  0.00    +0.039 A 
ATOM      6 BR   LIG    1       30.873 -19.584   7.446  0.00  0.00    -0.048 Br
ATOM      7  C   LIG    1       28.383 -20.954   7.323  0.00  0.00    +0.033 A 
ENDROOT
BRANCH   1  10
ATOM      8  N   LIG    1       26.072 -23.470   6.638  0.00  0.00    -0.310 N 
ATOM      9  H   LIG    1       26.404 -23.440   5.679  0.00  0.00    +0.149 HD
ATOM     10  C   LIG    1       26.395 -22.417   7.467  0.00  0.00    +0.248 C 
ATOM     11  O   LIG    1       26.136 -22.404   8.663  0.00  0.00    -0.270 OA
BRANCH   8  12
ATOM     12  C   LIG    1       25.584 -24.747   7.124  0.00  0.00    +0.120 C 
BRANCH  12  13
ATOM     13  C   LIG    1       24.342 -25.245   6.342  0.00  0.00    +0.103 C 
BRANCH  13  14
ATOM     14  N   LIG    1       24.461 -26.537   5.617  0.00  0.00    -0.301 NA
BRANCH  14  16
ATOM     15  C   LIG    1       26.840 -27.209   4.942  0.00  0.00    +0.020 C 
ATOM     16  C   LIG    1       25.541 -26.470   4.607  0.00  0.00    +0.081 C 
ENDBRANCH  14  16
BRANCH  14  17
ATOM     17  C   LIG    1       24.567 -27.701   6.505  0.00  0.00    +0.081 C 
ATOM     18  C   LIG    1       24.050 -28.990   5.871  0.00  0.00    +0.020 C 
ENDBRANCH  14  17
ENDBRANCH  13  14
ENDBRANCH  12  13
ENDBRANCH   8  12
ENDBRANCH   1  10
BRANCH   4  19
ATOM     19  N   LIG    1       29.374 -18.160   5.053  0.00  0.00    -0.357 N 
ATOM     20  H   LIG    1       30.149 -17.827   5.621  0.00  0.00    +0.142 HD
ATOM     21  H   LIG    1       28.761 -17.401   4.765  0.00  0.00    +0.142 HD
ENDBRANCH   4  19
BRANCH   2  22
ATOM     22  O   LIG    1       25.275 -20.731   5.390  0.00  0.00    -0.494 OA
ATOM     23  C   LIG    1       24.812 -20.092   4.205  0.00  0.00    +0.277 C 
ENDBRANCH   2  22
TORSDOF 8
ENDMDL
MODEL 6
REMARK VINA RESULT:      -6.5      2.657      3.164
REMARK  Name = *****
REMARK                            x       y       z     vdW  Elec       q    Type
REMARK                         _______ _______ _______ _____ _____    ______ ____
ROOT
ATOM      1  C   LIG    1       25.981 -21.047   6.016  0.00  0.00    +0.079 A 
ATOM      2  C   LIG    1       25.453 -20.177   5.039  0.00  0.00    +0.134 A 
ATOM      3  C   LIG    1       24.110 -20.309   4.656  0.00  0.00    +0.070 A 
ATOM      4  C   LIG    1       23.264 -21.259   5.242  0.00  0.00    +0.042 A 
ATOM      5  C   LIG    1       23.830 -22.185   6.130  0.00  0.00    +0.039 A 
ATOM      6 BR   LIG    1       22.785 -23.597   6.852  0.00  0.00    -0.048 Br
ATOM      7  C   LIG    1       25.162 -22.068   6.533  0.00  0.00    +0.033 A 
ENDROOT
BRANCH   1  10
ATOM      8  N   LIG    1       28.301 -20.265   5.837  0.00  0.00    -0.310 N 
ATOM      9  H   LIG    1       27.988 -19.799   4.990  0.00  0.00    +0.149 HD
ATOM     10  C   LIG    1       27.362 -20.940   6.587  0.00  0.00    +0.248 C 
ATOM     11  O   LIG    1       27.611 -21.444   7.675  0.00  0.00    -0.270 OA
BRANCH   8  12
ATOM     12  C   LIG    1       29.612 -19.903   6.339  0.00  0.00    +0.120 C 
BRANCH  12  13
ATOM     13  C   LIG    1       29.539 -19.009   7.604  0.00  0.00    +0.103 C 
BRANCH  13  14
ATOM     14  N   LIG    1       30.211 -19.506   8.833  0.00  0.00    -0.301 NA
BRANCH  14  16
ATOM     15  C   LIG    1       31.000 -21.908   9.246  0.00  0.00    +0.020 C 
ATOM     16  C   LIG    1       31.174 -20.580   8.504  0.00  0.00    +0.081 C 
ENDBRANCH  14  16
BRANCH  14  17
ATOM     17  C   LIG    1       30.790 -18.437   9.657  0.00  0.00    +0.081 C 
ATOM     18  C   LIG    1       31.892 -17.658   8.942  0.00  0.00    +0.020 C 
ENDBRANCH  14  17
ENDBRANCH  13  14
ENDBRANCH  12  13
ENDBRANCH   8  12
ENDBRANCH   1  10
BRANCH   4  19
ATOM     19  N   LIG    1       21.951 -21.380   4.757  0.00  0.00    -0.357 N 
ATOM     20  H   LIG    1       21.600 -20.537   4.309  0.00  0.00    +0.142 HD
ATOM     21  H   LIG    1       21.306 -21.731   5.462  0.00  0.00    +0.142 HD
ENDBRANCH   4  19
BRANCH   2  22
ATOM     22  O   LIG    1       26.291 -19.229   4.506  0.00  0.00    -0.494 OA
ATOM     23  C   LIG    1       25.755 -18.355   3.517  0.00  0.00    +0.277 C 
ENDBRANCH   2  22
TORSDOF 8
ENDMDL
MODEL 7
REMARK VINA RESULT:      -6.5      3.133      6.917
REMARK  Name = *****
REMARK                            x       y       z     vdW  Elec       q    Type
REMARK                         _______ _______ _______ _____ _____    ______ ____
ROOT
ATOM      1  C   LIG    1       25.529 -21.380   6.307  0.00  0.00    +0.079 A 
ATOM      2  C   LIG    1       25.331 -20.567   5.171  0.00  0.00    +0.134 A 
ATOM      3  C   LIG    1       26.358 -19.707   4.755  0.00  0.00    +0.070 A 
ATOM      4  C   LIG    1       27.593 -19.658   5.414  0.00  0.00    +0.042 A 
ATOM      5  C   LIG    1       27.735 -20.390   6.601  0.00  0.00    +0.039 A 
ATOM      6 BR   LIG    1       29.324 -20.260   7.635  0.00  0.00    -0.048 Br
ATOM      7  C   LIG    1       26.730 -21.259   7.030  0.00  0.00    +0.033 A 
ENDROOT
BRANCH   1  10
ATOM      8  N   LIG    1       24.400 -23.539   6.008  0.00  0.00    -0.310 N 
ATOM      9  H   LIG    1       25.014 -23.653   5.207  0.00  0.00    +0.149 HD
ATOM     10  C   LIG    1       24.556 -22.413   6.787  0.00  0.00    +0.248 C 
ATOM     11  O   LIG    1       23.943 -22.232   7.831  0.00  0.00    -0.270 OA
BRANCH   8  12
ATOM     12  C   LIG    1       23.658 -24.709   6.437  0.00  0.00    +0.120 C 
BRANCH  12  13
ATOM     13  C   LIG    1       24.030 -25.978   5.627  0.00  0.00    +0.103 C 
BRANCH  13  14
ATOM     14  N   LIG    1       24.433 -27.186   6.393  0.00  0.00    -0.301 NA
BRANCH  14  16
ATOM     15  C   LIG    1       24.678 -29.729   6.202  0.00  0.00    +0.020 C 
ATOM     16  C   LIG    1       24.161 -28.414   5.613  0.00  0.00    +0.081 C 
ENDBRANCH  14  16
BRANCH  14  17
ATOM     17  C   LIG    1       25.804 -27.119   6.914  0.00  0.00    +0.081 C 
ATOM     18  C   LIG    1       26.803 -26.557   5.905  0.00  0.00    +0.020 C 
ENDBRANCH  14  17
ENDBRANCH  13  14
ENDBRANCH  12  13
ENDBRANCH   8  12
ENDBRANCH   1  10
BRANCH   4  19
ATOM     19  N   LIG    1       28.549 -18.722   4.983  0.00  0.00    -0.357 N 
ATOM     20  H   LIG    1       29.501 -19.079   4.977  0.00  0.00    +0.142 HD
ATOM     21  H   LIG    1       28.479 -17.837   5.480  0.00  0.00    +0.142 HD
ENDBRANCH   4  19
BRANCH   2  22
ATOM     22  O   LIG    1       24.126 -20.659   4.519  0.00  0.00    -0.494 OA
ATOM     23  C   LIG    1       23.078 -19.793   4.941  0.00  0.00    +0.277 C 
ENDBRANCH   2  22
TORSDOF 8
ENDMDL
MODEL 8
REMARK VINA RESULT:      -6.4      2.788      3.782
REMARK  Name = *****
REMARK                            x       y       z     vdW  Elec       q    Type
REMARK                         _______ _______ _______ _____ _____    ______ ____
ROOT
ATOM      1  C   LIG    1       25.808 -21.147   6.214  0.00  0.00    +0.079 A 
ATOM      2  C   LIG    1       25.117 -22.326   6.565  0.00  0.00    +0.134 A 
ATOM      3  C   LIG    1       23.781 -22.484   6.168  0.00  0.00    +0.070 A 
ATOM      4  C   LIG    1       23.120 -21.516   5.399  0.00  0.00    +0.042 A 
ATOM      5  C   LIG    1       23.783 -20.307   5.151  0.00  0.00    +0.039 A 
ATOM      6 BR   LIG    1       22.902 -18.888   4.246  0.00  0.00    -0.048 Br
ATOM      7  C   LIG    1       25.115 -20.131   5.529  0.00  0.00    +0.033 A 
ENDROOT
BRANCH   1  10
ATOM      8  N   LIG    1       27.966 -20.194   5.536  0.00  0.00    -0.310 N 
ATOM      9  H   LIG    1       27.448 -19.793   4.760  0.00  0.00    +0.149 HD
ATOM     10  C   LIG    1       27.261 -20.906   6.483  0.00  0.00    +0.248 C 
ATOM     11  O   LIG    1       27.769 -21.338   7.509  0.00  0.00    -0.270 OA
BRANCH   8  12
ATOM     12  C   LIG    1       29.315 -19.707   5.745  0.00  0.00    +0.120 C 
BRANCH  12  13
ATOM     13  C   LIG    1       29.383 -18.584   6.812  0.00  0.00    +0.103 C 
BRANCH  13  14
ATOM     14  N   LIG    1       30.686 -18.366   7.495  0.00  0.00    -0.301 NA
BRANCH  14  16
ATOM     15  C   LIG    1       31.688 -16.917   9.354  0.00  0.00    +0.020 C 
ATOM     16  C   LIG    1       30.487 -17.682   8.792  0.00  0.00    +0.081 C 
ENDBRANCH  14  16
BRANCH  14  17
ATOM     17  C   LIG    1       31.505 -19.581   7.597  0.00  0.00    +0.081 C 
ATOM     18  C   LIG    1       31.045 -20.525   8.705  0.00  0.00    +0.020 C 
ENDBRANCH  14  17
ENDBRANCH  13  14
ENDBRANCH  12  13
ENDBRANCH   8  12
ENDBRANCH   1  10
BRANCH   4  19
ATOM     19  N   LIG    1       21.761 -21.711   5.098  0.00  0.00    -0.357 N 
ATOM     20  H   LIG    1       21.566 -21.783   4.103  0.00  0.00    +0.142 HD
ATOM     21  H   LIG    1       21.160 -21.028   5.554  0.00  0.00    +0.142 HD
ENDBRANCH   4  19
BRANCH   2  22
ATOM     22  O   LIG    1       25.797 -23.276   7.287  0.00  0.00    -0.494 OA
ATOM     23  C   LIG    1       25.818 -24.604   6.774  0.00  0.00    +0.277 C 
ENDBRANCH   2  22
TORSDOF 8
ENDMDL
MODEL 9
REMARK VINA RESULT:      -6.3      2.758      3.674
REMARK  Name = *****
REMARK                            x       y       z     vdW  Elec       q    Type
REMARK                         _______ _______ _______ _____ _____    ______ ____
ROOT
ATOM      1  C   LIG    1       24.592 -21.245   6.989  0.00  0.00    +0.079 A 
ATOM      2  C   LIG    1       23.937 -22.480   6.797  0.00  0.00    +0.134 A 
ATOM      3  C   LIG    1       22.821 -22.541   5.951  0.00  0.00    +0.070 A 
ATOM      4  C   LIG    1       22.355 -21.414   5.259  0.00  0.00    +0.042 A 
ATOM      5  C   LIG    1       22.947 -20.176   5.544  0.00  0.00    +0.039 A 
ATOM      6 BR   LIG    1       22.276 -18.580   4.763  0.00  0.00    -0.048 Br
ATOM      7  C   LIG    1       24.065 -20.093   6.376  0.00  0.00    +0.033 A 
ENDROOT
BRANCH   1  10
ATOM      8  N   LIG    1       27.003 -21.621   7.256  0.00  0.00    -0.310 N 
ATOM      9  H   LIG    1       26.954 -22.032   6.327  0.00  0.00    +0.149 HD
ATOM     10  C   LIG    1       25.853 -21.069   7.778  0.00  0.00    +0.248 C 
ATOM     11  O   LIG    1       25.826 -20.458   8.838  0.00  0.00    -0.270 OA
BRANCH   8  12
ATOM     12  C   LIG    1       28.325 -21.364   7.791  0.00  0.00    +0.120 C 
BRANCH  12  13
ATOM     13  C   LIG    1       29.321 -20.878   6.706  0.00  0.00    +0.103 C 
BRANCH  13  14
ATOM     14  N   LIG    1       30.401 -19.950   7.135  0.00  0.00    -0.301 NA
BRANCH  14  16
ATOM     15  C   LIG    1       29.205 -18.382   5.500  0.00  0.00    +0.020 C 
ATOM     16  C   LIG    1       30.079 -18.560   6.744  0.00  0.00    +0.081 C 
ENDBRANCH  14  16
BRANCH  14  17
ATOM     17  C   LIG    1       30.766 -20.088   8.550  0.00  0.00    +0.081 C 
ATOM     18  C   LIG    1       30.916 -18.747   9.265  0.00  0.00    +0.020 C 
ENDBRANCH  14  17
ENDBRANCH  13  14
ENDBRANCH  12  13
ENDBRANCH   8  12
ENDBRANCH   1  10
BRANCH   4  19
ATOM     19  N   LIG    1       21.188 -21.536   4.484  0.00  0.00    -0.357 N 
ATOM     20  H   LIG    1       20.418 -21.987   4.971  0.00  0.00    +0.142 HD
ATOM     21  H   LIG    1       21.367 -21.962   3.578  0.00  0.00    +0.142 HD
ENDBRANCH   4  19
BRANCH   2  22
ATOM     22  O   LIG    1       24.434 -23.577   7.455  0.00  0.00    -0.494 OA
ATOM     23  C   LIG    1       24.889 -24.671   6.665  0.00  0.00    +0.277 C 
ENDBRANCH   2  22
TORSDOF 8
ENDMDL
