MODEL 1
REMARK VINA RESULT:      -4.9      0.000      0.000
REMARK  Name = *****
REMARK                            x       y       z     vdW  Elec       q    Type
REMARK                         _______ _______ _______ _____ _____    ______ ____
ROOT
ATOM      1  C   LIG    1       31.064 -20.042   9.004  0.00  0.00    +0.181 C 
ATOM      2  C   LIG    1       31.683 -18.697   9.044  0.00  0.00    +0.245 C 
ATOM      3  N   LIG    1       31.839 -18.058   7.941  0.00  0.00    -0.049 NA
ATOM      4  O   LIG    1       31.335 -18.917   6.930  0.00  0.00    -0.389 OA
ATOM      5  C   LIG    1       30.561 -19.946   7.572  0.00  0.00    +0.290 C 
ENDROOT
BRANCH   1   6
ATOM      6  N   LIG    1       32.073 -21.088   9.237  0.00  0.00    -0.317 NA
ATOM      7  H   LIG    1       32.803 -20.709   9.842  0.00  0.00    +0.119 HD
ATOM      8  H   LIG    1       31.652 -21.868   9.737  0.00  0.00    +0.119 HD
ENDBRANCH   1   6
BRANCH   2   9
ATOM      9  O   LIG    1       32.073 -18.187  10.210  0.00  0.00    -0.492 OA
ATOM     10  H   LIG    1       32.394 -18.926  10.755  0.00  0.00    +0.293 HD
ENDBRANCH   2   9
TORSDOF 2
ENDMDL
MODEL 2
REMARK VINA RESULT:      -4.8      1.815      2.348
REMARK  Name = *****
REMARK                            x       y       z     vdW  Elec       q    Type
REMARK                         _______ _______ _______ _____ _____    ______ ____
ROOT
ATOM      1  C   LIG    1       31.258 -19.014   7.499  0.00  0.00    +0.181 C 
ATOM      2  C   LIG    1       31.833 -18.233   8.619  0.00  0.00    +0.245 C 
ATOM      3  N   LIG    1       31.717 -18.692   9.813  0.00  0.00    -0.049 NA
ATOM      4  O   LIG    1       31.002 -19.911   9.684  0.00  0.00    -0.389 OA
ATOM      5  C   LIG    1       31.022 -20.288   8.296  0.00  0.00    +0.290 C 
ENDROOT
BRANCH   1   6
ATOM      6  N   LIG    1       30.037 -18.370   6.986  0.00  0.00    -0.317 NA
ATOM      7  H   LIG    1       30.050 -17.386   7.257  0.00  0.00    +0.119 HD
ATOM      8  H   LIG    1       30.036 -18.396   5.969  0.00  0.00    +0.119 HD
ENDBRANCH   1   6
BRANCH   2   9
ATOM      9  O   LIG    1       32.441 -17.075   8.370  0.00  0.00    -0.492 OA
ATOM     10  H   LIG    1       32.089 -16.423   9.001  0.00  0.00    +0.293 HD
ENDBRANCH   2   9
TORSDOF 2
ENDMDL
MODEL 3
REMARK VINA RESULT:      -4.7      1.396      3.045
REMARK  Name = *****
REMARK                            x       y       z     vdW  Elec       q    Type
REMARK                         _______ _______ _______ _____ _____    ______ ____
ROOT
ATOM      1  C   LIG    1       31.091 -17.695   8.618  0.00  0.00    +0.181 C 
ATOM      2  C   LIG    1       31.344 -19.153   8.537  0.00  0.00    +0.245 C 
ATOM      3  N   LIG    1       31.150 -19.871   9.585  0.00  0.00    -0.049 NA
ATOM      4  O   LIG    1       30.723 -18.966  10.591  0.00  0.00    -0.389 OA
ATOM      5  C   LIG    1       30.353 -17.733   9.947  0.00  0.00    +0.290 C 
ENDROOT
BRANCH   1   6
ATOM      6  N   LIG    1       32.357 -16.946   8.635  0.00  0.00    -0.317 NA
ATOM      7  H   LIG    1       32.207 -16.062   9.122  0.00  0.00    +0.119 HD
ATOM      8  H   LIG    1       33.056 -17.460   9.167  0.00  0.00    +0.119 HD
ENDBRANCH   1   6
BRANCH   2   9
ATOM      9  O   LIG    1       31.777 -19.683   7.395  0.00  0.00    -0.492 OA
ATOM     10  H   LIG    1       32.744 -19.764   7.464  0.00  0.00    +0.293 HD
ENDBRANCH   2   9
TORSDOF 2
ENDMDL
MODEL 4
REMARK VINA RESULT:      -4.7      1.546      2.929
REMARK  Name = *****
REMARK                            x       y       z     vdW  Elec       q    Type
REMARK                         _______ _______ _______ _____ _____    ______ ____
ROOT
ATOM      1  C   LIG    1       30.303 -19.071   8.015  0.00  0.00    +0.181 C 
ATOM      2  C   LIG    1       30.828 -20.405   8.390  0.00  0.00    +0.245 C 
ATOM      3  N   LIG    1       31.864 -20.468   9.147  0.00  0.00    -0.049 NA
ATOM      4  O   LIG    1       32.227 -19.121   9.408  0.00  0.00    -0.389 OA
ATOM      5  C   LIG    1       31.118 -18.286   9.033  0.00  0.00    +0.290 C 
ENDROOT
BRANCH   1   6
ATOM      6  N   LIG    1       30.610 -18.765   6.608  0.00  0.00    -0.317 NA
ATOM      7  H   LIG    1       31.562 -19.072   6.408  0.00  0.00    +0.119 HD
ATOM      8  H   LIG    1       29.994 -19.297   5.998  0.00  0.00    +0.119 HD
ENDBRANCH   1   6
BRANCH   2   9
ATOM      9  O   LIG    1       30.230 -21.500   7.927  0.00  0.00    -0.492 OA
ATOM     10  H   LIG    1       29.953 -22.025   8.699  0.00  0.00    +0.293 HD
ENDBRANCH   2   9
TORSDOF 2
ENDMDL
MODEL 5
REMARK VINA RESULT:      -4.6      2.216      2.691
REMARK  Name = *****
REMARK                            x       y       z     vdW  Elec       q    Type
REMARK                         _______ _______ _______ _____ _____    ______ ____
ROOT
ATOM      1  C   LIG    1       31.100 -19.400   8.895  0.00  0.00    +0.181 C 
ATOM      2  C   LIG    1       31.123 -20.878   8.993  0.00  0.00    +0.245 C 
ATOM      3  N   LIG    1       30.071 -21.534   8.654  0.00  0.00    -0.049 NA
ATOM      4  O   LIG    1       29.122 -20.554   8.264  0.00  0.00    -0.389 OA
ATOM      5  C   LIG    1       29.824 -19.312   8.072  0.00  0.00    +0.290 C 
ENDROOT
BRANCH   1   6
ATOM      6  N   LIG    1       31.019 -18.789  10.232  0.00  0.00    -0.317 NA
ATOM      7  H   LIG    1       31.727 -19.217  10.829  0.00  0.00    +0.119 HD
ATOM      8  H   LIG    1       31.242 -17.798  10.172  0.00  0.00    +0.119 HD
ENDBRANCH   1   6
BRANCH   2   9
ATOM      9  O   LIG    1       32.217 -21.491   9.439  0.00  0.00    -0.492 OA
ATOM     10  H   LIG    1       31.933 -22.138  10.108  0.00  0.00    +0.293 HD
ENDBRANCH   2   9
TORSDOF 2
ENDMDL
MODEL 6
REMARK VINA RESULT:      -4.6      1.735      2.594
REMARK  Name = *****
REMARK                            x       y       z     vdW  Elec       q    Type
REMARK                         _______ _______ _______ _____ _____    ______ ____
ROOT
ATOM      1  C   LIG    1       30.042 -20.381   7.782  0.00  0.00    +0.181 C 
ATOM      2  C   LIG    1       30.867 -19.238   7.325  0.00  0.00    +0.245 C 
ATOM      3  N   LIG    1       31.916 -18.929   7.999  0.00  0.00    -0.049 NA
ATOM      4  O   LIG    1       31.963 -19.853   9.075  0.00  0.00    -0.389 OA
ATOM      5  C   LIG    1       31.060 -20.930   8.771  0.00  0.00    +0.290 C 
ENDROOT
BRANCH   1   6
ATOM      6  N   LIG    1       28.785 -19.910   8.385  0.00  0.00    -0.317 NA
ATOM      7  H   LIG    1       28.793 -20.144   9.379  0.00  0.00    +0.119 HD
ATOM      8  H   LIG    1       28.732 -18.896   8.321  0.00  0.00    +0.119 HD
ENDBRANCH   1   6
BRANCH   2   9
ATOM      9  O   LIG    1       30.501 -18.553   6.245  0.00  0.00    -0.492 OA
ATOM     10  H   LIG    1       30.771 -19.073   5.468  0.00  0.00    +0.293 HD
ENDBRANCH   2   9
TORSDOF 2
ENDMDL
MODEL 7
REMARK VINA RESULT:      -4.5      2.407      3.436
REMARK  Name = *****
REMARK                            x       y       z     vdW  Elec       q    Type
REMARK                         _______ _______ _______ _____ _____    ______ ____
ROOT
ATOM      1  C   LIG    1       31.667 -17.026  10.853  0.00  0.00    +0.181 C 
ATOM      2  C   LIG    1       31.562 -17.954   9.703  0.00  0.00    +0.245 C 
ATOM      3  N   LIG    1       31.979 -17.560   8.554  0.00  0.00    -0.049 NA
ATOM      4  O   LIG    1       32.446 -16.235   8.753  0.00  0.00    -0.389 OA
ATOM      5  C   LIG    1       32.587 -16.025  10.169  0.00  0.00    +0.290 C 
ENDROOT
BRANCH   1   6
ATOM      6  N   LIG    1       30.343 -16.498  11.220  0.00  0.00    -0.317 NA
ATOM      7  H   LIG    1       29.808 -17.244  11.668  0.00  0.00    +0.119 HD
ATOM      8  H   LIG    1       30.446 -15.756  11.909  0.00  0.00    +0.119 HD
ENDBRANCH   1   6
BRANCH   2   9
ATOM      9  O   LIG    1       31.030 -19.162   9.879  0.00  0.00    -0.492 OA
ATOM     10  H   LIG    1       31.689 -19.813   9.581  0.00  0.00    +0.293 HD
ENDBRANCH   2   9
TORSDOF 2
ENDMDL
MODEL 8
REMARK VINA RESULT:      -4.5      2.163      2.882
REMARK  Name = *****
REMARK                            x       y       z     vdW  Elec       q    Type
REMARK                         _______ _______ _______ _____ _____    ______ ____
ROOT
ATOM      1  C   LIG    1       30.406 -17.084   9.488  0.00  0.00    +0.181 C 
ATOM      2  C   LIG    1       31.796 -17.394   9.080  0.00  0.00    +0.245 C 
ATOM      3  N   LIG    1       32.178 -18.621   9.078  0.00  0.00    -0.049 NA
ATOM      4  O   LIG    1       31.054 -19.369   9.515  0.00  0.00    -0.389 OA
ATOM      5  C   LIG    1       29.898 -18.517   9.432  0.00  0.00    +0.290 C 
ENDROOT
BRANCH   1   6
ATOM      6  N   LIG    1       30.379 -16.469  10.825  0.00  0.00    -0.317 NA
ATOM      7  H   LIG    1       30.374 -15.454  10.717  0.00  0.00    +0.119 HD
ATOM      8  H   LIG    1       29.515 -16.719  11.301  0.00  0.00    +0.119 HD
ENDBRANCH   1   6
BRANCH   2   9
ATOM      9  O   LIG    1       32.619 -16.405   8.740  0.00  0.00    -0.492 OA
ATOM     10  H   LIG    1       33.527 -16.748   8.809  0.00  0.00    +0.293 HD
ENDBRANCH   2   9
TORSDOF 2
ENDMDL
MODEL 9
REMARK VINA RESULT:      -4.4      1.940      2.769
REMARK  Name = *****
REMARK                            x       y       z     vdW  Elec       q    Type
REMARK                         _______ _______ _______ _____ _____    ______ ____
ROOT
ATOM      1  C   LIG    1       31.415 -19.919   8.345  0.00  0.00    +0.181 C 
ATOM      2  C   LIG    1       30.008 -20.251   8.020  0.00  0.00    +0.245 C 
ATOM      3  N   LIG    1       29.073 -19.537   8.535  0.00  0.00    -0.049 NA
ATOM      4  O   LIG    1       29.732 -18.568   9.336  0.00  0.00    -0.389 OA
ATOM      5  C   LIG    1       31.122 -18.562   8.966  0.00  0.00    +0.290 C 
ENDROOT
BRANCH   1   6
ATOM      6  N   LIG    1       31.986 -20.913   9.269  0.00  0.00    -0.317 NA
ATOM      7  H   LIG    1       32.304 -20.431  10.110  0.00  0.00    +0.119 HD
ATOM      8  H   LIG    1       31.263 -21.568   9.560  0.00  0.00    +0.119 HD
ENDBRANCH   1   6
BRANCH   2   9
ATOM      9  O   LIG    1       29.743 -21.280   7.219  0.00  0.00    -0.492 OA
ATOM     10  H   LIG    1       28.777 -21.398   7.211  0.00  0.00    +0.293 HD
ENDBRANCH   2   9
TORSDOF 2
ENDMDL
