MODEL 1
REMARK VINA RESULT:      -5.8      0.000      0.000
REMARK  Name = *****
REMARK                            x       y       z     vdW  Elec       q    Type
REMARK                         _______ _______ _______ _____ _____    ______ ____
ROOT
ATOM      1  N   LIG    1       27.643 -17.299   4.268  0.00  0.00    -0.311 N 
ATOM      2  H   LIG    1       26.686 -17.535   4.061  0.00  0.00    +0.149 HD
ATOM      3  C   LIG    1       28.374 -18.159   5.038  0.00  0.00    +0.213 C 
ATOM      4  O   LIG    1       29.475 -17.854   5.514  0.00  0.00    -0.276 OA
ENDROOT
BRANCH   1   5
ATOM      5  C   LIG    1       28.061 -15.908   4.060  0.00  0.00    +0.139 C 
BRANCH   5  10
ATOM      6  C   LIG    1       24.622 -14.269   3.762  0.00  0.00    +0.162 A 
ATOM      7  C   LIG    1       24.883 -13.281   2.808  0.00  0.00    +0.159 A 
ATOM      8  C   LIG    1       26.122 -13.183   2.195  0.00  0.00    +0.049 A 
ATOM      9  C   LIG    1       27.149 -14.040   2.578  0.00  0.00    +0.009 A 
ATOM     10  C   LIG    1       26.946 -15.006   3.575  0.00  0.00    -0.027 A 
ATOM     11  C   LIG    1       25.653 -15.146   4.119  0.00  0.00    +0.054 A 
BRANCH   6  13
ATOM     12  C   LIG    1       22.898 -15.584   4.706  0.00  0.00    +0.277 C 
ATOM     13  O   LIG    1       23.349 -14.302   4.275  0.00  0.00    -0.491 OA
ENDBRANCH   6  13
BRANCH   7  14
ATOM     14  O   LIG    1       23.962 -12.322   2.490  0.00  0.00    -0.503 OA
ATOM     15  H   LIG    1       24.075 -12.160   1.536  0.00  0.00    +0.292 HD
ENDBRANCH   7  14
ENDBRANCH   5  10
ENDBRANCH   1   5
BRANCH   3  16
ATOM     16  C   LIG    1       27.769 -19.547   5.211  0.00  0.00    +0.096 C 
BRANCH  16  17
ATOM     17  C   LIG    1       28.013 -20.119   6.624  0.00  0.00    +0.010 C 
BRANCH  17  18
ATOM     18  C   LIG    1       27.062 -21.274   7.002  0.00  0.00    +0.004 C 
BRANCH  18  19
ATOM     19  C   LIG    1       25.750 -21.289   6.181  0.00  0.00    +0.027 C 
BRANCH  19  20
ATOM     20  C   LIG    1       24.538 -20.849   6.977  0.00  0.00    -0.031 C 
ATOM     21  C   LIG    1       23.300 -20.538   6.541  0.00  0.00    -0.028 C 
BRANCH  21  22
ATOM     22  C   LIG    1       22.786 -20.436   5.119  0.00  0.00    +0.005 C 
ATOM     23  C   LIG    1       22.348 -18.995   4.813  0.00  0.00    +0.011 C 
ATOM     24  C   LIG    1       21.597 -21.358   4.839  0.00  0.00    +0.011 C 
ENDBRANCH  21  22
ENDBRANCH  19  20
ENDBRANCH  18  19
ENDBRANCH  17  18
ENDBRANCH  16  17
ENDBRANCH   3  16
TORSDOF 10
ENDMDL
MODEL 2
REMARK VINA RESULT:      -5.5      1.941      2.698
REMARK  Name = *****
REMARK                            x       y       z     vdW  Elec       q    Type
REMARK                         _______ _______ _______ _____ _____    ______ ____
ROOT
ATOM      1  N   LIG    1       26.459 -18.431   4.107  0.00  0.00    -0.311 N 
ATOM      2  H   LIG    1       27.297 -18.268   4.642  0.00  0.00    +0.149 HD
ATOM      3  C   LIG    1       25.942 -19.696   4.077  0.00  0.00    +0.213 C 
ATOM      4  O   LIG    1       25.051 -20.032   3.288  0.00  0.00    -0.276 OA
ENDROOT
BRANCH   1   5
ATOM      5  C   LIG    1       26.078 -17.421   3.114  0.00  0.00    +0.139 C 
BRANCH   5  10
ATOM      6  C   LIG    1       25.266 -13.851   4.209  0.00  0.00    +0.162 A 
ATOM      7  C   LIG    1       26.530 -13.402   4.601  0.00  0.00    +0.159 A 
ATOM      8  C   LIG    1       27.657 -14.195   4.443  0.00  0.00    +0.049 A 
ATOM      9  C   LIG    1       27.523 -15.488   3.945  0.00  0.00    +0.009 A 
ATOM     10  C   LIG    1       26.264 -15.998   3.596  0.00  0.00    -0.027 A 
ATOM     11  C   LIG    1       25.147 -15.142   3.680  0.00  0.00    +0.054 A 
BRANCH   6  13
ATOM     12  C   LIG    1       23.901 -12.193   3.220  0.00  0.00    +0.277 C 
ATOM     13  O   LIG    1       24.228 -12.969   4.371  0.00  0.00    -0.491 OA
ENDBRANCH   6  13
BRANCH   7  14
ATOM     14  O   LIG    1       26.710 -12.199   5.225  0.00  0.00    -0.503 OA
ATOM     15  H   LIG    1       26.747 -12.404   6.177  0.00  0.00    +0.292 HD
ENDBRANCH   7  14
ENDBRANCH   5  10
ENDBRANCH   1   5
BRANCH   3  16
ATOM     16  C   LIG    1       26.491 -20.645   5.135  0.00  0.00    +0.096 C 
BRANCH  16  17
ATOM     17  C   LIG    1       25.381 -21.490   5.796  0.00  0.00    +0.010 C 
BRANCH  17  18
ATOM     18  C   LIG    1       24.749 -20.828   7.038  0.00  0.00    +0.004 C 
BRANCH  18  19
ATOM     19  C   LIG    1       23.234 -20.548   6.887  0.00  0.00    +0.027 C 
BRANCH  19  20
ATOM     20  C   LIG    1       22.654 -21.066   5.588  0.00  0.00    -0.031 C 
ATOM     21  C   LIG    1       22.010 -20.390   4.614  0.00  0.00    -0.028 C 
BRANCH  21  22
ATOM     22  C   LIG    1       21.586 -18.936   4.579  0.00  0.00    +0.005 C 
ATOM     23  C   LIG    1       20.570 -18.703   3.451  0.00  0.00    +0.011 C 
ATOM     24  C   LIG    1       22.755 -17.970   4.367  0.00  0.00    +0.011 C 
ENDBRANCH  21  22
ENDBRANCH  19  20
ENDBRANCH  18  19
ENDBRANCH  17  18
ENDBRANCH  16  17
ENDBRANCH   3  16
TORSDOF 10
ENDMDL
MODEL 3
REMARK VINA RESULT:      -5.5      1.956      4.395
REMARK  Name = *****
REMARK                            x       y       z     vdW  Elec       q    Type
REMARK                         _______ _______ _______ _____ _____    ______ ____
ROOT
ATOM      1  N   LIG    1       23.548 -17.228   4.318  0.00  0.00    -0.311 N 
ATOM      2  H   LIG    1       24.543 -17.301   4.183  0.00  0.00    +0.149 HD
ATOM      3  C   LIG    1       22.786 -18.352   4.162  0.00  0.00    +0.213 C 
ATOM      4  O   LIG    1       21.551 -18.315   4.099  0.00  0.00    -0.276 OA
ENDROOT
BRANCH   1   5
ATOM      5  C   LIG    1       22.954 -15.887   4.294  0.00  0.00    +0.139 C 
BRANCH   5  10
ATOM      6  C   LIG    1       26.157 -14.148   3.147  0.00  0.00    +0.162 A 
ATOM      7  C   LIG    1       25.646 -12.932   2.684  0.00  0.00    +0.159 A 
ATOM      8  C   LIG    1       24.300 -12.624   2.808  0.00  0.00    +0.049 A 
ATOM      9  C   LIG    1       23.425 -13.564   3.345  0.00  0.00    +0.009 A 
ATOM     10  C   LIG    1       23.889 -14.819   3.767  0.00  0.00    -0.027 A 
ATOM     11  C   LIG    1       25.274 -15.075   3.714  0.00  0.00    +0.054 A 
BRANCH   6  13
ATOM     12  C   LIG    1       28.318 -13.647   3.966  0.00  0.00    +0.277 C 
ATOM     13  O   LIG    1       27.511 -14.332   3.012  0.00  0.00    -0.491 OA
ENDBRANCH   6  13
BRANCH   7  14
ATOM     14  O   LIG    1       26.424 -12.026   2.020  0.00  0.00    -0.503 OA
ATOM     15  H   LIG    1       26.292 -11.180   2.486  0.00  0.00    +0.292 HD
ENDBRANCH   7  14
ENDBRANCH   5  10
ENDBRANCH   1   5
BRANCH   3  16
ATOM     16  C   LIG    1       23.562 -19.663   4.142  0.00  0.00    +0.096 C 
BRANCH  16  17
ATOM     17  C   LIG    1       22.792 -20.809   4.833  0.00  0.00    +0.010 C 
BRANCH  17  18
ATOM     18  C   LIG    1       22.795 -20.722   6.374  0.00  0.00    +0.004 C 
BRANCH  18  19
ATOM     19  C   LIG    1       24.190 -20.420   6.973  0.00  0.00    +0.027 C 
BRANCH  19  20
ATOM     20  C   LIG    1       25.165 -21.571   6.835  0.00  0.00    -0.031 C 
ATOM     21  C   LIG    1       26.512 -21.540   6.761  0.00  0.00    -0.028 C 
BRANCH  21  22
ATOM     22  C   LIG    1       27.439 -20.343   6.692  0.00  0.00    +0.005 C 
ATOM     23  C   LIG    1       27.436 -19.748   5.276  0.00  0.00    +0.011 C 
ATOM     24  C   LIG    1       28.887 -20.678   7.059  0.00  0.00    +0.011 C 
ENDBRANCH  21  22
ENDBRANCH  19  20
ENDBRANCH  18  19
ENDBRANCH  17  18
ENDBRANCH  16  17
ENDBRANCH   3  16
TORSDOF 10
ENDMDL
MODEL 4
REMARK VINA RESULT:      -5.3      2.621      7.649
REMARK  Name = *****
REMARK                            x       y       z     vdW  Elec       q    Type
REMARK                         _______ _______ _______ _____ _____    ______ ____
ROOT
ATOM      1  N   LIG    1       23.640 -19.235   4.952  0.00  0.00    -0.311 N 
ATOM      2  H   LIG    1       24.146 -18.506   5.429  0.00  0.00    +0.149 HD
ATOM      3  C   LIG    1       22.370 -18.972   4.523  0.00  0.00    +0.213 C 
ATOM      4  O   LIG    1       21.605 -19.859   4.124  0.00  0.00    -0.276 OA
ENDROOT
BRANCH   1   5
ATOM      5  C   LIG    1       24.137 -20.608   5.087  0.00  0.00    +0.139 C 
BRANCH   5  10
ATOM      6  C   LIG    1       27.871 -19.862   5.414  0.00  0.00    +0.162 A 
ATOM      7  C   LIG    1       28.216 -20.704   6.475  0.00  0.00    +0.159 A 
ATOM      8  C   LIG    1       27.291 -21.572   7.035  0.00  0.00    +0.049 A 
ATOM      9  C   LIG    1       25.975 -21.562   6.581  0.00  0.00    +0.009 A 
ATOM     10  C   LIG    1       25.574 -20.689   5.558  0.00  0.00    -0.027 A 
ATOM     11  C   LIG    1       26.552 -19.882   4.943  0.00  0.00    +0.054 A 
BRANCH   6  13
ATOM     12  C   LIG    1       29.446 -18.148   5.827  0.00  0.00    +0.277 C 
ATOM     13  O   LIG    1       28.875 -19.075   4.908  0.00  0.00    -0.491 OA
ENDBRANCH   6  13
BRANCH   7  14
ATOM     14  O   LIG    1       29.450 -20.662   7.061  0.00  0.00    -0.503 OA
ATOM     15  H   LIG    1       29.901 -19.896   6.661  0.00  0.00    +0.292 HD
ENDBRANCH   7  14
ENDBRANCH   5  10
ENDBRANCH   1   5
BRANCH   3  16
ATOM     16  C   LIG    1       21.984 -17.498   4.503  0.00  0.00    +0.096 C 
BRANCH  16  17
ATOM     17  C   LIG    1       23.215 -16.573   4.393  0.00  0.00    +0.010 C 
BRANCH  17  18
ATOM     18  C   LIG    1       22.890 -15.077   4.588  0.00  0.00    +0.004 C 
BRANCH  18  19
ATOM     19  C   LIG    1       23.927 -14.129   3.939  0.00  0.00    +0.027 C 
BRANCH  19  20
ATOM     20  C   LIG    1       24.911 -13.544   4.932  0.00  0.00    -0.031 C 
ATOM     21  C   LIG    1       26.243 -13.370   4.808  0.00  0.00    -0.028 C 
BRANCH  21  22
ATOM     22  C   LIG    1       27.163 -13.802   3.683  0.00  0.00    +0.005 C 
ATOM     23  C   LIG    1       27.385 -15.322   3.731  0.00  0.00    +0.011 C 
ATOM     24  C   LIG    1       28.535 -13.124   3.730  0.00  0.00    +0.011 C 
ENDBRANCH  21  22
ENDBRANCH  19  20
ENDBRANCH  18  19
ENDBRANCH  17  18
ENDBRANCH  16  17
ENDBRANCH   3  16
TORSDOF 10
ENDMDL
MODEL 5
REMARK VINA RESULT:      -5.2      2.253      7.724
REMARK  Name = *****
REMARK                            x       y       z     vdW  Elec       q    Type
REMARK                         _______ _______ _______ _____ _____    ______ ____
ROOT
ATOM      1  N   LIG    1       22.731 -16.657   3.988  0.00  0.00    -0.311 N 
ATOM      2  H   LIG    1       23.439 -16.517   3.286  0.00  0.00    +0.149 HD
ATOM      3  C   LIG    1       22.644 -15.758   5.013  0.00  0.00    +0.213 C 
ATOM      4  O   LIG    1       21.955 -15.962   6.020  0.00  0.00    -0.276 OA
ENDROOT
BRANCH   1   5
ATOM      5  C   LIG    1       22.111 -17.984   4.075  0.00  0.00    +0.139 C 
BRANCH   5  10
ATOM      6  C   LIG    1       25.124 -20.149   4.994  0.00  0.00    +0.162 A 
ATOM      7  C   LIG    1       24.644 -20.795   6.137  0.00  0.00    +0.159 A 
ATOM      8  C   LIG    1       23.341 -20.614   6.573  0.00  0.00    +0.049 A 
ATOM      9  C   LIG    1       22.509 -19.722   5.902  0.00  0.00    +0.009 A 
ATOM     10  C   LIG    1       22.970 -19.009   4.786  0.00  0.00    -0.027 A 
ATOM     11  C   LIG    1       24.269 -19.277   4.308  0.00  0.00    +0.054 A 
BRANCH   6  13
ATOM     12  C   LIG    1       27.421 -19.681   5.305  0.00  0.00    +0.277 C 
ATOM     13  O   LIG    1       26.415 -20.433   4.629  0.00  0.00    -0.491 OA
ENDBRANCH   6  13
BRANCH   7  14
ATOM     14  O   LIG    1       25.451 -21.572   6.921  0.00  0.00    -0.503 OA
ATOM     15  H   LIG    1       24.887 -22.306   7.226  0.00  0.00    +0.292 HD
ENDBRANCH   7  14
ENDBRANCH   5  10
ENDBRANCH   1   5
BRANCH   3  16
ATOM     16  C   LIG    1       23.398 -14.452   4.795  0.00  0.00    +0.096 C 
BRANCH  16  17
ATOM     17  C   LIG    1       23.739 -14.214   3.308  0.00  0.00    +0.010 C 
BRANCH  17  18
ATOM     18  C   LIG    1       24.504 -12.900   3.046  0.00  0.00    +0.004 C 
BRANCH  18  19
ATOM     19  C   LIG    1       25.811 -13.095   2.240  0.00  0.00    +0.027 C 
BRANCH  19  20
ATOM     20  C   LIG    1       26.465 -14.441   2.473  0.00  0.00    -0.031 C 
ATOM     21  C   LIG    1       27.317 -14.816   3.449  0.00  0.00    -0.028 C 
BRANCH  21  22
ATOM     22  C   LIG    1       27.952 -13.976   4.539  0.00  0.00    +0.005 C 
ATOM     23  C   LIG    1       26.873 -13.425   5.484  0.00  0.00    +0.011 C 
ATOM     24  C   LIG    1       28.754 -12.789   3.998  0.00  0.00    +0.011 C 
ENDBRANCH  21  22
ENDBRANCH  19  20
ENDBRANCH  18  19
ENDBRANCH  17  18
ENDBRANCH  16  17
ENDBRANCH   3  16
TORSDOF 10
ENDMDL
MODEL 6
REMARK VINA RESULT:      -4.8      2.194      6.257
REMARK  Name = *****
REMARK                            x       y       z     vdW  Elec       q    Type
REMARK                         _______ _______ _______ _____ _____    ______ ____
ROOT
ATOM      1  N   LIG    1       27.697 -19.827   5.318  0.00  0.00    -0.311 N 
ATOM      2  H   LIG    1       27.632 -19.893   4.315  0.00  0.00    +0.149 HD
ATOM      3  C   LIG    1       28.730 -19.114   5.857  0.00  0.00    +0.213 C 
ATOM      4  O   LIG    1       29.009 -19.154   7.062  0.00  0.00    -0.276 OA
ENDROOT
BRANCH   1   5
ATOM      5  C   LIG    1       26.930 -20.791   6.114  0.00  0.00    +0.139 C 
BRANCH   5  10
ATOM      6  C   LIG    1       23.573 -19.838   4.555  0.00  0.00    +0.162 A 
ATOM      7  C   LIG    1       22.715 -20.717   5.222  0.00  0.00    +0.159 A 
ATOM      8  C   LIG    1       23.178 -21.554   6.224  0.00  0.00    +0.049 A 
ATOM      9  C   LIG    1       24.535 -21.571   6.533  0.00  0.00    +0.009 A 
ATOM     10  C   LIG    1       25.440 -20.748   5.847  0.00  0.00    -0.027 A 
ATOM     11  C   LIG    1       24.932 -19.840   4.895  0.00  0.00    +0.054 A 
BRANCH   6  13
ATOM     12  C   LIG    1       22.196 -17.965   4.123  0.00  0.00    +0.277 C 
ATOM     13  O   LIG    1       23.001 -19.024   3.610  0.00  0.00    -0.491 OA
ENDBRANCH   6  13
BRANCH   7  14
ATOM     14  O   LIG    1       21.400 -20.851   4.870  0.00  0.00    -0.503 OA
ATOM     15  H   LIG    1       21.403 -20.994   3.906  0.00  0.00    +0.292 HD
ENDBRANCH   7  14
ENDBRANCH   5  10
ENDBRANCH   1   5
BRANCH   3  16
ATOM     16  C   LIG    1       29.470 -18.206   4.882  0.00  0.00    +0.096 C 
BRANCH  16  17
ATOM     17  C   LIG    1       28.725 -16.876   4.639  0.00  0.00    +0.010 C 
BRANCH  17  18
ATOM     18  C   LIG    1       27.294 -17.054   4.089  0.00  0.00    +0.004 C 
BRANCH  18  19
ATOM     19  C   LIG    1       26.767 -15.817   3.323  0.00  0.00    +0.027 C 
BRANCH  19  20
ATOM     20  C   LIG    1       27.029 -14.509   4.042  0.00  0.00    -0.031 C 
ATOM     21  C   LIG    1       26.192 -13.474   4.256  0.00  0.00    -0.028 C 
BRANCH  21  22
ATOM     22  C   LIG    1       24.777 -13.268   3.752  0.00  0.00    +0.005 C 
ATOM     23  C   LIG    1       23.874 -14.420   4.216  0.00  0.00    +0.011 C 
ATOM     24  C   LIG    1       24.685 -13.182   2.226  0.00  0.00    +0.011 C 
ENDBRANCH  21  22
ENDBRANCH  19  20
ENDBRANCH  18  19
ENDBRANCH  17  18
ENDBRANCH  16  17
ENDBRANCH   3  16
TORSDOF 10
ENDMDL
MODEL 7
REMARK VINA RESULT:      -4.8      2.430      6.743
REMARK  Name = *****
REMARK                            x       y       z     vdW  Elec       q    Type
REMARK                         _______ _______ _______ _____ _____    ______ ____
ROOT
ATOM      1  N   LIG    1       26.028 -16.451   3.620  0.00  0.00    -0.311 N 
ATOM      2  H   LIG    1       25.381 -15.688   3.511  0.00  0.00    +0.149 HD
ATOM      3  C   LIG    1       27.283 -16.179   4.088  0.00  0.00    +0.213 C 
ATOM      4  O   LIG    1       28.200 -17.009   4.053  0.00  0.00    -0.276 OA
ENDROOT
BRANCH   1   5
ATOM      5  C   LIG    1       25.721 -17.708   2.927  0.00  0.00    +0.139 C 
BRANCH   5  10
ATOM      6  C   LIG    1       24.938 -20.579   5.324  0.00  0.00    +0.162 A 
ATOM      7  C   LIG    1       23.552 -20.449   5.447  0.00  0.00    +0.159 A 
ATOM      8  C   LIG    1       22.849 -19.508   4.710  0.00  0.00    +0.049 A 
ATOM      9  C   LIG    1       23.539 -18.630   3.878  0.00  0.00    +0.009 A 
ATOM     10  C   LIG    1       24.937 -18.689   3.772  0.00  0.00    -0.027 A 
ATOM     11  C   LIG    1       25.620 -19.712   4.461  0.00  0.00    +0.054 A 
BRANCH   6  13
ATOM     12  C   LIG    1       26.608 -21.152   6.896  0.00  0.00    +0.277 C 
ATOM     13  O   LIG    1       25.526 -21.571   6.068  0.00  0.00    -0.491 OA
ENDBRANCH   6  13
BRANCH   7  14
ATOM     14  O   LIG    1       22.833 -21.182   6.349  0.00  0.00    -0.503 OA
ATOM     15  H   LIG    1       21.897 -21.009   6.138  0.00  0.00    +0.292 HD
ENDBRANCH   7  14
ENDBRANCH   5  10
ENDBRANCH   1   5
BRANCH   3  16
ATOM     16  C   LIG    1       27.454 -14.804   4.722  0.00  0.00    +0.096 C 
BRANCH  16  17
ATOM     17  C   LIG    1       27.731 -13.706   3.673  0.00  0.00    +0.010 C 
BRANCH  17  18
ATOM     18  C   LIG    1       26.934 -13.880   2.363  0.00  0.00    +0.004 C 
BRANCH  18  19
ATOM     19  C   LIG    1       26.055 -12.657   2.006  0.00  0.00    +0.027 C 
BRANCH  19  20
ATOM     20  C   LIG    1       24.578 -12.983   1.924  0.00  0.00    -0.031 C 
ATOM     21  C   LIG    1       23.749 -13.428   2.890  0.00  0.00    -0.028 C 
BRANCH  21  22
ATOM     22  C   LIG    1       24.072 -13.834   4.314  0.00  0.00    +0.005 C 
ATOM     23  C   LIG    1       23.083 -14.904   4.801  0.00  0.00    +0.011 C 
ATOM     24  C   LIG    1       24.024 -12.665   5.302  0.00  0.00    +0.011 C 
ENDBRANCH  21  22
ENDBRANCH  19  20
ENDBRANCH  18  19
ENDBRANCH  17  18
ENDBRANCH  16  17
ENDBRANCH   3  16
TORSDOF 10
ENDMDL
MODEL 8
REMARK VINA RESULT:      -4.5      2.515      6.838
REMARK  Name = *****
REMARK                            x       y       z     vdW  Elec       q    Type
REMARK                         _______ _______ _______ _____ _____    ______ ____
ROOT
ATOM      1  N   LIG    1       26.342 -17.330   3.304  0.00  0.00    -0.311 N 
ATOM      2  H   LIG    1       25.717 -16.839   2.686  0.00  0.00    +0.149 HD
ATOM      3  C   LIG    1       27.352 -16.629   3.901  0.00  0.00    +0.213 C 
ATOM      4  O   LIG    1       28.283 -17.182   4.499  0.00  0.00    -0.276 OA
ENDROOT
BRANCH   1   5
ATOM      5  C   LIG    1       26.366 -18.795   3.224  0.00  0.00    +0.139 C 
BRANCH   5  10
ATOM      6  C   LIG    1       23.094 -19.927   4.841  0.00  0.00    +0.162 A 
ATOM      7  C   LIG    1       23.574 -20.792   5.829  0.00  0.00    +0.159 A 
ATOM      8  C   LIG    1       24.934 -20.956   6.043  0.00  0.00    +0.049 A 
ATOM      9  C   LIG    1       25.844 -20.300   5.219  0.00  0.00    +0.009 A 
ATOM     10  C   LIG    1       25.403 -19.470   4.177  0.00  0.00    -0.027 A 
ATOM     11  C   LIG    1       24.018 -19.248   4.037  0.00  0.00    +0.054 A 
BRANCH   6  13
ATOM     12  C   LIG    1       21.267 -18.658   4.040  0.00  0.00    +0.277 C 
ATOM     13  O   LIG    1       21.731 -19.808   4.743  0.00  0.00    -0.491 OA
ENDBRANCH   6  13
BRANCH   7  14
ATOM     14  O   LIG    1       22.737 -21.572   6.576  0.00  0.00    -0.503 OA
ATOM     15  H   LIG    1       22.628 -21.099   7.422  0.00  0.00    +0.292 HD
ENDBRANCH   7  14
ENDBRANCH   5  10
ENDBRANCH   1   5
BRANCH   3  16
ATOM     16  C   LIG    1       27.211 -15.113   3.840  0.00  0.00    +0.096 C 
BRANCH  16  17
ATOM     17  C   LIG    1       26.842 -14.616   2.426  0.00  0.00    +0.010 C 
BRANCH  17  18
ATOM     18  C   LIG    1       26.405 -13.136   2.379  0.00  0.00    +0.004 C 
BRANCH  18  19
ATOM     19  C   LIG    1       24.980 -12.929   1.812  0.00  0.00    +0.027 C 
BRANCH  19  20
ATOM     20  C   LIG    1       24.183 -11.879   2.559  0.00  0.00    -0.031 C 
ATOM     21  C   LIG    1       23.777 -11.874   3.845  0.00  0.00    -0.028 C 
BRANCH  21  22
ATOM     22  C   LIG    1       23.909 -12.960   4.894  0.00  0.00    +0.005 C 
ATOM     23  C   LIG    1       25.327 -12.960   5.486  0.00  0.00    +0.011 C 
ATOM     24  C   LIG    1       23.627 -14.363   4.350  0.00  0.00    +0.011 C 
ENDBRANCH  21  22
ENDBRANCH  19  20
ENDBRANCH  18  19
ENDBRANCH  17  18
ENDBRANCH  16  17
ENDBRANCH   3  16
TORSDOF 10
ENDMDL
MODEL 9
REMARK VINA RESULT:      -4.2      1.818      5.973
REMARK  Name = *****
REMARK                            x       y       z     vdW  Elec       q    Type
REMARK                         _______ _______ _______ _____ _____    ______ ____
ROOT
ATOM      1  N   LIG    1       26.632 -15.772   3.912  0.00  0.00    -0.311 N 
ATOM      2  H   LIG    1       26.154 -15.779   4.799  0.00  0.00    +0.149 HD
ATOM      3  C   LIG    1       26.536 -14.656   3.130  0.00  0.00    +0.213 C 
ATOM      4  O   LIG    1       26.907 -14.637   1.950  0.00  0.00    -0.276 OA
ENDROOT
BRANCH   1   5
ATOM      5  C   LIG    1       27.064 -17.062   3.363  0.00  0.00    +0.139 C 
BRANCH   5  10
ATOM      6  C   LIG    1       27.472 -20.040   5.722  0.00  0.00    +0.162 A 
ATOM      7  C   LIG    1       28.762 -19.815   6.211  0.00  0.00    +0.159 A 
ATOM      8  C   LIG    1       29.475 -18.678   5.862  0.00  0.00    +0.049 A 
ATOM      9  C   LIG    1       28.927 -17.773   4.958  0.00  0.00    +0.009 A 
ATOM     10  C   LIG    1       27.659 -17.993   4.398  0.00  0.00    -0.027 A 
ATOM     11  C   LIG    1       26.917 -19.108   4.837  0.00  0.00    +0.054 A 
BRANCH   6  13
ATOM     12  C   LIG    1       25.442 -21.043   6.403  0.00  0.00    +0.277 C 
ATOM     13  O   LIG    1       26.841 -21.176   6.165  0.00  0.00    -0.491 OA
ENDBRANCH   6  13
BRANCH   7  14
ATOM     14  O   LIG    1       29.411 -20.732   6.989  0.00  0.00    -0.503 OA
ATOM     15  H   LIG    1       30.359 -20.521   6.901  0.00  0.00    +0.292 HD
ENDBRANCH   7  14
ENDBRANCH   5  10
ENDBRANCH   1   5
BRANCH   3  16
ATOM     16  C   LIG    1       26.007 -13.414   3.835  0.00  0.00    +0.096 C 
BRANCH  16  17
ATOM     17  C   LIG    1       24.479 -13.260   3.681  0.00  0.00    +0.010 C 
BRANCH  17  18
ATOM     18  C   LIG    1       23.663 -14.105   4.683  0.00  0.00    +0.004 C 
BRANCH  18  19
ATOM     19  C   LIG    1       23.189 -15.461   4.106  0.00  0.00    +0.027 C 
BRANCH  19  20
ATOM     20  C   LIG    1       22.300 -16.239   5.054  0.00  0.00    -0.031 C 
ATOM     21  C   LIG    1       22.020 -17.559   5.068  0.00  0.00    -0.028 C 
BRANCH  21  22
ATOM     22  C   LIG    1       22.426 -18.633   4.078  0.00  0.00    +0.005 C 
ATOM     23  C   LIG    1       22.141 -20.027   4.657  0.00  0.00    +0.011 C 
ATOM     24  C   LIG    1       23.908 -18.575   3.698  0.00  0.00    +0.011 C 
ENDBRANCH  21  22
ENDBRANCH  19  20
ENDBRANCH  18  19
ENDBRANCH  17  18
ENDBRANCH  16  17
ENDBRANCH   3  16
TORSDOF 10
ENDMDL
