MODEL 1
REMARK VINA RESULT:      -7.3      0.000      0.000
REMARK  Name = *****
REMARK                            x       y       z     vdW  Elec       q    Type
REMARK                         _______ _______ _______ _____ _____    ______ ____
ROOT
ATOM      1  N   LIG    1       24.429 -22.102   6.469  0.00  0.00    -0.259 N 
ATOM      2  C   LIG    1       23.956 -20.992   5.730  0.00  0.00    +0.333 C 
ATOM      3  O   LIG    1       22.747 -20.774   5.776  0.00  0.00    -0.246 OA
ATOM      4  N   LIG    1       24.906 -20.231   4.975  0.00  0.00    -0.280 N 
ATOM      5  C   LIG    1       24.716 -19.441   3.682  0.00  0.00    +0.155 C 
ATOM      6  C   LIG    1       26.175 -20.270   5.457  0.00  0.00    +0.168 A 
ATOM      7  N   LIG    1       27.238 -19.561   4.992  0.00  0.00    -0.218 NA
ATOM      8  C   LIG    1       28.213 -19.855   5.828  0.00  0.00    +0.202 A 
ATOM      9  N   LIG    1       27.796 -20.727   6.785  0.00  0.00    -0.328 N 
ATOM     10  C   LIG    1       28.589 -21.306   7.837  0.00  0.00    +0.150 C 
ATOM     11  C   LIG    1       26.497 -21.039   6.551  0.00  0.00    +0.151 A 
ATOM     12  C   LIG    1       25.596 -21.937   7.147  0.00  0.00    +0.282 C 
ATOM     13  O   LIG    1       25.870 -22.525   8.258  0.00  0.00    -0.265 OA
ENDROOT
BRANCH   1  14
ATOM     14  C   LIG    1       23.418 -23.095   6.913  0.00  0.00    +0.130 C 
BRANCH  14  15
ATOM     15  C   LIG    1       23.652 -24.581   6.499  0.00  0.00    +0.022 C 
BRANCH  15  16
ATOM     16  C   LIG    1       24.772 -24.997   5.506  0.00  0.00    +0.009 C 
BRANCH  16  17
ATOM     17  C   LIG    1       25.870 -25.939   5.884  0.00  0.00    +0.074 C 
BRANCH  17  19
ATOM     18  C   LIG    1       25.080 -28.429   5.258  0.00  0.00    +0.086 C 
ATOM     19  C   LIG    1       26.062 -27.212   5.174  0.00  0.00    +0.130 C 
ATOM     20  O   LIG    1       27.173 -27.173   4.667  0.00  0.00    -0.298 OA
ENDBRANCH  17  19
ENDBRANCH  16  17
ENDBRANCH  15  16
ENDBRANCH  14  15
ENDBRANCH   1  14
TORSDOF 5
ENDMDL
MODEL 2
REMARK VINA RESULT:      -7.1      1.424      1.682
REMARK  Name = *****
REMARK                            x       y       z     vdW  Elec       q    Type
REMARK                         _______ _______ _______ _____ _____    ______ ____
ROOT
ATOM      1  N   LIG    1       26.425 -21.851   7.055  0.00  0.00    -0.259 N 
ATOM      2  C   LIG    1       25.629 -20.988   6.264  0.00  0.00    +0.333 C 
ATOM      3  O   LIG    1       24.411 -21.077   6.408  0.00  0.00    -0.246 OA
ATOM      4  N   LIG    1       26.292 -20.106   5.352  0.00  0.00    -0.280 N 
ATOM      5  C   LIG    1       25.813 -19.545   4.015  0.00  0.00    +0.155 C 
ATOM      6  C   LIG    1       27.559 -19.769   5.709  0.00  0.00    +0.168 A 
ATOM      7  N   LIG    1       28.365 -18.876   5.077  0.00  0.00    -0.218 NA
ATOM      8  C   LIG    1       29.439 -18.817   5.837  0.00  0.00    +0.202 A 
ATOM      9  N   LIG    1       29.332 -19.649   6.909  0.00  0.00    -0.328 N 
ATOM     10  C   LIG    1       30.321 -19.884   7.927  0.00  0.00    +0.150 C 
ATOM     11  C   LIG    1       28.146 -20.301   6.833  0.00  0.00    +0.151 A 
ATOM     12  C   LIG    1       27.554 -21.322   7.596  0.00  0.00    +0.282 C 
ATOM     13  O   LIG    1       28.050 -21.690   8.725  0.00  0.00    -0.265 OA
ENDROOT
BRANCH   1  14
ATOM     14  C   LIG    1       25.741 -23.008   7.686  0.00  0.00    +0.130 C 
BRANCH  14  15
ATOM     15  C   LIG    1       25.802 -24.370   6.928  0.00  0.00    +0.022 C 
BRANCH  15  16
ATOM     16  C   LIG    1       24.823 -24.719   5.774  0.00  0.00    +0.009 C 
BRANCH  16  17
ATOM     17  C   LIG    1       25.172 -25.690   4.691  0.00  0.00    +0.074 C 
BRANCH  17  19
ATOM     18  C   LIG    1       24.756 -28.098   5.805  0.00  0.00    +0.086 C 
ATOM     19  C   LIG    1       25.610 -27.058   5.005  0.00  0.00    +0.130 C 
ATOM     20  O   LIG    1       26.781 -27.144   4.668  0.00  0.00    -0.298 OA
ENDBRANCH  17  19
ENDBRANCH  16  17
ENDBRANCH  15  16
ENDBRANCH  14  15
ENDBRANCH   1  14
TORSDOF 5
ENDMDL
MODEL 3
REMARK VINA RESULT:      -6.9      3.429      7.305
REMARK  Name = *****
REMARK                            x       y       z     vdW  Elec       q    Type
REMARK                         _______ _______ _______ _____ _____    ______ ____
ROOT
ATOM      1  N   LIG    1       28.269 -20.662   6.504  0.00  0.00    -0.259 N 
ATOM      2  C   LIG    1       27.562 -21.435   7.456  0.00  0.00    +0.333 C 
ATOM      3  O   LIG    1       28.031 -21.473   8.592  0.00  0.00    -0.246 OA
ATOM      4  N   LIG    1       26.385 -22.125   7.023  0.00  0.00    -0.280 N 
ATOM      5  C   LIG    1       25.777 -23.430   7.531  0.00  0.00    +0.155 C 
ATOM      6  C   LIG    1       25.751 -21.556   5.964  0.00  0.00    +0.168 A 
ATOM      7  N   LIG    1       24.567 -21.949   5.426  0.00  0.00    -0.218 NA
ATOM      8  C   LIG    1       24.319 -21.048   4.498  0.00  0.00    +0.202 A 
ATOM      9  N   LIG    1       25.311 -20.118   4.435  0.00  0.00    -0.328 N 
ATOM     10  C   LIG    1       25.408 -19.013   3.520  0.00  0.00    +0.150 C 
ATOM     11  C   LIG    1       26.264 -20.441   5.345  0.00  0.00    +0.151 A 
ATOM     12  C   LIG    1       27.526 -19.906   5.653  0.00  0.00    +0.282 C 
ATOM     13  O   LIG    1       27.913 -18.777   5.171  0.00  0.00    -0.265 OA
ENDROOT
BRANCH   1  14
ATOM     14  C   LIG    1       29.665 -20.286   6.844  0.00  0.00    +0.130 C 
BRANCH  14  15
ATOM     15  C   LIG    1       29.906 -18.835   7.362  0.00  0.00    +0.022 C 
BRANCH  15  16
ATOM     16  C   LIG    1       29.893 -18.484   8.875  0.00  0.00    +0.009 C 
BRANCH  16  17
ATOM     17  C   LIG    1       30.496 -17.225   9.411  0.00  0.00    +0.074 C 
BRANCH  17  19
ATOM     18  C   LIG    1       32.771 -15.858   9.820  0.00  0.00    +0.086 C 
ATOM     19  C   LIG    1       31.909 -17.165   9.812  0.00  0.00    +0.130 C 
ATOM     20  O   LIG    1       32.284 -18.316   9.969  0.00  0.00    -0.298 OA
ENDBRANCH  17  19
ENDBRANCH  16  17
ENDBRANCH  15  16
ENDBRANCH  14  15
ENDBRANCH   1  14
TORSDOF 5
ENDMDL
MODEL 4
REMARK VINA RESULT:      -6.9      3.102      6.495
REMARK  Name = *****
REMARK                            x       y       z     vdW  Elec       q    Type
REMARK                         _______ _______ _______ _____ _____    ______ ____
ROOT
ATOM      1  N   LIG    1       26.828 -21.309   6.708  0.00  0.00    -0.259 N 
ATOM      2  C   LIG    1       25.717 -21.644   7.517  0.00  0.00    +0.333 C 
ATOM      3  O   LIG    1       25.944 -21.841   8.710  0.00  0.00    -0.246 OA
ATOM      4  N   LIG    1       24.434 -21.749   6.890  0.00  0.00    -0.280 N 
ATOM      5  C   LIG    1       23.236 -22.621   7.260  0.00  0.00    +0.155 C 
ATOM      6  C   LIG    1       24.289 -21.001   5.766  0.00  0.00    +0.168 A 
ATOM      7  N   LIG    1       23.150 -20.843   5.042  0.00  0.00    -0.218 NA
ATOM      8  C   LIG    1       23.474 -19.965   4.116  0.00  0.00    +0.202 A 
ATOM      9  N   LIG    1       24.775 -19.583   4.232  0.00  0.00    -0.328 N 
ATOM     10  C   LIG    1       25.494 -18.678   3.376  0.00  0.00    +0.150 C 
ATOM     11  C   LIG    1       25.335 -20.261   5.265  0.00  0.00    +0.151 A 
ATOM     12  C   LIG    1       26.641 -20.336   5.777  0.00  0.00    +0.282 C 
ATOM     13  O   LIG    1       27.560 -19.522   5.394  0.00  0.00    -0.265 OA
ENDROOT
BRANCH   1  14
ATOM     14  C   LIG    1       28.176 -21.586   7.267  0.00  0.00    +0.130 C 
BRANCH  14  15
ATOM     15  C   LIG    1       28.923 -20.397   7.945  0.00  0.00    +0.022 C 
BRANCH  15  16
ATOM     16  C   LIG    1       30.315 -19.908   7.458  0.00  0.00    +0.009 C 
BRANCH  16  17
ATOM     17  C   LIG    1       30.837 -18.541   7.764  0.00  0.00    +0.074 C 
BRANCH  17  19
ATOM     18  C   LIG    1       32.261 -16.895   9.338  0.00  0.00    +0.086 C 
ATOM     19  C   LIG    1       31.743 -18.305   8.898  0.00  0.00    +0.130 C 
ATOM     20  O   LIG    1       32.111 -19.400   9.294  0.00  0.00    -0.298 OA
ENDBRANCH  17  19
ENDBRANCH  16  17
ENDBRANCH  15  16
ENDBRANCH  14  15
ENDBRANCH   1  14
TORSDOF 5
ENDMDL
MODEL 5
REMARK VINA RESULT:      -6.7      2.962      5.995
REMARK  Name = *****
REMARK                            x       y       z     vdW  Elec       q    Type
REMARK                         _______ _______ _______ _____ _____    ______ ____
ROOT
ATOM      1  N   LIG    1       26.490 -20.411   6.890  0.00  0.00    -0.259 N 
ATOM      2  C   LIG    1       26.745 -19.985   5.565  0.00  0.00    +0.333 C 
ATOM      3  O   LIG    1       27.924 -19.836   5.251  0.00  0.00    -0.246 OA
ATOM      4  N   LIG    1       25.623 -19.739   4.709  0.00  0.00    -0.280 N 
ATOM      5  C   LIG    1       25.480 -18.760   3.546  0.00  0.00    +0.155 C 
ATOM      6  C   LIG    1       24.506 -20.445   5.023  0.00  0.00    +0.168 A 
ATOM      7  N   LIG    1       23.345 -20.473   4.317  0.00  0.00    -0.218 NA
ATOM      8  C   LIG    1       22.603 -21.359   4.950  0.00  0.00    +0.202 A 
ATOM      9  N   LIG    1       23.259 -21.871   6.027  0.00  0.00    -0.328 N 
ATOM     10  C   LIG    1       22.753 -22.825   6.977  0.00  0.00    +0.150 C 
ATOM     11  C   LIG    1       24.473 -21.275   6.119  0.00  0.00    +0.151 A 
ATOM     12  C   LIG    1       25.513 -21.340   7.061  0.00  0.00    +0.282 C 
ATOM     13  O   LIG    1       25.525 -22.234   7.986  0.00  0.00    -0.265 OA
ENDROOT
BRANCH   1  14
ATOM     14  C   LIG    1       27.604 -20.281   7.865  0.00  0.00    +0.130 C 
BRANCH  14  15
ATOM     15  C   LIG    1       28.644 -21.442   7.915  0.00  0.00    +0.022 C 
BRANCH  15  16
ATOM     16  C   LIG    1       30.171 -21.180   8.028  0.00  0.00    +0.009 C 
BRANCH  16  17
ATOM     17  C   LIG    1       30.769 -19.824   7.830  0.00  0.00    +0.074 C 
BRANCH  17  19
ATOM     18  C   LIG    1       30.239 -17.698   9.383  0.00  0.00    +0.086 C 
ATOM     19  C   LIG    1       31.081 -18.953   8.972  0.00  0.00    +0.130 C 
ATOM     20  O   LIG    1       32.167 -19.306   9.404  0.00  0.00    -0.298 OA
ENDBRANCH  17  19
ENDBRANCH  16  17
ENDBRANCH  15  16
ENDBRANCH  14  15
ENDBRANCH   1  14
TORSDOF 5
ENDMDL
MODEL 6
REMARK VINA RESULT:      -6.3      3.554      6.302
REMARK  Name = *****
REMARK                            x       y       z     vdW  Elec       q    Type
REMARK                         _______ _______ _______ _____ _____    ______ ____
ROOT
ATOM      1  N   LIG    1       27.364 -20.412   6.089  0.00  0.00    -0.259 N 
ATOM      2  C   LIG    1       27.003 -20.657   7.435  0.00  0.00    +0.333 C 
ATOM      3  O   LIG    1       27.819 -20.325   8.293  0.00  0.00    -0.246 OA
ATOM      4  N   LIG    1       25.743 -21.288   7.691  0.00  0.00    -0.280 N 
ATOM      5  C   LIG    1       25.325 -22.202   8.840  0.00  0.00    +0.155 C 
ATOM      6  C   LIG    1       24.802 -21.083   6.733  0.00  0.00    +0.168 A 
ATOM      7  N   LIG    1       23.504 -21.481   6.779  0.00  0.00    -0.218 NA
ATOM      8  C   LIG    1       22.972 -20.976   5.684  0.00  0.00    +0.202 A 
ATOM      9  N   LIG    1       23.896 -20.290   4.958  0.00  0.00    -0.328 N 
ATOM     10  C   LIG    1       23.696 -19.643   3.689  0.00  0.00    +0.150 C 
ATOM     11  C   LIG    1       25.092 -20.372   5.592  0.00  0.00    +0.151 A 
ATOM     12  C   LIG    1       26.390 -19.942   5.266  0.00  0.00    +0.282 C 
ATOM     13  O   LIG    1       26.605 -19.149   4.277  0.00  0.00    -0.265 OA
ENDROOT
BRANCH   1  14
ATOM     14  C   LIG    1       28.798 -20.136   5.815  0.00  0.00    +0.130 C 
BRANCH  14  15
ATOM     15  C   LIG    1       29.328 -18.713   6.170  0.00  0.00    +0.022 C 
BRANCH  15  16
ATOM     16  C   LIG    1       30.513 -18.492   7.150  0.00  0.00    +0.009 C 
BRANCH  16  17
ATOM     17  C   LIG    1       31.394 -19.610   7.609  0.00  0.00    +0.074 C 
BRANCH  17  19
ATOM     18  C   LIG    1       31.105 -21.839   9.078  0.00  0.00    +0.086 C 
ATOM     19  C   LIG    1       31.164 -20.285   8.894  0.00  0.00    +0.130 C 
ATOM     20  O   LIG    1       30.881 -19.418   9.707  0.00  0.00    -0.298 OA
ENDBRANCH  17  19
ENDBRANCH  16  17
ENDBRANCH  15  16
ENDBRANCH  14  15
ENDBRANCH   1  14
TORSDOF 5
ENDMDL
MODEL 7
REMARK VINA RESULT:      -6.1      2.707      3.980
REMARK  Name = *****
REMARK                            x       y       z     vdW  Elec       q    Type
REMARK                         _______ _______ _______ _____ _____    ______ ____
ROOT
ATOM      1  N   LIG    1       27.407 -21.555   7.292  0.00  0.00    -0.259 N 
ATOM      2  C   LIG    1       26.933 -20.413   6.605  0.00  0.00    +0.333 C 
ATOM      3  O   LIG    1       25.718 -20.221   6.628  0.00  0.00    -0.246 OA
ATOM      4  N   LIG    1       27.887 -19.592   5.923  0.00  0.00    -0.280 N 
ATOM      5  C   LIG    1       27.718 -18.732   4.672  0.00  0.00    +0.155 C 
ATOM      6  C   LIG    1       29.143 -19.636   6.439  0.00  0.00    +0.168 A 
ATOM      7  N   LIG    1       30.204 -18.882   6.046  0.00  0.00    -0.218 NA
ATOM      8  C   LIG    1       31.161 -19.205   6.891  0.00  0.00    +0.202 A 
ATOM      9  N   LIG    1       30.735 -20.140   7.785  0.00  0.00    -0.328 N 
ATOM     10  C   LIG    1       31.510 -20.764   8.823  0.00  0.00    +0.150 C 
ATOM     11  C   LIG    1       29.450 -20.461   7.495  0.00  0.00    +0.151 A 
ATOM     12  C   LIG    1       28.551 -21.409   8.012  0.00  0.00    +0.282 C 
ATOM     13  O   LIG    1       28.806 -22.056   9.094  0.00  0.00    -0.265 OA
ENDROOT
BRANCH   1  14
ATOM     14  C   LIG    1       26.405 -22.592   7.648  0.00  0.00    +0.130 C 
BRANCH  14  15
ATOM     15  C   LIG    1       25.685 -23.319   6.471  0.00  0.00    +0.022 C 
BRANCH  15  16
ATOM     16  C   LIG    1       24.390 -24.151   6.680  0.00  0.00    +0.009 C 
BRANCH  16  17
ATOM     17  C   LIG    1       23.027 -23.534   6.656  0.00  0.00    +0.074 C 
BRANCH  17  19
ATOM     18  C   LIG    1       22.603 -21.163   5.467  0.00  0.00    +0.086 C 
ATOM     19  C   LIG    1       22.848 -22.076   6.716  0.00  0.00    +0.130 C 
ATOM     20  O   LIG    1       23.083 -21.735   7.864  0.00  0.00    -0.298 OA
ENDBRANCH  17  19
ENDBRANCH  16  17
ENDBRANCH  15  16
ENDBRANCH  14  15
ENDBRANCH   1  14
TORSDOF 5
ENDMDL
MODEL 8
REMARK VINA RESULT:      -6.1      2.469      5.713
REMARK  Name = *****
REMARK                            x       y       z     vdW  Elec       q    Type
REMARK                         _______ _______ _______ _____ _____    ______ ____
ROOT
ATOM      1  N   LIG    1       25.947 -20.448   5.616  0.00  0.00    -0.259 N 
ATOM      2  C   LIG    1       25.263 -19.747   4.595  0.00  0.00    +0.333 C 
ATOM      3  O   LIG    1       25.959 -19.138   3.784  0.00  0.00    -0.246 OA
ATOM      4  N   LIG    1       23.832 -19.779   4.597  0.00  0.00    -0.280 N 
ATOM      5  C   LIG    1       22.832 -18.737   4.099  0.00  0.00    +0.155 C 
ATOM      6  C   LIG    1       23.290 -20.878   5.183  0.00  0.00    +0.168 A 
ATOM      7  N   LIG    1       21.971 -21.201   5.229  0.00  0.00    -0.218 NA
ATOM      8  C   LIG    1       21.948 -22.385   5.806  0.00  0.00    +0.202 A 
ATOM      9  N   LIG    1       23.203 -22.800   6.130  0.00  0.00    -0.328 N 
ATOM     10  C   LIG    1       23.567 -24.015   6.809  0.00  0.00    +0.150 C 
ATOM     11  C   LIG    1       24.085 -21.834   5.771  0.00  0.00    +0.151 A 
ATOM     12  C   LIG    1       25.471 -21.679   5.941  0.00  0.00    +0.282 C 
ATOM     13  O   LIG    1       26.209 -22.650   6.350  0.00  0.00    -0.265 OA
ENDROOT
BRANCH   1  14
ATOM     14  C   LIG    1       27.371 -20.093   5.839  0.00  0.00    +0.130 C 
BRANCH  14  15
ATOM     15  C   LIG    1       27.951 -20.340   7.266  0.00  0.00    +0.022 C 
BRANCH  15  16
ATOM     16  C   LIG    1       29.212 -21.214   7.507  0.00  0.00    +0.009 C 
BRANCH  16  17
ATOM     17  C   LIG    1       30.080 -21.053   8.715  0.00  0.00    +0.074 C 
BRANCH  17  19
ATOM     18  C   LIG    1       31.422 -18.882   7.879  0.00  0.00    +0.086 C 
ATOM     19  C   LIG    1       31.292 -20.222   8.679  0.00  0.00    +0.130 C 
ATOM     20  O   LIG    1       32.174 -20.851   9.242  0.00  0.00    -0.298 OA
ENDBRANCH  17  19
ENDBRANCH  16  17
ENDBRANCH  15  16
ENDBRANCH  14  15
ENDBRANCH   1  14
TORSDOF 5
ENDMDL
MODEL 9
REMARK VINA RESULT:      -6.0      5.874      9.731
REMARK  Name = *****
REMARK                            x       y       z     vdW  Elec       q    Type
REMARK                         _______ _______ _______ _____ _____    ______ ____
ROOT
ATOM      1  N   LIG    1       24.964 -30.479   6.762  0.00  0.00    -0.259 N 
ATOM      2  C   LIG    1       24.530 -30.708   8.089  0.00  0.00    +0.333 C 
ATOM      3  O   LIG    1       23.388 -30.344   8.365  0.00  0.00    -0.246 OA
ATOM      4  N   LIG    1       25.448 -31.317   9.003  0.00  0.00    -0.280 N 
ATOM      5  C   LIG    1       25.565 -31.159  10.518  0.00  0.00    +0.155 C 
ATOM      6  C   LIG    1       26.388 -32.106   8.422  0.00  0.00    +0.168 A 
ATOM      7  N   LIG    1       27.308 -32.873   9.064  0.00  0.00    -0.218 NA
ATOM      8  C   LIG    1       27.922 -33.520   8.095  0.00  0.00    +0.202 A 
ATOM      9  N   LIG    1       27.424 -33.173   6.877  0.00  0.00    -0.328 N 
ATOM     10  C   LIG    1       27.873 -33.637   5.592  0.00  0.00    +0.150 C 
ATOM     11  C   LIG    1       26.458 -32.238   7.055  0.00  0.00    +0.151 A 
ATOM     12  C   LIG    1       25.682 -31.470   6.170  0.00  0.00    +0.282 C 
ATOM     13  O   LIG    1       25.655 -31.722   4.909  0.00  0.00    -0.265 OA
ENDROOT
BRANCH   1  14
ATOM     14  C   LIG    1       24.177 -29.514   5.952  0.00  0.00    +0.130 C 
BRANCH  14  15
ATOM     15  C   LIG    1       24.852 -28.148   5.619  0.00  0.00    +0.022 C 
BRANCH  15  16
ATOM     16  C   LIG    1       24.542 -26.855   6.421  0.00  0.00    +0.009 C 
BRANCH  16  17
ATOM     17  C   LIG    1       24.250 -25.548   5.754  0.00  0.00    +0.074 C 
BRANCH  17  19
ATOM     18  C   LIG    1       25.181 -23.409   7.084  0.00  0.00    +0.086 C 
ATOM     19  C   LIG    1       24.033 -24.323   6.538  0.00  0.00    +0.130 C 
ATOM     20  O   LIG    1       22.840 -24.269   6.793  0.00  0.00    -0.298 OA
ENDBRANCH  17  19
ENDBRANCH  16  17
ENDBRANCH  15  16
ENDBRANCH  14  15
ENDBRANCH   1  14
TORSDOF 5
ENDMDL
