MODEL 1
REMARK VINA RESULT:      -4.9      0.000      0.000
REMARK  Name = *****
REMARK                            x       y       z     vdW  Elec       q    Type
REMARK                         _______ _______ _______ _____ _____    ______ ____
ROOT
ATOM      1  C   LIG    1       26.588 -19.743   4.982  0.00  0.00    +0.022 C 
ENDROOT
BRANCH   1   2
ATOM      2  C   LIG    1       27.025 -20.397   6.314  0.00  0.00    +0.051 C 
ATOM      3  C   LIG    1       26.085 -21.571   6.620  0.00  0.00    +0.024 C 
BRANCH   2   5
ATOM      4  C   LIG    1       29.371 -19.830   6.751  0.00  0.00    +0.101 C 
ATOM      5  N   LIG    1       28.431 -20.812   6.229  0.00  0.00    -0.317 NA
ATOM      6  H   LIG    1       28.562 -21.698   6.715  0.00  0.00    +0.122 HD
ENDBRANCH   2   5
ENDBRANCH   1   2
BRANCH   1   7
ATOM      7  C   LIG    1       25.421 -20.454   4.285  0.00  0.00    +0.029 C 
BRANCH   7   8
ATOM      8  C   LIG    1       24.250 -19.523   4.061  0.00  0.00    -0.028 C 
ATOM      9  C   LIG    1       23.088 -19.455   4.735  0.00  0.00    -0.080 C 
ATOM     10  C   LIG    1       22.020 -18.474   4.325  0.00  0.00    +0.038 C 
ATOM     11  C   LIG    1       22.718 -20.291   5.932  0.00  0.00    +0.038 C 
ENDBRANCH   7   8
ENDBRANCH   1   7
TORSDOF 4
ENDMDL
MODEL 2
REMARK VINA RESULT:      -4.8      1.004      1.990
REMARK  Name = *****
REMARK                            x       y       z     vdW  Elec       q    Type
REMARK                         _______ _______ _______ _____ _____    ______ ____
ROOT
ATOM      1  C   LIG    1       24.866 -20.845   6.952  0.00  0.00    +0.022 C 
ENDROOT
BRANCH   1   2
ATOM      2  C   LIG    1       26.129 -21.225   6.144  0.00  0.00    +0.051 C 
ATOM      3  C   LIG    1       26.472 -20.073   5.190  0.00  0.00    +0.024 C 
BRANCH   2   5
ATOM      4  C   LIG    1       28.488 -20.884   6.724  0.00  0.00    +0.101 C 
ATOM      5  N   LIG    1       27.232 -21.540   7.061  0.00  0.00    -0.317 NA
ATOM      6  H   LIG    1       26.969 -21.297   8.017  0.00  0.00    +0.122 HD
ENDBRANCH   2   5
ENDBRANCH   1   2
BRANCH   1   7
ATOM      7  C   LIG    1       23.545 -21.194   6.255  0.00  0.00    +0.029 C 
BRANCH   7   8
ATOM      8  C   LIG    1       22.781 -19.955   5.846  0.00  0.00    -0.028 C 
ATOM      9  C   LIG    1       22.805 -19.302   4.670  0.00  0.00    -0.080 C 
ATOM     10  C   LIG    1       21.993 -18.048   4.472  0.00  0.00    +0.038 C 
ATOM     11  C   LIG    1       23.590 -19.715   3.453  0.00  0.00    +0.038 C 
ENDBRANCH   7   8
ENDBRANCH   1   7
TORSDOF 4
ENDMDL
MODEL 3
REMARK VINA RESULT:      -4.7      1.448      2.506
REMARK  Name = *****
REMARK                            x       y       z     vdW  Elec       q    Type
REMARK                         _______ _______ _______ _____ _____    ______ ____
ROOT
ATOM      1  C   LIG    1       25.039 -21.572   6.379  0.00  0.00    +0.022 C 
ENDROOT
BRANCH   1   2
ATOM      2  C   LIG    1       26.019 -20.451   5.957  0.00  0.00    +0.051 C 
ATOM      3  C   LIG    1       27.323 -20.611   6.751  0.00  0.00    +0.024 C 
BRANCH   2   5
ATOM      4  C   LIG    1       25.664 -19.373   3.783  0.00  0.00    +0.101 C 
ATOM      5  N   LIG    1       26.237 -20.500   4.506  0.00  0.00    -0.317 NA
ATOM      6  H   LIG    1       27.235 -20.559   4.305  0.00  0.00    +0.122 HD
ENDBRANCH   2   5
ENDBRANCH   1   2
BRANCH   1   7
ATOM      7  C   LIG    1       23.715 -21.062   6.963  0.00  0.00    +0.029 C 
BRANCH   7   8
ATOM      8  C   LIG    1       23.181 -19.876   6.192  0.00  0.00    -0.028 C 
ATOM      9  C   LIG    1       22.317 -19.864   5.161  0.00  0.00    -0.080 C 
ATOM     10  C   LIG    1       21.937 -18.566   4.495  0.00  0.00    +0.038 C 
ATOM     11  C   LIG    1       21.637 -21.070   4.571  0.00  0.00    +0.038 C 
ENDBRANCH   7   8
ENDBRANCH   1   7
TORSDOF 4
ENDMDL
MODEL 4
REMARK VINA RESULT:      -4.6      2.249      5.051
REMARK  Name = *****
REMARK                            x       y       z     vdW  Elec       q    Type
REMARK                         _______ _______ _______ _____ _____    ______ ____
ROOT
ATOM      1  C   LIG    1       24.817 -20.170   4.980  0.00  0.00    +0.022 C 
ENDROOT
BRANCH   1   2
ATOM      2  C   LIG    1       23.497 -20.805   5.478  0.00  0.00    +0.051 C 
ATOM      3  C   LIG    1       23.611 -21.063   6.987  0.00  0.00    +0.024 C 
BRANCH   2   5
ATOM      4  C   LIG    1       22.734 -18.763   4.354  0.00  0.00    +0.101 C 
ATOM      5  N   LIG    1       22.366 -19.930   5.144  0.00  0.00    -0.317 NA
ATOM      6  H   LIG    1       21.650 -20.461   4.649  0.00  0.00    +0.122 HD
ENDBRANCH   2   5
ENDBRANCH   1   2
BRANCH   1   7
ATOM      7  C   LIG    1       26.070 -20.670   5.709  0.00  0.00    +0.029 C 
BRANCH   7   8
ATOM      8  C   LIG    1       27.227 -19.707   5.564  0.00  0.00    -0.028 C 
ATOM      9  C   LIG    1       28.439 -19.755   6.144  0.00  0.00    -0.080 C 
ATOM     10  C   LIG    1       29.450 -18.664   5.900  0.00  0.00    +0.038 C 
ATOM     11  C   LIG    1       28.933 -20.847   7.056  0.00  0.00    +0.038 C 
ENDBRANCH   7   8
ENDBRANCH   1   7
TORSDOF 4
ENDMDL
MODEL 5
REMARK VINA RESULT:      -4.4      4.719      5.828
REMARK  Name = *****
REMARK                            x       y       z     vdW  Elec       q    Type
REMARK                         _______ _______ _______ _____ _____    ______ ____
ROOT
ATOM      1  C   LIG    1       26.877 -15.819   3.566  0.00  0.00    +0.022 C 
ENDROOT
BRANCH   1   2
ATOM      2  C   LIG    1       26.787 -14.283   3.403  0.00  0.00    +0.051 C 
ATOM      3  C   LIG    1       28.173 -13.677   3.664  0.00  0.00    +0.024 C 
BRANCH   2   5
ATOM      4  C   LIG    1       25.150 -13.027   2.078  0.00  0.00    +0.101 C 
ATOM      5  N   LIG    1       26.274 -13.953   2.068  0.00  0.00    -0.317 NA
ATOM      6  H   LIG    1       27.023 -13.569   1.492  0.00  0.00    +0.122 HD
ENDBRANCH   2   5
ENDBRANCH   1   2
BRANCH   1   7
ATOM      7  C   LIG    1       25.579 -16.564   3.228  0.00  0.00    +0.029 C 
BRANCH   7   8
ATOM      8  C   LIG    1       25.721 -18.057   3.427  0.00  0.00    -0.028 C 
ATOM      9  C   LIG    1       24.768 -18.960   3.719  0.00  0.00    -0.080 C 
ATOM     10  C   LIG    1       25.124 -20.411   3.920  0.00  0.00    +0.038 C 
ATOM     11  C   LIG    1       23.298 -18.670   3.864  0.00  0.00    +0.038 C 
ENDBRANCH   7   8
ENDBRANCH   1   7
TORSDOF 4
ENDMDL
MODEL 6
REMARK VINA RESULT:      -4.4      3.927      4.750
REMARK  Name = *****
REMARK                            x       y       z     vdW  Elec       q    Type
REMARK                         _______ _______ _______ _____ _____    ______ ____
ROOT
ATOM      1  C   LIG    1       26.714 -16.833   3.538  0.00  0.00    +0.022 C 
ENDROOT
BRANCH   1   2
ATOM      2  C   LIG    1       26.793 -15.302   3.327  0.00  0.00    +0.051 C 
ATOM      3  C   LIG    1       25.462 -14.674   3.762  0.00  0.00    +0.024 C 
BRANCH   2   5
ATOM      4  C   LIG    1       28.244 -13.369   3.742  0.00  0.00    +0.101 C 
ATOM      5  N   LIG    1       27.938 -14.755   4.066  0.00  0.00    -0.317 NA
ATOM      6  H   LIG    1       27.778 -14.841   5.069  0.00  0.00    +0.122 HD
ENDBRANCH   2   5
ENDBRANCH   1   2
BRANCH   1   7
ATOM      7  C   LIG    1       25.330 -17.434   3.269  0.00  0.00    +0.029 C 
BRANCH   7   8
ATOM      8  C   LIG    1       25.286 -18.911   3.593  0.00  0.00    -0.028 C 
ATOM      9  C   LIG    1       24.261 -19.636   4.075  0.00  0.00    -0.080 C 
ATOM     10  C   LIG    1       24.434 -21.104   4.374  0.00  0.00    +0.038 C 
ATOM     11  C   LIG    1       22.875 -19.119   4.355  0.00  0.00    +0.038 C 
ENDBRANCH   7   8
ENDBRANCH   1   7
TORSDOF 4
ENDMDL
MODEL 7
REMARK VINA RESULT:      -4.3      1.946      4.971
REMARK  Name = *****
REMARK                            x       y       z     vdW  Elec       q    Type
REMARK                         _______ _______ _______ _____ _____    ______ ____
ROOT
ATOM      1  C   LIG    1       25.115 -21.567   5.435  0.00  0.00    +0.022 C 
ENDROOT
BRANCH   1   2
ATOM      2  C   LIG    1       23.870 -21.155   4.613  0.00  0.00    +0.051 C 
ATOM      3  C   LIG    1       22.783 -20.659   5.576  0.00  0.00    +0.024 C 
BRANCH   2   5
ATOM      4  C   LIG    1       23.460 -18.914   3.703  0.00  0.00    +0.101 C 
ATOM      5  N   LIG    1       24.244 -20.139   3.620  0.00  0.00    -0.317 NA
ATOM      6  H   LIG    1       25.234 -19.914   3.707  0.00  0.00    +0.122 HD
ENDBRANCH   2   5
ENDBRANCH   1   2
BRANCH   1   7
ATOM      7  C   LIG    1       25.442 -20.621   6.597  0.00  0.00    +0.029 C 
BRANCH   7   8
ATOM      8  C   LIG    1       26.880 -20.758   7.045  0.00  0.00    -0.028 C 
ATOM      9  C   LIG    1       27.989 -20.249   6.479  0.00  0.00    -0.080 C 
ATOM     10  C   LIG    1       29.349 -20.538   7.062  0.00  0.00    +0.038 C 
ATOM     11  C   LIG    1       28.026 -19.362   5.263  0.00  0.00    +0.038 C 
ENDBRANCH   7   8
ENDBRANCH   1   7
TORSDOF 4
ENDMDL
MODEL 8
REMARK VINA RESULT:      -4.3      1.983      5.050
REMARK  Name = *****
REMARK                            x       y       z     vdW  Elec       q    Type
REMARK                         _______ _______ _______ _____ _____    ______ ____
ROOT
ATOM      1  C   LIG    1       25.045 -20.447   4.202  0.00  0.00    +0.022 C 
ENDROOT
BRANCH   1   2
ATOM      2  C   LIG    1       23.805 -20.140   5.075  0.00  0.00    +0.051 C 
ATOM      3  C   LIG    1       22.839 -19.259   4.270  0.00  0.00    +0.024 C 
BRANCH   2   5
ATOM      4  C   LIG    1       23.167 -21.572   6.962  0.00  0.00    +0.101 C 
ATOM      5  N   LIG    1       23.183 -21.395   5.516  0.00  0.00    -0.317 NA
ATOM      6  H   LIG    1       22.230 -21.456   5.158  0.00  0.00    +0.122 HD
ENDBRANCH   2   5
ENDBRANCH   1   2
BRANCH   1   7
ATOM      7  C   LIG    1       26.273 -19.589   4.530  0.00  0.00    +0.029 C 
BRANCH   7   8
ATOM      8  C   LIG    1       27.144 -20.235   5.583  0.00  0.00    -0.028 C 
ATOM      9  C   LIG    1       28.357 -19.854   6.021  0.00  0.00    -0.080 C 
ATOM     10  C   LIG    1       29.088 -20.665   7.060  0.00  0.00    +0.038 C 
ATOM     11  C   LIG    1       29.107 -18.627   5.572  0.00  0.00    +0.038 C 
ENDBRANCH   7   8
ENDBRANCH   1   7
TORSDOF 4
ENDMDL
MODEL 9
REMARK VINA RESULT:      -4.3      3.363      4.190
REMARK  Name = *****
REMARK                            x       y       z     vdW  Elec       q    Type
REMARK                         _______ _______ _______ _____ _____    ______ ____
ROOT
ATOM      1  C   LIG    1       25.073 -18.728   3.412  0.00  0.00    +0.022 C 
ENDROOT
BRANCH   1   2
ATOM      2  C   LIG    1       25.279 -19.785   4.523  0.00  0.00    +0.051 C 
ATOM      3  C   LIG    1       24.464 -21.037   4.170  0.00  0.00    +0.024 C 
BRANCH   2   5
ATOM      4  C   LIG    1       27.134 -20.239   6.061  0.00  0.00    +0.101 C 
ATOM      5  N   LIG    1       26.710 -20.074   4.677  0.00  0.00    -0.317 NA
ATOM      6  H   LIG    1       26.956 -20.909   4.146  0.00  0.00    +0.122 HD
ENDBRANCH   2   5
ENDBRANCH   1   2
BRANCH   1   7
ATOM      7  C   LIG    1       26.121 -17.607   3.409  0.00  0.00    +0.029 C 
BRANCH   7   8
ATOM      8  C   LIG    1       25.479 -16.239   3.348  0.00  0.00    -0.028 C 
ATOM      9  C   LIG    1       26.048 -15.035   3.536  0.00  0.00    -0.080 C 
ATOM     10  C   LIG    1       25.219 -13.777   3.472  0.00  0.00    +0.038 C 
ATOM     11  C   LIG    1       27.508 -14.786   3.806  0.00  0.00    +0.038 C 
ENDBRANCH   7   8
ENDBRANCH   1   7
TORSDOF 4
ENDMDL
