MODEL 1
REMARK VINA RESULT:      -9.3      0.000      0.000
REMARK  Name = *****
REMARK                            x       y       z     vdW  Elec       q    Type
REMARK                         _______ _______ _______ _____ _____    ______ ____
ROOT
ATOM      1  O   LIG    1       27.537 -21.418   8.705  0.00  0.00    -0.274 OA
ATOM      2  C   LIG    1       27.824 -21.300   7.514  0.00  0.00    +0.233 C 
ATOM      3  N   LIG    1       26.897 -21.394   6.498  0.00  0.00    -0.310 N 
ATOM      4  H   LIG    1       27.145 -21.070   5.571  0.00  0.00    +0.149 HD
ENDROOT
BRANCH   3   5
ATOM      5  C   LIG    1       25.482 -21.492   6.787  0.00  0.00    +0.139 C 
BRANCH   5   6
ATOM      6  C   LIG    1       24.670 -20.669   5.819  0.00  0.00    -0.030 A 
ATOM      7  C   LIG    1       23.326 -20.375   6.090  0.00  0.00    +0.005 A 
ATOM      8  C   LIG    1       22.574 -19.597   5.206  0.00  0.00    +0.000 A 
ATOM      9  C   LIG    1       23.157 -19.105   4.040  0.00  0.00    +0.000 A 
ATOM     10  C   LIG    1       24.489 -19.397   3.753  0.00  0.00    +0.000 A 
ATOM     11  C   LIG    1       25.241 -20.177   4.634  0.00  0.00    +0.005 A 
ENDBRANCH   5   6
ENDBRANCH   3   5
BRANCH   2  12
ATOM     12  C   LIG    1       29.240 -21.072   7.027  0.00  0.00    +0.224 C 
BRANCH  12  13
ATOM     13  N   LIG    1       30.030 -20.197   7.881  0.00  0.00    -0.263 N 
ATOM     14  C   LIG    1       30.897 -20.513   8.899  0.00  0.00    +0.451 A 
ATOM     15  N   LIG    1       31.321 -19.436   9.534  0.00  0.00    -0.172 NA
ATOM     16  C   LIG    1       30.735 -18.381   8.889  0.00  0.00    +0.137 A 
ATOM     17  C   LIG    1       29.929 -18.823   7.866  0.00  0.00    +0.114 A 
BRANCH  14  18
ATOM     18  N   LIG    1       31.286 -21.847   9.287  0.00  0.00    +0.119 N 
ATOM     19  O   LIG    1       32.255 -22.351   8.705  0.00  0.00    -0.574 OA
ATOM     20  O   LIG    1       30.651 -22.385  10.204  0.00  0.00    +0.045 OA
ENDBRANCH  14  18
ENDBRANCH  12  13
ENDBRANCH   2  12
TORSDOF 5
ENDMDL
MODEL 2
REMARK VINA RESULT:      -9.1      1.745      2.377
REMARK  Name = *****
REMARK                            x       y       z     vdW  Elec       q    Type
REMARK                         _______ _______ _______ _____ _____    ______ ____
ROOT
ATOM      1  O   LIG    1       27.780 -21.384   8.736  0.00  0.00    -0.274 OA
ATOM      2  C   LIG    1       27.965 -21.071   7.560  0.00  0.00    +0.233 C 
ATOM      3  N   LIG    1       26.942 -20.785   6.681  0.00  0.00    -0.310 N 
ATOM      4  H   LIG    1       27.157 -20.322   5.807  0.00  0.00    +0.149 HD
ENDROOT
BRANCH   3   5
ATOM      5  C   LIG    1       25.572 -20.690   7.139  0.00  0.00    +0.139 C 
BRANCH   5   6
ATOM      6  C   LIG    1       24.848 -22.001   6.963  0.00  0.00    -0.030 A 
ATOM      7  C   LIG    1       23.448 -22.054   7.034  0.00  0.00    +0.005 A 
ATOM      8  C   LIG    1       22.770 -23.262   6.854  0.00  0.00    +0.000 A 
ATOM      9  C   LIG    1       23.483 -24.432   6.602  0.00  0.00    +0.000 A 
ATOM     10  C   LIG    1       24.875 -24.396   6.537  0.00  0.00    +0.000 A 
ATOM     11  C   LIG    1       25.555 -23.190   6.721  0.00  0.00    +0.005 A 
ENDBRANCH   5   6
ENDBRANCH   3   5
BRANCH   2  12
ATOM     12  C   LIG    1       29.342 -20.999   6.934  0.00  0.00    +0.224 C 
BRANCH  12  13
ATOM     13  N   LIG    1       30.285 -20.163   7.664  0.00  0.00    -0.263 N 
ATOM     14  C   LIG    1       31.136 -20.490   8.692  0.00  0.00    +0.451 A 
ATOM     15  N   LIG    1       31.739 -19.426   9.188  0.00  0.00    -0.172 NA
ATOM     16  C   LIG    1       31.288 -18.373   8.440  0.00  0.00    +0.137 A 
ATOM     17  C   LIG    1       30.385 -18.800   7.493  0.00  0.00    +0.114 A 
BRANCH  14  18
ATOM     18  N   LIG    1       31.341 -21.816   9.222  0.00  0.00    +0.119 N 
ATOM     19  O   LIG    1       32.198 -22.523   8.676  0.00  0.00    -0.574 OA
ATOM     20  O   LIG    1       30.676 -22.147  10.212  0.00  0.00    +0.045 OA
ENDBRANCH  14  18
ENDBRANCH  12  13
ENDBRANCH   2  12
TORSDOF 5
ENDMDL
MODEL 3
REMARK VINA RESULT:      -9.0      1.294      1.605
REMARK  Name = *****
REMARK                            x       y       z     vdW  Elec       q    Type
REMARK                         _______ _______ _______ _____ _____    ______ ____
ROOT
ATOM      1  O   LIG    1       26.648 -20.458   8.998  0.00  0.00    -0.274 OA
ATOM      2  C   LIG    1       27.036 -21.147   8.055  0.00  0.00    +0.233 C 
ATOM      3  N   LIG    1       26.184 -21.779   7.176  0.00  0.00    -0.310 N 
ATOM      4  H   LIG    1       26.550 -22.139   6.303  0.00  0.00    +0.149 HD
ENDROOT
BRANCH   3   5
ATOM      5  C   LIG    1       24.755 -21.544   7.224  0.00  0.00    +0.139 C 
BRANCH   5   6
ATOM      6  C   LIG    1       24.301 -20.714   6.050  0.00  0.00    -0.030 A 
ATOM      7  C   LIG    1       22.998 -20.196   6.008  0.00  0.00    +0.005 A 
ATOM      8  C   LIG    1       22.577 -19.411   4.932  0.00  0.00    +0.000 A 
ATOM      9  C   LIG    1       23.453 -19.135   3.885  0.00  0.00    +0.000 A 
ATOM     10  C   LIG    1       24.748 -19.650   3.908  0.00  0.00    +0.000 A 
ATOM     11  C   LIG    1       25.169 -20.438   4.981  0.00  0.00    +0.005 A 
ENDBRANCH   5   6
ENDBRANCH   3   5
BRANCH   2  12
ATOM     12  C   LIG    1       28.502 -21.408   7.774  0.00  0.00    +0.224 C 
BRANCH  12  13
ATOM     13  N   LIG    1       29.219 -20.260   7.238  0.00  0.00    -0.263 N 
ATOM     14  C   LIG    1       30.281 -19.564   7.762  0.00  0.00    +0.451 A 
ATOM     15  N   LIG    1       30.569 -18.494   7.045  0.00  0.00    -0.172 NA
ATOM     16  C   LIG    1       29.684 -18.508   6.002  0.00  0.00    +0.137 A 
ATOM     17  C   LIG    1       28.835 -19.586   6.098  0.00  0.00    +0.114 A 
BRANCH  14  18
ATOM     18  N   LIG    1       30.993 -19.904   8.970  0.00  0.00    +0.119 N 
ATOM     19  O   LIG    1       31.813 -20.830   8.908  0.00  0.00    -0.574 OA
ATOM     20  O   LIG    1       30.768 -19.223   9.979  0.00  0.00    +0.045 OA
ENDBRANCH  14  18
ENDBRANCH  12  13
ENDBRANCH   2  12
TORSDOF 5
ENDMDL
MODEL 4
REMARK VINA RESULT:      -8.9      1.766      2.418
REMARK  Name = *****
REMARK                            x       y       z     vdW  Elec       q    Type
REMARK                         _______ _______ _______ _____ _____    ______ ____
ROOT
ATOM      1  O   LIG    1       26.986 -20.310   8.521  0.00  0.00    -0.274 OA
ATOM      2  C   LIG    1       27.547 -20.371   7.427  0.00  0.00    +0.233 C 
ATOM      3  N   LIG    1       27.012 -21.019   6.334  0.00  0.00    -0.310 N 
ATOM      4  H   LIG    1       27.404 -20.847   5.417  0.00  0.00    +0.149 HD
ENDROOT
BRANCH   3   5
ATOM      5  C   LIG    1       25.664 -21.548   6.368  0.00  0.00    +0.139 C 
BRANCH   5   6
ATOM      6  C   LIG    1       24.711 -20.657   5.613  0.00  0.00    -0.030 A 
ATOM      7  C   LIG    1       25.105 -20.054   4.409  0.00  0.00    +0.005 A 
ATOM      8  C   LIG    1       24.221 -19.242   3.696  0.00  0.00    +0.000 A 
ATOM      9  C   LIG    1       22.932 -19.022   4.177  0.00  0.00    +0.000 A 
ATOM     10  C   LIG    1       22.529 -19.607   5.375  0.00  0.00    +0.000 A 
ATOM     11  C   LIG    1       23.413 -20.416   6.093  0.00  0.00    +0.005 A 
ENDBRANCH   5   6
ENDBRANCH   3   5
BRANCH   2  12
ATOM     12  C   LIG    1       28.913 -19.769   7.168  0.00  0.00    +0.224 C 
BRANCH  12  13
ATOM     13  N   LIG    1       29.954 -20.250   8.065  0.00  0.00    -0.263 N 
ATOM     14  C   LIG    1       30.934 -19.552   8.728  0.00  0.00    +0.451 A 
ATOM     15  N   LIG    1       31.781 -20.357   9.342  0.00  0.00    -0.172 NA
ATOM     16  C   LIG    1       31.321 -21.622   9.096  0.00  0.00    +0.137 A 
ATOM     17  C   LIG    1       30.195 -21.586   8.306  0.00  0.00    +0.114 A 
BRANCH  14  18
ATOM     18  N   LIG    1       31.080 -18.117   8.739  0.00  0.00    +0.119 N 
ATOM     19  O   LIG    1       32.004 -17.632   8.074  0.00  0.00    -0.574 OA
ATOM     20  O   LIG    1       30.248 -17.461   9.381  0.00  0.00    +0.045 OA
ENDBRANCH  14  18
ENDBRANCH  12  13
ENDBRANCH   2  12
TORSDOF 5
ENDMDL
MODEL 5
REMARK VINA RESULT:      -8.4      2.413      3.424
REMARK  Name = *****
REMARK                            x       y       z     vdW  Elec       q    Type
REMARK                         _______ _______ _______ _____ _____    ______ ____
ROOT
ATOM      1  O   LIG    1       27.129 -20.076   8.817  0.00  0.00    -0.274 OA
ATOM      2  C   LIG    1       27.478 -20.257   7.651  0.00  0.00    +0.233 C 
ATOM      3  N   LIG    1       26.650 -20.789   6.685  0.00  0.00    -0.310 N 
ATOM      4  H   LIG    1       26.911 -20.706   5.710  0.00  0.00    +0.149 HD
ENDROOT
BRANCH   3   5
ATOM      5  C   LIG    1       25.249 -21.033   6.957  0.00  0.00    +0.139 C 
BRANCH   5   6
ATOM      6  C   LIG    1       24.914 -22.496   6.817  0.00  0.00    -0.030 A 
ATOM      7  C   LIG    1       23.577 -22.918   6.769  0.00  0.00    +0.005 A 
ATOM      8  C   LIG    1       23.261 -24.270   6.621  0.00  0.00    +0.000 A 
ATOM      9  C   LIG    1       24.276 -25.218   6.520  0.00  0.00    +0.000 A 
ATOM     10  C   LIG    1       25.609 -24.815   6.574  0.00  0.00    +0.000 A 
ATOM     11  C   LIG    1       25.928 -23.464   6.726  0.00  0.00    +0.005 A 
ENDBRANCH   5   6
ENDBRANCH   3   5
BRANCH   2  12
ATOM     12  C   LIG    1       28.874 -19.947   7.151  0.00  0.00    +0.224 C 
BRANCH  12  13
ATOM     13  N   LIG    1       29.936 -20.371   8.053  0.00  0.00    -0.263 N 
ATOM     14  C   LIG    1       30.913 -19.628   8.670  0.00  0.00    +0.451 A 
ATOM     15  N   LIG    1       31.782 -20.392   9.306  0.00  0.00    -0.172 NA
ATOM     16  C   LIG    1       31.340 -21.673   9.123  0.00  0.00    +0.137 A 
ATOM     17  C   LIG    1       30.203 -21.690   8.348  0.00  0.00    +0.114 A 
BRANCH  14  18
ATOM     18  N   LIG    1       31.034 -18.192   8.616  0.00  0.00    +0.119 N 
ATOM     19  O   LIG    1       31.962 -17.722   7.944  0.00  0.00    -0.574 OA
ATOM     20  O   LIG    1       30.181 -17.521   9.213  0.00  0.00    +0.045 OA
ENDBRANCH  14  18
ENDBRANCH  12  13
ENDBRANCH   2  12
TORSDOF 5
ENDMDL
MODEL 6
REMARK VINA RESULT:      -8.1      2.674      3.778
REMARK  Name = *****
REMARK                            x       y       z     vdW  Elec       q    Type
REMARK                         _______ _______ _______ _____ _____    ______ ____
ROOT
ATOM      1  O   LIG    1       26.820 -20.894   8.781  0.00  0.00    -0.274 OA
ATOM      2  C   LIG    1       27.542 -21.503   7.992  0.00  0.00    +0.233 C 
ATOM      3  N   LIG    1       27.059 -22.371   7.036  0.00  0.00    -0.310 N 
ATOM      4  H   LIG    1       27.667 -22.664   6.282  0.00  0.00    +0.149 HD
ENDROOT
BRANCH   3   5
ATOM      5  C   LIG    1       25.636 -22.504   6.802  0.00  0.00    +0.139 C 
BRANCH   5   6
ATOM      6  C   LIG    1       25.255 -23.945   6.572  0.00  0.00    -0.030 A 
ATOM      7  C   LIG    1       23.911 -24.305   6.394  0.00  0.00    +0.005 A 
ATOM      8  C   LIG    1       23.554 -25.635   6.162  0.00  0.00    +0.000 A 
ATOM      9  C   LIG    1       24.535 -26.622   6.105  0.00  0.00    +0.000 A 
ATOM     10  C   LIG    1       25.874 -26.281   6.289  0.00  0.00    +0.000 A 
ATOM     11  C   LIG    1       26.233 -24.952   6.525  0.00  0.00    +0.005 A 
ENDBRANCH   5   6
ENDBRANCH   3   5
BRANCH   2  12
ATOM     12  C   LIG    1       29.053 -21.395   8.007  0.00  0.00    +0.224 C 
BRANCH  12  13
ATOM     13  N   LIG    1       29.567 -20.164   7.423  0.00  0.00    -0.263 N 
ATOM     14  C   LIG    1       30.469 -19.261   7.932  0.00  0.00    +0.451 A 
ATOM     15  N   LIG    1       30.581 -18.194   7.163  0.00  0.00    -0.172 NA
ATOM     16  C   LIG    1       29.748 -18.422   6.102  0.00  0.00    +0.137 A 
ATOM     17  C   LIG    1       29.105 -19.631   6.240  0.00  0.00    +0.114 A 
BRANCH  14  18
ATOM     18  N   LIG    1       31.191 -19.404   9.172  0.00  0.00    +0.119 N 
ATOM     19  O   LIG    1       30.730 -18.835  10.170  0.00  0.00    -0.574 OA
ATOM     20  O   LIG    1       32.203 -20.119   9.168  0.00  0.00    +0.045 OA
ENDBRANCH  14  18
ENDBRANCH  12  13
ENDBRANCH   2  12
TORSDOF 5
ENDMDL
MODEL 7
REMARK VINA RESULT:      -7.8      1.814      2.543
REMARK  Name = *****
REMARK                            x       y       z     vdW  Elec       q    Type
REMARK                         _______ _______ _______ _____ _____    ______ ____
ROOT
ATOM      1  O   LIG    1       27.224 -21.470   8.771  0.00  0.00    -0.274 OA
ATOM      2  C   LIG    1       27.526 -21.516   7.578  0.00  0.00    +0.233 C 
ATOM      3  N   LIG    1       26.598 -21.624   6.564  0.00  0.00    -0.310 N 
ATOM      4  H   LIG    1       26.882 -21.434   5.612  0.00  0.00    +0.149 HD
ENDROOT
BRANCH   3   5
ATOM      5  C   LIG    1       25.179 -21.537   6.841  0.00  0.00    +0.139 C 
BRANCH   5   6
ATOM      6  C   LIG    1       24.478 -20.676   5.822  0.00  0.00    -0.030 A 
ATOM      7  C   LIG    1       23.163 -20.241   6.044  0.00  0.00    +0.005 A 
ATOM      8  C   LIG    1       22.514 -19.428   5.111  0.00  0.00    +0.000 A 
ATOM      9  C   LIG    1       23.172 -19.040   3.946  0.00  0.00    +0.000 A 
ATOM     10  C   LIG    1       24.475 -19.471   3.708  0.00  0.00    +0.000 A 
ATOM     11  C   LIG    1       25.124 -20.287   4.637  0.00  0.00    +0.005 A 
ENDBRANCH   5   6
ENDBRANCH   3   5
BRANCH   2  12
ATOM     12  C   LIG    1       28.960 -21.497   7.091  0.00  0.00    +0.224 C 
BRANCH  12  13
ATOM     13  N   LIG    1       29.723 -20.337   7.531  0.00  0.00    -0.263 N 
ATOM     14  C   LIG    1       29.898 -19.118   6.922  0.00  0.00    +0.451 A 
ATOM     15  N   LIG    1       30.774 -18.369   7.566  0.00  0.00    -0.172 NA
ATOM     16  C   LIG    1       31.161 -19.113   8.647  0.00  0.00    +0.137 A 
ATOM     17  C   LIG    1       30.530 -20.336   8.648  0.00  0.00    +0.114 A 
BRANCH  14  18
ATOM     18  N   LIG    1       29.255 -18.688   5.704  0.00  0.00    +0.119 N 
ATOM     19  O   LIG    1       29.884 -17.916   4.969  0.00  0.00    -0.574 OA
ATOM     20  O   LIG    1       28.134 -19.150   5.454  0.00  0.00    +0.045 OA
ENDBRANCH  14  18
ENDBRANCH  12  13
ENDBRANCH   2  12
TORSDOF 5
ENDMDL
MODEL 8
REMARK VINA RESULT:      -7.3      4.315      6.525
REMARK  Name = *****
REMARK                            x       y       z     vdW  Elec       q    Type
REMARK                         _______ _______ _______ _____ _____    ______ ____
ROOT
ATOM      1  O   LIG    1       22.900 -24.455   6.612  0.00  0.00    -0.274 OA
ATOM      2  C   LIG    1       23.975 -23.855   6.605  0.00  0.00    +0.233 C 
ATOM      3  N   LIG    1       25.118 -24.351   6.016  0.00  0.00    -0.310 N 
ATOM      4  H   LIG    1       25.897 -23.728   5.846  0.00  0.00    +0.149 HD
ENDROOT
BRANCH   3   5
ATOM      5  C   LIG    1       25.081 -25.564   5.226  0.00  0.00    +0.139 C 
BRANCH   5   6
ATOM      6  C   LIG    1       25.134 -26.788   6.105  0.00  0.00    -0.030 A 
ATOM      7  C   LIG    1       24.295 -27.882   5.850  0.00  0.00    +0.005 A 
ATOM      8  C   LIG    1       24.352 -29.026   6.651  0.00  0.00    +0.000 A 
ATOM      9  C   LIG    1       25.248 -29.089   7.715  0.00  0.00    +0.000 A 
ATOM     10  C   LIG    1       26.082 -28.006   7.986  0.00  0.00    +0.000 A 
ATOM     11  C   LIG    1       26.024 -26.860   7.190  0.00  0.00    +0.005 A 
ENDBRANCH   5   6
ENDBRANCH   3   5
BRANCH   2  12
ATOM     12  C   LIG    1       24.172 -22.512   7.279  0.00  0.00    +0.224 C 
BRANCH  12  13
ATOM     13  N   LIG    1       25.054 -21.607   6.556  0.00  0.00    -0.263 N 
ATOM     14  C   LIG    1       26.143 -20.898   7.003  0.00  0.00    +0.451 A 
ATOM     15  N   LIG    1       26.606 -20.076   6.080  0.00  0.00    -0.172 NA
ATOM     16  C   LIG    1       25.811 -20.277   4.984  0.00  0.00    +0.137 A 
ATOM     17  C   LIG    1       24.842 -21.216   5.252  0.00  0.00    +0.114 A 
BRANCH  14  18
ATOM     18  N   LIG    1       26.712 -20.981   8.326  0.00  0.00    +0.119 N 
ATOM     19  O   LIG    1       27.839 -21.482   8.432  0.00  0.00    -0.574 OA
ATOM     20  O   LIG    1       26.055 -20.509   9.264  0.00  0.00    +0.045 OA
ENDBRANCH  14  18
ENDBRANCH  12  13
ENDBRANCH   2  12
TORSDOF 5
ENDMDL
MODEL 9
REMARK VINA RESULT:      -7.3      7.005      8.868
REMARK  Name = *****
REMARK                            x       y       z     vdW  Elec       q    Type
REMARK                         _______ _______ _______ _____ _____    ______ ____
ROOT
ATOM      1  O   LIG    1       26.577 -27.483   4.719  0.00  0.00    -0.274 OA
ATOM      2  C   LIG    1       25.566 -27.604   5.410  0.00  0.00    +0.233 C 
ATOM      3  N   LIG    1       25.218 -26.719   6.407  0.00  0.00    -0.310 N 
ATOM      4  H   LIG    1       24.278 -26.742   6.784  0.00  0.00    +0.149 HD
ENDROOT
BRANCH   3   5
ATOM      5  C   LIG    1       25.957 -25.489   6.603  0.00  0.00    +0.139 C 
BRANCH   5   6
ATOM      6  C   LIG    1       25.026 -24.327   6.845  0.00  0.00    -0.030 A 
ATOM      7  C   LIG    1       25.520 -23.116   7.352  0.00  0.00    +0.005 A 
ATOM      8  C   LIG    1       24.665 -22.031   7.562  0.00  0.00    +0.000 A 
ATOM      9  C   LIG    1       23.309 -22.143   7.269  0.00  0.00    +0.000 A 
ATOM     10  C   LIG    1       22.802 -23.343   6.773  0.00  0.00    +0.000 A 
ATOM     11  C   LIG    1       23.654 -24.431   6.566  0.00  0.00    +0.005 A 
ENDBRANCH   5   6
ENDBRANCH   3   5
BRANCH   2  12
ATOM     12  C   LIG    1       24.606 -28.767   5.267  0.00  0.00    +0.224 C 
BRANCH  12  13
ATOM     13  N   LIG    1       25.111 -30.025   5.798  0.00  0.00    -0.263 N 
ATOM     14  C   LIG    1       25.199 -30.457   7.099  0.00  0.00    +0.451 A 
ATOM     15  N   LIG    1       25.843 -31.606   7.192  0.00  0.00    -0.172 NA
ATOM     16  C   LIG    1       26.160 -31.949   5.906  0.00  0.00    +0.137 A 
ATOM     17  C   LIG    1       25.724 -30.987   5.024  0.00  0.00    +0.114 A 
BRANCH  14  18
ATOM     18  N   LIG    1       24.700 -29.750   8.253  0.00  0.00    +0.119 N 
ATOM     19  O   LIG    1       23.559 -30.029   8.644  0.00  0.00    -0.574 OA
ATOM     20  O   LIG    1       25.459 -28.940   8.802  0.00  0.00    +0.045 OA
ENDBRANCH  14  18
ENDBRANCH  12  13
ENDBRANCH   2  12
TORSDOF 5
ENDMDL
