MODEL 1
REMARK VINA RESULT:      -5.3      0.000      0.000
REMARK  Name = *****
REMARK                            x       y       z     vdW  Elec       q    Type
REMARK                         _______ _______ _______ _____ _____    ______ ____
ROOT
ATOM      1  C   LIG    1       24.661 -13.558   4.298  0.00  0.00    +0.161 C 
ENDROOT
BRANCH   1   2
ATOM      2  N   LIG    1       26.120 -13.403   4.251  0.00  0.00    -0.290 N 
ATOM      3  C   LIG    1       26.875 -13.710   3.133  0.00  0.00    +0.216 C 
ATOM      4  O   LIG    1       26.442 -14.048   2.039  0.00  0.00    -0.276 OA
ATOM      5  C   LIG    1       28.332 -13.629   3.511  0.00  0.00    +0.097 C 
ATOM      6  C   LIG    1       28.304 -12.909   4.854  0.00  0.00    +0.028 C 
ATOM      7  C   LIG    1       26.949 -13.275   5.428  0.00  0.00    +0.109 C 
ENDBRANCH   1   2
BRANCH   1   8
ATOM      8  C   LIG    1       23.986 -12.530   3.367  0.00  0.00    +0.231 C 
ATOM      9  O   LIG    1       23.545 -11.447   3.743  0.00  0.00    -0.274 OA
ATOM     10  N   LIG    1       23.810 -12.933   2.074  0.00  0.00    -0.328 N 
ATOM     11  H   LIG    1       24.018 -13.876   1.766  0.00  0.00    +0.145 HD
ATOM     12  H   LIG    1       23.342 -12.302   1.437  0.00  0.00    +0.145 HD
ENDBRANCH   1   8
BRANCH   1  14
ATOM     13  C   LIG    1       22.999 -15.428   4.751  0.00  0.00    +0.006 C 
ATOM     14  C   LIG    1       24.218 -14.986   3.950  0.00  0.00    +0.028 C 
ENDBRANCH   1  14
TORSDOF 3
ENDMDL
MODEL 2
REMARK VINA RESULT:      -4.6      1.632      2.063
REMARK  Name = *****
REMARK                            x       y       z     vdW  Elec       q    Type
REMARK                         _______ _______ _______ _____ _____    ______ ____
ROOT
ATOM      1  C   LIG    1       24.409 -13.625   4.460  0.00  0.00    +0.161 C 
ENDROOT
BRANCH   1   2
ATOM      2  N   LIG    1       25.785 -13.738   3.962  0.00  0.00    -0.290 N 
ATOM      3  C   LIG    1       26.896 -13.563   4.769  0.00  0.00    +0.216 C 
ATOM      4  O   LIG    1       26.889 -13.393   5.981  0.00  0.00    -0.276 OA
ATOM      5  C   LIG    1       28.120 -13.544   3.889  0.00  0.00    +0.097 C 
ATOM      6  C   LIG    1       27.600 -14.074   2.558  0.00  0.00    +0.028 C 
ATOM      7  C   LIG    1       26.137 -13.676   2.561  0.00  0.00    +0.109 C 
ENDBRANCH   1   2
BRANCH   1   8
ATOM      8  C   LIG    1       23.889 -12.186   4.268  0.00  0.00    +0.231 C 
ATOM      9  O   LIG    1       23.672 -11.674   3.173  0.00  0.00    -0.274 OA
ATOM     10  N   LIG    1       23.762 -11.447   5.410  0.00  0.00    -0.328 N 
ATOM     11  H   LIG    1       24.080 -11.784   6.312  0.00  0.00    +0.145 HD
ATOM     12  H   LIG    1       23.455 -10.487   5.326  0.00  0.00    +0.145 HD
ENDBRANCH   1   8
BRANCH   1  14
ATOM     13  C   LIG    1       22.777 -15.541   4.816  0.00  0.00    +0.006 C 
ATOM     14  C   LIG    1       23.468 -14.641   3.799  0.00  0.00    +0.028 C 
ENDBRANCH   1  14
TORSDOF 3
ENDMDL
MODEL 3
REMARK VINA RESULT:      -4.5      1.826      4.353
REMARK  Name = *****
REMARK                            x       y       z     vdW  Elec       q    Type
REMARK                         _______ _______ _______ _____ _____    ______ ____
ROOT
ATOM      1  C   LIG    1       27.043 -14.202   4.077  0.00  0.00    +0.161 C 
ENDROOT
BRANCH   1   2
ATOM      2  N   LIG    1       25.913 -13.500   3.456  0.00  0.00    -0.290 N 
ATOM      3  C   LIG    1       24.611 -13.618   3.909  0.00  0.00    +0.216 C 
ATOM      4  O   LIG    1       24.246 -14.223   4.909  0.00  0.00    -0.276 OA
ATOM      5  C   LIG    1       23.702 -12.936   2.918  0.00  0.00    +0.097 C 
ATOM      6  C   LIG    1       24.668 -12.131   2.057  0.00  0.00    +0.028 C 
ATOM      7  C   LIG    1       25.959 -12.924   2.131  0.00  0.00    +0.109 C 
ENDBRANCH   1   2
BRANCH   1   8
ATOM      8  C   LIG    1       27.028 -15.692   3.681  0.00  0.00    +0.231 C 
ATOM      9  O   LIG    1       26.184 -16.201   2.949  0.00  0.00    -0.274 OA
ATOM     10  N   LIG    1       27.979 -16.470   4.279  0.00  0.00    -0.328 N 
ATOM     11  H   LIG    1       28.591 -16.117   5.006  0.00  0.00    +0.145 HD
ATOM     12  H   LIG    1       27.984 -17.460   4.072  0.00  0.00    +0.145 HD
ENDBRANCH   1   8
BRANCH   1  14
ATOM     13  C   LIG    1       28.713 -12.363   4.619  0.00  0.00    +0.006 C 
ATOM     14  C   LIG    1       28.390 -13.555   3.727  0.00  0.00    +0.028 C 
ENDBRANCH   1  14
TORSDOF 3
ENDMDL
MODEL 4
REMARK VINA RESULT:      -4.4      1.489      2.309
REMARK  Name = *****
REMARK                            x       y       z     vdW  Elec       q    Type
REMARK                         _______ _______ _______ _____ _____    ______ ____
ROOT
ATOM      1  C   LIG    1       24.687 -13.663   3.356  0.00  0.00    +0.161 C 
ENDROOT
BRANCH   1   2
ATOM      2  N   LIG    1       26.080 -13.494   3.787  0.00  0.00    -0.290 N 
ATOM      3  C   LIG    1       27.161 -13.807   2.982  0.00  0.00    +0.216 C 
ATOM      4  O   LIG    1       27.111 -14.164   1.812  0.00  0.00    -0.276 OA
ATOM      5  C   LIG    1       28.414 -13.706   3.815  0.00  0.00    +0.097 C 
ATOM      6  C   LIG    1       27.944 -12.969   5.063  0.00  0.00    +0.028 C 
ATOM      7  C   LIG    1       26.478 -13.342   5.168  0.00  0.00    +0.109 C 
ENDBRANCH   1   2
BRANCH   1   8
ATOM      8  C   LIG    1       24.057 -14.884   4.057  0.00  0.00    +0.231 C 
ATOM      9  O   LIG    1       23.095 -14.821   4.818  0.00  0.00    -0.274 OA
ATOM     10  N   LIG    1       24.699 -16.074   3.858  0.00  0.00    -0.328 N 
ATOM     11  H   LIG    1       25.583 -16.137   3.366  0.00  0.00    +0.145 HD
ATOM     12  H   LIG    1       24.339 -16.895   4.326  0.00  0.00    +0.145 HD
ENDBRANCH   1   8
BRANCH   1  14
ATOM     13  C   LIG    1       23.878 -11.447   2.409  0.00  0.00    +0.006 C 
ATOM     14  C   LIG    1       23.848 -12.401   3.597  0.00  0.00    +0.028 C 
ENDBRANCH   1  14
TORSDOF 3
ENDMDL
MODEL 5
REMARK VINA RESULT:      -4.2      2.005      3.725
REMARK  Name = *****
REMARK                            x       y       z     vdW  Elec       q    Type
REMARK                         _______ _______ _______ _____ _____    ______ ____
ROOT
ATOM      1  C   LIG    1       27.133 -14.498   3.335  0.00  0.00    +0.161 C 
ENDROOT
BRANCH   1   2
ATOM      2  N   LIG    1       25.739 -14.040   3.331  0.00  0.00    -0.290 N 
ATOM      3  C   LIG    1       25.318 -12.911   2.649  0.00  0.00    +0.216 C 
ATOM      4  O   LIG    1       26.002 -12.219   1.906  0.00  0.00    -0.276 OA
ATOM      5  C   LIG    1       23.888 -12.632   3.036  0.00  0.00    +0.097 C 
ATOM      6  C   LIG    1       23.457 -13.919   3.729  0.00  0.00    +0.028 C 
ATOM      7  C   LIG    1       24.751 -14.472   4.294  0.00  0.00    +0.109 C 
ENDBRANCH   1   2
BRANCH   1   8
ATOM      8  C   LIG    1       28.029 -13.475   4.062  0.00  0.00    +0.231 C 
ATOM      9  O   LIG    1       27.846 -13.097   5.216  0.00  0.00    -0.274 OA
ATOM     10  N   LIG    1       29.019 -12.915   3.304  0.00  0.00    -0.328 N 
ATOM     11  H   LIG    1       29.101 -13.085   2.308  0.00  0.00    +0.145 HD
ATOM     12  H   LIG    1       29.610 -12.215   3.732  0.00  0.00    +0.145 HD
ENDBRANCH   1   8
BRANCH   1  14
ATOM     13  C   LIG    1       26.401 -16.932   3.271  0.00  0.00    +0.006 C 
ATOM     14  C   LIG    1       27.283 -15.895   3.955  0.00  0.00    +0.028 C 
ENDBRANCH   1  14
TORSDOF 3
ENDMDL
MODEL 6
REMARK VINA RESULT:      -4.2      6.354      7.292
REMARK  Name = *****
REMARK                            x       y       z     vdW  Elec       q    Type
REMARK                         _______ _______ _______ _____ _____    ______ ____
ROOT
ATOM      1  C   LIG    1       23.815 -20.541   4.436  0.00  0.00    +0.161 C 
ENDROOT
BRANCH   1   2
ATOM      2  N   LIG    1       25.107 -20.478   5.130  0.00  0.00    -0.290 N 
ATOM      3  C   LIG    1       26.138 -19.646   4.730  0.00  0.00    +0.216 C 
ATOM      4  O   LIG    1       26.087 -18.811   3.837  0.00  0.00    -0.276 OA
ATOM      5  C   LIG    1       27.365 -19.996   5.534  0.00  0.00    +0.097 C 
ATOM      6  C   LIG    1       26.810 -20.864   6.656  0.00  0.00    +0.028 C 
ATOM      7  C   LIG    1       25.575 -21.496   6.043  0.00  0.00    +0.109 C 
ENDBRANCH   1   2
BRANCH   1   8
ATOM      8  C   LIG    1       22.700 -20.946   5.422  0.00  0.00    +0.231 C 
ATOM      9  O   LIG    1       22.776 -20.811   6.640  0.00  0.00    -0.274 OA
ATOM     10  N   LIG    1       21.620 -21.572   4.865  0.00  0.00    -0.328 N 
ATOM     11  H   LIG    1       21.593 -21.840   3.888  0.00  0.00    +0.145 HD
ATOM     12  H   LIG    1       20.880 -21.884   5.480  0.00  0.00    +0.145 HD
ENDBRANCH   1   8
BRANCH   1  14
ATOM     13  C   LIG    1       22.458 -18.392   4.513  0.00  0.00    +0.006 C 
ATOM     14  C   LIG    1       23.470 -19.221   3.732  0.00  0.00    +0.028 C 
ENDBRANCH   1  14
TORSDOF 3
ENDMDL
MODEL 7
REMARK VINA RESULT:      -3.9      1.391      1.896
REMARK  Name = *****
REMARK                            x       y       z     vdW  Elec       q    Type
REMARK                         _______ _______ _______ _____ _____    ______ ____
ROOT
ATOM      1  C   LIG    1       24.818 -13.603   4.322  0.00  0.00    +0.161 C 
ENDROOT
BRANCH   1   2
ATOM      2  N   LIG    1       26.264 -13.432   4.131  0.00  0.00    -0.290 N 
ATOM      3  C   LIG    1       27.162 -13.372   5.182  0.00  0.00    +0.216 C 
ATOM      4  O   LIG    1       26.900 -13.542   6.366  0.00  0.00    -0.276 OA
ATOM      5  C   LIG    1       28.511 -12.987   4.630  0.00  0.00    +0.097 C 
ATOM      6  C   LIG    1       28.340 -13.182   3.128  0.00  0.00    +0.028 C 
ATOM      7  C   LIG    1       26.858 -12.954   2.903  0.00  0.00    +0.109 C 
ENDBRANCH   1   2
BRANCH   1   8
ATOM      8  C   LIG    1       24.044 -12.558   3.493  0.00  0.00    +0.231 C 
ATOM      9  O   LIG    1       23.633 -11.491   3.941  0.00  0.00    -0.274 OA
ATOM     10  N   LIG    1       23.744 -12.927   2.212  0.00  0.00    -0.328 N 
ATOM     11  H   LIG    1       23.929 -13.859   1.858  0.00  0.00    +0.145 HD
ATOM     12  H   LIG    1       23.209 -12.284   1.643  0.00  0.00    +0.145 HD
ENDBRANCH   1   8
BRANCH   1  14
ATOM     13  C   LIG    1       25.477 -15.888   3.423  0.00  0.00    +0.006 C 
ATOM     14  C   LIG    1       24.353 -15.026   3.982  0.00  0.00    +0.028 C 
ENDBRANCH   1  14
TORSDOF 3
ENDMDL
MODEL 8
REMARK VINA RESULT:      -3.8      6.463      7.213
REMARK  Name = *****
REMARK                            x       y       z     vdW  Elec       q    Type
REMARK                         _______ _______ _______ _____ _____    ______ ____
ROOT
ATOM      1  C   LIG    1       24.737 -19.821   4.990  0.00  0.00    +0.161 C 
ENDROOT
BRANCH   1   2
ATOM      2  N   LIG    1       25.950 -20.291   5.671  0.00  0.00    -0.290 N 
ATOM      3  C   LIG    1       27.199 -19.735   5.456  0.00  0.00    +0.216 C 
ATOM      4  O   LIG    1       27.443 -18.752   4.769  0.00  0.00    -0.276 OA
ATOM      5  C   LIG    1       28.224 -20.594   6.154  0.00  0.00    +0.097 C 
ATOM      6  C   LIG    1       27.377 -21.478   7.062  0.00  0.00    +0.028 C 
ATOM      7  C   LIG    1       26.050 -21.572   6.334  0.00  0.00    +0.109 C 
ENDBRANCH   1   2
BRANCH   1   8
ATOM      8  C   LIG    1       24.697 -20.356   3.544  0.00  0.00    +0.231 C 
ATOM      9  O   LIG    1       24.116 -21.384   3.207  0.00  0.00    -0.274 OA
ATOM     10  N   LIG    1       25.442 -19.658   2.636  0.00  0.00    -0.328 N 
ATOM     11  H   LIG    1       26.058 -18.900   2.909  0.00  0.00    +0.145 HD
ATOM     12  H   LIG    1       25.470 -19.994   1.683  0.00  0.00    +0.145 HD
ENDBRANCH   1   8
BRANCH   1  14
ATOM     13  C   LIG    1       22.227 -19.484   5.216  0.00  0.00    +0.006 C 
ATOM     14  C   LIG    1       23.460 -20.202   5.751  0.00  0.00    +0.028 C 
ENDBRANCH   1  14
TORSDOF 3
ENDMDL
MODEL 9
REMARK VINA RESULT:      -3.5      1.852      2.940
REMARK  Name = *****
REMARK                            x       y       z     vdW  Elec       q    Type
REMARK                         _______ _______ _______ _____ _____    ______ ____
ROOT
ATOM      1  C   LIG    1       25.215 -13.731   3.092  0.00  0.00    +0.161 C 
ENDROOT
BRANCH   1   2
ATOM      2  N   LIG    1       26.553 -13.461   3.632  0.00  0.00    -0.290 N 
ATOM      3  C   LIG    1       26.802 -13.304   4.985  0.00  0.00    +0.216 C 
ATOM      4  O   LIG    1       25.993 -13.456   5.890  0.00  0.00    -0.276 OA
ATOM      5  C   LIG    1       28.226 -12.838   5.151  0.00  0.00    +0.097 C 
ATOM      6  C   LIG    1       28.838 -13.091   3.778  0.00  0.00    +0.028 C 
ATOM      7  C   LIG    1       27.656 -12.978   2.834  0.00  0.00    +0.109 C 
ENDBRANCH   1   2
BRANCH   1   8
ATOM      8  C   LIG    1       24.634 -15.013   3.723  0.00  0.00    +0.231 C 
ATOM      9  O   LIG    1       25.109 -16.135   3.564  0.00  0.00    -0.274 OA
ATOM     10  N   LIG    1       23.469 -14.852   4.417  0.00  0.00    -0.328 N 
ATOM     11  H   LIG    1       22.966 -13.972   4.436  0.00  0.00    +0.145 HD
ATOM     12  H   LIG    1       23.036 -15.673   4.820  0.00  0.00    +0.145 HD
ENDBRANCH   1   8
BRANCH   1  14
ATOM     13  C   LIG    1       24.274 -11.588   2.099  0.00  0.00    +0.006 C 
ATOM     14  C   LIG    1       24.261 -12.545   3.285  0.00  0.00    +0.028 C 
ENDBRANCH   1  14
TORSDOF 3
ENDMDL
