MODEL 1
REMARK VINA RESULT:      -3.5      0.000      0.000
REMARK  Name = *****
REMARK                            x       y       z     vdW  Elec       q    Type
REMARK                         _______ _______ _______ _____ _____    ______ ____
ROOT
ATOM      1  O   LIG    1       25.184 -29.129   6.288  0.00  0.00    -0.340 OA
ENDROOT
BRANCH   1   5
ATOM      2  C   LIG    1       24.557 -25.650   6.406  0.00  0.00    +0.283 C 
ATOM      3  C   LIG    1       24.020 -26.565   5.285  0.00  0.00    +0.201 C 
ATOM      4  C   LIG    1       25.082 -27.403   4.566  0.00  0.00    +0.180 C 
ATOM      5  C   LIG    1       25.998 -28.089   5.627  0.00  0.00    +0.192 C 
ATOM      6  C   LIG    1       26.505 -27.036   6.643  0.00  0.00    +0.261 C 
ATOM      7  O   LIG    1       25.417 -26.364   7.294  0.00  0.00    -0.332 OA
BRANCH   6   8
ATOM      8  C   LIG    1       27.633 -26.127   6.087  0.00  0.00    +0.337 C 
ATOM      9  O   LIG    1       27.778 -24.972   6.272  0.00  0.00    -0.248 OA
BRANCH   8  10
ATOM     10  O   LIG    1       28.549 -26.834   5.380  0.00  0.00    -0.479 OA
ATOM     11  H   LIG    1       28.837 -27.698   5.755  0.00  0.00    +0.295 HD
ENDBRANCH   8  10
ENDBRANCH   6   8
BRANCH   4  12
ATOM     12  O   LIG    1       25.815 -26.669   3.601  0.00  0.00    -0.386 OA
ATOM     13  H   LIG    1       26.525 -27.222   3.228  0.00  0.00    +0.210 HD
ENDBRANCH   4  12
BRANCH   3  14
ATOM     14  O   LIG    1       23.143 -27.519   5.939  0.00  0.00    -0.384 OA
ATOM     15  H   LIG    1       23.166 -28.325   5.376  0.00  0.00    +0.210 HD
ENDBRANCH   3  14
BRANCH   2  16
ATOM     16  O   LIG    1       25.125 -24.400   6.033  0.00  0.00    -0.341 OA
BRANCH  16  18
ATOM     17  C   LIG    1       25.679 -22.115   6.711  0.00  0.00    +0.160 C 
ATOM     18  C   LIG    1       24.756 -23.326   6.940  0.00  0.00    +0.177 C 
ATOM     19  C   LIG    1       23.311 -22.803   6.727  0.00  0.00    +0.176 C 
ATOM     20  C   LIG    1       23.189 -22.258   5.289  0.00  0.00    +0.178 C 
ATOM     21  O   LIG    1       24.090 -21.157   5.122  0.00  0.00    -0.341 OA
ATOM     22  C   LIG    1       25.450 -21.552   5.288  0.00  0.00    +0.270 C 
BRANCH  17  25
ATOM     23  C   LIG    1       27.258 -20.287   8.295  0.00  0.00    +0.109 C 
ATOM     24  C   LIG    1       27.898 -21.523   7.710  0.00  0.00    +0.210 C 
ATOM     25  N   LIG    1       27.078 -22.379   7.019  0.00  0.00    -0.305 N 
ATOM     26  H   LIG    1       27.568 -23.127   6.519  0.00  0.00    +0.149 HD
ATOM     27  O   LIG    1       29.088 -21.773   7.884  0.00  0.00    -0.276 OA
ENDBRANCH  17  25
BRANCH  22  28
ATOM     28  O   LIG    1       26.219 -20.388   5.043  0.00  0.00    -0.365 OA
ATOM     29  H   LIG    1       25.594 -19.654   5.144  0.00  0.00    +0.212 HD
ENDBRANCH  22  28
BRANCH  19  30
ATOM     30  O   LIG    1       22.306 -23.773   7.019  0.00  0.00    -0.387 OA
ATOM     31  H   LIG    1       21.625 -23.731   6.319  0.00  0.00    +0.210 HD
ENDBRANCH  19  30
BRANCH  20  32
ATOM     32  C   LIG    1       21.763 -21.797   4.971  0.00  0.00    +0.190 C 
BRANCH  32  33
ATOM     33  O   LIG    1       21.697 -20.397   4.720  0.00  0.00    -0.392 OA
ATOM     34  H   LIG    1       22.527 -20.006   5.070  0.00  0.00    +0.209 HD
ENDBRANCH  32  33
ENDBRANCH  20  32
ENDBRANCH  16  18
ENDBRANCH   2  16
ENDBRANCH   1   5
BRANCH   1  35
ATOM     35  C   LIG    1       25.861 -29.926   7.289  0.00  0.00    +0.274 C 
ATOM     36  C   LIG    1       25.340 -29.561   8.731  0.00  0.00    +0.160 C 
ATOM     37  C   LIG    1       23.987 -30.275   8.922  0.00  0.00    +0.177 C 
ATOM     38  C   LIG    1       24.224 -31.800   8.741  0.00  0.00    +0.176 C 
ATOM     39  C   LIG    1       24.781 -32.164   7.362  0.00  0.00    +0.178 C 
ATOM     40  O   LIG    1       25.830 -31.297   6.900  0.00  0.00    -0.341 OA
BRANCH  36  41
ATOM     41  N   LIG    1       26.247 -29.899   9.853  0.00  0.00    -0.305 N 
ATOM     42  H   LIG    1       26.428 -30.888   9.978  0.00  0.00    +0.149 HD
ATOM     43  C   LIG    1       26.897 -29.038  10.689  0.00  0.00    +0.210 C 
ATOM     44  O   LIG    1       26.769 -27.821  10.635  0.00  0.00    -0.276 OA
ATOM     45  C   LIG    1       27.812 -29.727  11.684  0.00  0.00    +0.109 C 
ENDBRANCH  36  41
BRANCH  38  46
ATOM     46  O   LIG    1       25.158 -32.274   9.729  0.00  0.00    -0.387 OA
ATOM     47  H   LIG    1       25.997 -31.833   9.507  0.00  0.00    +0.210 HD
ENDBRANCH  38  46
BRANCH  39  48
ATOM     48  C   LIG    1       23.617 -32.351   6.360  0.00  0.00    +0.190 C 
BRANCH  48  49
ATOM     49  O   LIG    1       23.329 -31.171   5.600  0.00  0.00    -0.392 OA
ATOM     50  H   LIG    1       23.649 -31.336   4.693  0.00  0.00    +0.209 HD
ENDBRANCH  48  49
ENDBRANCH  39  48
BRANCH  37  51
ATOM     51  O   LIG    1       23.384 -30.072  10.233  0.00  0.00    -0.341 OA
BRANCH  51  52
ATOM     52  C   LIG    1       22.169 -30.793  10.528  0.00  0.00    +0.283 C 
ATOM     53  C   LIG    1       22.265 -31.943  11.544  0.00  0.00    +0.201 C 
ATOM     54  C   LIG    1       22.639 -31.351  12.915  0.00  0.00    +0.179 C 
ATOM     55  C   LIG    1       21.446 -30.559  13.425  0.00  0.00    +0.185 C 
ATOM     56  C   LIG    1       20.888 -29.609  12.322  0.00  0.00    +0.260 C 
ATOM     57  O   LIG    1       21.122 -29.891  10.931  0.00  0.00    -0.332 OA
BRANCH  56  58
ATOM     58  C   LIG    1       21.269 -28.165  12.646  0.00  0.00    +0.337 C 
ATOM     59  O   LIG    1       22.389 -27.747  12.902  0.00  0.00    -0.248 OA
BRANCH  58  60
ATOM     60  O   LIG    1       20.209 -27.335  12.736  0.00  0.00    -0.479 OA
ATOM     61  H   LIG    1       20.493 -26.513  12.289  0.00  0.00    +0.295 HD
ENDBRANCH  58  60
ENDBRANCH  56  58
BRANCH  55  62
ATOM     62  O   LIG    1       20.463 -31.522  13.875  0.00  0.00    -0.386 OA
ATOM     63  H   LIG    1       20.287 -32.138  13.139  0.00  0.00    +0.210 HD
ENDBRANCH  55  62
BRANCH  54  64
ATOM     64  O   LIG    1       23.800 -30.522  12.893  0.00  0.00    -0.386 OA
ATOM     65  H   LIG    1       24.195 -30.584  12.003  0.00  0.00    +0.210 HD
ENDBRANCH  54  64
BRANCH  53  66
ATOM     66  O   LIG    1       21.012 -32.660  11.580  0.00  0.00    -0.384 OA
ATOM     67  H   LIG    1       20.307 -32.085  11.208  0.00  0.00    +0.210 HD
ENDBRANCH  53  66
ENDBRANCH  51  52
ENDBRANCH  37  51
ENDBRANCH   1  35
TORSDOF 24
ENDMDL
MODEL 2
REMARK VINA RESULT:      -3.0      1.066      1.561
REMARK  Name = *****
REMARK                            x       y       z     vdW  Elec       q    Type
REMARK                         _______ _______ _______ _____ _____    ______ ____
ROOT
ATOM      1  O   LIG    1       25.006 -28.909   6.368  0.00  0.00    -0.340 OA
ENDROOT
BRANCH   1   5
ATOM      2  C   LIG    1       24.679 -25.389   6.472  0.00  0.00    +0.283 C 
ATOM      3  C   LIG    1       24.045 -26.261   5.368  0.00  0.00    +0.201 C 
ATOM      4  C   LIG    1       25.019 -27.191   4.635  0.00  0.00    +0.180 C 
ATOM      5  C   LIG    1       25.893 -27.945   5.684  0.00  0.00    +0.192 C 
ATOM      6  C   LIG    1       26.507 -26.934   6.682  0.00  0.00    +0.261 C 
ATOM      7  O   LIG    1       25.492 -26.168   7.349  0.00  0.00    -0.332 OA
BRANCH   6   8
ATOM      8  C   LIG    1       27.696 -26.127   6.100  0.00  0.00    +0.337 C 
ATOM      9  O   LIG    1       27.966 -24.998   6.306  0.00  0.00    -0.248 OA
BRANCH   8  10
ATOM     10  O   LIG    1       28.505 -26.901   5.334  0.00  0.00    -0.479 OA
ATOM     11  H   LIG    1       28.253 -27.015   4.388  0.00  0.00    +0.295 HD
ENDBRANCH   8  10
ENDBRANCH   6   8
BRANCH   4  12
ATOM     12  O   LIG    1       25.793 -26.527   3.651  0.00  0.00    -0.386 OA
ATOM     13  H   LIG    1       25.842 -25.575   3.851  0.00  0.00    +0.210 HD
ENDBRANCH   4  12
BRANCH   3  14
ATOM     14  O   LIG    1       23.103 -27.134   6.044  0.00  0.00    -0.384 OA
ATOM     15  H   LIG    1       22.979 -27.902   5.443  0.00  0.00    +0.210 HD
ENDBRANCH   3  14
BRANCH   2  16
ATOM     16  O   LIG    1       25.343 -24.193   6.079  0.00  0.00    -0.341 OA
BRANCH  16  18
ATOM     17  C   LIG    1       26.011 -21.913   6.666  0.00  0.00    +0.160 C 
ATOM     18  C   LIG    1       25.037 -23.072   6.951  0.00  0.00    +0.177 C 
ATOM     19  C   LIG    1       23.614 -22.491   6.737  0.00  0.00    +0.176 C 
ATOM     20  C   LIG    1       23.497 -21.993   5.281  0.00  0.00    +0.178 C 
ATOM     21  O   LIG    1       24.444 -20.941   5.063  0.00  0.00    -0.341 OA
ATOM     22  C   LIG    1       25.787 -21.392   5.226  0.00  0.00    +0.270 C 
BRANCH  17  25
ATOM     23  C   LIG    1       27.675 -20.135   8.218  0.00  0.00    +0.109 C 
ATOM     24  C   LIG    1       28.261 -21.402   7.641  0.00  0.00    +0.210 C 
ATOM     25  N   LIG    1       27.401 -22.231   6.966  0.00  0.00    -0.305 N 
ATOM     26  H   LIG    1       27.856 -23.003   6.470  0.00  0.00    +0.149 HD
ATOM     27  O   LIG    1       29.440 -21.697   7.808  0.00  0.00    -0.276 OA
ENDBRANCH  17  25
BRANCH  22  28
ATOM     28  O   LIG    1       26.605 -20.275   4.929  0.00  0.00    -0.365 OA
ATOM     29  H   LIG    1       27.488 -20.648   4.780  0.00  0.00    +0.212 HD
ENDBRANCH  22  28
BRANCH  19  30
ATOM     30  O   LIG    1       22.570 -23.402   7.077  0.00  0.00    -0.387 OA
ATOM     31  H   LIG    1       22.305 -23.882   6.268  0.00  0.00    +0.210 HD
ENDBRANCH  19  30
BRANCH  20  32
ATOM     32  C   LIG    1       22.089 -21.478   4.965  0.00  0.00    +0.190 C 
BRANCH  32  33
ATOM     33  O   LIG    1       22.036 -20.056   4.921  0.00  0.00    -0.392 OA
ATOM     34  H   LIG    1       21.355 -19.776   5.571  0.00  0.00    +0.209 HD
ENDBRANCH  32  33
ENDBRANCH  20  32
ENDBRANCH  16  18
ENDBRANCH   2  16
ENDBRANCH   1   5
BRANCH   1  35
ATOM     35  C   LIG    1       25.599 -29.657   7.456  0.00  0.00    +0.274 C 
ATOM     36  C   LIG    1       24.695 -29.571   8.743  0.00  0.00    +0.160 C 
ATOM     37  C   LIG    1       23.531 -30.562   8.553  0.00  0.00    +0.177 C 
ATOM     38  C   LIG    1       24.140 -31.977   8.344  0.00  0.00    +0.176 C 
ATOM     39  C   LIG    1       25.063 -32.063   7.126  0.00  0.00    +0.178 C 
ATOM     40  O   LIG    1       25.967 -30.954   6.989  0.00  0.00    -0.341 OA
BRANCH  36  41
ATOM     41  N   LIG    1       25.376 -29.840  10.032  0.00  0.00    -0.305 N 
ATOM     42  H   LIG    1       24.959 -30.572  10.595  0.00  0.00    +0.149 HD
ATOM     43  C   LIG    1       26.514 -29.258  10.512  0.00  0.00    +0.210 C 
ATOM     44  O   LIG    1       27.117 -28.370   9.923  0.00  0.00    -0.276 OA
ATOM     45  C   LIG    1       26.978 -29.829  11.838  0.00  0.00    +0.109 C 
ENDBRANCH  36  41
BRANCH  38  46
ATOM     46  O   LIG    1       24.907 -32.358   9.502  0.00  0.00    -0.387 OA
ATOM     47  H   LIG    1       24.437 -33.128   9.865  0.00  0.00    +0.210 HD
ENDBRANCH  38  46
BRANCH  39  48
ATOM     48  C   LIG    1       24.230 -32.370   5.859  0.00  0.00    +0.190 C 
BRANCH  48  49
ATOM     49  O   LIG    1       23.284 -31.342   5.541  0.00  0.00    -0.392 OA
ATOM     50  H   LIG    1       23.749 -30.698   4.974  0.00  0.00    +0.209 HD
ENDBRANCH  48  49
ENDBRANCH  39  48
BRANCH  37  51
ATOM     51  O   LIG    1       22.616 -30.635   9.684  0.00  0.00    -0.341 OA
BRANCH  51  52
ATOM     52  C   LIG    1       22.433 -31.921  10.313  0.00  0.00    +0.283 C 
ATOM     53  C   LIG    1       22.649 -31.994  11.834  0.00  0.00    +0.201 C 
ATOM     54  C   LIG    1       21.573 -31.133  12.521  0.00  0.00    +0.179 C 
ATOM     55  C   LIG    1       20.233 -31.829  12.345  0.00  0.00    +0.185 C 
ATOM     56  C   LIG    1       20.016 -32.266  10.864  0.00  0.00    +0.260 C 
ATOM     57  O   LIG    1       21.141 -32.471   9.992  0.00  0.00    -0.332 OA
BRANCH  56  58
ATOM     58  C   LIG    1       18.989 -31.348  10.202  0.00  0.00    +0.337 C 
ATOM     59  O   LIG    1       17.874 -31.664   9.812  0.00  0.00    -0.248 OA
BRANCH  58  60
ATOM     60  O   LIG    1       19.451 -30.102   9.967  0.00  0.00    -0.479 OA
ATOM     61  H   LIG    1       20.167 -29.970  10.620  0.00  0.00    +0.295 HD
ENDBRANCH  58  60
ENDBRANCH  56  58
BRANCH  55  62
ATOM     62  O   LIG    1       20.218 -32.951  13.260  0.00  0.00    -0.386 OA
ATOM     63  H   LIG    1       19.898 -33.733  12.772  0.00  0.00    +0.210 HD
ENDBRANCH  55  62
BRANCH  54  64
ATOM     64  O   LIG    1       21.496 -29.797  12.027  0.00  0.00    -0.386 OA
ATOM     65  H   LIG    1       20.719 -29.371  12.436  0.00  0.00    +0.210 HD
ENDBRANCH  54  64
BRANCH  53  66
ATOM     66  O   LIG    1       22.603 -33.373  12.262  0.00  0.00    -0.384 OA
ATOM     67  H   LIG    1       22.147 -33.903  11.571  0.00  0.00    +0.210 HD
ENDBRANCH  53  66
ENDBRANCH  51  52
ENDBRANCH  37  51
ENDBRANCH   1  35
TORSDOF 24
ENDMDL
MODEL 3
REMARK VINA RESULT:      -2.9      2.004      9.541
REMARK  Name = *****
REMARK                            x       y       z     vdW  Elec       q    Type
REMARK                         _______ _______ _______ _____ _____    ______ ____
ROOT
ATOM      1  O   LIG    1       24.893 -27.555   7.666  0.00  0.00    -0.340 OA
ENDROOT
BRANCH   1   5
ATOM      2  C   LIG    1       25.403 -29.703  10.430  0.00  0.00    +0.283 C 
ATOM      3  C   LIG    1       26.530 -29.302   9.455  0.00  0.00    +0.201 C 
ATOM      4  C   LIG    1       26.235 -29.569   7.975  0.00  0.00    +0.180 C 
ATOM      5  C   LIG    1       24.813 -29.030   7.631  0.00  0.00    +0.192 C 
ATOM      6  C   LIG    1       23.785 -29.565   8.658  0.00  0.00    +0.261 C 
ATOM      7  O   LIG    1       24.138 -29.197  10.000  0.00  0.00    -0.332 OA
BRANCH   6   8
ATOM      8  C   LIG    1       23.401 -31.051   8.439  0.00  0.00    +0.337 C 
ATOM      9  O   LIG    1       23.701 -31.743   7.533  0.00  0.00    -0.248 OA
BRANCH   8  10
ATOM     10  O   LIG    1       22.700 -31.552   9.487  0.00  0.00    -0.479 OA
ATOM     11  H   LIG    1       22.214 -32.395   9.340  0.00  0.00    +0.295 HD
ENDBRANCH   8  10
ENDBRANCH   6   8
BRANCH   4  12
ATOM     12  O   LIG    1       26.412 -30.926   7.606  0.00  0.00    -0.386 OA
ATOM     13  H   LIG    1       27.016 -31.366   8.230  0.00  0.00    +0.210 HD
ENDBRANCH   4  12
BRANCH   3  14
ATOM     14  O   LIG    1       26.665 -27.862   9.575  0.00  0.00    -0.384 OA
ATOM     15  H   LIG    1       27.136 -27.574   8.761  0.00  0.00    +0.210 HD
ENDBRANCH   3  14
BRANCH   2  16
ATOM     16  O   LIG    1       25.306 -31.069  10.815  0.00  0.00    -0.341 OA
BRANCH  16  18
ATOM     17  C   LIG    1       25.314 -30.164  13.088  0.00  0.00    +0.160 C 
ATOM     18  C   LIG    1       25.785 -31.304  12.166  0.00  0.00    +0.177 C 
ATOM     19  C   LIG    1       25.241 -32.613  12.798  0.00  0.00    +0.176 C 
ATOM     20  C   LIG    1       23.701 -32.528  12.859  0.00  0.00    +0.178 C 
ATOM     21  O   LIG    1       23.319 -31.435  13.702  0.00  0.00    -0.341 OA
ATOM     22  C   LIG    1       23.770 -30.184  13.187  0.00  0.00    +0.270 C 
BRANCH  17  25
ATOM     23  C   LIG    1       27.017 -28.692  14.897  0.00  0.00    +0.109 C 
ATOM     24  C   LIG    1       26.624 -28.085  13.572  0.00  0.00    +0.210 C 
ATOM     25  N   LIG    1       25.863 -28.862  12.735  0.00  0.00    -0.305 N 
ATOM     26  H   LIG    1       25.498 -28.371  11.914  0.00  0.00    +0.149 HD
ATOM     27  O   LIG    1       27.005 -26.966  13.240  0.00  0.00    -0.276 OA
ENDBRANCH  17  25
BRANCH  22  28
ATOM     28  O   LIG    1       23.278 -29.202  14.082  0.00  0.00    -0.365 OA
ATOM     29  H   LIG    1       23.692 -28.374  13.791  0.00  0.00    +0.212 HD
ENDBRANCH  22  28
BRANCH  19  30
ATOM     30  O   LIG    1       25.686 -33.794  12.134  0.00  0.00    -0.387 OA
ATOM     31  H   LIG    1       24.925 -34.189  11.665  0.00  0.00    +0.210 HD
ENDBRANCH  19  30
BRANCH  20  32
ATOM     32  C   LIG    1       23.079 -33.822  13.398  0.00  0.00    +0.190 C 
BRANCH  32  33
ATOM     33  O   LIG    1       22.879 -33.773  14.806  0.00  0.00    -0.392 OA
ATOM     34  H   LIG    1       22.165 -34.415  15.014  0.00  0.00    +0.209 HD
ENDBRANCH  32  33
ENDBRANCH  20  32
ENDBRANCH  16  18
ENDBRANCH   2  16
ENDBRANCH   1   5
BRANCH   1  35
ATOM     35  C   LIG    1       24.163 -26.854   6.631  0.00  0.00    +0.274 C 
ATOM     36  C   LIG    1       24.413 -25.302   6.734  0.00  0.00    +0.160 C 
ATOM     37  C   LIG    1       25.790 -25.017   6.104  0.00  0.00    +0.177 C 
ATOM     38  C   LIG    1       25.755 -25.521   4.635  0.00  0.00    +0.176 C 
ATOM     39  C   LIG    1       25.460 -27.019   4.517  0.00  0.00    +0.178 C 
ATOM     40  O   LIG    1       24.405 -27.484   5.375  0.00  0.00    -0.341 OA
BRANCH  36  41
ATOM     41  N   LIG    1       23.387 -24.437   6.104  0.00  0.00    -0.305 N 
ATOM     42  H   LIG    1       23.144 -24.681   5.151  0.00  0.00    +0.149 HD
ATOM     43  C   LIG    1       22.706 -23.400   6.673  0.00  0.00    +0.210 C 
ATOM     44  O   LIG    1       22.900 -23.014   7.819  0.00  0.00    -0.276 OA
ATOM     45  C   LIG    1       21.666 -22.778   5.760  0.00  0.00    +0.109 C 
ENDBRANCH  36  41
BRANCH  38  46
ATOM     46  O   LIG    1       24.738 -24.816   3.897  0.00  0.00    -0.387 OA
ATOM     47  H   LIG    1       25.072 -24.788   2.984  0.00  0.00    +0.210 HD
ENDBRANCH  38  46
BRANCH  39  48
ATOM     48  C   LIG    1       26.778 -27.821   4.630  0.00  0.00    +0.190 C 
BRANCH  48  49
ATOM     49  O   LIG    1       27.841 -27.082   5.244  0.00  0.00    -0.392 OA
ATOM     50  H   LIG    1       27.496 -26.185   5.416  0.00  0.00    +0.209 HD
ENDBRANCH  48  49
ENDBRANCH  39  48
BRANCH  37  51
ATOM     51  O   LIG    1       26.158 -23.608   6.082  0.00  0.00    -0.341 OA
BRANCH  51  52
ATOM     52  C   LIG    1       25.669 -22.772   7.152  0.00  0.00    +0.283 C 
ATOM     53  C   LIG    1       26.617 -22.524   8.337  0.00  0.00    +0.201 C 
ATOM     54  C   LIG    1       27.835 -21.730   7.829  0.00  0.00    +0.179 C 
ATOM     55  C   LIG    1       27.367 -20.326   7.481  0.00  0.00    +0.185 C 
ATOM     56  C   LIG    1       26.075 -20.363   6.609  0.00  0.00    +0.260 C 
ATOM     57  O   LIG    1       25.204 -21.507   6.645  0.00  0.00    -0.332 OA
BRANCH  56  58
ATOM     58  C   LIG    1       26.418 -19.999   5.165  0.00  0.00    +0.337 C 
ATOM     59  O   LIG    1       25.629 -19.856   4.242  0.00  0.00    -0.248 OA
BRANCH  58  60
ATOM     60  O   LIG    1       27.745 -19.935   4.926  0.00  0.00    -0.479 OA
ATOM     61  H   LIG    1       27.827 -19.961   3.951  0.00  0.00    +0.295 HD
ENDBRANCH  58  60
ENDBRANCH  56  58
BRANCH  55  62
ATOM     62  O   LIG    1       27.170 -19.627   8.733  0.00  0.00    -0.386 OA
ATOM     63  H   LIG    1       26.625 -20.193   9.311  0.00  0.00    +0.210 HD
ENDBRANCH  55  62
BRANCH  54  64
ATOM     64  O   LIG    1       28.483 -22.320   6.703  0.00  0.00    -0.386 OA
ATOM     65  H   LIG    1       28.527 -23.284   6.854  0.00  0.00    +0.210 HD
ENDBRANCH  54  64
BRANCH  53  66
ATOM     66  O   LIG    1       25.907 -21.827   9.384  0.00  0.00    -0.384 OA
ATOM     67  H   LIG    1       25.235 -22.433   9.768  0.00  0.00    +0.210 HD
ENDBRANCH  53  66
ENDBRANCH  51  52
ENDBRANCH  37  51
ENDBRANCH   1  35
TORSDOF 24
ENDMDL
MODEL 4
REMARK VINA RESULT:      -2.7      0.991      1.465
REMARK  Name = *****
REMARK                            x       y       z     vdW  Elec       q    Type
REMARK                         _______ _______ _______ _____ _____    ______ ____
ROOT
ATOM      1  O   LIG    1       25.069 -29.022   6.588  0.00  0.00    -0.340 OA
ENDROOT
BRANCH   1   5
ATOM      2  C   LIG    1       24.697 -25.505   6.658  0.00  0.00    +0.283 C 
ATOM      3  C   LIG    1       23.958 -26.410   5.649  0.00  0.00    +0.201 C 
ATOM      4  C   LIG    1       24.860 -27.341   4.831  0.00  0.00    +0.180 C 
ATOM      5  C   LIG    1       25.858 -28.060   5.789  0.00  0.00    +0.192 C 
ATOM      6  C   LIG    1       26.562 -27.019   6.693  0.00  0.00    +0.261 C 
ATOM      7  O   LIG    1       25.616 -26.253   7.454  0.00  0.00    -0.332 OA
BRANCH   6   8
ATOM      8  C   LIG    1       27.666 -26.208   5.965  0.00  0.00    +0.337 C 
ATOM      9  O   LIG    1       27.950 -25.076   6.130  0.00  0.00    -0.248 OA
BRANCH   8  10
ATOM     10  O   LIG    1       28.382 -26.982   5.111  0.00  0.00    -0.479 OA
ATOM     11  H   LIG    1       29.138 -26.555   4.646  0.00  0.00    +0.295 HD
ENDBRANCH   8  10
ENDBRANCH   6   8
BRANCH   4  12
ATOM     12  O   LIG    1       25.508 -26.687   3.754  0.00  0.00    -0.386 OA
ATOM     13  H   LIG    1       25.940 -27.342   3.177  0.00  0.00    +0.210 HD
ENDBRANCH   4  12
BRANCH   3  14
ATOM     14  O   LIG    1       23.112 -27.281   6.444  0.00  0.00    -0.384 OA
ATOM     15  H   LIG    1       23.683 -27.602   7.178  0.00  0.00    +0.210 HD
ENDBRANCH   3  14
BRANCH   2  16
ATOM     16  O   LIG    1       25.293 -24.309   6.170  0.00  0.00    -0.341 OA
BRANCH  16  18
ATOM     17  C   LIG    1       25.970 -22.012   6.675  0.00  0.00    +0.160 C 
ATOM     18  C   LIG    1       24.990 -23.155   6.999  0.00  0.00    +0.177 C 
ATOM     19  C   LIG    1       23.570 -22.576   6.761  0.00  0.00    +0.176 C 
ATOM     20  C   LIG    1       23.458 -22.132   5.288  0.00  0.00    +0.178 C 
ATOM     21  O   LIG    1       24.410 -21.093   5.033  0.00  0.00    -0.341 OA
ATOM     22  C   LIG    1       25.751 -21.543   5.216  0.00  0.00    +0.270 C 
BRANCH  17  25
ATOM     23  C   LIG    1       27.658 -20.155   8.104  0.00  0.00    +0.109 C 
ATOM     24  C   LIG    1       28.228 -21.462   7.607  0.00  0.00    +0.210 C 
ATOM     25  N   LIG    1       27.358 -22.324   6.989  0.00  0.00    -0.305 N 
ATOM     26  H   LIG    1       27.803 -23.130   6.541  0.00  0.00    +0.149 HD
ATOM     27  O   LIG    1       29.406 -21.758   7.788  0.00  0.00    -0.276 OA
ENDBRANCH  17  25
BRANCH  22  28
ATOM     28  O   LIG    1       26.574 -20.441   4.879  0.00  0.00    -0.365 OA
ATOM     29  H   LIG    1       26.182 -19.688   5.348  0.00  0.00    +0.212 HD
ENDBRANCH  22  28
BRANCH  19  30
ATOM     30  O   LIG    1       22.521 -23.470   7.132  0.00  0.00    -0.387 OA
ATOM     31  H   LIG    1       21.761 -22.941   7.440  0.00  0.00    +0.210 HD
ENDBRANCH  19  30
BRANCH  20  32
ATOM     32  C   LIG    1       22.052 -21.623   4.950  0.00  0.00    +0.190 C 
BRANCH  32  33
ATOM     33  O   LIG    1       21.995 -20.201   4.903  0.00  0.00    -0.392 OA
ATOM     34  H   LIG    1       21.584 -19.962   4.044  0.00  0.00    +0.209 HD
ENDBRANCH  32  33
ENDBRANCH  20  32
ENDBRANCH  16  18
ENDBRANCH   2  16
ENDBRANCH   1   5
BRANCH   1  35
ATOM     35  C   LIG    1       25.797 -29.753   7.603  0.00  0.00    +0.274 C 
ATOM     36  C   LIG    1       24.891 -29.986   8.871  0.00  0.00    +0.160 C 
ATOM     37  C   LIG    1       23.946 -31.160   8.549  0.00  0.00    +0.177 C 
ATOM     38  C   LIG    1       24.824 -32.396   8.206  0.00  0.00    +0.176 C 
ATOM     39  C   LIG    1       25.748 -32.166   7.007  0.00  0.00    +0.178 C 
ATOM     40  O   LIG    1       26.415 -30.893   7.010  0.00  0.00    -0.341 OA
BRANCH  36  41
ATOM     41  N   LIG    1       25.609 -30.255  10.139  0.00  0.00    -0.305 N 
ATOM     42  H   LIG    1       25.514 -31.198  10.498  0.00  0.00    +0.149 HD
ATOM     43  C   LIG    1       26.414 -29.403  10.840  0.00  0.00    +0.210 C 
ATOM     44  O   LIG    1       26.617 -28.242  10.507  0.00  0.00    -0.276 OA
ATOM     45  C   LIG    1       27.054 -30.034  12.062  0.00  0.00    +0.109 C 
ENDBRANCH  36  41
BRANCH  38  46
ATOM     46  O   LIG    1       25.649 -32.743   9.334  0.00  0.00    -0.387 OA
ATOM     47  H   LIG    1       26.202 -33.478   9.018  0.00  0.00    +0.210 HD
ENDBRANCH  38  46
BRANCH  39  48
ATOM     48  C   LIG    1       24.995 -32.491   5.696  0.00  0.00    +0.190 C 
BRANCH  48  49
ATOM     49  O   LIG    1       25.093 -31.452   4.714  0.00  0.00    -0.392 OA
ATOM     50  H   LIG    1       26.028 -31.173   4.692  0.00  0.00    +0.209 HD
ENDBRANCH  48  49
ENDBRANCH  39  48
BRANCH  37  51
ATOM     51  O   LIG    1       23.061 -31.535   9.644  0.00  0.00    -0.341 OA
BRANCH  51  52
ATOM     52  C   LIG    1       22.079 -30.567  10.070  0.00  0.00    +0.283 C 
ATOM     53  C   LIG    1       20.681 -31.098  10.429  0.00  0.00    +0.201 C 
ATOM     54  C   LIG    1       20.809 -32.006  11.667  0.00  0.00    +0.179 C 
ATOM     55  C   LIG    1       21.145 -31.126  12.861  0.00  0.00    +0.185 C 
ATOM     56  C   LIG    1       22.306 -30.142  12.526  0.00  0.00    +0.260 C 
ATOM     57  O   LIG    1       22.579 -29.773  11.162  0.00  0.00    -0.332 OA
BRANCH  56  58
ATOM     58  C   LIG    1       23.587 -30.603  13.220  0.00  0.00    +0.337 C 
ATOM     59  O   LIG    1       24.135 -30.063  14.171  0.00  0.00    -0.248 OA
BRANCH  58  60
ATOM     60  O   LIG    1       24.176 -31.659  12.621  0.00  0.00    -0.479 OA
ATOM     61  H   LIG    1       23.460 -32.095  12.117  0.00  0.00    +0.295 HD
ENDBRANCH  58  60
ENDBRANCH  56  58
BRANCH  55  62
ATOM     62  O   LIG    1       19.926 -30.438  13.231  0.00  0.00    -0.386 OA
ATOM     63  H   LIG    1       20.016 -30.146  14.158  0.00  0.00    +0.210 HD
ENDBRANCH  55  62
BRANCH  54  64
ATOM     64  O   LIG    1       21.786 -33.037  11.532  0.00  0.00    -0.386 OA
ATOM     65  H   LIG    1       21.342 -33.822  11.160  0.00  0.00    +0.210 HD
ENDBRANCH  54  64
BRANCH  53  66
ATOM     66  O   LIG    1       19.786 -29.987  10.654  0.00  0.00    -0.384 OA
ATOM     67  H   LIG    1       19.939 -29.311   9.958  0.00  0.00    +0.210 HD
ENDBRANCH  53  66
ENDBRANCH  51  52
ENDBRANCH  37  51
ENDBRANCH   1  35
TORSDOF 24
ENDMDL
MODEL 5
REMARK VINA RESULT:      -2.4      1.890      9.188
REMARK  Name = *****
REMARK                            x       y       z     vdW  Elec       q    Type
REMARK                         _______ _______ _______ _____ _____    ______ ____
ROOT
ATOM      1  O   LIG    1       24.884 -27.655   7.641  0.00  0.00    -0.340 OA
ENDROOT
BRANCH   1   5
ATOM      2  C   LIG    1       25.173 -29.928  10.336  0.00  0.00    +0.283 C 
ATOM      3  C   LIG    1       26.386 -29.419   9.530  0.00  0.00    +0.201 C 
ATOM      4  C   LIG    1       26.287 -29.616   8.013  0.00  0.00    +0.180 C 
ATOM      5  C   LIG    1       24.889 -29.128   7.523  0.00  0.00    +0.192 C 
ATOM      6  C   LIG    1       23.776 -29.768   8.387  0.00  0.00    +0.261 C 
ATOM      7  O   LIG    1       23.944 -29.460   9.780  0.00  0.00    -0.332 OA
BRANCH   6   8
ATOM      8  C   LIG    1       23.503 -31.257   8.048  0.00  0.00    +0.337 C 
ATOM      9  O   LIG    1       23.954 -31.884   7.158  0.00  0.00    -0.248 OA
BRANCH   8  10
ATOM     10  O   LIG    1       22.701 -31.847   8.971  0.00  0.00    -0.479 OA
ATOM     11  H   LIG    1       22.449 -32.785   8.811  0.00  0.00    +0.295 HD
ENDBRANCH   8  10
ENDBRANCH   6   8
BRANCH   4  12
ATOM     12  O   LIG    1       26.582 -30.940   7.601  0.00  0.00    -0.386 OA
ATOM     13  H   LIG    1       26.173 -31.119   6.735  0.00  0.00    +0.210 HD
ENDBRANCH   4  12
BRANCH   3  14
ATOM     14  O   LIG    1       26.426 -27.983   9.737  0.00  0.00    -0.384 OA
ATOM     15  H   LIG    1       26.646 -27.861  10.688  0.00  0.00    +0.210 HD
ENDBRANCH   3  14
BRANCH   2  16
ATOM     16  O   LIG    1       25.106 -31.317  10.638  0.00  0.00    -0.341 OA
BRANCH  16  18
ATOM     17  C   LIG    1       25.464 -30.366  12.864  0.00  0.00    +0.160 C 
ATOM     18  C   LIG    1       24.947 -31.573  12.059  0.00  0.00    +0.177 C 
ATOM     19  C   LIG    1       23.470 -31.770  12.493  0.00  0.00    +0.176 C 
ATOM     20  C   LIG    1       22.682 -30.485  12.161  0.00  0.00    +0.178 C 
ATOM     21  O   LIG    1       23.223 -29.391  12.911  0.00  0.00    -0.341 OA
ATOM     22  C   LIG    1       24.582 -29.129  12.565  0.00  0.00    +0.270 C 
BRANCH  17  25
ATOM     23  C   LIG    1       27.308 -30.606  15.074  0.00  0.00    +0.109 C 
ATOM     24  C   LIG    1       27.808 -30.157  13.721  0.00  0.00    +0.210 C 
ATOM     25  N   LIG    1       26.891 -30.122  12.702  0.00  0.00    -0.305 N 
ATOM     26  H   LIG    1       27.228 -29.681  11.841  0.00  0.00    +0.149 HD
ATOM     27  O   LIG    1       28.988 -29.880  13.534  0.00  0.00    -0.276 OA
ENDBRANCH  17  25
BRANCH  22  28
ATOM     28  O   LIG    1       24.963 -28.002  13.333  0.00  0.00    -0.365 OA
ATOM     29  H   LIG    1       25.903 -27.875  13.134  0.00  0.00    +0.212 HD
ENDBRANCH  22  28
BRANCH  19  30
ATOM     30  O   LIG    1       22.861 -32.931  11.929  0.00  0.00    -0.387 OA
ATOM     31  H   LIG    1       23.080 -32.962  10.978  0.00  0.00    +0.210 HD
ENDBRANCH  19  30
BRANCH  20  32
ATOM     32  C   LIG    1       21.191 -30.630  12.485  0.00  0.00    +0.190 C 
BRANCH  32  33
ATOM     33  O   LIG    1       20.440 -29.495  12.067  0.00  0.00    -0.392 OA
ATOM     34  H   LIG    1       19.593 -29.516  12.564  0.00  0.00    +0.209 HD
ENDBRANCH  32  33
ENDBRANCH  20  32
ENDBRANCH  16  18
ENDBRANCH   2  16
ENDBRANCH   1   5
BRANCH   1  35
ATOM     35  C   LIG    1       24.174 -26.937   6.605  0.00  0.00    +0.274 C 
ATOM     36  C   LIG    1       24.433 -25.388   6.729  0.00  0.00    +0.160 C 
ATOM     37  C   LIG    1       25.821 -25.106   6.122  0.00  0.00    +0.177 C 
ATOM     38  C   LIG    1       25.804 -25.593   4.647  0.00  0.00    +0.176 C 
ATOM     39  C   LIG    1       25.500 -27.087   4.507  0.00  0.00    +0.178 C 
ATOM     40  O   LIG    1       24.430 -27.554   5.345  0.00  0.00    -0.341 OA
BRANCH  36  41
ATOM     41  N   LIG    1       23.423 -24.509   6.094  0.00  0.00    -0.305 N 
ATOM     42  H   LIG    1       23.207 -24.726   5.128  0.00  0.00    +0.149 HD
ATOM     43  C   LIG    1       22.722 -23.489   6.672  0.00  0.00    +0.210 C 
ATOM     44  O   LIG    1       22.883 -23.135   7.834  0.00  0.00    -0.276 OA
ATOM     45  C   LIG    1       21.707 -22.845   5.748  0.00  0.00    +0.109 C 
ENDBRANCH  36  41
BRANCH  38  46
ATOM     46  O   LIG    1       24.803 -24.872   3.903  0.00  0.00    -0.387 OA
ATOM     47  H   LIG    1       24.297 -24.387   4.577  0.00  0.00    +0.210 HD
ENDBRANCH  38  46
BRANCH  39  48
ATOM     48  C   LIG    1       26.810 -27.901   4.630  0.00  0.00    +0.190 C 
BRANCH  48  49
ATOM     49  O   LIG    1       27.936 -27.105   5.021  0.00  0.00    -0.392 OA
ATOM     50  H   LIG    1       28.295 -26.707   4.205  0.00  0.00    +0.209 HD
ENDBRANCH  48  49
ENDBRANCH  39  48
BRANCH  37  51
ATOM     51  O   LIG    1       26.200 -23.699   6.121  0.00  0.00    -0.341 OA
BRANCH  51  52
ATOM     52  C   LIG    1       25.686 -22.868   7.183  0.00  0.00    +0.283 C 
ATOM     53  C   LIG    1       26.625 -22.584   8.368  0.00  0.00    +0.201 C 
ATOM     54  C   LIG    1       27.821 -21.761   7.854  0.00  0.00    +0.179 C 
ATOM     55  C   LIG    1       27.315 -20.373   7.493  0.00  0.00    +0.185 C 
ATOM     56  C   LIG    1       26.026 -20.454   6.619  0.00  0.00    +0.260 C 
ATOM     57  O   LIG    1       25.187 -21.621   6.665  0.00  0.00    -0.332 OA
BRANCH  56  58
ATOM     58  C   LIG    1       26.361 -20.093   5.173  0.00  0.00    +0.337 C 
ATOM     59  O   LIG    1       25.572 -20.003   4.243  0.00  0.00    -0.248 OA
BRANCH  58  60
ATOM     60  O   LIG    1       27.684 -19.966   4.941  0.00  0.00    -0.479 OA
ATOM     61  H   LIG    1       28.017 -20.883   4.867  0.00  0.00    +0.295 HD
ENDBRANCH  58  60
ENDBRANCH  56  58
BRANCH  55  62
ATOM     62  O   LIG    1       27.096 -19.669   8.738  0.00  0.00    -0.386 OA
ATOM     63  H   LIG    1       26.943 -18.728   8.528  0.00  0.00    +0.210 HD
ENDBRANCH  55  62
BRANCH  54  64
ATOM     64  O   LIG    1       28.487 -22.342   6.735  0.00  0.00    -0.386 OA
ATOM     65  H   LIG    1       29.415 -22.504   6.990  0.00  0.00    +0.210 HD
ENDBRANCH  54  64
BRANCH  53  66
ATOM     66  O   LIG    1       25.894 -21.898   9.408  0.00  0.00    -0.384 OA
ATOM     67  H   LIG    1       26.483 -21.227   9.819  0.00  0.00    +0.210 HD
ENDBRANCH  53  66
ENDBRANCH  51  52
ENDBRANCH  37  51
ENDBRANCH   1  35
TORSDOF 24
ENDMDL
MODEL 6
REMARK VINA RESULT:      -1.6      1.858      3.612
REMARK  Name = *****
REMARK                            x       y       z     vdW  Elec       q    Type
REMARK                         _______ _______ _______ _____ _____    ______ ____
ROOT
ATOM      1  O   LIG    1       24.807 -28.698   6.969  0.00  0.00    -0.340 OA
ENDROOT
BRANCH   1   5
ATOM      2  C   LIG    1       24.633 -25.171   6.766  0.00  0.00    +0.283 C 
ATOM      3  C   LIG    1       23.862 -26.108   5.813  0.00  0.00    +0.201 C 
ATOM      4  C   LIG    1       24.724 -27.147   5.087  0.00  0.00    +0.180 C 
ATOM      5  C   LIG    1       25.663 -27.844   6.118  0.00  0.00    +0.192 C 
ATOM      6  C   LIG    1       26.409 -26.778   6.955  0.00  0.00    +0.261 C 
ATOM      7  O   LIG    1       25.495 -25.905   7.636  0.00  0.00    -0.332 OA
BRANCH   6   8
ATOM      8  C   LIG    1       27.569 -26.086   6.192  0.00  0.00    +0.337 C 
ATOM      9  O   LIG    1       27.956 -24.981   6.325  0.00  0.00    -0.248 OA
BRANCH   8  10
ATOM     10  O   LIG    1       28.200 -26.942   5.349  0.00  0.00    -0.479 OA
ATOM     11  H   LIG    1       29.144 -27.146   5.541  0.00  0.00    +0.295 HD
ENDBRANCH   8  10
ENDBRANCH   6   8
BRANCH   4  12
ATOM     12  O   LIG    1       25.426 -26.614   3.977  0.00  0.00    -0.386 OA
ATOM     13  H   LIG    1       25.706 -25.701   4.167  0.00  0.00    +0.210 HD
ENDBRANCH   4  12
BRANCH   3  14
ATOM     14  O   LIG    1       22.955 -26.868   6.653  0.00  0.00    -0.384 OA
ATOM     15  H   LIG    1       22.060 -26.505   6.467  0.00  0.00    +0.210 HD
ENDBRANCH   3  14
BRANCH   2  16
ATOM     16  O   LIG    1       25.305 -24.050   6.202  0.00  0.00    -0.341 OA
BRANCH  16  18
ATOM     17  C   LIG    1       26.119 -21.766   6.529  0.00  0.00    +0.160 C 
ATOM     18  C   LIG    1       25.099 -22.832   6.968  0.00  0.00    +0.177 C 
ATOM     19  C   LIG    1       23.701 -22.194   6.754  0.00  0.00    +0.176 C 
ATOM     20  C   LIG    1       23.544 -21.836   5.261  0.00  0.00    +0.178 C 
ATOM     21  O   LIG    1       24.535 -20.867   4.899  0.00  0.00    -0.341 OA
ATOM     22  C   LIG    1       25.858 -21.377   5.054  0.00  0.00    +0.270 C 
BRANCH  17  25
ATOM     23  C   LIG    1       27.891 -20.019   7.995  0.00  0.00    +0.109 C 
ATOM     24  C   LIG    1       28.411 -21.322   7.437  0.00  0.00    +0.210 C 
ATOM     25  N   LIG    1       27.503 -22.131   6.803  0.00  0.00    -0.305 N 
ATOM     26  H   LIG    1       27.914 -22.933   6.316  0.00  0.00    +0.149 HD
ATOM     27  O   LIG    1       29.582 -21.660   7.583  0.00  0.00    -0.276 OA
ENDBRANCH  17  25
BRANCH  22  28
ATOM     28  O   LIG    1       26.720 -20.343   4.612  0.00  0.00    -0.365 OA
ATOM     29  H   LIG    1       26.174 -19.542   4.628  0.00  0.00    +0.212 HD
ENDBRANCH  22  28
BRANCH  19  30
ATOM     30  O   LIG    1       22.626 -23.005   7.225  0.00  0.00    -0.387 OA
ATOM     31  H   LIG    1       22.587 -22.929   8.198  0.00  0.00    +0.210 HD
ENDBRANCH  19  30
BRANCH  20  32
ATOM     32  C   LIG    1       22.152 -21.274   4.951  0.00  0.00    +0.190 C 
BRANCH  32  33
ATOM     33  O   LIG    1       22.144 -19.851   4.921  0.00  0.00    -0.392 OA
ATOM     34  H   LIG    1       22.625 -19.547   5.723  0.00  0.00    +0.209 HD
ENDBRANCH  32  33
ENDBRANCH  20  32
ENDBRANCH  16  18
ENDBRANCH   2  16
ENDBRANCH   1   5
BRANCH   1  35
ATOM     35  C   LIG    1       25.147 -30.104   7.005  0.00  0.00    +0.274 C 
ATOM     36  C   LIG    1       26.393 -30.347   7.938  0.00  0.00    +0.160 C 
ATOM     37  C   LIG    1       25.887 -30.321   9.394  0.00  0.00    +0.177 C 
ATOM     38  C   LIG    1       24.806 -31.427   9.541  0.00  0.00    +0.176 C 
ATOM     39  C   LIG    1       23.612 -31.233   8.602  0.00  0.00    +0.178 C 
ATOM     40  O   LIG    1       23.969 -30.866   7.259  0.00  0.00    -0.341 OA
BRANCH  36  41
ATOM     41  N   LIG    1       27.151 -31.597   7.695  0.00  0.00    -0.305 N 
ATOM     42  H   LIG    1       27.676 -31.945   8.488  0.00  0.00    +0.149 HD
ATOM     43  C   LIG    1       27.179 -32.348   6.554  0.00  0.00    +0.210 C 
ATOM     44  O   LIG    1       26.581 -32.040   5.530  0.00  0.00    -0.276 OA
ATOM     45  C   LIG    1       28.003 -33.614   6.677  0.00  0.00    +0.109 C 
ENDBRANCH  36  41
BRANCH  38  46
ATOM     46  O   LIG    1       25.379 -32.717   9.258  0.00  0.00    -0.387 OA
ATOM     47  H   LIG    1       25.029 -33.300   9.954  0.00  0.00    +0.210 HD
ENDBRANCH  38  46
BRANCH  39  48
ATOM     48  C   LIG    1       22.571 -30.300   9.265  0.00  0.00    +0.190 C 
BRANCH  48  49
ATOM     49  O   LIG    1       21.506 -31.008   9.910  0.00  0.00    -0.392 OA
ATOM     50  H   LIG    1       20.682 -30.530   9.698  0.00  0.00    +0.209 HD
ENDBRANCH  48  49
ENDBRANCH  39  48
BRANCH  37  51
ATOM     51  O   LIG    1       26.919 -30.573  10.391  0.00  0.00    -0.341 OA
BRANCH  51  52
ATOM     52  C   LIG    1       27.550 -29.429  11.004  0.00  0.00    +0.283 C 
ATOM     53  C   LIG    1       26.653 -28.219  11.316  0.00  0.00    +0.201 C 
ATOM     54  C   LIG    1       25.623 -28.638  12.381  0.00  0.00    +0.179 C 
ATOM     55  C   LIG    1       26.363 -28.849  13.692  0.00  0.00    +0.185 C 
ATOM     56  C   LIG    1       27.633 -29.728  13.487  0.00  0.00    +0.260 C 
ATOM     57  O   LIG    1       28.261 -29.811  12.196  0.00  0.00    -0.332 OA
BRANCH  56  58
ATOM     58  C   LIG    1       27.388 -31.126  14.052  0.00  0.00    +0.337 C 
ATOM     59  O   LIG    1       27.997 -31.659  14.969  0.00  0.00    -0.248 OA
BRANCH  58  60
ATOM     60  O   LIG    1       26.460 -31.829  13.370  0.00  0.00    -0.479 OA
ATOM     61  H   LIG    1       25.728 -31.965  14.004  0.00  0.00    +0.295 HD
ENDBRANCH  58  60
ENDBRANCH  56  58
BRANCH  55  62
ATOM     62  O   LIG    1       26.677 -27.535  14.213  0.00  0.00    -0.386 OA
ATOM     63  H   LIG    1       26.053 -27.342  14.938  0.00  0.00    +0.210 HD
ENDBRANCH  55  62
BRANCH  54  64
ATOM     64  O   LIG    1       24.886 -29.812  12.044  0.00  0.00    -0.386 OA
ATOM     65  H   LIG    1       23.947 -29.647  12.254  0.00  0.00    +0.210 HD
ENDBRANCH  54  64
BRANCH  53  66
ATOM     66  O   LIG    1       27.473 -27.112  11.753  0.00  0.00    -0.384 OA
ATOM     67  H   LIG    1       28.027 -27.408  12.508  0.00  0.00    +0.210 HD
ENDBRANCH  53  66
ENDBRANCH  51  52
ENDBRANCH  37  51
ENDBRANCH   1  35
TORSDOF 24
ENDMDL
MODEL 7
REMARK VINA RESULT:      -1.1      1.754      3.081
REMARK  Name = *****
REMARK                            x       y       z     vdW  Elec       q    Type
REMARK                         _______ _______ _______ _____ _____    ______ ____
ROOT
ATOM      1  O   LIG    1       25.797 -27.007   7.521  0.00  0.00    -0.340 OA
ENDROOT
BRANCH   1   5
ATOM      2  C   LIG    1       26.147 -23.594   6.660  0.00  0.00    +0.283 C 
ATOM      3  C   LIG    1       25.110 -24.103   7.684  0.00  0.00    +0.201 C 
ATOM      4  C   LIG    1       24.183 -25.211   7.173  0.00  0.00    +0.180 C 
ATOM      5  C   LIG    1       25.036 -26.307   6.465  0.00  0.00    +0.192 C 
ATOM      6  C   LIG    1       25.981 -25.651   5.429  0.00  0.00    +0.261 C 
ATOM      7  O   LIG    1       26.841 -24.677   6.040  0.00  0.00    -0.332 OA
BRANCH   6   8
ATOM      8  C   LIG    1       25.264 -25.205   4.127  0.00  0.00    +0.337 C 
ATOM      9  O   LIG    1       24.581 -24.257   3.974  0.00  0.00    -0.248 OA
BRANCH   8  10
ATOM     10  O   LIG    1       25.569 -26.013   3.081  0.00  0.00    -0.479 OA
ATOM     11  H   LIG    1       26.522 -26.109   2.851  0.00  0.00    +0.295 HD
ENDBRANCH   8  10
ENDBRANCH   6   8
BRANCH   4  12
ATOM     12  O   LIG    1       23.127 -24.727   6.360  0.00  0.00    -0.386 OA
ATOM     13  H   LIG    1       22.813 -23.869   6.697  0.00  0.00    +0.210 HD
ENDBRANCH   4  12
BRANCH   3  14
ATOM     14  O   LIG    1       25.876 -24.698   8.762  0.00  0.00    -0.384 OA
ATOM     15  H   LIG    1       26.769 -24.289   8.707  0.00  0.00    +0.210 HD
ENDBRANCH   3  14
BRANCH   2  16
ATOM     16  O   LIG    1       25.722 -22.636   5.698  0.00  0.00    -0.341 OA
BRANCH  16  18
ATOM     17  C   LIG    1       26.095 -20.232   5.438  0.00  0.00    +0.160 C 
ATOM     18  C   LIG    1       25.443 -21.338   6.288  0.00  0.00    +0.177 C 
ATOM     19  C   LIG    1       23.930 -20.994   6.341  0.00  0.00    +0.176 C 
ATOM     20  C   LIG    1       23.375 -20.980   4.902  0.00  0.00    +0.178 C 
ATOM     21  O   LIG    1       24.037 -19.956   4.149  0.00  0.00    -0.341 OA
ATOM     22  C   LIG    1       25.438 -20.200   4.037  0.00  0.00    +0.270 C 
BRANCH  17  25
ATOM     23  C   LIG    1       27.681 -20.142   7.850  0.00  0.00    +0.109 C 
ATOM     24  C   LIG    1       28.361 -20.201   6.504  0.00  0.00    +0.210 C 
ATOM     25  N   LIG    1       27.550 -20.302   5.403  0.00  0.00    -0.305 N 
ATOM     26  H   LIG    1       28.034 -20.197   4.506  0.00  0.00    +0.149 HD
ATOM     27  O   LIG    1       29.585 -20.205   6.403  0.00  0.00    -0.276 OA
ENDBRANCH  17  25
BRANCH  22  28
ATOM     28  O   LIG    1       25.946 -19.152   3.231  0.00  0.00    -0.365 OA
ATOM     29  H   LIG    1       25.315 -18.425   3.346  0.00  0.00    +0.212 HD
ENDBRANCH  22  28
BRANCH  19  30
ATOM     30  O   LIG    1       23.180 -21.857   7.195  0.00  0.00    -0.387 OA
ATOM     31  H   LIG    1       22.243 -21.822   6.921  0.00  0.00    +0.210 HD
ENDBRANCH  19  30
BRANCH  20  32
ATOM     32  C   LIG    1       21.864 -20.728   4.875  0.00  0.00    +0.190 C 
BRANCH  32  33
ATOM     33  O   LIG    1       21.118 -21.939   4.936  0.00  0.00    -0.392 OA
ATOM     34  H   LIG    1       20.182 -21.706   4.751  0.00  0.00    +0.209 HD
ENDBRANCH  32  33
ENDBRANCH  20  32
ENDBRANCH  16  18
ENDBRANCH   2  16
ENDBRANCH   1   5
BRANCH   1  35
ATOM     35  C   LIG    1       26.183 -28.371   7.229  0.00  0.00    +0.274 C 
ATOM     36  C   LIG    1       25.614 -29.353   8.322  0.00  0.00    +0.160 C 
ATOM     37  C   LIG    1       24.127 -29.589   7.996  0.00  0.00    +0.177 C 
ATOM     38  C   LIG    1       24.043 -30.180   6.561  0.00  0.00    +0.176 C 
ATOM     39  C   LIG    1       24.640 -29.259   5.493  0.00  0.00    +0.178 C 
ATOM     40  O   LIG    1       25.892 -28.659   5.862  0.00  0.00    -0.341 OA
BRANCH  36  41
ATOM     41  N   LIG    1       26.311 -30.654   8.450  0.00  0.00    -0.305 N 
ATOM     42  H   LIG    1       26.249 -31.258   7.639  0.00  0.00    +0.149 HD
ATOM     43  C   LIG    1       27.060 -31.101   9.501  0.00  0.00    +0.210 C 
ATOM     44  O   LIG    1       27.220 -30.462  10.534  0.00  0.00    -0.276 OA
ATOM     45  C   LIG    1       27.696 -32.457   9.264  0.00  0.00    +0.109 C 
ENDBRANCH  36  41
BRANCH  38  46
ATOM     46  O   LIG    1       24.749 -31.433   6.502  0.00  0.00    -0.387 OA
ATOM     47  H   LIG    1       24.351 -31.974   7.206  0.00  0.00    +0.210 HD
ENDBRANCH  38  46
BRANCH  39  48
ATOM     48  C   LIG    1       23.567 -28.255   5.009  0.00  0.00    +0.190 C 
BRANCH  48  49
ATOM     49  O   LIG    1       23.419 -28.227   3.584  0.00  0.00    -0.392 OA
ATOM     50  H   LIG    1       22.957 -27.395   3.366  0.00  0.00    +0.209 HD
ENDBRANCH  48  49
ENDBRANCH  39  48
BRANCH  37  51
ATOM     51  O   LIG    1       23.456 -30.516   8.897  0.00  0.00    -0.341 OA
BRANCH  51  52
ATOM     52  C   LIG    1       23.122 -30.040  10.218  0.00  0.00    +0.283 C 
ATOM     53  C   LIG    1       21.680 -30.268  10.702  0.00  0.00    +0.201 C 
ATOM     54  C   LIG    1       21.443 -31.784  10.828  0.00  0.00    +0.179 C 
ATOM     55  C   LIG    1       22.269 -32.293  11.999  0.00  0.00    +0.185 C 
ATOM     56  C   LIG    1       23.733 -31.763  11.927  0.00  0.00    +0.260 C 
ATOM     57  O   LIG    1       24.038 -30.561  11.199  0.00  0.00    -0.332 OA
BRANCH  56  58
ATOM     58  C   LIG    1       24.669 -32.895  11.506  0.00  0.00    +0.337 C 
ATOM     59  O   LIG    1       25.607 -33.342  12.149  0.00  0.00    -0.248 OA
BRANCH  58  60
ATOM     60  O   LIG    1       24.448 -33.339  10.251  0.00  0.00    -0.479 OA
ATOM     61  H   LIG    1       24.210 -32.541   9.738  0.00  0.00    +0.295 HD
ENDBRANCH  58  60
ENDBRANCH  56  58
BRANCH  55  62
ATOM     62  O   LIG    1       21.587 -31.874  13.206  0.00  0.00    -0.386 OA
ATOM     63  H   LIG    1       20.632 -31.832  13.012  0.00  0.00    +0.210 HD
ENDBRANCH  55  62
BRANCH  54  64
ATOM     64  O   LIG    1       21.765 -32.522   9.650  0.00  0.00    -0.386 OA
ATOM     65  H   LIG    1       21.960 -33.440   9.915  0.00  0.00    +0.210 HD
ENDBRANCH  54  64
BRANCH  53  66
ATOM     66  O   LIG    1       21.477 -29.576  11.954  0.00  0.00    -0.384 OA
ATOM     67  H   LIG    1       22.149 -28.864  12.034  0.00  0.00    +0.210 HD
ENDBRANCH  53  66
ENDBRANCH  51  52
ENDBRANCH  37  51
ENDBRANCH   1  35
TORSDOF 24
ENDMDL
MODEL 8
REMARK VINA RESULT:      -1.0      1.888      9.371
REMARK  Name = *****
REMARK                            x       y       z     vdW  Elec       q    Type
REMARK                         _______ _______ _______ _____ _____    ______ ____
ROOT
ATOM      1  O   LIG    1       25.091 -27.842   7.569  0.00  0.00    -0.340 OA
ENDROOT
BRANCH   1   5
ATOM      2  C   LIG    1       24.886 -30.223  10.177  0.00  0.00    +0.283 C 
ATOM      3  C   LIG    1       26.226 -29.717   9.602  0.00  0.00    +0.201 C 
ATOM      4  C   LIG    1       26.372 -29.854   8.082  0.00  0.00    +0.180 C 
ATOM      5  C   LIG    1       25.084 -29.309   7.392  0.00  0.00    +0.192 C 
ATOM      6  C   LIG    1       23.831 -29.951   8.035  0.00  0.00    +0.261 C 
ATOM      7  O   LIG    1       23.775 -29.701   9.447  0.00  0.00    -0.332 OA
BRANCH   6   8
ATOM      8  C   LIG    1       23.587 -31.418   7.593  0.00  0.00    +0.337 C 
ATOM      9  O   LIG    1       24.128 -32.005   6.726  0.00  0.00    -0.248 OA
BRANCH   8  10
ATOM     10  O   LIG    1       22.685 -32.042   8.393  0.00  0.00    -0.479 OA
ATOM     11  H   LIG    1       22.644 -31.752   9.333  0.00  0.00    +0.295 HD
ENDBRANCH   8  10
ENDBRANCH   6   8
BRANCH   4  12
ATOM     12  O   LIG    1       26.703 -31.168   7.668  0.00  0.00    -0.386 OA
ATOM     13  H   LIG    1       25.937 -31.583   7.232  0.00  0.00    +0.210 HD
ENDBRANCH   4  12
BRANCH   3  14
ATOM     14  O   LIG    1       26.261 -28.292   9.873  0.00  0.00    -0.384 OA
ATOM     15  H   LIG    1       26.982 -28.168  10.530  0.00  0.00    +0.210 HD
ENDBRANCH   3  14
BRANCH   2  16
ATOM     16  O   LIG    1       24.741 -31.620  10.405  0.00  0.00    -0.341 OA
BRANCH  16  18
ATOM     17  C   LIG    1       24.710 -30.828  12.720  0.00  0.00    +0.160 C 
ATOM     18  C   LIG    1       24.248 -31.921  11.738  0.00  0.00    +0.177 C 
ATOM     19  C   LIG    1       22.699 -31.950  11.835  0.00  0.00    +0.176 C 
ATOM     20  C   LIG    1       22.154 -30.561  11.440  0.00  0.00    +0.178 C 
ATOM     21  O   LIG    1       22.639 -29.581  12.365  0.00  0.00    -0.341 OA
ATOM     22  C   LIG    1       24.061 -29.477  12.333  0.00  0.00    +0.270 C 
BRANCH  17  25
ATOM     23  C   LIG    1       25.986 -31.371  15.253  0.00  0.00    +0.109 C 
ATOM     24  C   LIG    1       26.818 -30.942  14.068  0.00  0.00    +0.210 C 
ATOM     25  N   LIG    1       26.157 -30.759  12.880  0.00  0.00    -0.305 N 
ATOM     26  H   LIG    1       26.722 -30.334  12.139  0.00  0.00    +0.149 HD
ATOM     27  O   LIG    1       28.035 -30.809  14.153  0.00  0.00    -0.276 OA
ENDBRANCH  17  25
BRANCH  22  28
ATOM     28  O   LIG    1       24.390 -28.445  13.245  0.00  0.00    -0.365 OA
ATOM     29  H   LIG    1       24.209 -27.623  12.763  0.00  0.00    +0.212 HD
ENDBRANCH  22  28
BRANCH  19  30
ATOM     30  O   LIG    1       22.101 -32.997  11.072  0.00  0.00    -0.387 OA
ATOM     31  H   LIG    1       22.154 -33.823  11.591  0.00  0.00    +0.210 HD
ENDBRANCH  19  30
BRANCH  20  32
ATOM     32  C   LIG    1       20.622 -30.532  11.430  0.00  0.00    +0.190 C 
BRANCH  32  33
ATOM     33  O   LIG    1       20.087 -30.896  10.162  0.00  0.00    -0.392 OA
ATOM     34  H   LIG    1       19.367 -30.258   9.963  0.00  0.00    +0.209 HD
ENDBRANCH  32  33
ENDBRANCH  20  32
ENDBRANCH  16  18
ENDBRANCH   2  16
ENDBRANCH   1   5
BRANCH   1  35
ATOM     35  C   LIG    1       24.323 -27.082   6.606  0.00  0.00    +0.274 C 
ATOM     36  C   LIG    1       24.271 -25.561   7.017  0.00  0.00    +0.160 C 
ATOM     37  C   LIG    1       25.615 -24.930   6.606  0.00  0.00    +0.177 C 
ATOM     38  C   LIG    1       25.785 -25.129   5.074  0.00  0.00    +0.176 C 
ATOM     39  C   LIG    1       25.785 -26.601   4.653  0.00  0.00    +0.178 C 
ATOM     40  O   LIG    1       24.773 -27.398   5.291  0.00  0.00    -0.341 OA
BRANCH  36  41
ATOM     41  N   LIG    1       23.153 -24.774   6.447  0.00  0.00    -0.305 N 
ATOM     42  H   LIG    1       22.630 -25.237   5.712  0.00  0.00    +0.149 HD
ATOM     43  C   LIG    1       22.722 -23.536   6.830  0.00  0.00    +0.210 C 
ATOM     44  O   LIG    1       23.263 -22.878   7.710  0.00  0.00    -0.276 OA
ATOM     45  C   LIG    1       21.496 -23.056   6.078  0.00  0.00    +0.109 C 
ENDBRANCH  36  41
BRANCH  38  46
ATOM     46  O   LIG    1       24.714 -24.473   4.370  0.00  0.00    -0.387 OA
ATOM     47  H   LIG    1       24.450 -23.739   4.952  0.00  0.00    +0.210 HD
ENDBRANCH  38  46
BRANCH  39  48
ATOM     48  C   LIG    1       27.216 -27.177   4.763  0.00  0.00    +0.190 C 
BRANCH  48  49
ATOM     49  O   LIG    1       27.913 -26.742   5.937  0.00  0.00    -0.392 OA
ATOM     50  H   LIG    1       28.169 -27.547   6.426  0.00  0.00    +0.209 HD
ENDBRANCH  48  49
ENDBRANCH  39  48
BRANCH  37  51
ATOM     51  O   LIG    1       25.714 -23.503   6.882  0.00  0.00    -0.341 OA
BRANCH  51  52
ATOM     52  C   LIG    1       26.291 -22.663   5.860  0.00  0.00    +0.283 C 
ATOM     53  C   LIG    1       25.579 -21.333   5.560  0.00  0.00    +0.201 C 
ATOM     54  C   LIG    1       25.670 -20.440   6.812  0.00  0.00    +0.179 C 
ATOM     55  C   LIG    1       27.119 -20.009   6.976  0.00  0.00    +0.185 C 
ATOM     56  C   LIG    1       28.086 -21.225   6.847  0.00  0.00    +0.260 C 
ATOM     57  O   LIG    1       27.682 -22.405   6.130  0.00  0.00    -0.332 OA
BRANCH  56  58
ATOM     58  C   LIG    1       28.630 -21.598   8.225  0.00  0.00    +0.337 C 
ATOM     59  O   LIG    1       29.799 -21.556   8.582  0.00  0.00    -0.248 OA
BRANCH  58  60
ATOM     60  O   LIG    1       27.695 -22.107   9.055  0.00  0.00    -0.479 OA
ATOM     61  H   LIG    1       26.993 -22.448   8.466  0.00  0.00    +0.295 HD
ENDBRANCH  58  60
ENDBRANCH  56  58
BRANCH  55  62
ATOM     62  O   LIG    1       27.371 -18.993   5.976  0.00  0.00    -0.386 OA
ATOM     63  H   LIG    1       26.722 -19.112   5.256  0.00  0.00    +0.210 HD
ENDBRANCH  55  62
BRANCH  54  64
ATOM     64  O   LIG    1       25.211 -21.068   8.008  0.00  0.00    -0.386 OA
ATOM     65  H   LIG    1       25.818 -20.818   8.729  0.00  0.00    +0.210 HD
ENDBRANCH  54  64
BRANCH  53  66
ATOM     66  O   LIG    1       26.179 -20.715   4.401  0.00  0.00    -0.384 OA
ATOM     67  H   LIG    1       26.278 -19.753   4.571  0.00  0.00    +0.210 HD
ENDBRANCH  53  66
ENDBRANCH  51  52
ENDBRANCH  37  51
ENDBRANCH   1  35
TORSDOF 24
ENDMDL
MODEL 9
REMARK VINA RESULT:      -0.9      2.839     10.098
REMARK  Name = *****
REMARK                            x       y       z     vdW  Elec       q    Type
REMARK                         _______ _______ _______ _____ _____    ______ ____
ROOT
ATOM      1  O   LIG    1       23.013 -30.561  10.424  0.00  0.00    -0.340 OA
ENDROOT
BRANCH   1   5
ATOM      2  C   LIG    1       20.519 -30.010  12.871  0.00  0.00    +0.283 C 
ATOM      3  C   LIG    1       21.733 -30.935  13.099  0.00  0.00    +0.201 C 
ATOM      4  C   LIG    1       21.924 -32.028  12.042  0.00  0.00    +0.180 C 
ATOM      5  C   LIG    1       21.807 -31.393  10.622  0.00  0.00    +0.192 C 
ATOM      6  C   LIG    1       20.515 -30.547  10.529  0.00  0.00    +0.261 C 
ATOM      7  O   LIG    1       20.482 -29.519  11.531  0.00  0.00    -0.332 OA
BRANCH   6   8
ATOM      8  C   LIG    1       19.224 -31.395  10.382  0.00  0.00    +0.337 C 
ATOM      9  O   LIG    1       19.146 -32.546  10.145  0.00  0.00    -0.248 OA
BRANCH   8  10
ATOM     10  O   LIG    1       18.109 -30.666  10.642  0.00  0.00    -0.479 OA
ATOM     11  H   LIG    1       18.234 -29.710  10.842  0.00  0.00    +0.295 HD
ENDBRANCH   8  10
ENDBRANCH   6   8
BRANCH   4  12
ATOM     12  O   LIG    1       21.059 -33.136  12.220  0.00  0.00    -0.386 OA
ATOM     13  H   LIG    1       20.346 -32.907  12.842  0.00  0.00    +0.210 HD
ENDBRANCH   4  12
BRANCH   3  14
ATOM     14  O   LIG    1       22.904 -30.084  13.000  0.00  0.00    -0.384 OA
ATOM     15  H   LIG    1       22.738 -29.337  13.618  0.00  0.00    +0.210 HD
ENDBRANCH   3  14
BRANCH   2  16
ATOM     16  O   LIG    1       19.239 -30.473  13.285  0.00  0.00    -0.341 OA
BRANCH  16  18
ATOM     17  C   LIG    1       18.082 -29.051  14.906  0.00  0.00    +0.160 C 
ATOM     18  C   LIG    1       19.003 -30.269  14.704  0.00  0.00    +0.177 C 
ATOM     19  C   LIG    1       18.285 -31.461  15.391  0.00  0.00    +0.176 C 
ATOM     20  C   LIG    1       16.912 -31.667  14.717  0.00  0.00    +0.178 C 
ATOM     21  O   LIG    1       16.111 -30.495  14.907  0.00  0.00    -0.341 OA
ATOM     22  C   LIG    1       16.692 -29.347  14.293  0.00  0.00    +0.270 C 
BRANCH  17  25
ATOM     23  C   LIG    1       16.838 -26.507  15.474  0.00  0.00    +0.109 C 
ATOM     24  C   LIG    1       18.095 -26.561  14.637  0.00  0.00    +0.210 C 
ATOM     25  N   LIG    1       18.667 -27.795  14.456  0.00  0.00    -0.305 N 
ATOM     26  H   LIG    1       19.429 -27.814  13.773  0.00  0.00    +0.149 HD
ATOM     27  O   LIG    1       18.604 -25.543  14.179  0.00  0.00    -0.276 OA
ENDBRANCH  17  25
BRANCH  22  28
ATOM     28  O   LIG    1       15.775 -28.290  14.512  0.00  0.00    -0.365 OA
ATOM     29  H   LIG    1       16.124 -27.817  15.284  0.00  0.00    +0.212 HD
ENDBRANCH  22  28
BRANCH  19  30
ATOM     30  O   LIG    1       19.058 -32.660  15.406  0.00  0.00    -0.387 OA
ATOM     31  H   LIG    1       18.924 -33.102  16.267  0.00  0.00    +0.210 HD
ENDBRANCH  19  30
BRANCH  20  32
ATOM     32  C   LIG    1       16.173 -32.882  15.285  0.00  0.00    +0.190 C 
BRANCH  32  33
ATOM     33  O   LIG    1       15.817 -33.815  14.271  0.00  0.00    -0.392 OA
ATOM     34  H   LIG    1       15.907 -33.348  13.411  0.00  0.00    +0.209 HD
ENDBRANCH  32  33
ENDBRANCH  20  32
ENDBRANCH  16  18
ENDBRANCH   2  16
ENDBRANCH   1   5
BRANCH   1  35
ATOM     35  C   LIG    1       24.023 -31.105   9.542  0.00  0.00    +0.274 C 
ATOM     36  C   LIG    1       23.883 -30.493   8.097  0.00  0.00    +0.160 C 
ATOM     37  C   LIG    1       24.515 -29.089   8.131  0.00  0.00    +0.177 C 
ATOM     38  C   LIG    1       25.997 -29.245   8.573  0.00  0.00    +0.176 C 
ATOM     39  C   LIG    1       26.151 -29.888   9.954  0.00  0.00    +0.178 C 
ATOM     40  O   LIG    1       25.297 -31.021  10.177  0.00  0.00    -0.341 OA
BRANCH  36  41
ATOM     41  N   LIG    1       24.482 -31.285   6.997  0.00  0.00    -0.305 N 
ATOM     42  H   LIG    1       25.399 -30.979   6.695  0.00  0.00    +0.149 HD
ATOM     43  C   LIG    1       23.967 -32.395   6.391  0.00  0.00    +0.210 C 
ATOM     44  O   LIG    1       22.873 -32.870   6.671  0.00  0.00    -0.276 OA
ATOM     45  C   LIG    1       24.886 -33.003   5.348  0.00  0.00    +0.109 C 
ENDBRANCH  36  41
BRANCH  38  46
ATOM     46  O   LIG    1       26.709 -30.066   7.627  0.00  0.00    -0.387 OA
ATOM     47  H   LIG    1       26.030 -30.354   6.992  0.00  0.00    +0.210 HD
ENDBRANCH  38  46
BRANCH  39  48
ATOM     48  C   LIG    1       26.069 -28.798  11.049  0.00  0.00    +0.190 C 
BRANCH  48  49
ATOM     49  O   LIG    1       24.853 -28.847  11.806  0.00  0.00    -0.392 OA
ATOM     50  H   LIG    1       24.859 -28.070  12.397  0.00  0.00    +0.209 HD
ENDBRANCH  48  49
ENDBRANCH  39  48
BRANCH  37  51
ATOM     51  O   LIG    1       24.505 -28.396   6.849  0.00  0.00    -0.341 OA
BRANCH  51  52
ATOM     52  C   LIG    1       25.764 -27.903   6.346  0.00  0.00    +0.283 C 
ATOM     53  C   LIG    1       26.123 -28.251   4.892  0.00  0.00    +0.201 C 
ATOM     54  C   LIG    1       25.104 -27.566   3.962  0.00  0.00    +0.179 C 
ATOM     55  C   LIG    1       25.355 -26.068   4.014  0.00  0.00    +0.185 C 
ATOM     56  C   LIG    1       25.485 -25.569   5.486  0.00  0.00    +0.260 C 
ATOM     57  O   LIG    1       25.870 -26.479   6.531  0.00  0.00    -0.332 OA
BRANCH  56  58
ATOM     58  C   LIG    1       24.225 -24.802   5.882  0.00  0.00    +0.337 C 
ATOM     59  O   LIG    1       23.271 -25.241   6.508  0.00  0.00    -0.248 OA
BRANCH  58  60
ATOM     60  O   LIG    1       24.176 -23.550   5.381  0.00  0.00    -0.479 OA
ATOM     61  H   LIG    1       23.243 -23.419   5.117  0.00  0.00    +0.295 HD
ENDBRANCH  58  60
ENDBRANCH  56  58
BRANCH  55  62
ATOM     62  O   LIG    1       26.550 -25.815   3.236  0.00  0.00    -0.386 OA
ATOM     63  H   LIG    1       26.954 -24.990   3.566  0.00  0.00    +0.210 HD
ENDBRANCH  55  62
BRANCH  54  64
ATOM     64  O   LIG    1       23.743 -27.843   4.288  0.00  0.00    -0.386 OA
ATOM     65  H   LIG    1       23.705 -28.731   4.689  0.00  0.00    +0.210 HD
ENDBRANCH  54  64
BRANCH  53  66
ATOM     66  O   LIG    1       27.479 -27.838   4.617  0.00  0.00    -0.384 OA
ATOM     67  H   LIG    1       28.011 -28.631   4.387  0.00  0.00    +0.210 HD
ENDBRANCH  53  66
ENDBRANCH  51  52
ENDBRANCH  37  51
ENDBRANCH   1  35
TORSDOF 24
ENDMDL
