MODEL 1
REMARK VINA RESULT:      -0.5      0.000      0.000
REMARK  Name = *****
REMARK                            x       y       z     vdW  Elec       q    Type
REMARK                         _______ _______ _______ _____ _____    ______ ____
ROOT
ATOM      1  C   LIG    1       26.611 -18.235   3.779  0.00  0.00    +0.250 C 
ATOM      2  N   LIG    1       27.084 -16.939   3.760  0.00  0.00    -0.298 N 
ATOM      3  H   LIG    1       27.792 -16.680   4.437  0.00  0.00    +0.150 HD
ATOM      4  O   LIG    1       25.909 -18.675   2.876  0.00  0.00    -0.270 OA
ENDROOT
BRANCH   2   5
ATOM      5  CA  LIG    1       26.773 -15.983   2.661  0.00  0.00    +0.190 C 
ATOM      6  C   LIG    1       25.377 -15.305   2.620  0.00  0.00    +0.165 C 
ATOM      7  S   LIG    1       24.327 -15.428   4.098  0.00  0.00    -0.127 S 
ATOM      8  C   LIG    1       24.754 -13.759   4.770  0.00  0.00    +0.042 C 
ATOM      9  CA  LIG    1       25.539 -13.002   3.668  0.00  0.00    +0.201 C 
ATOM     10  C   LIG    1       25.647 -13.977   6.004  0.00  0.00    +0.025 C 
ATOM     11  C   LIG    1       23.442 -13.112   5.231  0.00  0.00    +0.025 C 
ATOM     12  N   LIG    1       26.055 -13.992   2.705  0.00  0.00    -0.271 N 
ATOM     13  C   LIG    1       27.285 -14.551   2.933  0.00  0.00    +0.240 C 
ATOM     14  O   LIG    1       28.290 -14.071   3.410  0.00  0.00    -0.273 OA
BRANCH   9  15
ATOM     15  C   LIG    1       24.776 -11.892   2.936  0.00  0.00    +0.327 C 
ATOM     16  O   LIG    1       25.068 -11.469   1.826  0.00  0.00    -0.249 OA
BRANCH  15  17
ATOM     17  OXT LIG    1       23.685 -11.447   3.603  0.00  0.00    -0.479 OA
ATOM     18  HXT LIG    1       22.941 -11.301   2.982  0.00  0.00    +0.295 HD
ENDBRANCH  15  17
ENDBRANCH   9  15
ENDBRANCH   2   5
BRANCH   1  21
ATOM     19  C   LIG    1       29.472 -18.057   5.384  0.00  0.00    +0.090 C 
ATOM     20  C   LIG    1       28.284 -18.918   5.539  0.00  0.00    +0.147 A 
ATOM     21  C   LIG    1       27.049 -19.019   4.920  0.00  0.00    +0.106 A 
ATOM     22  C   LIG    1       26.347 -19.981   5.727  0.00  0.00    +0.126 A 
ATOM     23  N   LIG    1       27.174 -20.474   6.669  0.00  0.00    -0.077 NA
ATOM     24  O   LIG    1       28.361 -19.809   6.552  0.00  0.00    -0.359 OA
BRANCH  22  25
ATOM     25  C   LIG    1       24.967 -20.483   5.685  0.00  0.00    +0.004 A 
ATOM     26  C   LIG    1       24.374 -20.947   6.875  0.00  0.00    +0.010 A 
ATOM     27  C   LIG    1       23.074 -21.456   6.891  0.00  0.00    +0.001 A 
ATOM     28  C   LIG    1       22.340 -21.508   5.711  0.00  0.00    +0.000 A 
ATOM     29  C   LIG    1       22.910 -21.057   4.522  0.00  0.00    +0.001 A 
ATOM     30  C   LIG    1       24.217 -20.554   4.505  0.00  0.00    +0.010 A 
ENDBRANCH  22  25
ENDBRANCH   1  21
TORSDOF 5
ENDMDL
MODEL 2
REMARK VINA RESULT:       0.2      2.158      2.907
REMARK  Name = *****
REMARK                            x       y       z     vdW  Elec       q    Type
REMARK                         _______ _______ _______ _____ _____    ______ ____
ROOT
ATOM      1  C   LIG    1       25.360 -19.312   3.982  0.00  0.00    +0.250 C 
ATOM      2  N   LIG    1       25.599 -17.961   4.130  0.00  0.00    -0.298 N 
ATOM      3  H   LIG    1       25.420 -17.542   5.035  0.00  0.00    +0.150 HD
ATOM      4  O   LIG    1       25.736 -19.925   2.989  0.00  0.00    -0.270 OA
ENDROOT
BRANCH   2   5
ATOM      5  CA  LIG    1       26.312 -17.151   3.104  0.00  0.00    +0.190 C 
ATOM      6  C   LIG    1       25.694 -15.805   2.639  0.00  0.00    +0.165 C 
ATOM      7  S   LIG    1       24.330 -15.110   3.618  0.00  0.00    -0.127 S 
ATOM      8  C   LIG    1       25.374 -13.922   4.577  0.00  0.00    +0.042 C 
ATOM      9  CA  LIG    1       26.778 -13.904   3.919  0.00  0.00    +0.201 C 
ATOM     10  C   LIG    1       25.469 -14.455   6.018  0.00  0.00    +0.025 C 
ATOM     11  C   LIG    1       24.623 -12.586   4.603  0.00  0.00    +0.025 C 
ATOM     12  N   LIG    1       26.923 -15.124   3.104  0.00  0.00    -0.271 N 
ATOM     13  C   LIG    1       27.423 -16.255   3.696  0.00  0.00    +0.240 C 
ATOM     14  O   LIG    1       28.271 -16.384   4.551  0.00  0.00    -0.273 OA
BRANCH   9  15
ATOM     15  C   LIG    1       27.119 -12.662   3.088  0.00  0.00    +0.327 C 
ATOM     16  O   LIG    1       26.354 -12.127   2.298  0.00  0.00    -0.249 OA
BRANCH  15  17
ATOM     17  OXT LIG    1       28.346 -12.150   3.349  0.00  0.00    -0.479 OA
ATOM     18  HXT LIG    1       28.733 -12.579   4.139  0.00  0.00    +0.295 HD
ENDBRANCH  15  17
ENDBRANCH   9  15
ENDBRANCH   2   5
BRANCH   1  21
ATOM     19  C   LIG    1       26.675 -20.535   6.733  0.00  0.00    +0.090 C 
ATOM     20  C   LIG    1       25.291 -20.455   6.230  0.00  0.00    +0.147 A 
ATOM     21  C   LIG    1       24.677 -19.929   5.104  0.00  0.00    +0.106 A 
ATOM     22  C   LIG    1       23.274 -20.076   5.388  0.00  0.00    +0.126 A 
ATOM     23  N   LIG    1       23.113 -20.745   6.546  0.00  0.00    -0.077 NA
ATOM     24  O   LIG    1       24.357 -20.967   7.062  0.00  0.00    -0.359 OA
BRANCH  22  25
ATOM     25  C   LIG    1       22.072 -19.648   4.661  0.00  0.00    +0.004 A 
ATOM     26  C   LIG    1       21.964 -18.303   4.255  0.00  0.00    +0.010 A 
ATOM     27  C   LIG    1       20.835 -17.834   3.582  0.00  0.00    +0.001 A 
ATOM     28  C   LIG    1       19.790 -18.706   3.297  0.00  0.00    +0.000 A 
ATOM     29  C   LIG    1       19.876 -20.040   3.692  0.00  0.00    +0.001 A 
ATOM     30  C   LIG    1       21.006 -20.508   4.376  0.00  0.00    +0.010 A 
ENDBRANCH  22  25
ENDBRANCH   1  21
TORSDOF 5
ENDMDL
