MODEL 1
REMARK VINA RESULT:      -3.8      0.000      0.000
REMARK  Name = *****
REMARK                            x       y       z     vdW  Elec       q    Type
REMARK                         _______ _______ _______ _____ _____    ______ ____
ROOT
ATOM      1  C   LIG    1       25.162 -18.804   3.562  0.00  0.00    +0.353 C 
ENDROOT
BRANCH   1   2
ATOM      2  C   LIG    1       26.279 -17.774   3.283  0.00  0.00    +0.377 C 
BRANCH   2   3
ATOM      3  O   LIG    1       25.725 -16.458   3.221  0.00  0.00    -0.212 OA
BRANCH   3   5
ATOM      4  O   LIG    1       27.531 -15.335   3.988  0.00  0.00    +0.093 OA
ATOM      5  N   LIG    1       26.668 -15.410   3.122  0.00  0.00    +0.284 N 
ATOM      6  O   LIG    1       26.468 -14.690   2.139  0.00  0.00    -0.534 OA
ENDBRANCH   3   5
ENDBRANCH   2   3
ENDBRANCH   1   2
BRANCH   1   7
ATOM      7  C   LIG    1       25.710 -20.088   4.242  0.00  0.00    +0.353 C 
BRANCH   7   8
ATOM      8  C   LIG    1       24.652 -21.211   4.307  0.00  0.00    +0.377 C 
BRANCH   8   9
ATOM      9  O   LIG    1       24.352 -21.539   5.658  0.00  0.00    -0.212 OA
BRANCH   9  10
ATOM     10  N   LIG    1       23.063 -21.090   6.043  0.00  0.00    +0.284 N 
ATOM     11  O   LIG    1       22.115 -21.433   5.326  0.00  0.00    -0.534 OA
ATOM     12  O   LIG    1       23.076 -20.404   7.058  0.00  0.00    +0.093 OA
ENDBRANCH   9  10
ENDBRANCH   8   9
ENDBRANCH   7   8
BRANCH   7  13
ATOM     13  O   LIG    1       26.086 -19.788   5.596  0.00  0.00    -0.205 OA
BRANCH  13  14
ATOM     14  N   LIG    1       27.419 -20.158   5.907  0.00  0.00    +0.285 N 
ATOM     15  O   LIG    1       28.309 -19.418   5.503  0.00  0.00    -0.534 OA
ATOM     16  O   LIG    1       27.483 -21.185   6.585  0.00  0.00    +0.093 OA
ENDBRANCH  13  14
ENDBRANCH   7  13
ENDBRANCH   1   7
BRANCH   1  17
ATOM     17  O   LIG    1       24.176 -18.219   4.416  0.00  0.00    -0.205 OA
BRANCH  17  18
ATOM     18  N   LIG    1       22.837 -18.404   3.979  0.00  0.00    +0.285 N 
ATOM     19  O   LIG    1       22.656 -19.051   2.955  0.00  0.00    -0.534 OA
ATOM     20  O   LIG    1       22.035 -17.863   4.735  0.00  0.00    +0.093 OA
ENDBRANCH  17  18
ENDBRANCH   1  17
TORSDOF 11
ENDMDL
MODEL 2
REMARK VINA RESULT:      -3.8      0.134      5.995
REMARK  Name = *****
REMARK                            x       y       z     vdW  Elec       q    Type
REMARK                         _______ _______ _______ _____ _____    ______ ____
ROOT
ATOM      1  C   LIG    1       25.656 -20.078   4.236  0.00  0.00    +0.353 C 
ENDROOT
BRANCH   1   2
ATOM      2  C   LIG    1       24.623 -21.226   4.198  0.00  0.00    +0.377 C 
BRANCH   2   3
ATOM      3  O   LIG    1       24.230 -21.572   5.528  0.00  0.00    -0.212 OA
BRANCH   3   5
ATOM      4  O   LIG    1       22.005 -21.298   5.235  0.00  0.00    +0.093 OA
ATOM      5  N   LIG    1       22.979 -21.060   5.940  0.00  0.00    +0.284 N 
ATOM      6  O   LIG    1       23.057 -20.415   6.990  0.00  0.00    -0.534 OA
ENDBRANCH   3   5
ENDBRANCH   2   3
ENDBRANCH   1   2
BRANCH   1   7
ATOM      7  C   LIG    1       25.109 -18.780   3.581  0.00  0.00    +0.353 C 
BRANCH   7   8
ATOM      8  C   LIG    1       26.221 -17.738   3.332  0.00  0.00    +0.377 C 
BRANCH   8   9
ATOM      9  O   LIG    1       25.661 -16.446   3.136  0.00  0.00    -0.212 OA
BRANCH   9  10
ATOM     10  N   LIG    1       26.654 -15.434   3.088  0.00  0.00    +0.284 N 
ATOM     11  O   LIG    1       27.522 -15.461   3.968  0.00  0.00    -0.534 OA
ATOM     12  O   LIG    1       26.500 -14.654   2.156  0.00  0.00    +0.093 OA
ENDBRANCH   9  10
ENDBRANCH   8   9
ENDBRANCH   7   8
BRANCH   7  13
ATOM     13  O   LIG    1       24.151 -18.168   4.459  0.00  0.00    -0.205 OA
BRANCH  13  14
ATOM     14  N   LIG    1       22.813 -18.284   4.006  0.00  0.00    +0.285 N 
ATOM     15  O   LIG    1       22.628 -18.938   2.985  0.00  0.00    -0.534 OA
ATOM     16  O   LIG    1       22.007 -17.718   4.745  0.00  0.00    +0.093 OA
ENDBRANCH  13  14
ENDBRANCH   7  13
ENDBRANCH   1   7
BRANCH   1  17
ATOM     17  O   LIG    1       26.004 -19.793   5.594  0.00  0.00    -0.205 OA
BRANCH  17  18
ATOM     18  N   LIG    1       27.288 -20.262   5.980  0.00  0.00    +0.285 N 
ATOM     19  O   LIG    1       27.341 -21.209   6.754  0.00  0.00    -0.534 OA
ATOM     20  O   LIG    1       28.185 -19.615   5.447  0.00  0.00    +0.093 OA
ENDBRANCH  17  18
ENDBRANCH   1  17
TORSDOF 11
ENDMDL
MODEL 3
REMARK VINA RESULT:      -3.7      0.906      4.855
REMARK  Name = *****
REMARK                            x       y       z     vdW  Elec       q    Type
REMARK                         _______ _______ _______ _____ _____    ______ ____
ROOT
ATOM      1  C   LIG    1       24.185 -19.252   4.367  0.00  0.00    +0.353 C 
ENDROOT
BRANCH   1   2
ATOM      2  C   LIG    1       24.202 -20.738   3.946  0.00  0.00    +0.377 C 
BRANCH   2   3
ATOM      3  O   LIG    1       24.055 -21.571   5.097  0.00  0.00    -0.212 OA
BRANCH   3   5
ATOM      4  O   LIG    1       23.125 -20.946   7.061  0.00  0.00    +0.093 OA
ATOM      5  N   LIG    1       22.927 -21.295   5.903  0.00  0.00    +0.284 N 
ATOM      6  O   LIG    1       21.864 -21.460   5.296  0.00  0.00    -0.534 OA
ENDBRANCH   3   5
ENDBRANCH   2   3
ENDBRANCH   1   2
BRANCH   1   7
ATOM      7  C   LIG    1       25.605 -18.621   4.335  0.00  0.00    +0.353 C 
BRANCH   7   8
ATOM      8  C   LIG    1       25.815 -17.718   3.100  0.00  0.00    +0.377 C 
BRANCH   8   9
ATOM      9  O   LIG    1       26.686 -16.638   3.412  0.00  0.00    -0.212 OA
BRANCH   9  10
ATOM     10  N   LIG    1       26.107 -15.379   3.110  0.00  0.00    +0.284 N 
ATOM     11  O   LIG    1       26.621 -14.735   2.188  0.00  0.00    -0.534 OA
ATOM     12  O   LIG    1       25.156 -15.102   3.831  0.00  0.00    +0.093 OA
ENDBRANCH   9  10
ENDBRANCH   8   9
ENDBRANCH   7   8
BRANCH   7  13
ATOM     13  O   LIG    1       26.590 -19.664   4.263  0.00  0.00    -0.205 OA
BRANCH  13  14
ATOM     14  N   LIG    1       27.400 -19.756   5.422  0.00  0.00    +0.285 N 
ATOM     15  O   LIG    1       28.470 -19.157   5.400  0.00  0.00    -0.534 OA
ATOM     16  O   LIG    1       26.879 -20.422   6.318  0.00  0.00    +0.093 OA
ENDBRANCH  13  14
ENDBRANCH   7  13
ENDBRANCH   1   7
BRANCH   1  17
ATOM     17  O   LIG    1       23.338 -18.514   3.482  0.00  0.00    -0.205 OA
BRANCH  17  18
ATOM     18  N   LIG    1       22.133 -18.051   4.076  0.00  0.00    +0.285 N 
ATOM     19  O   LIG    1       21.098 -18.645   3.805  0.00  0.00    -0.534 OA
ATOM     20  O   LIG    1       22.332 -17.084   4.806  0.00  0.00    +0.093 OA
ENDBRANCH  17  18
ENDBRANCH   1  17
TORSDOF 11
ENDMDL
MODEL 4
REMARK VINA RESULT:      -3.4      0.904      5.283
REMARK  Name = *****
REMARK                            x       y       z     vdW  Elec       q    Type
REMARK                         _______ _______ _______ _____ _____    ______ ____
ROOT
ATOM      1  C   LIG    1       25.399 -19.714   4.848  0.00  0.00    +0.353 C 
ENDROOT
BRANCH   1   2
ATOM      2  C   LIG    1       26.900 -20.075   4.813  0.00  0.00    +0.377 C 
BRANCH   2   3
ATOM      3  O   LIG    1       27.445 -20.023   6.133  0.00  0.00    -0.212 OA
BRANCH   3   5
ATOM      4  O   LIG    1       29.157 -18.633   5.633  0.00  0.00    +0.093 OA
ATOM      5  N   LIG    1       28.808 -19.657   6.209  0.00  0.00    +0.284 N 
ATOM      6  O   LIG    1       29.475 -20.462   6.866  0.00  0.00    -0.534 OA
ENDBRANCH   3   5
ENDBRANCH   2   3
ENDBRANCH   1   2
BRANCH   1   7
ATOM      7  C   LIG    1       25.000 -18.764   3.686  0.00  0.00    +0.353 C 
BRANCH   7   8
ATOM      8  C   LIG    1       26.149 -17.810   3.291  0.00  0.00    +0.377 C 
BRANCH   8   9
ATOM      9  O   LIG    1       25.687 -16.467   3.234  0.00  0.00    -0.212 OA
BRANCH   9  10
ATOM     10  N   LIG    1       26.755 -15.535   3.182  0.00  0.00    +0.284 N 
ATOM     11  O   LIG    1       26.679 -14.645   2.326  0.00  0.00    -0.534 OA
ATOM     12  O   LIG    1       27.627 -15.756   4.014  0.00  0.00    +0.093 OA
ENDBRANCH   9  10
ENDBRANCH   8   9
ENDBRANCH   7   8
BRANCH   7  13
ATOM     13  O   LIG    1       23.896 -17.942   4.096  0.00  0.00    -0.205 OA
BRANCH  13  14
ATOM     14  N   LIG    1       22.634 -18.562   3.921  0.00  0.00    +0.285 N 
ATOM     15  O   LIG    1       22.520 -19.329   2.970  0.00  0.00    -0.534 OA
ATOM     16  O   LIG    1       21.824 -18.251   4.795  0.00  0.00    +0.093 OA
ENDBRANCH  13  14
ENDBRANCH   7  13
ENDBRANCH   1   7
BRANCH   1  17
ATOM     17  O   LIG    1       24.618 -20.908   4.751  0.00  0.00    -0.205 OA
BRANCH  17  18
ATOM     18  N   LIG    1       23.751 -21.132   5.854  0.00  0.00    +0.285 N 
ATOM     19  O   LIG    1       24.176 -20.881   6.974  0.00  0.00    -0.534 OA
ATOM     20  O   LIG    1       22.658 -21.557   5.491  0.00  0.00    +0.093 OA
ENDBRANCH  17  18
ENDBRANCH   1  17
TORSDOF 11
ENDMDL
MODEL 5
REMARK VINA RESULT:      -3.3      1.495      4.046
REMARK  Name = *****
REMARK                            x       y       z     vdW  Elec       q    Type
REMARK                         _______ _______ _______ _____ _____    ______ ____
ROOT
ATOM      1  C   LIG    1       25.094 -18.916   4.413  0.00  0.00    +0.353 C 
ENDROOT
BRANCH   1   2
ATOM      2  C   LIG    1       25.600 -18.055   3.234  0.00  0.00    +0.377 C 
BRANCH   2   3
ATOM      3  O   LIG    1       26.808 -17.386   3.604  0.00  0.00    -0.212 OA
BRANCH   3   5
ATOM      4  O   LIG    1       27.628 -15.333   4.079  0.00  0.00    +0.093 OA
ATOM      5  N   LIG    1       26.786 -15.980   3.466  0.00  0.00    +0.284 N 
ATOM      6  O   LIG    1       25.878 -15.595   2.724  0.00  0.00    -0.534 OA
ENDBRANCH   3   5
ENDBRANCH   2   3
ENDBRANCH   1   2
BRANCH   1   7
ATOM      7  C   LIG    1       23.583 -19.254   4.280  0.00  0.00    +0.353 C 
BRANCH   7   8
ATOM      8  C   LIG    1       22.761 -18.056   3.757  0.00  0.00    +0.377 C 
BRANCH   8   9
ATOM      9  O   LIG    1       22.022 -17.456   4.814  0.00  0.00    -0.212 OA
BRANCH   9  10
ATOM     10  N   LIG    1       22.359 -16.090   4.994  0.00  0.00    +0.284 N 
ATOM     11  O   LIG    1       23.060 -15.568   4.119  0.00  0.00    -0.534 OA
ATOM     12  O   LIG    1       21.896 -15.613   6.023  0.00  0.00    +0.093 OA
ENDBRANCH   9  10
ENDBRANCH   8   9
ENDBRANCH   7   8
BRANCH   7  13
ATOM     13  O   LIG    1       23.054 -19.594   5.571  0.00  0.00    -0.205 OA
BRANCH  13  14
ATOM     14  N   LIG    1       22.506 -20.899   5.632  0.00  0.00    +0.285 N 
ATOM     15  O   LIG    1       21.683 -21.196   4.772  0.00  0.00    -0.534 OA
ATOM     16  O   LIG    1       22.975 -21.572   6.551  0.00  0.00    +0.093 OA
ENDBRANCH  13  14
ENDBRANCH   7  13
ENDBRANCH   1   7
BRANCH   1  17
ATOM     17  O   LIG    1       25.833 -20.139   4.463  0.00  0.00    -0.205 OA
BRANCH  17  18
ATOM     18  N   LIG    1       26.688 -20.260   5.591  0.00  0.00    +0.285 N 
ATOM     19  O   LIG    1       27.854 -19.908   5.463  0.00  0.00    -0.534 OA
ATOM     20  O   LIG    1       26.093 -20.715   6.564  0.00  0.00    +0.093 OA
ENDBRANCH  17  18
ENDBRANCH   1  17
TORSDOF 11
ENDMDL
MODEL 6
REMARK VINA RESULT:      -3.3      2.708      6.344
REMARK  Name = *****
REMARK                            x       y       z     vdW  Elec       q    Type
REMARK                         _______ _______ _______ _____ _____    ______ ____
ROOT
ATOM      1  C   LIG    1       26.203 -16.691   3.847  0.00  0.00    +0.353 C 
ENDROOT
BRANCH   1   2
ATOM      2  C   LIG    1       27.702 -16.872   4.172  0.00  0.00    +0.377 C 
BRANCH   2   3
ATOM      3  O   LIG    1       28.012 -18.263   4.282  0.00  0.00    -0.212 OA
BRANCH   3   5
ATOM      4  O   LIG    1       29.474 -17.808   5.946  0.00  0.00    +0.093 OA
ATOM      5  N   LIG    1       28.716 -18.634   5.450  0.00  0.00    +0.284 N 
ATOM      6  O   LIG    1       28.457 -19.787   5.808  0.00  0.00    -0.534 OA
ENDBRANCH   3   5
ENDBRANCH   2   3
ENDBRANCH   1   2
BRANCH   1   7
ATOM      7  C   LIG    1       25.898 -15.282   3.269  0.00  0.00    +0.353 C 
BRANCH   7   8
ATOM      8  C   LIG    1       27.183 -14.526   2.866  0.00  0.00    +0.377 C 
BRANCH   8   9
ATOM      9  O   LIG    1       27.156 -13.194   3.363  0.00  0.00    -0.212 OA
BRANCH   9  10
ATOM     10  N   LIG    1       28.190 -12.953   4.303  0.00  0.00    +0.284 N 
ATOM     11  O   LIG    1       27.855 -12.862   5.490  0.00  0.00    -0.534 OA
ATOM     12  O   LIG    1       29.298 -12.863   3.788  0.00  0.00    +0.093 OA
ENDBRANCH   9  10
ENDBRANCH   8   9
ENDBRANCH   7   8
BRANCH   7  13
ATOM     13  O   LIG    1       25.240 -14.487   4.269  0.00  0.00    -0.205 OA
BRANCH  13  14
ATOM     14  N   LIG    1       23.883 -14.211   3.968  0.00  0.00    +0.285 N 
ATOM     15  O   LIG    1       23.042 -14.952   4.466  0.00  0.00    -0.534 OA
ATOM     16  O   LIG    1       23.745 -13.218   3.252  0.00  0.00    +0.093 OA
ENDBRANCH  13  14
ENDBRANCH   7  13
ENDBRANCH   1   7
BRANCH   1  17
ATOM     17  O   LIG    1       25.799 -17.674   2.891  0.00  0.00    -0.205 OA
BRANCH  17  18
ATOM     18  N   LIG    1       24.877 -18.633   3.391  0.00  0.00    +0.285 N 
ATOM     19  O   LIG    1       25.181 -19.816   3.304  0.00  0.00    -0.534 OA
ATOM     20  O   LIG    1       23.876 -18.098   3.858  0.00  0.00    +0.093 OA
ENDBRANCH  17  18
ENDBRANCH   1  17
TORSDOF 11
ENDMDL
MODEL 7
REMARK VINA RESULT:      -3.2      2.731      4.566
REMARK  Name = *****
REMARK                            x       y       z     vdW  Elec       q    Type
REMARK                         _______ _______ _______ _____ _____    ______ ____
ROOT
ATOM      1  C   LIG    1       25.903 -15.248   3.183  0.00  0.00    +0.353 C 
ENDROOT
BRANCH   1   2
ATOM      2  C   LIG    1       27.170 -14.528   2.674  0.00  0.00    +0.377 C 
BRANCH   2   3
ATOM      3  O   LIG    1       27.259 -13.226   3.257  0.00  0.00    -0.212 OA
BRANCH   3   5
ATOM      4  O   LIG    1       29.473 -12.968   3.633  0.00  0.00    +0.093 OA
ATOM      5  N   LIG    1       28.354 -13.028   4.128  0.00  0.00    +0.284 N 
ATOM      6  O   LIG    1       28.005 -12.950   5.311  0.00  0.00    -0.534 OA
ENDBRANCH   3   5
ENDBRANCH   2   3
ENDBRANCH   1   2
BRANCH   1   7
ATOM      7  C   LIG    1       26.232 -16.627   3.817  0.00  0.00    +0.353 C 
BRANCH   7   8
ATOM      8  C   LIG    1       27.731 -16.770   4.158  0.00  0.00    +0.377 C 
BRANCH   8   9
ATOM      9  O   LIG    1       28.135 -18.132   4.077  0.00  0.00    -0.212 OA
BRANCH   9  10
ATOM     10  N   LIG    1       28.666 -18.607   5.303  0.00  0.00    +0.284 N 
ATOM     11  O   LIG    1       28.259 -19.705   5.700  0.00  0.00    -0.534 OA
ATOM     12  O   LIG    1       29.472 -17.835   5.808  0.00  0.00    +0.093 OA
ENDBRANCH   9  10
ENDBRANCH   8   9
ENDBRANCH   7   8
BRANCH   7  13
ATOM     13  O   LIG    1       25.913 -17.671   2.883  0.00  0.00    -0.205 OA
BRANCH  13  14
ATOM     14  N   LIG    1       25.025 -18.645   3.405  0.00  0.00    +0.285 N 
ATOM     15  O   LIG    1       25.475 -19.773   3.573  0.00  0.00    -0.534 OA
ATOM     16  O   LIG    1       23.906 -18.189   3.648  0.00  0.00    +0.093 OA
ENDBRANCH  13  14
ENDBRANCH   7  13
ENDBRANCH   1   7
BRANCH   1  17
ATOM     17  O   LIG    1       25.255 -14.436   4.166  0.00  0.00    -0.205 OA
BRANCH  17  18
ATOM     18  N   LIG    1       23.878 -14.193   3.910  0.00  0.00    +0.285 N 
ATOM     19  O   LIG    1       23.594 -13.309   3.113  0.00  0.00    -0.534 OA
ATOM     20  O   LIG    1       23.158 -14.949   4.557  0.00  0.00    +0.093 OA
ENDBRANCH  17  18
ENDBRANCH   1  17
TORSDOF 11
ENDMDL
MODEL 8
REMARK VINA RESULT:      -3.2      1.500      4.258
REMARK  Name = *****
REMARK                            x       y       z     vdW  Elec       q    Type
REMARK                         _______ _______ _______ _____ _____    ______ ____
ROOT
ATOM      1  C   LIG    1       23.651 -19.277   3.863  0.00  0.00    +0.353 C 
ENDROOT
BRANCH   1   2
ATOM      2  C   LIG    1       22.622 -18.423   4.635  0.00  0.00    +0.377 C 
BRANCH   2   3
ATOM      3  O   LIG    1       22.411 -17.183   3.956  0.00  0.00    -0.212 OA
BRANCH   3   5
ATOM      4  O   LIG    1       21.939 -16.011   5.832  0.00  0.00    +0.093 OA
ATOM      5  N   LIG    1       22.534 -16.027   4.760  0.00  0.00    +0.284 N 
ATOM      6  O   LIG    1       23.247 -15.165   4.238  0.00  0.00    -0.534 OA
ENDBRANCH   3   5
ENDBRANCH   2   3
ENDBRANCH   1   2
BRANCH   1   7
ATOM      7  C   LIG    1       25.110 -18.954   4.286  0.00  0.00    +0.353 C 
BRANCH   7   8
ATOM      8  C   LIG    1       25.883 -18.195   3.185  0.00  0.00    +0.377 C 
BRANCH   8   9
ATOM      9  O   LIG    1       25.538 -16.815   3.192  0.00  0.00    -0.212 OA
BRANCH   9  10
ATOM     10  N   LIG    1       26.678 -15.979   3.304  0.00  0.00    +0.284 N 
ATOM     11  O   LIG    1       27.590 -16.374   4.040  0.00  0.00    -0.534 OA
ATOM     12  O   LIG    1       26.590 -14.954   2.639  0.00  0.00    +0.093 OA
ENDBRANCH   9  10
ENDBRANCH   8   9
ENDBRANCH   7   8
BRANCH   7  13
ATOM     13  O   LIG    1       25.821 -20.178   4.528  0.00  0.00    -0.205 OA
BRANCH  13  14
ATOM     14  N   LIG    1       26.617 -20.148   5.700  0.00  0.00    +0.285 N 
ATOM     15  O   LIG    1       26.049 -20.377   6.763  0.00  0.00    -0.534 OA
ATOM     16  O   LIG    1       27.804 -19.917   5.465  0.00  0.00    +0.093 OA
ENDBRANCH  13  14
ENDBRANCH   7  13
ENDBRANCH   1   7
BRANCH   1  17
ATOM     17  O   LIG    1       23.401 -20.664   4.107  0.00  0.00    -0.205 OA
BRANCH  17  18
ATOM     18  N   LIG    1       22.499 -20.917   5.175  0.00  0.00    +0.285 N 
ATOM     19  O   LIG    1       22.931 -20.835   6.318  0.00  0.00    -0.534 OA
ATOM     20  O   LIG    1       21.374 -21.185   4.763  0.00  0.00    +0.093 OA
ENDBRANCH  17  18
ENDBRANCH   1  17
TORSDOF 11
ENDMDL
MODEL 9
REMARK VINA RESULT:      -3.1      2.353      6.377
REMARK  Name = *****
REMARK                            x       y       z     vdW  Elec       q    Type
REMARK                         _______ _______ _______ _____ _____    ______ ____
ROOT
ATOM      1  C   LIG    1       24.883 -16.658   3.950  0.00  0.00    +0.353 C 
ENDROOT
BRANCH   1   2
ATOM      2  C   LIG    1       25.769 -17.774   3.354  0.00  0.00    +0.377 C 
BRANCH   2   3
ATOM      3  O   LIG    1       25.043 -19.004   3.318  0.00  0.00    -0.212 OA
BRANCH   3   5
ATOM      4  O   LIG    1       24.522 -20.766   4.636  0.00  0.00    +0.093 OA
ATOM      5  N   LIG    1       25.361 -19.922   4.344  0.00  0.00    +0.284 N 
ATOM      6  O   LIG    1       26.483 -19.725   4.821  0.00  0.00    -0.534 OA
ENDBRANCH   3   5
ENDBRANCH   2   3
ENDBRANCH   1   2
BRANCH   1   7
ATOM      7  C   LIG    1       25.361 -15.243   3.522  0.00  0.00    +0.353 C 
BRANCH   7   8
ATOM      8  C   LIG    1       26.899 -15.155   3.414  0.00  0.00    +0.377 C 
BRANCH   8   9
ATOM      9  O   LIG    1       27.299 -13.843   3.037  0.00  0.00    -0.212 OA
BRANCH   9  10
ATOM     10  N   LIG    1       28.252 -13.296   3.933  0.00  0.00    +0.284 N 
ATOM     11  O   LIG    1       29.414 -13.197   3.522  0.00  0.00    -0.534 OA
ATOM     12  O   LIG    1       27.772 -12.995   5.020  0.00  0.00    +0.093 OA
ENDBRANCH   9  10
ENDBRANCH   8   9
ENDBRANCH   7   8
BRANCH   7  13
ATOM     13  O   LIG    1       24.954 -14.282   4.509  0.00  0.00    -0.205 OA
BRANCH  13  14
ATOM     14  N   LIG    1       24.184 -13.217   3.977  0.00  0.00    +0.285 N 
ATOM     15  O   LIG    1       24.037 -12.229   4.689  0.00  0.00    -0.534 OA
ATOM     16  O   LIG    1       23.790 -13.439   2.831  0.00  0.00    +0.093 OA
ENDBRANCH  13  14
ENDBRANCH   7  13
ENDBRANCH   1   7
BRANCH   1  17
ATOM     17  O   LIG    1       23.533 -16.835   3.515  0.00  0.00    -0.205 OA
BRANCH  17  18
ATOM     18  N   LIG    1       22.598 -17.028   4.567  0.00  0.00    +0.285 N 
ATOM     19  O   LIG    1       22.243 -18.175   4.812  0.00  0.00    -0.534 OA
ATOM     20  O   LIG    1       22.283 -15.965   5.093  0.00  0.00    +0.093 OA
ENDBRANCH  17  18
ENDBRANCH   1  17
TORSDOF 11
ENDMDL
