MODEL 1
REMARK VINA RESULT:      -8.8      0.000      0.000
REMARK  Name = *****
REMARK                            x       y       z     vdW  Elec       q    Type
REMARK                         _______ _______ _______ _____ _____    ______ ____
ROOT
ATOM      1  C   LIG    1       26.767 -21.642   6.794  0.00  0.00    +0.138 C 
ATOM      2  N   LIG    1       26.818 -20.615   5.860  0.00  0.00    -0.263 N 
ATOM      3  C   LIG    1       27.933 -19.761   5.775  0.00  0.00    +0.269 C 
ATOM      4  O   LIG    1       28.037 -18.824   4.991  0.00  0.00    -0.267 OA
ATOM      5  C   LIG    1       29.053 -20.058   6.685  0.00  0.00    +0.100 A 
ATOM      6  C   LIG    1       28.905 -21.127   7.562  0.00  0.00    +0.081 A 
ATOM      7  C   LIG    1       29.944 -21.436   8.448  0.00  0.00    +0.029 A 
ATOM      8  C   LIG    1       31.125 -20.693   8.454  0.00  0.00    +0.005 A 
ATOM      9  C   LIG    1       31.271 -19.632   7.565  0.00  0.00    +0.039 A 
ATOM     10  C   LIG    1       30.236 -19.318   6.686  0.00  0.00    +0.138 A 
ATOM     11  F   LIG    1       30.422 -18.288   5.850  0.00  0.00    -0.205 F 
ATOM     12  N   LIG    1       27.747 -21.903   7.613  0.00  0.00    -0.231 NA
ENDROOT
BRANCH   2  13
ATOM     13  C   LIG    1       25.774 -20.400   4.911  0.00  0.00    +0.051 A 
ATOM     14  C   LIG    1       25.538 -19.121   4.390  0.00  0.00    +0.026 A 
ATOM     15  C   LIG    1       24.490 -18.908   3.492  0.00  0.00    +0.002 A 
ATOM     16  C   LIG    1       23.671 -19.969   3.109  0.00  0.00    +0.000 A 
ATOM     17  C   LIG    1       23.902 -21.246   3.618  0.00  0.00    +0.002 A 
ATOM     18  C   LIG    1       24.944 -21.460   4.522  0.00  0.00    +0.026 A 
ENDBRANCH   2  13
BRANCH   1  19
ATOM     19  C   LIG    1       25.472 -22.490   6.968  0.00  0.00    +0.138 C 
BRANCH  19  21
ATOM     20  C   LIG    1       23.289 -21.287   7.552  0.00  0.00    +0.006 C 
ATOM     21  C   LIG    1       24.592 -21.881   8.079  0.00  0.00    +0.027 C 
ENDBRANCH  19  21
BRANCH  19  22
ATOM     22  N   LIG    1       25.895 -23.843   7.345  0.00  0.00    -0.317 N 
ATOM     23  H   LIG    1       25.810 -24.071   8.333  0.00  0.00    +0.148 HD
BRANCH  22  24
ATOM     24  C   LIG    1       25.652 -24.910   6.496  0.00  0.00    +0.150 A 
ATOM     25  C   LIG    1       25.831 -26.251   6.899  0.00  0.00    +0.147 A 
ATOM     26  C   LIG    1       25.625 -27.225   5.936  0.00  0.00    +0.163 A 
ATOM     27  N   LIG    1       25.863 -28.412   6.566  0.00  0.00    -0.329 N 
ATOM     28  H   LIG    1       25.804 -29.322   6.135  0.00  0.00    +0.168 HD
ATOM     29  C   LIG    1       26.181 -28.131   7.867  0.00  0.00    +0.198 A 
ATOM     30  N   LIG    1       25.274 -27.055   4.655  0.00  0.00    -0.216 NA
ATOM     31  C   LIG    1       25.119 -25.746   4.380  0.00  0.00    +0.225 A 
ATOM     32  N   LIG    1       26.180 -26.835   8.105  0.00  0.00    -0.231 NA
ATOM     33  N   LIG    1       25.278 -24.689   5.207  0.00  0.00    -0.219 NA
ENDBRANCH  22  24
ENDBRANCH  19  22
ENDBRANCH   1  19
TORSDOF 5
ENDMDL
MODEL 2
REMARK VINA RESULT:      -8.7      3.124      7.024
REMARK  Name = *****
REMARK                            x       y       z     vdW  Elec       q    Type
REMARK                         _______ _______ _______ _____ _____    ______ ____
ROOT
ATOM      1  C   LIG    1       26.495 -19.877   5.335  0.00  0.00    +0.138 C 
ATOM      2  N   LIG    1       26.370 -20.917   6.248  0.00  0.00    -0.263 N 
ATOM      3  C   LIG    1       27.444 -21.296   7.074  0.00  0.00    +0.269 C 
ATOM      4  O   LIG    1       27.412 -22.215   7.885  0.00  0.00    -0.267 OA
ATOM      5  C   LIG    1       28.674 -20.493   6.953  0.00  0.00    +0.100 A 
ATOM      6  C   LIG    1       28.680 -19.458   6.024  0.00  0.00    +0.081 A 
ATOM      7  C   LIG    1       29.833 -18.677   5.876  0.00  0.00    +0.029 A 
ATOM      8  C   LIG    1       30.967 -18.919   6.652  0.00  0.00    +0.005 A 
ATOM      9  C   LIG    1       30.949 -19.949   7.588  0.00  0.00    +0.039 A 
ATOM     10  C   LIG    1       29.805 -20.731   7.735  0.00  0.00    +0.138 A 
ATOM     11  F   LIG    1       29.837 -21.712   8.648  0.00  0.00    -0.205 F 
ATOM     12  N   LIG    1       27.584 -19.171   5.212  0.00  0.00    -0.231 NA
ENDROOT
BRANCH   2  13
ATOM     13  C   LIG    1       25.142 -21.621   6.433  0.00  0.00    +0.051 A 
ATOM     14  C   LIG    1       24.047 -20.994   7.042  0.00  0.00    +0.026 A 
ATOM     15  C   LIG    1       22.861 -21.700   7.256  0.00  0.00    +0.002 A 
ATOM     16  C   LIG    1       22.761 -23.034   6.864  0.00  0.00    +0.000 A 
ATOM     17  C   LIG    1       23.843 -23.664   6.252  0.00  0.00    +0.002 A 
ATOM     18  C   LIG    1       25.032 -22.963   6.043  0.00  0.00    +0.026 A 
ENDBRANCH   2  13
BRANCH   1  19
ATOM     19  C   LIG    1       25.344 -19.560   4.335  0.00  0.00    +0.138 C 
BRANCH  19  21
ATOM     20  C   LIG    1       23.638 -21.072   3.169  0.00  0.00    +0.006 C 
ATOM     21  C   LIG    1       25.116 -20.766   3.400  0.00  0.00    +0.027 C 
ENDBRANCH  19  21
BRANCH  19  22
ATOM     22  N   LIG    1       25.766 -18.392   3.555  0.00  0.00    -0.317 N 
ATOM     23  H   LIG    1       26.086 -18.586   2.608  0.00  0.00    +0.148 HD
BRANCH  22  24
ATOM     24  C   LIG    1       25.095 -17.187   3.688  0.00  0.00    +0.150 A 
ATOM     25  C   LIG    1       25.734 -15.943   3.500  0.00  0.00    +0.147 A 
ATOM     26  C   LIG    1       24.974 -14.809   3.732  0.00  0.00    +0.163 A 
ATOM     27  N   LIG    1       25.808 -13.757   3.490  0.00  0.00    -0.329 N 
ATOM     28  H   LIG    1       25.559 -12.783   3.577  0.00  0.00    +0.168 HD
ATOM     29  C   LIG    1       27.018 -14.272   3.108  0.00  0.00    +0.198 A 
ATOM     30  N   LIG    1       23.693 -14.741   4.120  0.00  0.00    -0.216 NA
ATOM     31  C   LIG    1       23.179 -15.978   4.259  0.00  0.00    +0.225 A 
ATOM     32  N   LIG    1       27.015 -15.589   3.110  0.00  0.00    -0.231 NA
ATOM     33  N   LIG    1       23.789 -17.169   4.065  0.00  0.00    -0.219 NA
ENDBRANCH  22  24
ENDBRANCH  19  22
ENDBRANCH   1  19
TORSDOF 5
ENDMDL
MODEL 3
REMARK VINA RESULT:      -7.9      7.126      9.690
REMARK  Name = *****
REMARK                            x       y       z     vdW  Elec       q    Type
REMARK                         _______ _______ _______ _____ _____    ______ ____
ROOT
ATOM      1  C   LIG    1       25.744 -28.550  11.648  0.00  0.00    +0.138 C 
ATOM      2  N   LIG    1       24.536 -28.925  12.225  0.00  0.00    -0.263 N 
ATOM      3  C   LIG    1       23.948 -28.159  13.248  0.00  0.00    +0.269 C 
ATOM      4  O   LIG    1       22.897 -28.440  13.815  0.00  0.00    -0.267 OA
ATOM      5  C   LIG    1       24.652 -26.920  13.621  0.00  0.00    +0.100 A 
ATOM      6  C   LIG    1       25.840 -26.629  12.960  0.00  0.00    +0.081 A 
ATOM      7  C   LIG    1       26.542 -25.464  13.293  0.00  0.00    +0.029 A 
ATOM      8  C   LIG    1       26.059 -24.591  14.269  0.00  0.00    +0.005 A 
ATOM      9  C   LIG    1       24.863 -24.882  14.918  0.00  0.00    +0.039 A 
ATOM     10  C   LIG    1       24.165 -26.044  14.593  0.00  0.00    +0.138 A 
ATOM     11  F   LIG    1       23.019 -26.283  15.246  0.00  0.00    -0.205 F 
ATOM     12  N   LIG    1       26.380 -27.464  11.983  0.00  0.00    -0.231 NA
ENDROOT
BRANCH   2  13
ATOM     13  C   LIG    1       23.808 -30.071  11.784  0.00  0.00    +0.051 A 
ATOM     14  C   LIG    1       24.162 -31.353  12.227  0.00  0.00    +0.026 A 
ATOM     15  C   LIG    1       23.472 -32.473  11.761  0.00  0.00    +0.002 A 
ATOM     16  C   LIG    1       22.425 -32.323  10.853  0.00  0.00    +0.000 A 
ATOM     17  C   LIG    1       22.062 -31.052  10.412  0.00  0.00    +0.002 A 
ATOM     18  C   LIG    1       22.755 -29.930  10.870  0.00  0.00    +0.026 A 
ENDBRANCH   2  13
BRANCH   1  19
ATOM     19  C   LIG    1       26.449 -29.480  10.616  0.00  0.00    +0.138 C 
BRANCH  19  21
ATOM     20  C   LIG    1       28.238 -29.743  12.428  0.00  0.00    +0.006 C 
ATOM     21  C   LIG    1       27.955 -29.573  10.938  0.00  0.00    +0.027 C 
ENDBRANCH  19  21
BRANCH  19  22
ATOM     22  N   LIG    1       26.253 -28.875   9.294  0.00  0.00    -0.317 N 
ATOM     23  H   LIG    1       27.051 -28.366   8.920  0.00  0.00    +0.148 HD
BRANCH  22  24
ATOM     24  C   LIG    1       25.501 -29.531   8.334  0.00  0.00    +0.150 A 
ATOM     25  C   LIG    1       24.984 -28.870   7.199  0.00  0.00    +0.147 A 
ATOM     26  C   LIG    1       24.187 -29.619   6.349  0.00  0.00    +0.163 A 
ATOM     27  N   LIG    1       23.816 -28.764   5.353  0.00  0.00    -0.329 N 
ATOM     28  H   LIG    1       23.223 -29.000   4.572  0.00  0.00    +0.168 HD
ATOM     29  C   LIG    1       24.400 -27.553   5.612  0.00  0.00    +0.198 A 
ATOM     30  N   LIG    1       23.839 -30.907   6.468  0.00  0.00    -0.216 NA
ATOM     31  C   LIG    1       24.392 -31.442   7.573  0.00  0.00    +0.225 A 
ATOM     32  N   LIG    1       25.107 -27.576   6.723  0.00  0.00    -0.231 NA
ATOM     33  N   LIG    1       25.188 -30.846   8.488  0.00  0.00    -0.219 NA
ENDBRANCH  22  24
ENDBRANCH  19  22
ENDBRANCH   1  19
TORSDOF 5
ENDMDL
MODEL 4
REMARK VINA RESULT:      -7.8      6.408      9.513
REMARK  Name = *****
REMARK                            x       y       z     vdW  Elec       q    Type
REMARK                         _______ _______ _______ _____ _____    ______ ____
ROOT
ATOM      1  C   LIG    1       25.769 -28.777  10.940  0.00  0.00    +0.138 C 
ATOM      2  N   LIG    1       24.755 -29.309  11.728  0.00  0.00    -0.263 N 
ATOM      3  C   LIG    1       24.466 -28.781  12.999  0.00  0.00    +0.269 C 
ATOM      4  O   LIG    1       23.602 -29.213  13.755  0.00  0.00    -0.267 OA
ATOM      5  C   LIG    1       25.254 -27.606  13.411  0.00  0.00    +0.100 A 
ATOM      6  C   LIG    1       26.225 -27.140  12.533  0.00  0.00    +0.081 A 
ATOM      7  C   LIG    1       26.999 -26.030  12.893  0.00  0.00    +0.029 A 
ATOM      8  C   LIG    1       26.801 -25.383  14.113  0.00  0.00    +0.005 A 
ATOM      9  C   LIG    1       25.818 -25.848  14.982  0.00  0.00    +0.039 A 
ATOM     10  C   LIG    1       25.050 -26.956  14.629  0.00  0.00    +0.138 A 
ATOM     11  F   LIG    1       24.117 -27.367  15.499  0.00  0.00    -0.205 F 
ATOM     12  N   LIG    1       26.480 -27.747  11.304  0.00  0.00    -0.231 NA
ENDROOT
BRANCH   2  13
ATOM     13  C   LIG    1       23.927 -30.381  11.277  0.00  0.00    +0.051 A 
ATOM     14  C   LIG    1       22.761 -30.119  10.544  0.00  0.00    +0.026 A 
ATOM     15  C   LIG    1       21.934 -31.169  10.140  0.00  0.00    +0.002 A 
ATOM     16  C   LIG    1       22.264 -32.484  10.463  0.00  0.00    +0.000 A 
ATOM     17  C   LIG    1       23.424 -32.754  11.186  0.00  0.00    +0.002 A 
ATOM     18  C   LIG    1       24.250 -31.706  11.598  0.00  0.00    +0.026 A 
ENDBRANCH   2  13
BRANCH   1  19
ATOM     19  C   LIG    1       26.167 -29.459   9.598  0.00  0.00    +0.138 C 
BRANCH  19  21
ATOM     20  C   LIG    1       27.034 -31.812   9.087  0.00  0.00    +0.006 C 
ATOM     21  C   LIG    1       27.266 -30.511   9.850  0.00  0.00    +0.027 C 
ENDBRANCH  19  21
BRANCH  19  22
ATOM     22  N   LIG    1       26.676 -28.401   8.717  0.00  0.00    -0.317 N 
ATOM     23  H   LIG    1       27.670 -28.445   8.504  0.00  0.00    +0.148 HD
BRANCH  22  24
ATOM     24  C   LIG    1       25.896 -27.929   7.674  0.00  0.00    +0.150 A 
ATOM     25  C   LIG    1       25.031 -28.767   6.939  0.00  0.00    +0.147 A 
ATOM     26  C   LIG    1       24.359 -28.191   5.874  0.00  0.00    +0.163 A 
ATOM     27  N   LIG    1       23.607 -29.194   5.335  0.00  0.00    -0.329 N 
ATOM     28  H   LIG    1       23.001 -29.102   4.534  0.00  0.00    +0.168 HD
ATOM     29  C   LIG    1       23.824 -30.319   6.084  0.00  0.00    +0.198 A 
ATOM     30  N   LIG    1       24.427 -26.924   5.445  0.00  0.00    -0.216 NA
ATOM     31  C   LIG    1       25.269 -26.212   6.219  0.00  0.00    +0.225 A 
ATOM     32  N   LIG    1       24.685 -30.103   7.058  0.00  0.00    -0.231 NA
ATOM     33  N   LIG    1       25.986 -26.628   7.286  0.00  0.00    -0.219 NA
ENDBRANCH  22  24
ENDBRANCH  19  22
ENDBRANCH   1  19
TORSDOF 5
ENDMDL
MODEL 5
REMARK VINA RESULT:      -7.7      2.987      6.340
REMARK  Name = *****
REMARK                            x       y       z     vdW  Elec       q    Type
REMARK                         _______ _______ _______ _____ _____    ______ ____
ROOT
ATOM      1  C   LIG    1       26.772 -20.981   6.081  0.00  0.00    +0.138 C 
ATOM      2  N   LIG    1       25.516 -21.340   5.609  0.00  0.00    -0.263 N 
ATOM      3  C   LIG    1       24.804 -20.509   4.725  0.00  0.00    +0.269 C 
ATOM      4  O   LIG    1       23.685 -20.752   4.286  0.00  0.00    -0.267 OA
ATOM      5  C   LIG    1       25.491 -19.280   4.290  0.00  0.00    +0.100 A 
ATOM      6  C   LIG    1       26.758 -19.032   4.806  0.00  0.00    +0.081 A 
ATOM      7  C   LIG    1       27.439 -17.871   4.421  0.00  0.00    +0.029 A 
ATOM      8  C   LIG    1       26.867 -16.968   3.524  0.00  0.00    +0.005 A 
ATOM      9  C   LIG    1       25.603 -17.229   3.003  0.00  0.00    +0.039 A 
ATOM     10  C   LIG    1       24.920 -18.381   3.387  0.00  0.00    +0.138 A 
ATOM     11  F   LIG    1       23.706 -18.588   2.860  0.00  0.00    -0.205 F 
ATOM     12  N   LIG    1       27.381 -19.889   5.713  0.00  0.00    -0.231 NA
ENDROOT
BRANCH   2  13
ATOM     13  C   LIG    1       24.903 -22.582   5.953  0.00  0.00    +0.051 A 
ATOM     14  C   LIG    1       25.515 -23.796   5.614  0.00  0.00    +0.026 A 
ATOM     15  C   LIG    1       24.891 -25.008   5.918  0.00  0.00    +0.002 A 
ATOM     16  C   LIG    1       23.655 -25.016   6.561  0.00  0.00    +0.000 A 
ATOM     17  C   LIG    1       23.041 -23.814   6.908  0.00  0.00    +0.002 A 
ATOM     18  C   LIG    1       23.659 -22.600   6.599  0.00  0.00    +0.026 A 
ENDBRANCH   2  13
BRANCH   1  19
ATOM     19  C   LIG    1       27.486 -21.843   7.164  0.00  0.00    +0.138 C 
BRANCH  19  21
ATOM     20  C   LIG    1       25.874 -20.657   8.760  0.00  0.00    +0.006 C 
ATOM     21  C   LIG    1       27.282 -21.212   8.556  0.00  0.00    +0.027 C 
ENDBRANCH  19  21
BRANCH  19  22
ATOM     22  N   LIG    1       28.913 -21.859   6.823  0.00  0.00    -0.317 N 
ATOM     23  H   LIG    1       29.140 -21.611   5.862  0.00  0.00    +0.148 HD
BRANCH  22  24
ATOM     24  C   LIG    1       29.854 -21.442   7.750  0.00  0.00    +0.150 A 
ATOM     25  C   LIG    1       30.243 -20.091   7.876  0.00  0.00    +0.147 A 
ATOM     26  C   LIG    1       31.245 -19.812   8.790  0.00  0.00    +0.163 A 
ATOM     27  N   LIG    1       31.436 -18.463   8.718  0.00  0.00    -0.329 N 
ATOM     28  H   LIG    1       32.108 -17.940   9.258  0.00  0.00    +0.168 HD
ATOM     29  C   LIG    1       30.550 -17.971   7.797  0.00  0.00    +0.198 A 
ATOM     30  N   LIG    1       31.904 -20.672   9.579  0.00  0.00    -0.216 NA
ATOM     31  C   LIG    1       31.450 -21.925   9.387  0.00  0.00    +0.225 A 
ATOM     32  N   LIG    1       29.818 -18.926   7.261  0.00  0.00    -0.231 NA
ATOM     33  N   LIG    1       30.483 -22.350   8.544  0.00  0.00    -0.219 NA
ENDBRANCH  22  24
ENDBRANCH  19  22
ENDBRANCH   1  19
TORSDOF 5
ENDMDL
MODEL 6
REMARK VINA RESULT:      -7.6      7.517     10.224
REMARK  Name = *****
REMARK                            x       y       z     vdW  Elec       q    Type
REMARK                         _______ _______ _______ _____ _____    ______ ____
ROOT
ATOM      1  C   LIG    1       24.434 -29.717  11.576  0.00  0.00    +0.138 C 
ATOM      2  N   LIG    1       23.223 -29.461  12.208  0.00  0.00    -0.263 N 
ATOM      3  C   LIG    1       23.055 -28.333  13.032  0.00  0.00    +0.269 C 
ATOM      4  O   LIG    1       22.024 -28.057  13.636  0.00  0.00    -0.267 OA
ATOM      5  C   LIG    1       24.208 -27.421  13.132  0.00  0.00    +0.100 A 
ATOM      6  C   LIG    1       25.362 -27.762  12.436  0.00  0.00    +0.081 A 
ATOM      7  C   LIG    1       26.481 -26.924  12.513  0.00  0.00    +0.029 A 
ATOM      8  C   LIG    1       26.448 -25.751  13.269  0.00  0.00    +0.005 A 
ATOM      9  C   LIG    1       25.285 -25.411  13.953  0.00  0.00    +0.039 A 
ATOM     10  C   LIG    1       24.171 -26.246  13.883  0.00  0.00    +0.138 A 
ATOM     11  F   LIG    1       23.075 -25.876  14.560  0.00  0.00    -0.205 F 
ATOM     12  N   LIG    1       25.463 -28.923  11.672  0.00  0.00    -0.231 NA
ENDROOT
BRANCH   2  13
ATOM     13  C   LIG    1       22.079 -30.294  12.022  0.00  0.00    +0.051 A 
ATOM     14  C   LIG    1       21.221 -30.091  10.932  0.00  0.00    +0.026 A 
ATOM     15  C   LIG    1       20.081 -30.882  10.777  0.00  0.00    +0.002 A 
ATOM     16  C   LIG    1       19.790 -31.880  11.705  0.00  0.00    +0.000 A 
ATOM     17  C   LIG    1       20.641 -32.093  12.789  0.00  0.00    +0.002 A 
ATOM     18  C   LIG    1       21.777 -31.298  12.951  0.00  0.00    +0.026 A 
ENDBRANCH   2  13
BRANCH   1  19
ATOM     19  C   LIG    1       24.646 -31.040  10.781  0.00  0.00    +0.138 C 
BRANCH  19  21
ATOM     20  C   LIG    1       24.977 -33.440  11.605  0.00  0.00    +0.006 C 
ATOM     21  C   LIG    1       25.516 -32.012  11.604  0.00  0.00    +0.027 C 
ENDBRANCH  19  21
BRANCH  19  22
ATOM     22  N   LIG    1       25.333 -30.682   9.535  0.00  0.00    -0.317 N 
ATOM     23  H   LIG    1       26.345 -30.791   9.542  0.00  0.00    +0.148 HD
BRANCH  22  24
ATOM     24  C   LIG    1       24.744 -30.959   8.312  0.00  0.00    +0.150 A 
ATOM     25  C   LIG    1       24.547 -29.967   7.327  0.00  0.00    +0.147 A 
ATOM     26  C   LIG    1       23.882 -30.354   6.176  0.00  0.00    +0.163 A 
ATOM     27  N   LIG    1       23.816 -29.232   5.402  0.00  0.00    -0.329 N 
ATOM     28  H   LIG    1       23.383 -29.176   4.492  0.00  0.00    +0.168 HD
ATOM     29  C   LIG    1       24.444 -28.225   6.083  0.00  0.00    +0.198 A 
ATOM     30  N   LIG    1       23.395 -31.565   5.873  0.00  0.00    -0.216 NA
ATOM     31  C   LIG    1       23.646 -32.434   6.870  0.00  0.00    +0.225 A 
ATOM     32  N   LIG    1       24.892 -28.628   7.254  0.00  0.00    -0.231 NA
ATOM     33  N   LIG    1       24.282 -32.209   8.042  0.00  0.00    -0.219 NA
ENDBRANCH  22  24
ENDBRANCH  19  22
ENDBRANCH   1  19
TORSDOF 5
ENDMDL
MODEL 7
REMARK VINA RESULT:      -7.6      2.878      6.373
REMARK  Name = *****
REMARK                            x       y       z     vdW  Elec       q    Type
REMARK                         _______ _______ _______ _____ _____    ______ ____
ROOT
ATOM      1  C   LIG    1       25.991 -22.968   6.877  0.00  0.00    +0.138 C 
ATOM      2  N   LIG    1       25.007 -22.911   5.898  0.00  0.00    -0.263 N 
ATOM      3  C   LIG    1       24.438 -24.083   5.366  0.00  0.00    +0.269 C 
ATOM      4  O   LIG    1       23.583 -24.109   4.488  0.00  0.00    -0.267 OA
ATOM      5  C   LIG    1       24.902 -25.355   5.949  0.00  0.00    +0.100 A 
ATOM      6  C   LIG    1       25.872 -25.293   6.943  0.00  0.00    +0.081 A 
ATOM      7  C   LIG    1       26.343 -26.481   7.516  0.00  0.00    +0.029 A 
ATOM      8  C   LIG    1       25.845 -27.719   7.109  0.00  0.00    +0.005 A 
ATOM      9  C   LIG    1       24.865 -27.773   6.121  0.00  0.00    +0.039 A 
ATOM     10  C   LIG    1       24.398 -26.592   5.546  0.00  0.00    +0.138 A 
ATOM     11  F   LIG    1       23.456 -26.694   4.598  0.00  0.00    -0.205 F 
ATOM     12  N   LIG    1       26.417 -24.089   7.387  0.00  0.00    -0.231 NA
ENDROOT
BRANCH   2  13
ATOM     13  C   LIG    1       24.489 -21.673   5.414  0.00  0.00    +0.051 A 
ATOM     14  C   LIG    1       23.342 -21.108   5.988  0.00  0.00    +0.026 A 
ATOM     15  C   LIG    1       22.817 -19.916   5.485  0.00  0.00    +0.002 A 
ATOM     16  C   LIG    1       23.431 -19.281   4.407  0.00  0.00    +0.000 A 
ATOM     17  C   LIG    1       24.575 -19.832   3.833  0.00  0.00    +0.002 A 
ATOM     18  C   LIG    1       25.098 -21.028   4.329  0.00  0.00    +0.026 A 
ENDBRANCH   2  13
BRANCH   1  19
ATOM     19  C   LIG    1       26.707 -21.670   7.355  0.00  0.00    +0.138 C 
BRANCH  19  21
ATOM     20  C   LIG    1       25.897 -20.234   9.313  0.00  0.00    +0.006 C 
ATOM     21  C   LIG    1       25.664 -20.654   7.864  0.00  0.00    +0.027 C 
ENDBRANCH  19  21
BRANCH  19  22
ATOM     22  N   LIG    1       27.417 -21.123   6.193  0.00  0.00    -0.317 N 
ATOM     23  H   LIG    1       26.833 -20.865   5.401  0.00  0.00    +0.148 HD
BRANCH  22  24
ATOM     24  C   LIG    1       28.518 -20.302   6.374  0.00  0.00    +0.150 A 
ATOM     25  C   LIG    1       29.503 -20.564   7.350  0.00  0.00    +0.147 A 
ATOM     26  C   LIG    1       30.516 -19.629   7.482  0.00  0.00    +0.163 A 
ATOM     27  N   LIG    1       31.320 -20.104   8.476  0.00  0.00    -0.329 N 
ATOM     28  H   LIG    1       32.152 -19.648   8.821  0.00  0.00    +0.168 HD
ATOM     29  C   LIG    1       30.794 -21.295   8.897  0.00  0.00    +0.198 A 
ATOM     30  N   LIG    1       30.682 -18.492   6.793  0.00  0.00    -0.216 NA
ATOM     31  C   LIG    1       29.698 -18.346   5.885  0.00  0.00    +0.225 A 
ATOM     32  N   LIG    1       29.691 -21.603   8.246  0.00  0.00    -0.231 NA
ATOM     33  N   LIG    1       28.654 -19.166   5.637  0.00  0.00    -0.219 NA
ENDBRANCH  22  24
ENDBRANCH  19  22
ENDBRANCH   1  19
TORSDOF 5
ENDMDL
MODEL 8
REMARK VINA RESULT:      -7.6      2.657      6.157
REMARK  Name = *****
REMARK                            x       y       z     vdW  Elec       q    Type
REMARK                         _______ _______ _______ _____ _____    ______ ____
ROOT
ATOM      1  C   LIG    1       25.368 -22.669   6.929  0.00  0.00    +0.138 C 
ATOM      2  N   LIG    1       24.981 -22.627   5.595  0.00  0.00    -0.263 N 
ATOM      3  C   LIG    1       24.988 -23.785   4.797  0.00  0.00    +0.269 C 
ATOM      4  O   LIG    1       24.680 -23.818   3.611  0.00  0.00    -0.267 OA
ATOM      5  C   LIG    1       25.367 -25.039   5.472  0.00  0.00    +0.100 A 
ATOM      6  C   LIG    1       25.711 -24.969   6.817  0.00  0.00    +0.081 A 
ATOM      7  C   LIG    1       26.085 -26.139   7.490  0.00  0.00    +0.029 A 
ATOM      8  C   LIG    1       26.107 -27.369   6.832  0.00  0.00    +0.005 A 
ATOM      9  C   LIG    1       25.750 -27.433   5.488  0.00  0.00    +0.039 A 
ATOM     10  C   LIG    1       25.382 -26.270   4.814  0.00  0.00    +0.138 A 
ATOM     11  F   LIG    1       25.048 -26.382   3.521  0.00  0.00    -0.205 F 
ATOM     12  N   LIG    1       25.719 -23.771   7.529  0.00  0.00    -0.231 NA
ENDROOT
BRANCH   2  13
ATOM     13  C   LIG    1       24.514 -21.428   4.978  0.00  0.00    +0.051 A 
ATOM     14  C   LIG    1       25.411 -20.557   4.345  0.00  0.00    +0.026 A 
ATOM     15  C   LIG    1       24.955 -19.366   3.778  0.00  0.00    +0.002 A 
ATOM     16  C   LIG    1       23.602 -19.036   3.838  0.00  0.00    +0.000 A 
ATOM     17  C   LIG    1       22.701 -19.898   4.460  0.00  0.00    +0.002 A 
ATOM     18  C   LIG    1       23.156 -21.087   5.035  0.00  0.00    +0.026 A 
ENDBRANCH   2  13
BRANCH   1  19
ATOM     19  C   LIG    1       25.487 -21.356   7.759  0.00  0.00    +0.138 C 
BRANCH  19  21
ATOM     20  C   LIG    1       22.963 -21.653   8.070  0.00  0.00    +0.006 C 
ATOM     21  C   LIG    1       24.109 -20.669   7.853  0.00  0.00    +0.027 C 
ENDBRANCH  19  21
BRANCH  19  22
ATOM     22  N   LIG    1       26.435 -20.488   7.051  0.00  0.00    -0.317 N 
ATOM     23  H   LIG    1       26.086 -19.565   6.802  0.00  0.00    +0.148 HD
BRANCH  22  24
ATOM     24  C   LIG    1       27.780 -20.513   7.381  0.00  0.00    +0.150 A 
ATOM     25  C   LIG    1       28.742 -19.752   6.683  0.00  0.00    +0.147 A 
ATOM     26  C   LIG    1       30.064 -19.918   7.061  0.00  0.00    +0.163 A 
ATOM     27  N   LIG    1       30.780 -19.092   6.246  0.00  0.00    -0.329 N 
ATOM     28  H   LIG    1       31.783 -18.983   6.262  0.00  0.00    +0.168 HD
ATOM     29  C   LIG    1       29.891 -18.450   5.427  0.00  0.00    +0.198 A 
ATOM     30  N   LIG    1       30.553 -20.719   8.017  0.00  0.00    -0.216 NA
ATOM     31  C   LIG    1       29.554 -21.387   8.625  0.00  0.00    +0.225 A 
ATOM     32  N   LIG    1       28.650 -18.828   5.656  0.00  0.00    -0.231 NA
ATOM     33  N   LIG    1       28.228 -21.329   8.373  0.00  0.00    -0.219 NA
ENDBRANCH  22  24
ENDBRANCH  19  22
ENDBRANCH   1  19
TORSDOF 5
ENDMDL
MODEL 9
REMARK VINA RESULT:      -7.4      6.233     10.097
REMARK  Name = *****
REMARK                            x       y       z     vdW  Elec       q    Type
REMARK                         _______ _______ _______ _____ _____    ______ ____
ROOT
ATOM      1  C   LIG    1       25.641 -29.324   9.252  0.00  0.00    +0.138 C 
ATOM      2  N   LIG    1       24.781 -30.110   8.496  0.00  0.00    -0.263 N 
ATOM      3  C   LIG    1       24.383 -29.722   7.204  0.00  0.00    +0.269 C 
ATOM      4  O   LIG    1       23.612 -30.354   6.490  0.00  0.00    -0.267 OA
ATOM      5  C   LIG    1       24.975 -28.475   6.687  0.00  0.00    +0.100 A 
ATOM      6  C   LIG    1       25.845 -27.781   7.520  0.00  0.00    +0.081 A 
ATOM      7  C   LIG    1       26.421 -26.588   7.067  0.00  0.00    +0.029 A 
ATOM      8  C   LIG    1       26.142 -26.096   5.791  0.00  0.00    +0.005 A 
ATOM      9  C   LIG    1       25.279 -26.803   4.959  0.00  0.00    +0.039 A 
ATOM     10  C   LIG    1       24.699 -27.988   5.409  0.00  0.00    +0.138 A 
ATOM     11  F   LIG    1       23.875 -28.633   4.572  0.00  0.00    -0.205 F 
ATOM     12  N   LIG    1       26.158 -28.213   8.808  0.00  0.00    -0.231 NA
ENDROOT
BRANCH   2  13
ATOM     13  C   LIG    1       24.295 -31.368   8.964  0.00  0.00    +0.051 A 
ATOM     14  C   LIG    1       23.007 -31.477   9.505  0.00  0.00    +0.026 A 
ATOM     15  C   LIG    1       22.552 -32.702   9.998  0.00  0.00    +0.002 A 
ATOM     16  C   LIG    1       23.377 -33.825   9.953  0.00  0.00    +0.000 A 
ATOM     17  C   LIG    1       24.657 -33.727   9.411  0.00  0.00    +0.002 A 
ATOM     18  C   LIG    1       25.118 -32.502   8.925  0.00  0.00    +0.026 A 
ENDBRANCH   2  13
BRANCH   1  19
ATOM     19  C   LIG    1       25.962 -29.699  10.730  0.00  0.00    +0.138 C 
BRANCH  19  21
ATOM     20  C   LIG    1       24.386 -30.335  12.643  0.00  0.00    +0.006 C 
ATOM     21  C   LIG    1       24.803 -29.257  11.646  0.00  0.00    +0.027 C 
ENDBRANCH  19  21
BRANCH  19  22
ATOM     22  N   LIG    1       27.191 -28.984  11.093  0.00  0.00    -0.317 N 
ATOM     23  H   LIG    1       27.395 -28.151  10.544  0.00  0.00    +0.148 HD
BRANCH  22  24
ATOM     24  C   LIG    1       27.576 -28.893  12.420  0.00  0.00    +0.150 A 
ATOM     25  C   LIG    1       27.408 -27.713  13.176  0.00  0.00    +0.147 A 
ATOM     26  C   LIG    1       27.900 -27.725  14.471  0.00  0.00    +0.163 A 
ATOM     27  N   LIG    1       27.622 -26.489  14.976  0.00  0.00    -0.329 N 
ATOM     28  H   LIG    1       27.858 -26.171  15.904  0.00  0.00    +0.168 HD
ATOM     29  C   LIG    1       26.968 -25.784  14.001  0.00  0.00    +0.198 A 
ATOM     30  N   LIG    1       28.524 -28.726  15.106  0.00  0.00    -0.216 NA
ATOM     31  C   LIG    1       28.621 -29.802  14.302  0.00  0.00    +0.225 A 
ATOM     32  N   LIG    1       26.827 -26.488  12.896  0.00  0.00    -0.231 NA
ATOM     33  N   LIG    1       28.190 -29.943  13.029  0.00  0.00    -0.219 NA
ENDBRANCH  22  24
ENDBRANCH  19  22
ENDBRANCH   1  19
TORSDOF 5
ENDMDL
