MODEL 1
REMARK VINA RESULT:      -7.4      0.000      0.000
REMARK  Name = *****
REMARK                            x       y       z     vdW  Elec       q    Type
REMARK                         _______ _______ _______ _____ _____    ______ ____
ROOT
ATOM      1  C   LIG    1       31.186 -19.144   7.996  0.00  0.00    +0.247 A 
ATOM      2  C   LIG    1       29.985 -19.416   7.333  0.00  0.00    +0.169 A 
ATOM      3  N   LIG    1       29.245 -18.732   6.390  0.00  0.00    -0.229 NA
ATOM      4  C   LIG    1       28.225 -19.517   6.125  0.00  0.00    +0.204 A 
ATOM      5  N   LIG    1       28.259 -20.668   6.863  0.00  0.00    -0.285 N 
ATOM      6  C   LIG    1       29.387 -20.628   7.636  0.00  0.00    +0.171 A 
ATOM      7  N   LIG    1       29.836 -21.564   8.488  0.00  0.00    -0.195 NA
ATOM      8  C   LIG    1       30.981 -21.194   9.084  0.00  0.00    +0.218 A 
ATOM      9  N   LIG    1       31.674 -20.063   8.872  0.00  0.00    -0.178 NA
ENDROOT
BRANCH   5  10
ATOM     10  C1* LIG    1       27.316 -21.759   6.797  0.00  0.00    +0.253 C 
ATOM     11  C2* LIG    1       26.597 -22.105   8.106  0.00  0.00    +0.195 C 
ATOM     12  C3* LIG    1       25.268 -22.641   7.587  0.00  0.00    +0.178 C 
ATOM     13  C4* LIG    1       25.013 -21.834   6.311  0.00  0.00    +0.177 C 
ATOM     14  O4* LIG    1       26.310 -21.466   5.793  0.00  0.00    -0.346 OA
BRANCH  11  15
ATOM     15  O2* LIG    1       26.387 -20.995   8.982  0.00  0.00    -0.385 OA
ATOM     16  H2* LIG    1       26.249 -21.336   9.893  0.00  0.00    +0.210 HD
ENDBRANCH  11  15
BRANCH  12  17
ATOM     17  O3* LIG    1       25.400 -24.033   7.259  0.00  0.00    -0.386 OA
ATOM     18  H3* LIG    1       24.932 -24.571   7.923  0.00  0.00    +0.210 HD
ENDBRANCH  12  17
BRANCH  13  19
ATOM     19  C5* LIG    1       24.171 -20.565   6.502  0.00  0.00    +0.190 C 
BRANCH  19  20
ATOM     20  O5* LIG    1       23.513 -20.554   7.768  0.00  0.00    -0.392 OA
ATOM     21  H5* LIG    1       23.044 -19.699   7.834  0.00  0.00    +0.209 HD
ENDBRANCH  19  20
ENDBRANCH  13  19
ENDBRANCH   5  10
BRANCH   8  22
ATOM     22  N   LIG    1       31.548 -22.096   9.966  0.00  0.00    -0.327 N 
ATOM     23  H   LIG    1       32.533 -21.905  10.074  0.00  0.00    +0.145 HD
ATOM     24  H   LIG    1       30.988 -22.138  10.806  0.00  0.00    +0.145 HD
ENDBRANCH   8  22
BRANCH   1  26
ATOM     25  C   LIG    1       32.094 -17.219   9.012  0.00  0.00    +0.279 C 
ATOM     26  O   LIG    1       31.981 -18.020   7.842  0.00  0.00    -0.478 OA
ENDBRANCH   1  26
TORSDOF 7
ENDMDL
MODEL 2
REMARK VINA RESULT:      -7.3      1.976      3.637
REMARK  Name = *****
REMARK                            x       y       z     vdW  Elec       q    Type
REMARK                         _______ _______ _______ _____ _____    ______ ____
ROOT
ATOM      1  C   LIG    1       29.557 -20.525   7.638  0.00  0.00    +0.247 A 
ATOM      2  C   LIG    1       28.237 -20.964   7.786  0.00  0.00    +0.169 A 
ATOM      3  N   LIG    1       27.616 -21.825   8.669  0.00  0.00    -0.229 NA
ATOM      4  C   LIG    1       26.349 -21.807   8.324  0.00  0.00    +0.204 A 
ATOM      5  N   LIG    1       26.121 -20.991   7.251  0.00  0.00    -0.285 N 
ATOM      6  C   LIG    1       27.318 -20.431   6.897  0.00  0.00    +0.171 A 
ATOM      7  N   LIG    1       27.556 -19.542   5.919  0.00  0.00    -0.195 NA
ATOM      8  C   LIG    1       28.854 -19.205   5.852  0.00  0.00    +0.218 A 
ATOM      9  N   LIG    1       29.843 -19.628   6.657  0.00  0.00    -0.178 NA
ENDROOT
BRANCH   5  10
ATOM     10  C1* LIG    1       24.844 -20.716   6.637  0.00  0.00    +0.253 C 
ATOM     11  C2* LIG    1       24.642 -21.278   5.224  0.00  0.00    +0.195 C 
ATOM     12  C3* LIG    1       23.135 -21.509   5.204  0.00  0.00    +0.178 C 
ATOM     13  C4* LIG    1       22.796 -21.878   6.651  0.00  0.00    +0.177 C 
ATOM     14  O4* LIG    1       23.782 -21.228   7.482  0.00  0.00    -0.346 OA
BRANCH  11  15
ATOM     15  O2* LIG    1       25.344 -22.496   4.962  0.00  0.00    -0.385 OA
ATOM     16  H2* LIG    1       26.182 -22.280   4.498  0.00  0.00    +0.210 HD
ENDBRANCH  11  15
BRANCH  12  17
ATOM     17  O3* LIG    1       22.462 -20.293   4.846  0.00  0.00    -0.386 OA
ATOM     18  H3* LIG    1       23.081 -19.544   4.916  0.00  0.00    +0.210 HD
ENDBRANCH  12  17
BRANCH  13  19
ATOM     19  C5* LIG    1       22.798 -23.383   6.955  0.00  0.00    +0.190 C 
BRANCH  19  20
ATOM     20  O5* LIG    1       23.400 -24.133   5.902  0.00  0.00    -0.392 OA
ATOM     21  H5* LIG    1       24.364 -24.121   6.064  0.00  0.00    +0.209 HD
ENDBRANCH  19  20
ENDBRANCH  13  19
ENDBRANCH   5  10
BRANCH   8  22
ATOM     22  N   LIG    1       29.209 -18.272   4.893  0.00  0.00    -0.327 N 
ATOM     23  H   LIG    1       30.214 -18.208   4.825  0.00  0.00    +0.145 HD
ATOM     24  H   LIG    1       28.697 -18.457   4.042  0.00  0.00    +0.145 HD
ENDBRANCH   8  22
BRANCH   1  26
ATOM     25  C   LIG    1       31.453 -19.794   8.835  0.00  0.00    +0.279 C 
ATOM     26  O   LIG    1       30.643 -20.887   8.417  0.00  0.00    -0.478 OA
ENDBRANCH   1  26
TORSDOF 7
ENDMDL
MODEL 3
REMARK VINA RESULT:      -6.6      1.279      2.751
REMARK  Name = *****
REMARK                            x       y       z     vdW  Elec       q    Type
REMARK                         _______ _______ _______ _____ _____    ______ ____
ROOT
ATOM      1  C   LIG    1       30.805 -19.079   7.182  0.00  0.00    +0.247 A 
ATOM      2  C   LIG    1       30.078 -20.169   7.672  0.00  0.00    +0.169 A 
ATOM      3  N   LIG    1       30.296 -21.075   8.690  0.00  0.00    -0.229 NA
ATOM      4  C   LIG    1       29.233 -21.848   8.688  0.00  0.00    +0.204 A 
ATOM      5  N   LIG    1       28.346 -21.498   7.709  0.00  0.00    -0.285 N 
ATOM      6  C   LIG    1       28.863 -20.415   7.052  0.00  0.00    +0.171 A 
ATOM      7  N   LIG    1       28.313 -19.721   6.042  0.00  0.00    -0.195 NA
ATOM      8  C   LIG    1       29.100 -18.713   5.637  0.00  0.00    +0.218 A 
ATOM      9  N   LIG    1       30.285 -18.352   6.157  0.00  0.00    -0.178 NA
ENDROOT
BRANCH   5  10
ATOM     10  C1* LIG    1       27.066 -22.112   7.449  0.00  0.00    +0.253 C 
ATOM     11  C2* LIG    1       25.879 -21.555   8.243  0.00  0.00    +0.195 C 
ATOM     12  C3* LIG    1       24.728 -21.794   7.273  0.00  0.00    +0.178 C 
ATOM     13  C4* LIG    1       25.366 -21.632   5.891  0.00  0.00    +0.177 C 
ATOM     14  O4* LIG    1       26.756 -21.999   6.035  0.00  0.00    -0.346 OA
BRANCH  11  15
ATOM     15  O2* LIG    1       25.982 -20.168   8.575  0.00  0.00    -0.385 OA
ATOM     16  H2* LIG    1       25.434 -19.653   7.943  0.00  0.00    +0.210 HD
ENDBRANCH  11  15
BRANCH  12  17
ATOM     17  O3* LIG    1       24.235 -23.134   7.423  0.00  0.00    -0.386 OA
ATOM     18  H3* LIG    1       23.381 -23.117   7.890  0.00  0.00    +0.210 HD
ENDBRANCH  12  17
BRANCH  13  19
ATOM     19  C5* LIG    1       25.280 -20.219   5.297  0.00  0.00    +0.190 C 
BRANCH  19  20
ATOM     20  O5* LIG    1       26.167 -20.057   4.191  0.00  0.00    -0.392 OA
ATOM     21  H5* LIG    1       27.075 -20.135   4.544  0.00  0.00    +0.209 HD
ENDBRANCH  19  20
ENDBRANCH  13  19
ENDBRANCH   5  10
BRANCH   8  22
ATOM     22  N   LIG    1       28.618 -17.914   4.615  0.00  0.00    -0.327 N 
ATOM     23  H   LIG    1       27.877 -17.320   4.956  0.00  0.00    +0.145 HD
ATOM     24  H   LIG    1       29.395 -17.465   4.148  0.00  0.00    +0.145 HD
ENDBRANCH   8  22
BRANCH   1  26
ATOM     25  C   LIG    1       31.926 -17.743   8.771  0.00  0.00    +0.279 C 
ATOM     26  O   LIG    1       32.023 -18.617   7.652  0.00  0.00    -0.478 OA
ENDBRANCH   1  26
TORSDOF 7
ENDMDL
MODEL 4
REMARK VINA RESULT:      -6.6      2.517      6.486
REMARK  Name = *****
REMARK                            x       y       z     vdW  Elec       q    Type
REMARK                         _______ _______ _______ _____ _____    ______ ____
ROOT
ATOM      1  C   LIG    1       24.327 -20.753   6.332  0.00  0.00    +0.247 A 
ATOM      2  C   LIG    1       25.519 -20.768   7.064  0.00  0.00    +0.169 A 
ATOM      3  N   LIG    1       25.837 -21.148   8.352  0.00  0.00    -0.229 NA
ATOM      4  C   LIG    1       27.134 -20.962   8.450  0.00  0.00    +0.204 A 
ATOM      5  N   LIG    1       27.669 -20.462   7.294  0.00  0.00    -0.285 N 
ATOM      6  C   LIG    1       26.650 -20.341   6.388  0.00  0.00    +0.171 A 
ATOM      7  N   LIG    1       26.725 -19.924   5.114  0.00  0.00    -0.195 NA
ATOM      8  C   LIG    1       25.526 -19.930   4.512  0.00  0.00    +0.218 A 
ATOM      9  N   LIG    1       24.357 -20.333   5.039  0.00  0.00    -0.178 NA
ENDROOT
BRANCH   5  10
ATOM     10  C1* LIG    1       29.060 -20.173   7.046  0.00  0.00    +0.253 C 
ATOM     11  C2* LIG    1       29.655 -19.001   7.837  0.00  0.00    +0.195 C 
ATOM     12  C3* LIG    1       31.112 -19.432   7.963  0.00  0.00    +0.178 C 
ATOM     13  C4* LIG    1       31.044 -20.959   8.044  0.00  0.00    +0.177 C 
ATOM     14  O4* LIG    1       29.855 -21.355   7.325  0.00  0.00    -0.346 OA
BRANCH  11  15
ATOM     15  O2* LIG    1       29.074 -18.797   9.127  0.00  0.00    -0.385 OA
ATOM     16  H2* LIG    1       29.314 -17.897   9.439  0.00  0.00    +0.210 HD
ENDBRANCH  11  15
BRANCH  12  17
ATOM     17  O3* LIG    1       31.838 -19.043   6.787  0.00  0.00    -0.386 OA
ATOM     18  H3* LIG    1       32.484 -19.735   6.559  0.00  0.00    +0.210 HD
ENDBRANCH  12  17
BRANCH  13  19
ATOM     19  C5* LIG    1       30.983 -21.533   9.467  0.00  0.00    +0.190 C 
BRANCH  19  20
ATOM     20  O5* LIG    1       31.310 -22.921   9.491  0.00  0.00    -0.392 OA
ATOM     21  H5* LIG    1       32.109 -23.031   8.939  0.00  0.00    +0.209 HD
ENDBRANCH  19  20
ENDBRANCH  13  19
ENDBRANCH   5  10
BRANCH   8  22
ATOM     22  N   LIG    1       25.489 -19.541   3.184  0.00  0.00    -0.327 N 
ATOM     23  H   LIG    1       26.365 -19.115   2.921  0.00  0.00    +0.145 HD
ATOM     24  H   LIG    1       25.160 -20.312   2.620  0.00  0.00    +0.145 HD
ENDBRANCH   8  22
BRANCH   1  26
ATOM     25  C   LIG    1       22.921 -22.568   6.874  0.00  0.00    +0.279 C 
ATOM     26  O   LIG    1       23.078 -21.157   6.774  0.00  0.00    -0.478 OA
ENDBRANCH   1  26
TORSDOF 7
ENDMDL
MODEL 5
REMARK VINA RESULT:      -6.5      2.531      6.115
REMARK  Name = *****
REMARK                            x       y       z     vdW  Elec       q    Type
REMARK                         _______ _______ _______ _____ _____    ______ ____
ROOT
ATOM      1  C   LIG    1       25.757 -20.338   4.960  0.00  0.00    +0.247 A 
ATOM      2  C   LIG    1       27.004 -19.864   5.381  0.00  0.00    +0.169 A 
ATOM      3  N   LIG    1       27.832 -18.850   4.942  0.00  0.00    -0.229 NA
ATOM      4  C   LIG    1       28.856 -18.870   5.765  0.00  0.00    +0.204 A 
ATOM      5  N   LIG    1       28.740 -19.857   6.704  0.00  0.00    -0.285 N 
ATOM      6  C   LIG    1       27.553 -20.500   6.482  0.00  0.00    +0.171 A 
ATOM      7  N   LIG    1       27.018 -21.511   7.186  0.00  0.00    -0.195 NA
ATOM      8  C   LIG    1       25.835 -21.900   6.687  0.00  0.00    +0.218 A 
ATOM      9  N   LIG    1       25.181 -21.364   5.642  0.00  0.00    -0.178 NA
ENDROOT
BRANCH   5  10
ATOM     10  C1* LIG    1       29.666 -20.136   7.776  0.00  0.00    +0.253 C 
ATOM     11  C2* LIG    1       31.154 -20.081   7.411  0.00  0.00    +0.195 C 
ATOM     12  C3* LIG    1       31.774 -19.649   8.734  0.00  0.00    +0.178 C 
ATOM     13  C4* LIG    1       30.710 -18.749   9.368  0.00  0.00    +0.177 C 
ATOM     14  O4* LIG    1       29.435 -19.206   8.866  0.00  0.00    -0.346 OA
BRANCH  11  15
ATOM     15  O2* LIG    1       31.479 -19.153   6.373  0.00  0.00    -0.385 OA
ATOM     16  H2* LIG    1       32.357 -18.759   6.568  0.00  0.00    +0.210 HD
ENDBRANCH  11  15
BRANCH  12  17
ATOM     17  O3* LIG    1       31.992 -20.798   9.567  0.00  0.00    -0.386 OA
ATOM     18  H3* LIG    1       31.144 -21.095   9.943  0.00  0.00    +0.210 HD
ENDBRANCH  12  17
BRANCH  13  19
ATOM     19  C5* LIG    1       30.860 -17.252   9.064  0.00  0.00    +0.190 C 
BRANCH  19  20
ATOM     20  O5* LIG    1       32.131 -16.956   8.489  0.00  0.00    -0.392 OA
ATOM     21  H5* LIG    1       31.974 -16.759   7.545  0.00  0.00    +0.209 HD
ENDBRANCH  19  20
ENDBRANCH  13  19
ENDBRANCH   5  10
BRANCH   8  22
ATOM     22  N   LIG    1       25.180 -22.921   7.351  0.00  0.00    -0.327 N 
ATOM     23  H   LIG    1       24.765 -22.574   8.204  0.00  0.00    +0.145 HD
ATOM     24  H   LIG    1       24.573 -23.405   6.704  0.00  0.00    +0.145 HD
ENDBRANCH   8  22
BRANCH   1  26
ATOM     25  C   LIG    1       23.616 -19.692   4.211  0.00  0.00    +0.279 C 
ATOM     26  O   LIG    1       24.997 -19.851   3.909  0.00  0.00    -0.478 OA
ENDBRANCH   1  26
TORSDOF 7
ENDMDL
MODEL 6
REMARK VINA RESULT:      -6.5      2.215      3.854
REMARK  Name = *****
REMARK                            x       y       z     vdW  Elec       q    Type
REMARK                         _______ _______ _______ _____ _____    ______ ____
ROOT
ATOM      1  C   LIG    1       28.781 -20.580   7.757  0.00  0.00    +0.247 A 
ATOM      2  C   LIG    1       27.587 -21.308   7.754  0.00  0.00    +0.169 A 
ATOM      3  N   LIG    1       27.039 -22.238   8.615  0.00  0.00    -0.229 NA
ATOM      4  C   LIG    1       25.873 -22.540   8.090  0.00  0.00    +0.204 A 
ATOM      5  N   LIG    1       25.646 -21.864   6.922  0.00  0.00    -0.285 N 
ATOM      6  C   LIG    1       26.729 -21.060   6.694  0.00  0.00    +0.171 A 
ATOM      7  N   LIG    1       26.918 -20.198   5.682  0.00  0.00    -0.195 NA
ATOM      8  C   LIG    1       28.100 -19.569   5.771  0.00  0.00    +0.218 A 
ATOM      9  N   LIG    1       29.015 -19.699   6.747  0.00  0.00    -0.178 NA
ENDROOT
BRANCH   5  10
ATOM     10  C1* LIG    1       24.457 -21.934   6.107  0.00  0.00    +0.253 C 
ATOM     11  C2* LIG    1       23.233 -21.177   6.637  0.00  0.00    +0.195 C 
ATOM     12  C3* LIG    1       22.526 -20.800   5.340  0.00  0.00    +0.178 C 
ATOM     13  C4* LIG    1       23.667 -20.589   4.341  0.00  0.00    +0.177 C 
ATOM     14  O4* LIG    1       24.755 -21.434   4.778  0.00  0.00    -0.346 OA
BRANCH  11  15
ATOM     15  O2* LIG    1       23.541 -20.009   7.403  0.00  0.00    -0.385 OA
ATOM     16  H2* LIG    1       22.962 -19.275   7.101  0.00  0.00    +0.210 HD
ENDBRANCH  11  15
BRANCH  12  17
ATOM     17  O3* LIG    1       21.699 -21.890   4.904  0.00  0.00    -0.386 OA
ATOM     18  H3* LIG    1       21.850 -22.664   5.476  0.00  0.00    +0.210 HD
ENDBRANCH  12  17
BRANCH  13  19
ATOM     19  C5* LIG    1       24.171 -19.144   4.226  0.00  0.00    +0.190 C 
BRANCH  19  20
ATOM     20  O5* LIG    1       25.422 -19.074   3.544  0.00  0.00    -0.392 OA
ATOM     21  H5* LIG    1       25.617 -19.975   3.221  0.00  0.00    +0.209 HD
ENDBRANCH  19  20
ENDBRANCH  13  19
ENDBRANCH   5  10
BRANCH   8  22
ATOM     22  N   LIG    1       28.390 -18.637   4.790  0.00  0.00    -0.327 N 
ATOM     23  H   LIG    1       29.374 -18.415   4.800  0.00  0.00    +0.145 HD
ATOM     24  H   LIG    1       27.991 -18.941   3.913  0.00  0.00    +0.145 HD
ENDBRANCH   8  22
BRANCH   1  26
ATOM     25  C   LIG    1       30.917 -19.828   8.418  0.00  0.00    +0.279 C 
ATOM     26  O   LIG    1       29.779 -20.630   8.715  0.00  0.00    -0.478 OA
ENDBRANCH   1  26
TORSDOF 7
ENDMDL
MODEL 7
REMARK VINA RESULT:      -5.9      2.636      6.252
REMARK  Name = *****
REMARK                            x       y       z     vdW  Elec       q    Type
REMARK                         _______ _______ _______ _____ _____    ______ ____
ROOT
ATOM      1  C   LIG    1       24.179 -20.836   6.127  0.00  0.00    +0.247 A 
ATOM      2  C   LIG    1       25.091 -20.766   7.186  0.00  0.00    +0.169 A 
ATOM      3  N   LIG    1       25.010 -21.070   8.530  0.00  0.00    -0.229 NA
ATOM      4  C   LIG    1       26.211 -20.826   9.004  0.00  0.00    +0.204 A 
ATOM      5  N   LIG    1       27.060 -20.363   8.037  0.00  0.00    -0.285 N 
ATOM      6  C   LIG    1       26.364 -20.327   6.860  0.00  0.00    +0.171 A 
ATOM      7  N   LIG    1       26.813 -19.971   5.646  0.00  0.00    -0.195 NA
ATOM      8  C   LIG    1       25.855 -20.055   4.710  0.00  0.00    +0.218 A 
ATOM      9  N   LIG    1       24.592 -20.479   4.881  0.00  0.00    -0.178 NA
ENDROOT
BRANCH   5  10
ATOM     10  C1* LIG    1       28.454 -20.030   8.205  0.00  0.00    +0.253 C 
ATOM     11  C2* LIG    1       29.460 -21.063   7.682  0.00  0.00    +0.195 C 
ATOM     12  C3* LIG    1       30.636 -20.172   7.300  0.00  0.00    +0.178 C 
ATOM     13  C4* LIG    1       29.981 -18.867   6.840  0.00  0.00    +0.177 C 
ATOM     14  O4* LIG    1       28.729 -18.763   7.553  0.00  0.00    -0.346 OA
BRANCH  11  15
ATOM     15  O2* LIG    1       29.008 -21.817   6.554  0.00  0.00    -0.385 OA
ATOM     16  H2* LIG    1       28.038 -21.693   6.464  0.00  0.00    +0.210 HD
ENDBRANCH  11  15
BRANCH  12  17
ATOM     17  O3* LIG    1       31.452 -19.922   8.455  0.00  0.00    -0.386 OA
ATOM     18  H3* LIG    1       32.215 -20.528   8.454  0.00  0.00    +0.210 HD
ENDBRANCH  12  17
BRANCH  13  19
ATOM     19  C5* LIG    1       29.707 -18.774   5.332  0.00  0.00    +0.190 C 
BRANCH  19  20
ATOM     20  O5* LIG    1       28.849 -17.678   5.019  0.00  0.00    -0.392 OA
ATOM     21  H5* LIG    1       27.960 -17.915   5.347  0.00  0.00    +0.209 HD
ENDBRANCH  19  20
ENDBRANCH  13  19
ENDBRANCH   5  10
BRANCH   8  22
ATOM     22  N   LIG    1       26.215 -19.734   3.413  0.00  0.00    -0.327 N 
ATOM     23  H   LIG    1       27.217 -19.632   3.344  0.00  0.00    +0.145 HD
ATOM     24  H   LIG    1       25.769 -20.377   2.774  0.00  0.00    +0.145 HD
ENDBRANCH   8  22
BRANCH   1  26
ATOM     25  C   LIG    1       22.098 -20.990   5.027  0.00  0.00    +0.279 C 
ATOM     26  O   LIG    1       22.865 -21.267   6.193  0.00  0.00    -0.478 OA
ENDBRANCH   1  26
TORSDOF 7
ENDMDL
MODEL 8
REMARK VINA RESULT:      -5.9      5.373      7.919
REMARK  Name = *****
REMARK                            x       y       z     vdW  Elec       q    Type
REMARK                         _______ _______ _______ _____ _____    ______ ____
ROOT
ATOM      1  C   LIG    1       25.341 -23.177   6.414  0.00  0.00    +0.247 A 
ATOM      2  C   LIG    1       25.642 -24.537   6.286  0.00  0.00    +0.169 A 
ATOM      3  N   LIG    1       26.823 -25.241   6.171  0.00  0.00    -0.229 NA
ATOM      4  C   LIG    1       26.461 -26.503   6.119  0.00  0.00    +0.204 A 
ATOM      5  N   LIG    1       25.103 -26.650   6.178  0.00  0.00    -0.285 N 
ATOM      6  C   LIG    1       24.558 -25.401   6.297  0.00  0.00    +0.171 A 
ATOM      7  N   LIG    1       23.261 -25.074   6.421  0.00  0.00    -0.195 NA
ATOM      8  C   LIG    1       23.084 -23.747   6.516  0.00  0.00    +0.218 A 
ATOM      9  N   LIG    1       24.039 -22.802   6.537  0.00  0.00    -0.178 NA
ENDROOT
BRANCH   5  10
ATOM     10  C1* LIG    1       24.373 -27.895   6.179  0.00  0.00    +0.253 C 
ATOM     11  C2* LIG    1       24.914 -28.993   5.256  0.00  0.00    +0.195 C 
ATOM     12  C3* LIG    1       24.497 -30.252   6.008  0.00  0.00    +0.178 C 
ATOM     13  C4* LIG    1       24.571 -29.846   7.483  0.00  0.00    +0.177 C 
ATOM     14  O4* LIG    1       24.324 -28.424   7.530  0.00  0.00    -0.346 OA
BRANCH  11  15
ATOM     15  O2* LIG    1       26.330 -28.964   5.063  0.00  0.00    -0.385 OA
ATOM     16  H2* LIG    1       26.654 -29.888   4.980  0.00  0.00    +0.210 HD
ENDBRANCH  11  15
BRANCH  12  17
ATOM     17  O3* LIG    1       23.145 -30.595   5.670  0.00  0.00    -0.386 OA
ATOM     18  H3* LIG    1       22.814 -29.985   4.986  0.00  0.00    +0.210 HD
ENDBRANCH  12  17
BRANCH  13  19
ATOM     19  C5* LIG    1       25.909 -30.146   8.173  0.00  0.00    +0.190 C 
BRANCH  19  20
ATOM     20  O5* LIG    1       26.476 -28.974   8.756  0.00  0.00    -0.392 OA
ATOM     21  H5* LIG    1       26.930 -28.493   8.037  0.00  0.00    +0.209 HD
ENDBRANCH  19  20
ENDBRANCH  13  19
ENDBRANCH   5  10
BRANCH   8  22
ATOM     22  N   LIG    1       21.785 -23.299   6.673  0.00  0.00    -0.327 N 
ATOM     23  H   LIG    1       21.171 -23.774   6.028  0.00  0.00    +0.145 HD
ATOM     24  H   LIG    1       21.539 -23.326   7.653  0.00  0.00    +0.145 HD
ENDBRANCH   8  22
BRANCH   1  26
ATOM     25  C   LIG    1       25.690 -20.863   6.121  0.00  0.00    +0.279 C 
ATOM     26  O   LIG    1       26.245 -22.129   6.459  0.00  0.00    -0.478 OA
ENDBRANCH   1  26
TORSDOF 7
ENDMDL
MODEL 9
REMARK VINA RESULT:      -5.8      2.348      5.839
REMARK  Name = *****
REMARK                            x       y       z     vdW  Elec       q    Type
REMARK                         _______ _______ _______ _____ _____    ______ ____
ROOT
ATOM      1  C   LIG    1       26.461 -20.356   5.365  0.00  0.00    +0.247 A 
ATOM      2  C   LIG    1       27.597 -19.540   5.414  0.00  0.00    +0.169 A 
ATOM      3  N   LIG    1       28.059 -18.509   4.622  0.00  0.00    -0.229 NA
ATOM      4  C   LIG    1       29.171 -18.112   5.199  0.00  0.00    +0.204 A 
ATOM      5  N   LIG    1       29.460 -18.846   6.316  0.00  0.00    -0.285 N 
ATOM      6  C   LIG    1       28.456 -19.761   6.478  0.00  0.00    +0.171 A 
ATOM      7  N   LIG    1       28.313 -20.664   7.462  0.00  0.00    -0.195 NA
ATOM      8  C   LIG    1       27.205 -21.405   7.308  0.00  0.00    +0.218 A 
ATOM      9  N   LIG    1       26.281 -21.287   6.340  0.00  0.00    -0.178 NA
ENDROOT
BRANCH   5  10
ATOM     10  C1* LIG    1       30.582 -18.656   7.202  0.00  0.00    +0.253 C 
ATOM     11  C2* LIG    1       30.240 -18.283   8.650  0.00  0.00    +0.195 C 
ATOM     12  C3* LIG    1       31.415 -18.894   9.405  0.00  0.00    +0.178 C 
ATOM     13  C4* LIG    1       31.774 -20.140   8.590  0.00  0.00    +0.177 C 
ATOM     14  O4* LIG    1       31.387 -19.863   7.226  0.00  0.00    -0.346 OA
BRANCH  11  15
ATOM     15  O2* LIG    1       29.001 -18.815   9.125  0.00  0.00    -0.385 OA
ATOM     16  H2* LIG    1       28.341 -18.769   8.399  0.00  0.00    +0.210 HD
ENDBRANCH  11  15
BRANCH  12  17
ATOM     17  O3* LIG    1       32.523 -17.981   9.402  0.00  0.00    -0.386 OA
ATOM     18  H3* LIG    1       33.356 -18.479   9.321  0.00  0.00    +0.210 HD
ENDBRANCH  12  17
BRANCH  13  19
ATOM     19  C5* LIG    1       31.091 -21.436   9.051  0.00  0.00    +0.190 C 
BRANCH  19  20
ATOM     20  O5* LIG    1       31.913 -22.578   8.813  0.00  0.00    -0.392 OA
ATOM     21  H5* LIG    1       31.370 -23.214   8.307  0.00  0.00    +0.209 HD
ENDBRANCH  19  20
ENDBRANCH  13  19
ENDBRANCH   5  10
BRANCH   8  22
ATOM     22  N   LIG    1       26.945 -22.353   8.282  0.00  0.00    -0.327 N 
ATOM     23  H   LIG    1       25.998 -22.690   8.197  0.00  0.00    +0.145 HD
ATOM     24  H   LIG    1       27.685 -23.041   8.283  0.00  0.00    +0.145 HD
ENDBRANCH   8  22
BRANCH   1  26
ATOM     25  C   LIG    1       24.486 -21.351   4.546  0.00  0.00    +0.279 C 
ATOM     26  O   LIG    1       25.447 -20.309   4.423  0.00  0.00    -0.478 OA
ENDBRANCH   1  26
TORSDOF 7
ENDMDL
