MODEL 1
REMARK VINA RESULT:      -5.6      0.000      0.000
REMARK  Name = *****
REMARK                            x       y       z     vdW  Elec       q    Type
REMARK                         _______ _______ _______ _____ _____    ______ ____
ROOT
ATOM      1  C   LIG    1       25.873 -20.503   6.342  0.00  0.00    -0.046 A 
ATOM      2  C   LIG    1       24.731 -20.880   7.062  0.00  0.00    +0.007 A 
ATOM      3  C   LIG    1       23.519 -21.106   6.407  0.00  0.00    +0.045 A 
ATOM      4  C   LIG    1       23.442 -20.953   5.028  0.00  0.00    +0.117 A 
ATOM      5  C   LIG    1       24.566 -20.599   4.292  0.00  0.00    +0.045 A 
ATOM      6  C   LIG    1       25.783 -20.384   4.945  0.00  0.00    +0.007 A 
ENDROOT
BRANCH   4   7
ATOM      7  O   LIG    1       22.235 -21.162   4.432  0.00  0.00    -0.507 OA
ATOM      8  H   LIG    1       21.569 -20.617   4.884  0.00  0.00    +0.292 HD
ENDBRANCH   4   7
BRANCH   1   9
ATOM      9  C   LIG    1       27.183 -20.254   7.060  0.00  0.00    +0.053 C 
BRANCH   9  11
ATOM     10  C   LIG    1       29.050 -18.966   5.860  0.00  0.00    +0.024 C 
ATOM     11  C   LIG    1       28.441 -20.335   6.167  0.00  0.00    +0.052 C 
BRANCH  11  12
ATOM     12  N   LIG    1       29.459 -21.173   6.822  0.00  0.00    -0.327 NA
ATOM     13  H   LIG    1       30.193 -20.578   7.207  0.00  0.00    +0.118 HD
ATOM     14  H   LIG    1       29.045 -21.654   7.621  0.00  0.00    +0.118 HD
ENDBRANCH  11  12
ENDBRANCH   9  11
ENDBRANCH   1   9
TORSDOF 4
ENDMDL
MODEL 2
REMARK VINA RESULT:      -5.3      1.604      2.391
REMARK  Name = *****
REMARK                            x       y       z     vdW  Elec       q    Type
REMARK                         _______ _______ _______ _____ _____    ______ ____
ROOT
ATOM      1  C   LIG    1       24.993 -20.581   5.400  0.00  0.00    -0.046 A 
ATOM      2  C   LIG    1       24.963 -19.981   4.133  0.00  0.00    +0.007 A 
ATOM      3  C   LIG    1       23.826 -19.300   3.694  0.00  0.00    +0.045 A 
ATOM      4  C   LIG    1       22.711 -19.218   4.520  0.00  0.00    +0.117 A 
ATOM      5  C   LIG    1       22.725 -19.787   5.787  0.00  0.00    +0.045 A 
ATOM      6  C   LIG    1       23.867 -20.459   6.232  0.00  0.00    +0.007 A 
ENDROOT
BRANCH   4   7
ATOM      7  O   LIG    1       21.615 -18.563   4.044  0.00  0.00    -0.507 OA
ATOM      8  H   LIG    1       21.259 -18.000   4.752  0.00  0.00    +0.292 HD
ENDBRANCH   4   7
BRANCH   1   9
ATOM      9  C   LIG    1       26.228 -21.322   5.866  0.00  0.00    +0.053 C 
BRANCH   9  11
ATOM     10  C   LIG    1       28.494 -21.192   7.062  0.00  0.00    +0.024 C 
ATOM     11  C   LIG    1       27.388 -20.420   6.341  0.00  0.00    +0.052 C 
BRANCH  11  12
ATOM     12  N   LIG    1       27.972 -19.717   5.187  0.00  0.00    -0.327 NA
ATOM     13  H   LIG    1       27.341 -19.792   4.389  0.00  0.00    +0.118 HD
ATOM     14  H   LIG    1       28.042 -18.720   5.391  0.00  0.00    +0.118 HD
ENDBRANCH  11  12
ENDBRANCH   9  11
ENDBRANCH   1   9
TORSDOF 4
ENDMDL
MODEL 3
REMARK VINA RESULT:      -5.1      3.439      4.877
REMARK  Name = *****
REMARK                            x       y       z     vdW  Elec       q    Type
REMARK                         _______ _______ _______ _____ _____    ______ ____
ROOT
ATOM      1  C   LIG    1       25.310 -20.795   5.164  0.00  0.00    -0.046 A 
ATOM      2  C   LIG    1       25.646 -21.391   6.388  0.00  0.00    +0.007 A 
ATOM      3  C   LIG    1       26.856 -21.091   7.018  0.00  0.00    +0.045 A 
ATOM      4  C   LIG    1       27.738 -20.195   6.424  0.00  0.00    +0.117 A 
ATOM      5  C   LIG    1       27.417 -19.578   5.222  0.00  0.00    +0.045 A 
ATOM      6  C   LIG    1       26.201 -19.869   4.597  0.00  0.00    +0.007 A 
ENDROOT
BRANCH   4   7
ATOM      7  O   LIG    1       28.916 -19.947   7.062  0.00  0.00    -0.507 OA
ATOM      8  H   LIG    1       28.845 -20.266   7.977  0.00  0.00    +0.292 HD
ENDBRANCH   4   7
BRANCH   1   9
ATOM      9  C   LIG    1       23.999 -21.131   4.486  0.00  0.00    +0.053 C 
BRANCH   9  11
ATOM     10  C   LIG    1       22.388 -19.173   4.877  0.00  0.00    +0.024 C 
ATOM     11  C   LIG    1       22.738 -20.622   5.219  0.00  0.00    +0.052 C 
BRANCH  11  12
ATOM     12  N   LIG    1       21.591 -21.482   4.883  0.00  0.00    -0.327 NA
ATOM     13  H   LIG    1       21.395 -22.109   5.664  0.00  0.00    +0.118 HD
ATOM     14  H   LIG    1       20.754 -20.910   4.772  0.00  0.00    +0.118 HD
ENDBRANCH  11  12
ENDBRANCH   9  11
ENDBRANCH   1   9
TORSDOF 4
ENDMDL
MODEL 4
REMARK VINA RESULT:      -4.6      3.470      5.272
REMARK  Name = *****
REMARK                            x       y       z     vdW  Elec       q    Type
REMARK                         _______ _______ _______ _____ _____    ______ ____
ROOT
ATOM      1  C   LIG    1       23.600 -20.169   5.400  0.00  0.00    -0.046 A 
ATOM      2  C   LIG    1       24.634 -19.980   4.472  0.00  0.00    +0.007 A 
ATOM      3  C   LIG    1       25.960 -20.246   4.819  0.00  0.00    +0.045 A 
ATOM      4  C   LIG    1       26.258 -20.701   6.099  0.00  0.00    +0.117 A 
ATOM      5  C   LIG    1       25.248 -20.915   7.027  0.00  0.00    +0.045 A 
ATOM      6  C   LIG    1       23.919 -20.660   6.676  0.00  0.00    +0.007 A 
ENDROOT
BRANCH   4   7
ATOM      7  O   LIG    1       27.567 -20.927   6.403  0.00  0.00    -0.507 OA
ATOM      8  H   LIG    1       28.004 -20.071   6.543  0.00  0.00    +0.292 HD
ENDBRANCH   4   7
BRANCH   1   9
ATOM      9  C   LIG    1       22.165 -19.873   5.016  0.00  0.00    +0.053 C 
BRANCH   9  11
ATOM     10  C   LIG    1       20.595 -18.630   3.412  0.00  0.00    +0.024 C 
ATOM     11  C   LIG    1       21.982 -18.677   4.054  0.00  0.00    +0.052 C 
BRANCH  11  12
ATOM     12  N   LIG    1       22.215 -17.418   4.781  0.00  0.00    -0.327 NA
ATOM     13  H   LIG    1       23.179 -17.391   5.114  0.00  0.00    +0.118 HD
ATOM     14  H   LIG    1       22.121 -16.630   4.141  0.00  0.00    +0.118 HD
ENDBRANCH  11  12
ENDBRANCH   9  11
ENDBRANCH   1   9
TORSDOF 4
ENDMDL
MODEL 5
REMARK VINA RESULT:      -4.4      3.301      5.118
REMARK  Name = *****
REMARK                            x       y       z     vdW  Elec       q    Type
REMARK                         _______ _______ _______ _____ _____    ______ ____
ROOT
ATOM      1  C   LIG    1       24.850 -20.592   5.932  0.00  0.00    -0.046 A 
ATOM      2  C   LIG    1       25.476 -20.069   4.792  0.00  0.00    +0.007 A 
ATOM      3  C   LIG    1       26.849 -19.811   4.789  0.00  0.00    +0.045 A 
ATOM      4  C   LIG    1       27.601 -20.073   5.928  0.00  0.00    +0.117 A 
ATOM      5  C   LIG    1       27.005 -20.610   7.062  0.00  0.00    +0.045 A 
ATOM      6  C   LIG    1       25.634 -20.880   7.062  0.00  0.00    +0.007 A 
ENDROOT
BRANCH   4   7
ATOM      7  O   LIG    1       28.933 -19.788   5.888  0.00  0.00    -0.507 OA
ATOM      8  H   LIG    1       29.129 -19.131   6.578  0.00  0.00    +0.292 HD
ENDBRANCH   4   7
BRANCH   1   9
ATOM      9  C   LIG    1       23.360 -20.862   5.930  0.00  0.00    +0.053 C 
BRANCH   9  11
ATOM     10  C   LIG    1       21.279 -21.034   4.439  0.00  0.00    +0.024 C 
ATOM     11  C   LIG    1       22.601 -20.312   4.702  0.00  0.00    +0.052 C 
BRANCH  11  12
ATOM     12  N   LIG    1       22.331 -18.877   4.890  0.00  0.00    -0.327 NA
ATOM     13  H   LIG    1       21.324 -18.715   4.875  0.00  0.00    +0.118 HD
ATOM     14  H   LIG    1       22.643 -18.588   5.817  0.00  0.00    +0.118 HD
ENDBRANCH  11  12
ENDBRANCH   9  11
ENDBRANCH   1   9
TORSDOF 4
ENDMDL
MODEL 6
REMARK VINA RESULT:      -4.1      6.602      7.310
REMARK  Name = *****
REMARK                            x       y       z     vdW  Elec       q    Type
REMARK                         _______ _______ _______ _____ _____    ______ ____
ROOT
ATOM      1  C   LIG    1       26.438 -14.232   3.551  0.00  0.00    -0.046 A 
ATOM      2  C   LIG    1       26.259 -13.618   2.303  0.00  0.00    +0.007 A 
ATOM      3  C   LIG    1       25.228 -12.697   2.104  0.00  0.00    +0.045 A 
ATOM      4  C   LIG    1       24.368 -12.389   3.152  0.00  0.00    +0.117 A 
ATOM      5  C   LIG    1       24.539 -12.971   4.402  0.00  0.00    +0.045 A 
ATOM      6  C   LIG    1       25.578 -13.884   4.605  0.00  0.00    +0.007 A 
ENDROOT
BRANCH   4   7
ATOM      7  O   LIG    1       23.363 -11.502   2.908  0.00  0.00    -0.507 OA
ATOM      8  H   LIG    1       22.783 -11.873   2.222  0.00  0.00    +0.292 HD
ENDBRANCH   4   7
BRANCH   1   9
ATOM      9  C   LIG    1       27.554 -15.234   3.756  0.00  0.00    +0.053 C 
BRANCH   9  11
ATOM     10  C   LIG    1       26.094 -17.272   3.210  0.00  0.00    +0.024 C 
ATOM     11  C   LIG    1       27.092 -16.645   4.184  0.00  0.00    +0.052 C 
BRANCH  11  12
ATOM     12  N   LIG    1       28.261 -17.532   4.306  0.00  0.00    -0.327 NA
ATOM     13  H   LIG    1       29.054 -17.002   4.668  0.00  0.00    +0.118 HD
ATOM     14  H   LIG    1       28.073 -18.256   5.000  0.00  0.00    +0.118 HD
ENDBRANCH  11  12
ENDBRANCH   9  11
ENDBRANCH   1   9
TORSDOF 4
ENDMDL
MODEL 7
REMARK VINA RESULT:      -4.0      7.269      8.715
REMARK  Name = *****
REMARK                            x       y       z     vdW  Elec       q    Type
REMARK                         _______ _______ _______ _____ _____    ______ ____
ROOT
ATOM      1  C   LIG    1       26.472 -14.189   3.992  0.00  0.00    -0.046 A 
ATOM      2  C   LIG    1       27.499 -13.789   3.126  0.00  0.00    +0.007 A 
ATOM      3  C   LIG    1       28.505 -12.924   3.565  0.00  0.00    +0.045 A 
ATOM      4  C   LIG    1       28.486 -12.454   4.873  0.00  0.00    +0.117 A 
ATOM      5  C   LIG    1       27.489 -12.853   5.754  0.00  0.00    +0.045 A 
ATOM      6  C   LIG    1       26.489 -13.727   5.319  0.00  0.00    +0.007 A 
ENDROOT
BRANCH   4   7
ATOM      7  O   LIG    1       29.474 -11.596   5.253  0.00  0.00    -0.507 OA
ATOM      8  H   LIG    1       30.317 -12.079   5.258  0.00  0.00    +0.292 HD
ENDBRANCH   4   7
BRANCH   1   9
ATOM      9  C   LIG    1       25.382 -15.121   3.507  0.00  0.00    +0.053 C 
BRANCH   9  11
ATOM     10  C   LIG    1       23.138 -15.104   4.750  0.00  0.00    +0.024 C 
ATOM     11  C   LIG    1       23.951 -14.544   3.582  0.00  0.00    +0.052 C 
BRANCH  11  12
ATOM     12  N   LIG    1       24.015 -13.078   3.704  0.00  0.00    -0.327 NA
ATOM     13  H   LIG    1       23.535 -12.650   2.912  0.00  0.00    +0.118 HD
ATOM     14  H   LIG    1       23.500 -12.780   4.533  0.00  0.00    +0.118 HD
ENDBRANCH  11  12
ENDBRANCH   9  11
ENDBRANCH   1   9
TORSDOF 4
ENDMDL
MODEL 8
REMARK VINA RESULT:      -3.8      3.403      4.850
REMARK  Name = *****
REMARK                            x       y       z     vdW  Elec       q    Type
REMARK                         _______ _______ _______ _____ _____    ______ ____
ROOT
ATOM      1  C   LIG    1       25.115 -20.149   4.439  0.00  0.00    -0.046 A 
ATOM      2  C   LIG    1       26.169 -20.432   5.319  0.00  0.00    +0.007 A 
ATOM      3  C   LIG    1       27.315 -19.634   5.337  0.00  0.00    +0.045 A 
ATOM      4  C   LIG    1       27.412 -18.550   4.473  0.00  0.00    +0.117 A 
ATOM      5  C   LIG    1       26.371 -18.239   3.607  0.00  0.00    +0.045 A 
ATOM      6  C   LIG    1       25.219 -19.030   3.597  0.00  0.00    +0.007 A 
ENDROOT
BRANCH   4   7
ATOM      7  O   LIG    1       28.556 -17.810   4.509  0.00  0.00    -0.507 OA
ATOM      8  H   LIG    1       29.117 -18.073   3.760  0.00  0.00    +0.292 HD
ENDBRANCH   4   7
BRANCH   1   9
ATOM      9  C   LIG    1       23.879 -21.024   4.422  0.00  0.00    +0.053 C 
BRANCH   9  11
ATOM     10  C   LIG    1       23.272 -20.798   6.905  0.00  0.00    +0.024 C 
ATOM     11  C   LIG    1       22.798 -20.644   5.459  0.00  0.00    +0.052 C 
BRANCH  11  12
ATOM     12  N   LIG    1       22.373 -19.251   5.242  0.00  0.00    -0.327 NA
ATOM     13  H   LIG    1       21.652 -19.224   4.521  0.00  0.00    +0.118 HD
ATOM     14  H   LIG    1       21.931 -18.891   6.088  0.00  0.00    +0.118 HD
ENDBRANCH  11  12
ENDBRANCH   9  11
ENDBRANCH   1   9
TORSDOF 4
ENDMDL
MODEL 9
REMARK VINA RESULT:      -3.7      1.941      2.745
REMARK  Name = *****
REMARK                            x       y       z     vdW  Elec       q    Type
REMARK                         _______ _______ _______ _____ _____    ______ ____
ROOT
ATOM      1  C   LIG    1       24.702 -20.442   4.683  0.00  0.00    -0.046 A 
ATOM      2  C   LIG    1       24.731 -19.316   3.849  0.00  0.00    +0.007 A 
ATOM      3  C   LIG    1       23.585 -18.542   3.655  0.00  0.00    +0.045 A 
ATOM      4  C   LIG    1       22.402 -18.893   4.295  0.00  0.00    +0.117 A 
ATOM      5  C   LIG    1       22.354 -19.993   5.142  0.00  0.00    +0.045 A 
ATOM      6  C   LIG    1       23.504 -20.761   5.345  0.00  0.00    +0.007 A 
ENDROOT
BRANCH   4   7
ATOM      7  O   LIG    1       21.302 -18.123   4.062  0.00  0.00    -0.507 OA
ATOM      8  H   LIG    1       20.521 -18.587   4.409  0.00  0.00    +0.292 HD
ENDBRANCH   4   7
BRANCH   1   9
ATOM      9  C   LIG    1       25.947 -21.279   4.882  0.00  0.00    +0.053 C 
BRANCH   9  11
ATOM     10  C   LIG    1       27.944 -19.782   5.480  0.00  0.00    +0.024 C 
ATOM     11  C   LIG    1       26.900 -20.776   5.991  0.00  0.00    +0.052 C 
BRANCH  11  12
ATOM     12  N   LIG    1       26.117 -20.137   7.062  0.00  0.00    -0.327 NA
ATOM     13  H   LIG    1       25.296 -19.684   6.659  0.00  0.00    +0.118 HD
ATOM     14  H   LIG    1       25.756 -20.850   7.695  0.00  0.00    +0.118 HD
ENDBRANCH  11  12
ENDBRANCH   9  11
ENDBRANCH   1   9
TORSDOF 4
ENDMDL
