MODEL 1
REMARK VINA RESULT:      -0.2      0.000      0.000
REMARK  Name = *****
REMARK                            x       y       z     vdW  Elec       q    Type
REMARK                         _______ _______ _______ _____ _____    ______ ____
ROOT
ATOM      1  C   LIG    1       22.126 -18.711   3.201  0.00  0.00    +0.009 C 
ATOM      2  C   LIG    1       22.657 -18.182   4.538  0.00  0.00    +0.009 C 
ATOM      3  C   LIG    1       24.209 -18.272   4.656  0.00  0.00    +0.095 C 
ATOM      4  C   LIG    1       24.842 -17.183   3.698  0.00  0.00    +0.130 C 
ATOM      5  N   LIG    1       24.233 -15.828   3.804  0.00  0.00    -0.299 N 
ATOM      6  C   LIG    1       25.043 -14.698   3.686  0.00  0.00    +0.230 C 
ATOM      7  O   LIG    1       26.267 -14.787   3.560  0.00  0.00    -0.275 OA
ATOM      8  C   LIG    1       22.777 -15.789   3.724  0.00  0.00    +0.108 C 
ATOM      9  C   LIG    1       22.197 -16.729   4.766  0.00  0.00    +0.024 C 
ENDROOT
BRANCH   3  10
ATOM     10  N   LIG    1       24.757 -19.664   4.374  0.00  0.00    -0.313 N 
ATOM     11  C   LIG    1       25.300 -19.799   3.007  0.00  0.00    +0.131 C 
BRANCH  10  12
ATOM     12  C   LIG    1       25.807 -20.112   5.241  0.00  0.00    +0.134 A 
ATOM     13  C   LIG    1       27.107 -19.521   5.307  0.00  0.00    +0.059 A 
ATOM     14  C   LIG    1       28.002 -20.056   6.229  0.00  0.00    +0.143 A 
ATOM     15  N   LIG    1       29.180 -19.364   6.173  0.00  0.00    -0.346 N 
ATOM     16  H   LIG    1       29.979 -19.564   6.761  0.00  0.00    +0.167 HD
ATOM     17  C   LIG    1       29.097 -18.395   5.210  0.00  0.00    +0.085 A 
ATOM     18  N   LIG    1       27.794 -21.082   7.062  0.00  0.00    -0.218 NA
ATOM     19  C   LIG    1       26.555 -21.572   6.920  0.00  0.00    +0.225 A 
ATOM     20  C   LIG    1       27.832 -18.471   4.653  0.00  0.00    +0.032 A 
ATOM     21  N   LIG    1       25.572 -21.148   6.098  0.00  0.00    -0.220 NA
ENDBRANCH  10  12
ENDBRANCH   3  10
BRANCH   6  22
ATOM     22  C   LIG    1       24.407 -13.319   3.764  0.00  0.00    +0.214 C 
BRANCH  22  23
ATOM     23  C   LIG    1       25.054 -12.393   2.843  0.00  0.00    +0.072 C 
ATOM     24  N   LIG    1       25.548 -11.673   2.068  0.00  0.00    -0.196 NA
ENDBRANCH  22  23
ENDBRANCH   6  22
TORSDOF 4
ENDMDL
MODEL 2
REMARK VINA RESULT:       1.2      2.414      6.473
REMARK  Name = *****
REMARK                            x       y       z     vdW  Elec       q    Type
REMARK                         _______ _______ _______ _____ _____    ______ ____
ROOT
ATOM      1  C   LIG    1       21.965 -16.098   6.239  0.00  0.00    +0.009 C 
ATOM      2  C   LIG    1       21.873 -16.176   4.711  0.00  0.00    +0.009 C 
ATOM      3  C   LIG    1       23.117 -15.568   3.993  0.00  0.00    +0.095 C 
ATOM      4  C   LIG    1       24.340 -16.549   4.210  0.00  0.00    +0.130 C 
ATOM      5  N   LIG    1       24.043 -17.985   3.950  0.00  0.00    -0.299 N 
ATOM      6  C   LIG    1       25.016 -18.794   3.363  0.00  0.00    +0.230 C 
ATOM      7  O   LIG    1       26.101 -18.338   2.990  0.00  0.00    -0.275 OA
ATOM      8  C   LIG    1       22.852 -18.506   4.611  0.00  0.00    +0.108 C 
ATOM      9  C   LIG    1       21.663 -17.633   4.254  0.00  0.00    +0.024 C 
ENDROOT
BRANCH   3  10
ATOM     10  N   LIG    1       23.439 -14.149   4.440  0.00  0.00    -0.313 N 
ATOM     11  C   LIG    1       24.045 -14.098   5.787  0.00  0.00    +0.131 C 
BRANCH  10  12
ATOM     12  C   LIG    1       24.337 -13.415   3.598  0.00  0.00    +0.134 A 
ATOM     13  C   LIG    1       25.761 -13.517   3.653  0.00  0.00    +0.059 A 
ATOM     14  C   LIG    1       26.488 -12.758   2.739  0.00  0.00    +0.143 A 
ATOM     15  N   LIG    1       27.824 -12.989   2.917  0.00  0.00    -0.346 N 
ATOM     16  H   LIG    1       28.549 -12.557   2.359  0.00  0.00    +0.167 HD
ATOM     17  C   LIG    1       28.003 -13.865   3.954  0.00  0.00    +0.085 A 
ATOM     18  N   LIG    1       26.006 -11.922   1.812  0.00  0.00    -0.218 NA
ATOM     19  C   LIG    1       24.667 -11.891   1.844  0.00  0.00    +0.225 A 
ATOM     20  C   LIG    1       26.749 -14.203   4.432  0.00  0.00    +0.032 A 
ATOM     21  N   LIG    1       23.828 -12.581   2.645  0.00  0.00    -0.220 NA
ENDBRANCH  10  12
ENDBRANCH   3  10
BRANCH   6  22
ATOM     22  C   LIG    1       24.715 -20.266   3.130  0.00  0.00    +0.214 C 
BRANCH  22  23
ATOM     23  C   LIG    1       24.776 -21.015   4.380  0.00  0.00    +0.072 C 
ATOM     24  N   LIG    1       24.818 -21.572   5.404  0.00  0.00    -0.196 NA
ENDBRANCH  22  23
ENDBRANCH   6  22
TORSDOF 4
ENDMDL
MODEL 3
REMARK VINA RESULT:       2.0      1.983      3.390
REMARK  Name = *****
REMARK                            x       y       z     vdW  Elec       q    Type
REMARK                         _______ _______ _______ _____ _____    ______ ____
ROOT
ATOM      1  C   LIG    1       27.334 -17.871   4.587  0.00  0.00    +0.009 C 
ATOM      2  C   LIG    1       26.890 -17.241   3.262  0.00  0.00    +0.009 C 
ATOM      3  C   LIG    1       25.412 -17.574   2.894  0.00  0.00    +0.095 C 
ATOM      4  C   LIG    1       24.465 -16.768   3.873  0.00  0.00    +0.130 C 
ATOM      5  N   LIG    1       24.814 -15.330   4.037  0.00  0.00    -0.299 N 
ATOM      6  C   LIG    1       23.796 -14.385   4.171  0.00  0.00    +0.230 C 
ATOM      7  O   LIG    1       22.605 -14.699   4.093  0.00  0.00    -0.275 OA
ATOM      8  C   LIG    1       26.213 -15.057   4.346  0.00  0.00    +0.108 C 
ATOM      9  C   LIG    1       27.091 -15.713   3.296  0.00  0.00    +0.024 C 
ENDROOT
BRANCH   3  10
ATOM     10  N   LIG    1       25.107 -19.065   2.907  0.00  0.00    -0.313 N 
ATOM     11  C   LIG    1       26.327 -19.898   2.878  0.00  0.00    +0.131 C 
BRANCH  10  12
ATOM     12  C   LIG    1       24.354 -19.542   4.029  0.00  0.00    +0.134 A 
ATOM     13  C   LIG    1       24.898 -20.327   5.092  0.00  0.00    +0.059 A 
ATOM     14  C   LIG    1       24.036 -20.680   6.126  0.00  0.00    +0.143 A 
ATOM     15  N   LIG    1       24.721 -21.407   7.061  0.00  0.00    -0.346 N 
ATOM     16  H   LIG    1       24.305 -21.765   7.911  0.00  0.00    +0.167 HD
ATOM     17  C   LIG    1       26.017 -21.571   6.653  0.00  0.00    +0.085 A 
ATOM     18  N   LIG    1       22.737 -20.380   6.239  0.00  0.00    -0.218 NA
ATOM     19  C   LIG    1       22.320 -19.651   5.195  0.00  0.00    +0.225 A 
ATOM     20  C   LIG    1       26.155 -20.922   5.439  0.00  0.00    +0.032 A 
ATOM     21  N   LIG    1       23.035 -19.211   4.139  0.00  0.00    -0.220 NA
ENDBRANCH  10  12
ENDBRANCH   3  10
BRANCH   6  22
ATOM     22  C   LIG    1       24.163 -12.923   4.369  0.00  0.00    +0.214 C 
BRANCH  22  23
ATOM     23  C   LIG    1       24.417 -12.271   3.090  0.00  0.00    +0.072 C 
ATOM     24  N   LIG    1       24.574 -11.734   2.066  0.00  0.00    -0.196 NA
ENDBRANCH  22  23
ENDBRANCH   6  22
TORSDOF 4
ENDMDL
MODEL 4
REMARK VINA RESULT:       2.0      1.873      4.007
REMARK  Name = *****
REMARK                            x       y       z     vdW  Elec       q    Type
REMARK                         _______ _______ _______ _____ _____    ______ ____
ROOT
ATOM      1  C   LIG    1       28.071 -16.984   4.779  0.00  0.00    +0.009 C 
ATOM      2  C   LIG    1       27.381 -16.703   3.440  0.00  0.00    +0.009 C 
ATOM      3  C   LIG    1       25.991 -17.397   3.312  0.00  0.00    +0.095 C 
ATOM      4  C   LIG    1       24.975 -16.649   4.267  0.00  0.00    +0.130 C 
ATOM      5  N   LIG    1       25.001 -15.163   4.165  0.00  0.00    -0.299 N 
ATOM      6  C   LIG    1       23.811 -14.443   4.279  0.00  0.00    +0.230 C 
ATOM      7  O   LIG    1       22.721 -15.008   4.398  0.00  0.00    -0.275 OA
ATOM      8  C   LIG    1       26.324 -14.554   4.254  0.00  0.00    +0.108 C 
ATOM      9  C   LIG    1       27.233 -15.185   3.216  0.00  0.00    +0.024 C 
ENDROOT
BRANCH   3  10
ATOM     10  N   LIG    1       26.035 -18.893   3.589  0.00  0.00    -0.313 N 
ATOM     11  C   LIG    1       27.311 -19.325   4.195  0.00  0.00    +0.131 C 
BRANCH  10  12
ATOM     12  C   LIG    1       25.016 -19.400   4.461  0.00  0.00    +0.134 A 
ATOM     13  C   LIG    1       23.613 -19.226   4.250  0.00  0.00    +0.059 A 
ATOM     14  C   LIG    1       22.754 -19.812   5.176  0.00  0.00    +0.143 A 
ATOM     15  N   LIG    1       21.459 -19.565   4.813  0.00  0.00    -0.346 N 
ATOM     16  H   LIG    1       20.656 -19.902   5.329  0.00  0.00    +0.167 HD
ATOM     17  C   LIG    1       21.438 -18.799   3.679  0.00  0.00    +0.085 A 
ATOM     18  N   LIG    1       23.090 -20.516   6.263  0.00  0.00    -0.218 NA
ATOM     19  C   LIG    1       24.421 -20.618   6.377  0.00  0.00    +0.225 A 
ATOM     20  C   LIG    1       22.752 -18.568   3.311  0.00  0.00    +0.032 A 
ATOM     21  N   LIG    1       25.374 -20.133   5.554  0.00  0.00    -0.220 NA
ENDBRANCH  10  12
ENDBRANCH   3  10
BRANCH   6  22
ATOM     22  C   LIG    1       23.853 -12.925   4.206  0.00  0.00    +0.214 C 
BRANCH  22  23
ATOM     23  C   LIG    1       24.226 -12.478   2.869  0.00  0.00    +0.072 C 
ATOM     24  N   LIG    1       24.567 -12.102   1.819  0.00  0.00    -0.196 NA
ENDBRANCH  22  23
ENDBRANCH   6  22
TORSDOF 4
ENDMDL
MODEL 5
REMARK VINA RESULT:       2.6      1.825      2.569
REMARK  Name = *****
REMARK                            x       y       z     vdW  Elec       q    Type
REMARK                         _______ _______ _______ _____ _____    ______ ____
ROOT
ATOM      1  C   LIG    1       21.990 -16.481   3.291  0.00  0.00    +0.009 C 
ATOM      2  C   LIG    1       22.961 -16.440   4.477  0.00  0.00    +0.009 C 
ATOM      3  C   LIG    1       24.258 -17.269   4.232  0.00  0.00    +0.095 C 
ATOM      4  C   LIG    1       25.144 -16.499   3.169  0.00  0.00    +0.130 C 
ATOM      5  N   LIG    1       25.311 -15.043   3.433  0.00  0.00    -0.299 N 
ATOM      6  C   LIG    1       26.530 -14.427   3.148  0.00  0.00    +0.230 C 
ATOM      7  O   LIG    1       27.501 -15.069   2.741  0.00  0.00    -0.275 OA
ATOM      8  C   LIG    1       24.077 -14.309   3.693  0.00  0.00    +0.108 C 
ATOM      9  C   LIG    1       23.327 -14.984   4.826  0.00  0.00    +0.024 C 
ENDROOT
BRANCH   3  10
ATOM     10  N   LIG    1       23.986 -18.706   3.811  0.00  0.00    -0.313 N 
ATOM     11  C   LIG    1       24.979 -19.216   2.843  0.00  0.00    +0.131 C 
BRANCH  10  12
ATOM     12  C   LIG    1       23.961 -19.675   4.867  0.00  0.00    +0.134 A 
ATOM     13  C   LIG    1       25.124 -20.196   5.513  0.00  0.00    +0.059 A 
ATOM     14  C   LIG    1       24.922 -21.107   6.546  0.00  0.00    +0.143 A 
ATOM     15  N   LIG    1       26.132 -21.484   7.062  0.00  0.00    -0.346 N 
ATOM     16  H   LIG    1       26.237 -22.133   7.832  0.00  0.00    +0.167 HD
ATOM     17  C   LIG    1       27.138 -20.864   6.371  0.00  0.00    +0.085 A 
ATOM     18  N   LIG    1       23.754 -21.572   7.003  0.00  0.00    -0.218 NA
ATOM     19  C   LIG    1       22.728 -21.032   6.332  0.00  0.00    +0.225 A 
ATOM     20  C   LIG    1       26.548 -20.068   5.406  0.00  0.00    +0.032 A 
ATOM     21  N   LIG    1       22.760 -20.124   5.334  0.00  0.00    -0.220 NA
ENDBRANCH  10  12
ENDBRANCH   3  10
BRANCH   6  22
ATOM     22  C   LIG    1       26.681 -12.934   3.391  0.00  0.00    +0.214 C 
BRANCH  22  23
ATOM     23  C   LIG    1       27.995 -12.625   3.941  0.00  0.00    +0.072 C 
ATOM     24  N   LIG    1       29.065 -12.418   4.358  0.00  0.00    -0.196 NA
ENDBRANCH  22  23
ENDBRANCH   6  22
TORSDOF 4
ENDMDL
