MODEL 1
REMARK VINA RESULT:      -5.4      0.000      0.000
REMARK  Name = *****
REMARK                            x       y       z     vdW  Elec       q    Type
REMARK                         _______ _______ _______ _____ _____    ______ ____
ROOT
ATOM      1  C   LIG    1       27.062 -18.418   4.322  0.00  0.00    +0.033 C 
ATOM      2  C   LIG    1       26.108 -18.168   3.154  0.00  0.00    +0.106 C 
ENDROOT
BRANCH   2   3
ATOM      3  N   LIG    1       25.366 -16.924   3.456  0.00  0.00    -0.288 NA
ATOM      4  C   LIG    1       26.080 -15.845   3.432  0.00  0.00    +0.132 C 
BRANCH   4   5
ATOM      5  C   LIG    1       25.527 -14.450   3.665  0.00  0.00    +0.225 C 
ATOM      6 CL   LIG    1       23.825 -14.626   4.137  0.00  0.00    -0.077 Cl
ATOM      7 CL   LIG    1       25.686 -13.447   2.209  0.00  0.00    -0.077 Cl
ATOM      8 CL   LIG    1       26.446 -13.703   4.999  0.00  0.00    -0.077 Cl
ENDBRANCH   4   5
ENDBRANCH   2   3
BRANCH   2   9
ATOM      9  C   LIG    1       25.128 -19.353   3.018  0.00  0.00    +0.061 C 
BRANCH   9  10
ATOM     10  C   LIG    1       24.525 -19.790   4.335  0.00  0.00    -0.045 A 
ATOM     11  C   LIG    1       23.187 -19.483   4.632  0.00  0.00    +0.003 A 
ATOM     12  C   LIG    1       22.600 -19.942   5.810  0.00  0.00    +0.000 A 
ATOM     13  C   LIG    1       23.348 -20.692   6.714  0.00  0.00    +0.000 A 
ATOM     14  C   LIG    1       24.683 -20.985   6.439  0.00  0.00    +0.000 A 
ATOM     15  C   LIG    1       25.269 -20.542   5.251  0.00  0.00    +0.003 A 
ENDBRANCH   9  10
ENDBRANCH   2   9
TORSDOF 4
ENDMDL
MODEL 2
REMARK VINA RESULT:      -5.3      0.051      1.301
REMARK  Name = *****
REMARK                            x       y       z     vdW  Elec       q    Type
REMARK                         _______ _______ _______ _____ _____    ______ ____
ROOT
ATOM      1  C   LIG    1       27.067 -18.414   4.311  0.00  0.00    +0.033 C 
ATOM      2  C   LIG    1       26.104 -18.190   3.146  0.00  0.00    +0.106 C 
ENDROOT
BRANCH   2   3
ATOM      3  N   LIG    1       25.348 -16.951   3.437  0.00  0.00    -0.288 NA
ATOM      4  C   LIG    1       26.063 -15.874   3.475  0.00  0.00    +0.132 C 
BRANCH   4   5
ATOM      5  C   LIG    1       25.501 -14.483   3.711  0.00  0.00    +0.225 C 
ATOM      6 CL   LIG    1       26.452 -13.741   5.014  0.00  0.00    -0.077 Cl
ATOM      7 CL   LIG    1       23.780 -14.552   4.137  0.00  0.00    -0.077 Cl
ATOM      8 CL   LIG    1       25.702 -13.540   2.210  0.00  0.00    -0.077 Cl
ENDBRANCH   4   5
ENDBRANCH   2   3
BRANCH   2   9
ATOM      9  C   LIG    1       25.137 -19.389   3.030  0.00  0.00    +0.061 C 
BRANCH   9  10
ATOM     10  C   LIG    1       24.539 -19.810   4.354  0.00  0.00    -0.045 A 
ATOM     11  C   LIG    1       23.197 -19.518   4.644  0.00  0.00    +0.003 A 
ATOM     12  C   LIG    1       22.614 -19.964   5.830  0.00  0.00    +0.000 A 
ATOM     13  C   LIG    1       23.373 -20.686   6.748  0.00  0.00    +0.000 A 
ATOM     14  C   LIG    1       24.713 -20.965   6.479  0.00  0.00    +0.000 A 
ATOM     15  C   LIG    1       25.293 -20.535   5.283  0.00  0.00    +0.003 A 
ENDBRANCH   9  10
ENDBRANCH   2   9
TORSDOF 4
ENDMDL
MODEL 3
REMARK VINA RESULT:      -5.3      0.138      1.317
REMARK  Name = *****
REMARK                            x       y       z     vdW  Elec       q    Type
REMARK                         _______ _______ _______ _____ _____    ______ ____
ROOT
ATOM      1  C   LIG    1       27.041 -18.480   4.338  0.00  0.00    +0.033 C 
ATOM      2  C   LIG    1       26.145 -18.248   3.122  0.00  0.00    +0.106 C 
ENDROOT
BRANCH   2   3
ATOM      3  N   LIG    1       25.440 -16.965   3.338  0.00  0.00    -0.288 NA
ATOM      4  C   LIG    1       26.213 -15.941   3.502  0.00  0.00    +0.132 C 
BRANCH   4   5
ATOM      5  C   LIG    1       25.717 -14.519   3.694  0.00  0.00    +0.225 C 
ATOM      6 CL   LIG    1       25.960 -13.661   2.158  0.00  0.00    -0.077 Cl
ATOM      7 CL   LIG    1       26.580 -13.713   5.019  0.00  0.00    -0.077 Cl
ATOM      8 CL   LIG    1       23.975 -14.583   4.077  0.00  0.00    -0.077 Cl
ENDBRANCH   4   5
ENDBRANCH   2   3
BRANCH   2   9
ATOM      9  C   LIG    1       25.126 -19.402   2.999  0.00  0.00    +0.061 C 
BRANCH   9  10
ATOM     10  C   LIG    1       24.526 -19.820   4.323  0.00  0.00    -0.045 A 
ATOM     11  C   LIG    1       23.199 -19.484   4.632  0.00  0.00    +0.003 A 
ATOM     12  C   LIG    1       22.613 -19.926   5.818  0.00  0.00    +0.000 A 
ATOM     13  C   LIG    1       23.355 -20.688   6.717  0.00  0.00    +0.000 A 
ATOM     14  C   LIG    1       24.681 -21.011   6.430  0.00  0.00    +0.000 A 
ATOM     15  C   LIG    1       25.263 -20.585   5.234  0.00  0.00    +0.003 A 
ENDBRANCH   9  10
ENDBRANCH   2   9
TORSDOF 4
ENDMDL
MODEL 4
REMARK VINA RESULT:      -5.2      2.128      3.011
REMARK  Name = *****
REMARK                            x       y       z     vdW  Elec       q    Type
REMARK                         _______ _______ _______ _____ _____    ______ ____
ROOT
ATOM      1  C   LIG    1       21.770 -15.604   5.966  0.00  0.00    +0.033 C 
ATOM      2  C   LIG    1       22.778 -16.267   5.027  0.00  0.00    +0.106 C 
ENDROOT
BRANCH   2   3
ATOM      3  N   LIG    1       23.243 -15.228   4.082  0.00  0.00    -0.288 NA
ATOM      4  C   LIG    1       23.951 -14.286   4.615  0.00  0.00    +0.132 C 
BRANCH   4   5
ATOM      5  C   LIG    1       24.572 -13.140   3.837  0.00  0.00    +0.225 C 
ATOM      6 CL   LIG    1       23.905 -11.630   4.492  0.00  0.00    -0.077 Cl
ATOM      7 CL   LIG    1       24.234 -13.286   2.101  0.00  0.00    -0.077 Cl
ATOM      8 CL   LIG    1       26.336 -13.180   4.100  0.00  0.00    -0.077 Cl
ENDBRANCH   4   5
ENDBRANCH   2   3
BRANCH   2   9
ATOM      9  C   LIG    1       22.095 -17.419   4.259  0.00  0.00    +0.061 C 
BRANCH   9  10
ATOM     10  C   LIG    1       22.855 -18.726   4.332  0.00  0.00    -0.045 A 
ATOM     11  C   LIG    1       24.035 -18.895   3.591  0.00  0.00    +0.003 A 
ATOM     12  C   LIG    1       24.782 -20.067   3.705  0.00  0.00    +0.000 A 
ATOM     13  C   LIG    1       24.346 -21.090   4.544  0.00  0.00    +0.000 A 
ATOM     14  C   LIG    1       23.165 -20.940   5.270  0.00  0.00    +0.000 A 
ATOM     15  C   LIG    1       22.424 -19.760   5.171  0.00  0.00    +0.003 A 
ENDBRANCH   9  10
ENDBRANCH   2   9
TORSDOF 4
ENDMDL
MODEL 5
REMARK VINA RESULT:      -5.1      2.015      3.091
REMARK  Name = *****
REMARK                            x       y       z     vdW  Elec       q    Type
REMARK                         _______ _______ _______ _____ _____    ______ ____
ROOT
ATOM      1  C   LIG    1       21.778 -15.595   5.955  0.00  0.00    +0.033 C 
ATOM      2  C   LIG    1       22.826 -16.192   5.017  0.00  0.00    +0.106 C 
ENDROOT
BRANCH   2   3
ATOM      3  N   LIG    1       23.304 -15.098   4.143  0.00  0.00    -0.288 NA
ATOM      4  C   LIG    1       24.398 -14.529   4.533  0.00  0.00    +0.132 C 
BRANCH   4   5
ATOM      5  C   LIG    1       25.099 -13.415   3.775  0.00  0.00    +0.225 C 
ATOM      6 CL   LIG    1       26.418 -12.822   4.806  0.00  0.00    -0.077 Cl
ATOM      7 CL   LIG    1       23.970 -12.108   3.367  0.00  0.00    -0.077 Cl
ATOM      8 CL   LIG    1       25.774 -14.103   2.274  0.00  0.00    -0.077 Cl
ENDBRANCH   4   5
ENDBRANCH   2   3
BRANCH   2   9
ATOM      9  C   LIG    1       22.187 -17.312   4.167  0.00  0.00    +0.061 C 
BRANCH   9  10
ATOM     10  C   LIG    1       22.878 -18.650   4.315  0.00  0.00    -0.045 A 
ATOM     11  C   LIG    1       24.032 -18.932   3.568  0.00  0.00    +0.003 A 
ATOM     12  C   LIG    1       24.717 -20.133   3.749  0.00  0.00    +0.000 A 
ATOM     13  C   LIG    1       24.245 -21.072   4.663  0.00  0.00    +0.000 A 
ATOM     14  C   LIG    1       23.088 -20.810   5.396  0.00  0.00    +0.000 A 
ATOM     15  C   LIG    1       22.410 -19.600   5.229  0.00  0.00    +0.003 A 
ENDBRANCH   9  10
ENDBRANCH   2   9
TORSDOF 4
ENDMDL
MODEL 6
REMARK VINA RESULT:      -4.9      1.311      1.904
REMARK  Name = *****
REMARK                            x       y       z     vdW  Elec       q    Type
REMARK                         _______ _______ _______ _____ _____    ______ ____
ROOT
ATOM      1  C   LIG    1       26.766 -18.557   4.275  0.00  0.00    +0.033 C 
ATOM      2  C   LIG    1       26.022 -17.740   3.219  0.00  0.00    +0.106 C 
ENDROOT
BRANCH   2   3
ATOM      3  N   LIG    1       26.621 -16.386   3.213  0.00  0.00    -0.288 NA
ATOM      4  C   LIG    1       25.779 -15.419   3.378  0.00  0.00    +0.132 C 
BRANCH   4   5
ATOM      5  C   LIG    1       26.166 -13.952   3.452  0.00  0.00    +0.225 C 
ATOM      6 CL   LIG    1       25.275 -13.103   2.172  0.00  0.00    -0.077 Cl
ATOM      7 CL   LIG    1       27.918 -13.742   3.258  0.00  0.00    -0.077 Cl
ATOM      8 CL   LIG    1       25.669 -13.325   5.046  0.00  0.00    -0.077 Cl
ENDBRANCH   4   5
ENDBRANCH   2   3
BRANCH   2   9
ATOM      9  C   LIG    1       24.524 -17.658   3.583  0.00  0.00    +0.061 C 
BRANCH   9  10
ATOM     10  C   LIG    1       23.932 -18.988   3.998  0.00  0.00    -0.045 A 
ATOM     11  C   LIG    1       24.555 -20.186   3.615  0.00  0.00    +0.003 A 
ATOM     12  C   LIG    1       24.060 -21.414   4.052  0.00  0.00    +0.000 A 
ATOM     13  C   LIG    1       22.924 -21.458   4.857  0.00  0.00    +0.000 A 
ATOM     14  C   LIG    1       22.286 -20.275   5.227  0.00  0.00    +0.000 A 
ATOM     15  C   LIG    1       22.791 -19.043   4.806  0.00  0.00    +0.003 A 
ENDBRANCH   9  10
ENDBRANCH   2   9
TORSDOF 4
ENDMDL
MODEL 7
REMARK VINA RESULT:      -4.4      3.373      6.285
REMARK  Name = *****
REMARK                            x       y       z     vdW  Elec       q    Type
REMARK                         _______ _______ _______ _____ _____    ______ ____
ROOT
ATOM      1  C   LIG    1       21.649 -17.539   4.456  0.00  0.00    +0.033 C 
ATOM      2  C   LIG    1       22.964 -17.000   3.892  0.00  0.00    +0.106 C 
ENDROOT
BRANCH   2   3
ATOM      3  N   LIG    1       23.988 -18.047   4.098  0.00  0.00    -0.288 NA
ATOM      4  C   LIG    1       23.537 -19.165   4.566  0.00  0.00    +0.132 C 
BRANCH   4   5
ATOM      5  C   LIG    1       24.394 -20.395   4.816  0.00  0.00    +0.225 C 
ATOM      6 CL   LIG    1       23.872 -21.099   6.360  0.00  0.00    -0.077 Cl
ATOM      7 CL   LIG    1       26.118 -19.977   4.854  0.00  0.00    -0.077 Cl
ATOM      8 CL   LIG    1       24.097 -21.557   3.495  0.00  0.00    -0.077 Cl
ENDBRANCH   4   5
ENDBRANCH   2   3
BRANCH   2   9
ATOM      9  C   LIG    1       23.362 -15.710   4.640  0.00  0.00    +0.061 C 
BRANCH   9  10
ATOM     10  C   LIG    1       24.259 -14.798   3.831  0.00  0.00    -0.045 A 
ATOM     11  C   LIG    1       23.770 -13.572   3.353  0.00  0.00    +0.003 A 
ATOM     12  C   LIG    1       24.608 -12.692   2.669  0.00  0.00    +0.000 A 
ATOM     13  C   LIG    1       25.937 -13.038   2.437  0.00  0.00    +0.000 A 
ATOM     14  C   LIG    1       26.429 -14.261   2.891  0.00  0.00    +0.000 A 
ATOM     15  C   LIG    1       25.596 -15.137   3.592  0.00  0.00    +0.003 A 
ENDBRANCH   9  10
ENDBRANCH   2   9
TORSDOF 4
ENDMDL
MODEL 8
REMARK VINA RESULT:      -4.3      3.368      6.282
REMARK  Name = *****
REMARK                            x       y       z     vdW  Elec       q    Type
REMARK                         _______ _______ _______ _____ _____    ______ ____
ROOT
ATOM      1  C   LIG    1       21.649 -17.547   4.471  0.00  0.00    +0.033 C 
ATOM      2  C   LIG    1       22.959 -17.009   3.897  0.00  0.00    +0.106 C 
ENDROOT
BRANCH   2   3
ATOM      3  N   LIG    1       23.983 -18.059   4.089  0.00  0.00    -0.288 NA
ATOM      4  C   LIG    1       23.535 -19.177   4.558  0.00  0.00    +0.132 C 
BRANCH   4   5
ATOM      5  C   LIG    1       24.391 -20.409   4.795  0.00  0.00    +0.225 C 
ATOM      6 CL   LIG    1       24.083 -21.534   3.456  0.00  0.00    -0.077 Cl
ATOM      7 CL   LIG    1       24.015 -21.160   6.359  0.00  0.00    -0.077 Cl
ATOM      8 CL   LIG    1       26.104 -19.909   4.777  0.00  0.00    -0.077 Cl
ENDBRANCH   4   5
ENDBRANCH   2   3
BRANCH   2   9
ATOM      9  C   LIG    1       23.366 -15.722   4.647  0.00  0.00    +0.061 C 
BRANCH   9  10
ATOM     10  C   LIG    1       24.261 -14.811   3.836  0.00  0.00    -0.045 A 
ATOM     11  C   LIG    1       23.773 -13.581   3.366  0.00  0.00    +0.003 A 
ATOM     12  C   LIG    1       24.610 -12.702   2.680  0.00  0.00    +0.000 A 
ATOM     13  C   LIG    1       25.936 -13.051   2.437  0.00  0.00    +0.000 A 
ATOM     14  C   LIG    1       26.426 -14.279   2.881  0.00  0.00    +0.000 A 
ATOM     15  C   LIG    1       25.595 -15.153   3.585  0.00  0.00    +0.003 A 
ENDBRANCH   9  10
ENDBRANCH   2   9
TORSDOF 4
ENDMDL
MODEL 9
REMARK VINA RESULT:      -4.3      3.349      6.418
REMARK  Name = *****
REMARK                            x       y       z     vdW  Elec       q    Type
REMARK                         _______ _______ _______ _____ _____    ______ ____
ROOT
ATOM      1  C   LIG    1       21.676 -17.423   4.466  0.00  0.00    +0.033 C 
ATOM      2  C   LIG    1       22.991 -16.886   3.901  0.00  0.00    +0.106 C 
ENDROOT
BRANCH   2   3
ATOM      3  N   LIG    1       24.004 -17.953   4.065  0.00  0.00    -0.288 NA
ATOM      4  C   LIG    1       23.539 -19.085   4.482  0.00  0.00    +0.132 C 
BRANCH   4   5
ATOM      5  C   LIG    1       24.380 -20.334   4.681  0.00  0.00    +0.225 C 
ATOM      6 CL   LIG    1       26.084 -19.833   4.664  0.00  0.00    -0.077 Cl
ATOM      7 CL   LIG    1       24.055 -21.533   3.414  0.00  0.00    -0.077 Cl
ATOM      8 CL   LIG    1       23.975 -21.030   6.272  0.00  0.00    -0.077 Cl
ENDBRANCH   4   5
ENDBRANCH   2   3
BRANCH   2   9
ATOM      9  C   LIG    1       23.417 -15.623   4.681  0.00  0.00    +0.061 C 
BRANCH   9  10
ATOM     10  C   LIG    1       24.287 -14.683   3.877  0.00  0.00    -0.045 A 
ATOM     11  C   LIG    1       25.629 -15.009   3.625  0.00  0.00    +0.003 A 
ATOM     12  C   LIG    1       26.420 -14.186   2.825  0.00  0.00    +0.000 A 
ATOM     13  C   LIG    1       25.886 -13.017   2.287  0.00  0.00    +0.000 A 
ATOM     14  C   LIG    1       24.560 -12.674   2.547  0.00  0.00    +0.000 A 
ATOM     15  C   LIG    1       23.760 -13.506   3.334  0.00  0.00    +0.003 A 
ENDBRANCH   9  10
ENDBRANCH   2   9
TORSDOF 4
ENDMDL
