MODEL 1
REMARK VINA RESULT:      -5.4      0.000      0.000
REMARK  Name = *****
REMARK                            x       y       z     vdW  Elec       q    Type
REMARK                         _______ _______ _______ _____ _____    ______ ____
ROOT
ATOM      1  C   LIG    1       25.222 -19.981   4.633  0.00  0.00    +0.190 C 
ENDROOT
BRANCH   1   2
ATOM      2  C   LIG    1       23.970 -19.531   5.473  0.00  0.00    +0.036 C 
ATOM      3  C   LIG    1       22.864 -18.836   4.641  0.00  0.00    +0.007 C 
ATOM      4  C   LIG    1       21.940 -19.785   3.889  0.00  0.00    +0.000 C 
ATOM      5  C   LIG    1       21.324 -20.813   4.825  0.00  0.00    +0.000 C 
ATOM      6  C   LIG    1       22.381 -21.571   5.615  0.00  0.00    +0.000 C 
ATOM      7  C   LIG    1       23.340 -20.640   6.345  0.00  0.00    +0.007 C 
ENDBRANCH   1   2
BRANCH   1   8
ATOM      8  C   LIG    1       26.541 -20.084   5.428  0.00  0.00    -0.005 A 
ATOM      9  C   LIG    1       27.633 -19.238   5.161  0.00  0.00    +0.007 A 
ATOM     10  C   LIG    1       28.848 -19.385   5.836  0.00  0.00    +0.000 A 
ATOM     11  C   LIG    1       29.011 -20.398   6.775  0.00  0.00    +0.000 A 
ATOM     12  C   LIG    1       27.948 -21.247   7.062  0.00  0.00    +0.000 A 
ATOM     13  C   LIG    1       26.726 -21.090   6.399  0.00  0.00    +0.007 A 
ENDBRANCH   1   8
BRANCH   1  14
ATOM     14  C   LIG    1       25.467 -18.998   3.444  0.00  0.00    +0.345 C 
ATOM     15  O   LIG    1       25.325 -19.340   2.264  0.00  0.00    -0.247 OA
BRANCH  14  16
ATOM     16  O   LIG    1       25.843 -17.766   3.861  0.00  0.00    -0.450 OA
BRANCH  16  17
ATOM     17  C   LIG    1       25.725 -16.677   2.942  0.00  0.00    +0.359 C 
BRANCH  17  20
ATOM     18  C   LIG    1       23.763 -14.681   4.048  0.00  0.00    +0.276 C 
ATOM     19  N   LIG    1       25.198 -14.531   4.234  0.00  0.00    -0.224 N 
ATOM     20  C   LIG    1       26.142 -15.341   3.603  0.00  0.00    +0.321 C 
ATOM     21  N   LIG    1       27.408 -15.077   3.539  0.00  0.00    -0.084 NA
ATOM     22  C   LIG    1       27.914 -13.837   4.125  0.00  0.00    +0.294 C 
ATOM     23  C   LIG    1       27.037 -13.332   5.252  0.00  0.00    +0.093 C 
ATOM     24  C   LIG    1       25.617 -13.228   4.738  0.00  0.00    +0.229 C 
ENDBRANCH  17  20
ENDBRANCH  16  17
ENDBRANCH  14  16
ENDBRANCH   1  14
BRANCH   1  25
ATOM     25  O   LIG    1       24.946 -21.281   4.077  0.00  0.00    -0.373 OA
ATOM     26  H   LIG    1       25.738 -21.527   3.560  0.00  0.00    +0.211 HD
ENDBRANCH   1  25
TORSDOF 7
ENDMDL
MODEL 2
REMARK VINA RESULT:      -4.5      2.220      7.368
REMARK  Name = *****
REMARK                            x       y       z     vdW  Elec       q    Type
REMARK                         _______ _______ _______ _____ _____    ______ ____
ROOT
ATOM      1  C   LIG    1       26.234 -14.799   3.207  0.00  0.00    +0.190 C 
ENDROOT
BRANCH   1   2
ATOM      2  C   LIG    1       27.559 -14.787   4.054  0.00  0.00    +0.036 C 
ATOM      3  C   LIG    1       28.703 -13.948   3.430  0.00  0.00    +0.007 C 
ATOM      4  C   LIG    1       28.604 -12.449   3.680  0.00  0.00    +0.000 C 
ATOM      5  C   LIG    1       28.479 -12.143   5.164  0.00  0.00    +0.000 C 
ATOM      6  C   LIG    1       27.321 -12.894   5.806  0.00  0.00    +0.000 C 
ATOM      7  C   LIG    1       27.380 -14.392   5.538  0.00  0.00    +0.007 C 
ENDBRANCH   1   2
BRANCH   1   8
ATOM      8  C   LIG    1       25.304 -13.586   3.431  0.00  0.00    -0.005 A 
ATOM      9  C   LIG    1       24.630 -13.386   4.649  0.00  0.00    +0.007 A 
ATOM     10  C   LIG    1       23.735 -12.326   4.819  0.00  0.00    +0.000 A 
ATOM     11  C   LIG    1       23.471 -11.455   3.767  0.00  0.00    +0.000 A 
ATOM     12  C   LIG    1       24.126 -11.626   2.553  0.00  0.00    +0.000 A 
ATOM     13  C   LIG    1       25.035 -12.677   2.387  0.00  0.00    +0.007 A 
ENDBRANCH   1   8
BRANCH   1  14
ATOM     14  C   LIG    1       25.403 -16.087   3.506  0.00  0.00    +0.345 C 
ATOM     15  O   LIG    1       24.231 -16.041   3.897  0.00  0.00    -0.247 OA
BRANCH  14  16
ATOM     16  O   LIG    1       26.111 -17.221   3.290  0.00  0.00    -0.450 OA
BRANCH  16  17
ATOM     17  C   LIG    1       25.393 -18.411   2.954  0.00  0.00    +0.359 C 
BRANCH  17  20
ATOM     18  C   LIG    1       22.739 -19.065   4.211  0.00  0.00    +0.276 C 
ATOM     19  N   LIG    1       23.968 -19.721   4.629  0.00  0.00    -0.224 N 
ATOM     20  C   LIG    1       25.232 -19.332   4.187  0.00  0.00    +0.321 C 
ATOM     21  N   LIG    1       26.346 -19.712   4.728  0.00  0.00    -0.084 NA
ATOM     22  C   LIG    1       26.314 -20.580   5.904  0.00  0.00    +0.294 C 
ATOM     23  C   LIG    1       25.054 -21.418   5.968  0.00  0.00    +0.093 C 
ATOM     24  C   LIG    1       23.862 -20.491   5.863  0.00  0.00    +0.229 C 
ENDBRANCH  17  20
ENDBRANCH  16  17
ENDBRANCH  14  16
ENDBRANCH   1  14
BRANCH   1  25
ATOM     25  O   LIG    1       26.591 -14.821   1.812  0.00  0.00    -0.373 OA
ATOM     26  H   LIG    1       27.056 -13.978   1.639  0.00  0.00    +0.211 HD
ENDBRANCH   1  25
TORSDOF 7
ENDMDL
MODEL 3
REMARK VINA RESULT:      -3.9      2.237      6.861
REMARK  Name = *****
REMARK                            x       y       z     vdW  Elec       q    Type
REMARK                         _______ _______ _______ _____ _____    ______ ____
ROOT
ATOM      1  C   LIG    1       25.799 -14.853   3.948  0.00  0.00    +0.190 C 
ENDROOT
BRANCH   1   2
ATOM      2  C   LIG    1       24.826 -14.367   2.812  0.00  0.00    +0.036 C 
ATOM      3  C   LIG    1       23.473 -13.816   3.328  0.00  0.00    +0.007 C 
ATOM      4  C   LIG    1       23.517 -12.375   3.821  0.00  0.00    +0.000 C 
ATOM      5  C   LIG    1       24.091 -11.447   2.762  0.00  0.00    +0.000 C 
ATOM      6  C   LIG    1       25.456 -11.912   2.275  0.00  0.00    +0.000 C 
ATOM      7  C   LIG    1       25.444 -13.363   1.812  0.00  0.00    +0.007 C 
ENDBRANCH   1   2
BRANCH   1   8
ATOM      8  C   LIG    1       27.039 -13.961   4.174  0.00  0.00    -0.005 A 
ATOM      9  C   LIG    1       27.214 -13.224   5.359  0.00  0.00    +0.007 A 
ATOM     10  C   LIG    1       28.303 -12.363   5.526  0.00  0.00    +0.000 A 
ATOM     11  C   LIG    1       29.230 -12.198   4.503  0.00  0.00    +0.000 A 
ATOM     12  C   LIG    1       29.085 -12.917   3.322  0.00  0.00    +0.000 A 
ATOM     13  C   LIG    1       28.005 -13.791   3.160  0.00  0.00    +0.007 A 
ENDBRANCH   1   8
BRANCH   1  14
ATOM     14  C   LIG    1       26.310 -16.298   3.652  0.00  0.00    +0.345 C 
ATOM     15  O   LIG    1       27.506 -16.604   3.726  0.00  0.00    -0.247 OA
BRANCH  14  16
ATOM     16  O   LIG    1       25.307 -17.143   3.315  0.00  0.00    -0.450 OA
BRANCH  16  17
ATOM     17  C   LIG    1       25.604 -18.538   3.213  0.00  0.00    +0.359 C 
BRANCH  17  20
ATOM     18  C   LIG    1       26.717 -20.328   5.360  0.00  0.00    +0.276 C 
ATOM     19  N   LIG    1       25.292 -20.056   5.251  0.00  0.00    -0.224 N 
ATOM     20  C   LIG    1       24.724 -19.367   4.180  0.00  0.00    +0.321 C 
ATOM     21  N   LIG    1       23.455 -19.334   3.920  0.00  0.00    -0.084 NA
ATOM     22  C   LIG    1       22.530 -20.087   4.765  0.00  0.00    +0.294 C 
ATOM     23  C   LIG    1       23.065 -20.293   6.167  0.00  0.00    +0.093 C 
ATOM     24  C   LIG    1       24.440 -20.918   6.062  0.00  0.00    +0.229 C 
ENDBRANCH  17  20
ENDBRANCH  16  17
ENDBRANCH  14  16
ENDBRANCH   1  14
BRANCH   1  25
ATOM     25  O   LIG    1       25.062 -14.892   5.186  0.00  0.00    -0.373 OA
ATOM     26  H   LIG    1       24.162 -15.196   4.954  0.00  0.00    +0.211 HD
ENDBRANCH   1  25
TORSDOF 7
ENDMDL
