MODEL 1
REMARK VINA RESULT:       0.8      0.000      0.000
REMARK  Name = *****
REMARK                            x       y       z     vdW  Elec       q    Type
REMARK                         _______ _______ _______ _____ _____    ______ ____
ROOT
ATOM      1  C   LIG    1       28.357 -19.747   5.800  0.00  0.00    +0.122 A 
ATOM      2  C   LIG    1       27.108 -19.498   5.225  0.00  0.00    +0.070 A 
ATOM      3  C   LIG    1       26.840 -18.315   4.511  0.00  0.00    +0.051 A 
ATOM      4  N   LIG    1       25.485 -18.073   4.111  0.00  0.00    -0.298 N 
ATOM      5  C   LIG    1       24.994 -16.739   4.016  0.00  0.00    +0.048 A 
ATOM      6  C   LIG    1       25.834 -15.639   3.747  0.00  0.00    +0.034 A 
ATOM      7  S   LIG    1       27.606 -15.805   3.584  0.00  0.00    -0.086 S 
ATOM      8  C   LIG    1       25.271 -14.366   3.568  0.00  0.00    +0.017 A 
ATOM      9  C   LIG    1       23.897 -14.169   3.712  0.00  0.00    +0.001 A 
ATOM     10  C   LIG    1       23.080 -15.233   4.076  0.00  0.00    +0.002 A 
ATOM     11  C   LIG    1       23.627 -16.504   4.230  0.00  0.00    +0.024 A 
ATOM     12  C   LIG    1       27.872 -17.388   4.361  0.00  0.00    +0.034 A 
ATOM     13  C   LIG    1       29.164 -17.684   4.849  0.00  0.00    +0.020 A 
ATOM     14  C   LIG    1       29.391 -18.870   5.563  0.00  0.00    +0.047 A 
ENDROOT
BRANCH   1  16
ATOM     15  C   LIG    1       27.430 -21.549   7.002  0.00  0.00    +0.277 C 
ATOM     16  O   LIG    1       28.608 -20.825   6.610  0.00  0.00    -0.495 OA
ENDBRANCH   1  16
BRANCH   4  17
ATOM     17  C   LIG    1       25.059 -18.893   2.915  0.00  0.00    +0.115 C 
BRANCH  17  18
ATOM     18  C   LIG    1       23.985 -19.991   3.231  0.00  0.00    +0.018 C 
ATOM     19  C   LIG    1       22.580 -19.400   3.243  0.00  0.00    +0.010 C 
BRANCH  18  20
ATOM     20  C   LIG    1       24.308 -20.697   4.591  0.00  0.00    +0.088 C 
BRANCH  20  21
ATOM     21  N   LIG    1       23.382 -20.518   5.736  0.00  0.00    -0.308 NA
ATOM     22  C   LIG    1       23.991 -20.423   7.062  0.00  0.00    +0.104 C 
ATOM     23  C   LIG    1       22.359 -21.571   5.773  0.00  0.00    +0.104 C 
ENDBRANCH  20  21
ENDBRANCH  18  20
ENDBRANCH  17  18
ENDBRANCH   4  17
TORSDOF 5
ENDMDL
MODEL 2
REMARK VINA RESULT:       2.1      2.629      6.327
REMARK  Name = *****
REMARK                            x       y       z     vdW  Elec       q    Type
REMARK                         _______ _______ _______ _____ _____    ______ ____
ROOT
ATOM      1  C   LIG    1       22.414 -18.101   4.442  0.00  0.00    +0.122 A 
ATOM      2  C   LIG    1       23.790 -17.859   4.401  0.00  0.00    +0.070 A 
ATOM      3  C   LIG    1       24.731 -18.897   4.530  0.00  0.00    +0.051 A 
ATOM      4  N   LIG    1       26.112 -18.529   4.650  0.00  0.00    -0.298 N 
ATOM      5  C   LIG    1       27.004 -19.337   5.411  0.00  0.00    +0.048 A 
ATOM      6  C   LIG    1       26.802 -20.720   5.599  0.00  0.00    +0.034 A 
ATOM      7  S   LIG    1       25.363 -21.572   4.969  0.00  0.00    -0.086 S 
ATOM      8  C   LIG    1       27.772 -21.476   6.277  0.00  0.00    +0.017 A 
ATOM      9  C   LIG    1       28.903 -20.862   6.816  0.00  0.00    +0.001 A 
ATOM     10  C   LIG    1       29.055 -19.484   6.720  0.00  0.00    +0.002 A 
ATOM     11  C   LIG    1       28.110 -18.731   6.027  0.00  0.00    +0.024 A 
ATOM     12  C   LIG    1       24.259 -20.201   4.674  0.00  0.00    +0.034 A 
ATOM     13  C   LIG    1       22.873 -20.462   4.610  0.00  0.00    +0.020 A 
ATOM     14  C   LIG    1       21.963 -19.401   4.489  0.00  0.00    +0.047 A 
ENDROOT
BRANCH   1  16
ATOM     15  C   LIG    1       21.884 -15.924   5.169  0.00  0.00    +0.277 C 
ATOM     16  O   LIG    1       21.476 -17.100   4.452  0.00  0.00    -0.495 OA
ENDBRANCH   1  16
BRANCH   4  17
ATOM     17  C   LIG    1       26.739 -18.120   3.338  0.00  0.00    +0.115 C 
BRANCH  17  18
ATOM     18  C   LIG    1       27.049 -16.587   3.216  0.00  0.00    +0.018 C 
ATOM     19  C   LIG    1       27.972 -16.122   4.336  0.00  0.00    +0.010 C 
BRANCH  18  20
ATOM     20  C   LIG    1       25.718 -15.760   3.205  0.00  0.00    +0.088 C 
BRANCH  20  21
ATOM     21  N   LIG    1       25.765 -14.315   3.535  0.00  0.00    -0.308 NA
ATOM     22  C   LIG    1       24.648 -13.786   4.316  0.00  0.00    +0.104 C 
ATOM     23  C   LIG    1       25.914 -13.490   2.329  0.00  0.00    +0.104 C 
ENDBRANCH  20  21
ENDBRANCH  18  20
ENDBRANCH  17  18
ENDBRANCH   4  17
TORSDOF 5
ENDMDL
MODEL 3
REMARK VINA RESULT:       2.2      2.385      4.621
REMARK  Name = *****
REMARK                            x       y       z     vdW  Elec       q    Type
REMARK                         _______ _______ _______ _____ _____    ______ ____
ROOT
ATOM      1  C   LIG    1       23.310 -19.070   3.848  0.00  0.00    +0.122 A 
ATOM      2  C   LIG    1       24.390 -18.211   3.627  0.00  0.00    +0.070 A 
ATOM      3  C   LIG    1       24.325 -16.840   3.940  0.00  0.00    +0.051 A 
ATOM      4  N   LIG    1       25.416 -16.011   3.517  0.00  0.00    -0.298 N 
ATOM      5  C   LIG    1       25.188 -14.647   3.176  0.00  0.00    +0.048 A 
ATOM      6  C   LIG    1       24.127 -13.896   3.722  0.00  0.00    +0.034 A 
ATOM      7  S   LIG    1       22.920 -14.609   4.831  0.00  0.00    -0.086 S 
ATOM      8  C   LIG    1       24.018 -12.529   3.419  0.00  0.00    +0.017 A 
ATOM      9  C   LIG    1       24.914 -11.923   2.538  0.00  0.00    +0.001 A 
ATOM     10  C   LIG    1       25.899 -12.684   1.919  0.00  0.00    +0.002 A 
ATOM     11  C   LIG    1       26.029 -14.035   2.234  0.00  0.00    +0.024 A 
ATOM     12  C   LIG    1       23.152 -16.349   4.511  0.00  0.00    +0.034 A 
ATOM     13  C   LIG    1       22.098 -17.233   4.833  0.00  0.00    +0.020 A 
ATOM     14  C   LIG    1       22.195 -18.592   4.498  0.00  0.00    +0.047 A 
ENDROOT
BRANCH   1  16
ATOM     15  C   LIG    1       24.354 -21.178   3.984  0.00  0.00    +0.277 C 
ATOM     16  O   LIG    1       23.295 -20.377   3.434  0.00  0.00    -0.495 OA
ENDBRANCH   1  16
BRANCH   4  17
ATOM     17  C   LIG    1       26.646 -16.152   4.383  0.00  0.00    +0.115 C 
BRANCH  17  18
ATOM     18  C   LIG    1       27.584 -17.346   3.987  0.00  0.00    +0.018 C 
ATOM     19  C   LIG    1       26.795 -18.470   3.328  0.00  0.00    +0.010 C 
BRANCH  18  20
ATOM     20  C   LIG    1       28.364 -17.868   5.241  0.00  0.00    +0.088 C 
BRANCH  20  21
ATOM     21  N   LIG    1       28.414 -19.328   5.504  0.00  0.00    -0.308 NA
ATOM     22  C   LIG    1       27.172 -19.955   5.951  0.00  0.00    +0.104 C 
ATOM     23  C   LIG    1       29.473 -19.667   6.463  0.00  0.00    +0.104 C 
ENDBRANCH  20  21
ENDBRANCH  18  20
ENDBRANCH  17  18
ENDBRANCH   4  17
TORSDOF 5
ENDMDL
MODEL 4
REMARK VINA RESULT:       3.7      3.200      5.856
REMARK  Name = *****
REMARK                            x       y       z     vdW  Elec       q    Type
REMARK                         _______ _______ _______ _____ _____    ______ ____
ROOT
ATOM      1  C   LIG    1       23.368 -18.906   3.765  0.00  0.00    +0.122 A 
ATOM      2  C   LIG    1       24.280 -17.934   3.345  0.00  0.00    +0.070 A 
ATOM      3  C   LIG    1       24.201 -16.600   3.788  0.00  0.00    +0.051 A 
ATOM      4  N   LIG    1       25.070 -15.643   3.168  0.00  0.00    -0.298 N 
ATOM      5  C   LIG    1       24.656 -14.287   3.027  0.00  0.00    +0.048 A 
ATOM      6  C   LIG    1       23.732 -13.681   3.903  0.00  0.00    +0.034 A 
ATOM      7  S   LIG    1       22.930 -14.581   5.222  0.00  0.00    -0.086 S 
ATOM      8  C   LIG    1       23.443 -12.313   3.766  0.00  0.00    +0.017 A 
ATOM      9  C   LIG    1       24.016 -11.565   2.738  0.00  0.00    +0.001 A 
ATOM     10  C   LIG    1       24.849 -12.183   1.812  0.00  0.00    +0.002 A 
ATOM     11  C   LIG    1       25.160 -13.533   1.956  0.00  0.00    +0.024 A 
ATOM     12  C   LIG    1       23.195 -16.264   4.694  0.00  0.00    +0.034 A 
ATOM     13  C   LIG    1       22.338 -17.266   5.202  0.00  0.00    +0.020 A 
ATOM     14  C   LIG    1       22.441 -18.583   4.730  0.00  0.00    +0.047 A 
ENDROOT
BRANCH   1  16
ATOM     15  C   LIG    1       23.871 -21.178   4.135  0.00  0.00    +0.277 C 
ATOM     16  O   LIG    1       23.338 -20.177   3.252  0.00  0.00    -0.495 OA
ENDBRANCH   1  16
BRANCH   4  17
ATOM     17  C   LIG    1       26.497 -15.723   3.659  0.00  0.00    +0.115 C 
BRANCH  17  18
ATOM     18  C   LIG    1       27.293 -14.375   3.562  0.00  0.00    +0.018 C 
ATOM     19  C   LIG    1       28.135 -14.325   2.292  0.00  0.00    +0.010 C 
BRANCH  18  20
ATOM     20  C   LIG    1       28.183 -14.172   4.834  0.00  0.00    +0.088 C 
BRANCH  20  21
ATOM     21  N   LIG    1       27.996 -12.952   5.658  0.00  0.00    -0.308 NA
ATOM     22  C   LIG    1       26.623 -12.480   5.826  0.00  0.00    +0.104 C 
ATOM     23  C   LIG    1       28.809 -11.835   5.160  0.00  0.00    +0.104 C 
ENDBRANCH  20  21
ENDBRANCH  18  20
ENDBRANCH  17  18
ENDBRANCH   4  17
TORSDOF 5
ENDMDL
