MODEL 1
REMARK VINA RESULT:      -3.7      0.000      0.000
REMARK  Name = *****
REMARK                            x       y       z     vdW  Elec       q    Type
REMARK                         _______ _______ _______ _____ _____    ______ ____
ROOT
ATOM      1  C   LIG    1       22.872 -19.516   4.444  0.00  0.00    +0.047 C 
ATOM      2  C   LIG    1       24.065 -19.651   5.423  0.00  0.00    +0.046 C 
ATOM      3  C   LIG    1       25.326 -19.580   4.550  0.00  0.00    +0.179 C 
ATOM      4  O   LIG    1       26.187 -20.676   4.876  0.00  0.00    -0.493 OA
ATOM      5  C   LIG    1       25.686 -21.154   6.071  0.00  0.00    +0.095 C 
ATOM      6  C   LIG    1       26.502 -21.535   7.062  0.00  0.00    +0.014 C 
ATOM      7  C   LIG    1       24.874 -19.649   3.094  0.00  0.00    +0.076 C 
ATOM      8  C   LIG    1       24.205 -20.980   6.148  0.00  0.00    +0.081 C 
ATOM      9  C   LIG    1       23.427 -20.140   3.148  0.00  0.00    +0.125 C 
ENDROOT
BRANCH   1  11
ATOM     10  C   LIG    1       22.892 -17.016   5.053  0.00  0.00    -0.000 C 
ATOM     11  C   LIG    1       22.483 -18.050   4.291  0.00  0.00    -0.022 C 
BRANCH  10  12
ATOM     12  C   LIG    1       22.434 -15.582   4.955  0.00  0.00    +0.137 C 
BRANCH  12  13
ATOM     13  O   LIG    1       21.960 -15.213   6.247  0.00  0.00    -0.388 OA
ATOM     14  H   LIG    1       21.016 -14.997   6.154  0.00  0.00    +0.210 HD
ENDBRANCH  12  13
BRANCH  12  15
ATOM     15  C   LIG    1       23.522 -14.606   4.502  0.00  0.00    +0.035 C 
BRANCH  15  16
ATOM     16  C   LIG    1       24.725 -15.272   3.836  0.00  0.00    +0.003 C 
BRANCH  16  17
ATOM     17  C   LIG    1       26.033 -14.848   4.521  0.00  0.00    -0.000 C 
BRANCH  17  19
ATOM     18  C   LIG    1       26.631 -14.116   2.179  0.00  0.00    +0.004 C 
ATOM     19  C   LIG    1       26.877 -13.905   3.663  0.00  0.00    -0.003 C 
ENDBRANCH  17  19
ENDBRANCH  16  17
ENDBRANCH  15  16
ENDBRANCH  12  15
ENDBRANCH  10  12
ENDBRANCH   1  11
BRANCH   9  20
ATOM     20  O   LIG    1       23.367 -21.560   3.214  0.00  0.00    -0.391 OA
ATOM     21  H   LIG    1       23.538 -21.893   2.312  0.00  0.00    +0.210 HD
ENDBRANCH   9  20
BRANCH   6  22
ATOM     22  C   LIG    1       28.003 -21.569   6.953  0.00  0.00    +0.031 C 
BRANCH  22  23
ATOM     23  C   LIG    1       28.659 -20.183   6.994  0.00  0.00    +0.015 C 
BRANCH  23  24
ATOM     24  C   LIG    1       29.219 -19.720   5.649  0.00  0.00    +0.121 C 
BRANCH  24  25
ATOM     25  C   LIG    1       29.078 -18.250   5.475  0.00  0.00    +0.305 C 
ATOM     26  O   LIG    1       29.475 -17.402   6.252  0.00  0.00    -0.251 OA
BRANCH  25  27
ATOM     27  O   LIG    1       28.386 -17.938   4.338  0.00  0.00    -0.481 OA
ATOM     28  H   LIG    1       28.434 -16.990   4.062  0.00  0.00    +0.295 HD
ENDBRANCH  25  27
ENDBRANCH  24  25
ENDBRANCH  23  24
ENDBRANCH  22  23
ENDBRANCH   6  22
TORSDOF 13
ENDMDL
