MODEL 1
REMARK VINA RESULT:      -7.6      0.000      0.000
REMARK  Name = *****
REMARK                            x       y       z     vdW  Elec       q    Type
REMARK                         _______ _______ _______ _____ _____    ______ ____
ROOT
ATOM      1  C   LIG    1       26.832 -21.853   8.274  0.00  0.00    +0.027 C 
ENDROOT
BRANCH   1   3
ATOM      2  C   LIG    1       25.981 -24.132   6.714  0.00  0.00    -0.031 C 
ATOM      3  C   LIG    1       26.326 -23.038   7.432  0.00  0.00    -0.031 C 
BRANCH   2   4
ATOM      4  C   LIG    1       24.716 -24.478   5.910  0.00  0.00    +0.027 C 
BRANCH   4   5
ATOM      5  C   LIG    1       23.339 -24.513   6.628  0.00  0.00    +0.004 C 
BRANCH   5   6
ATOM      6  C   LIG    1       22.531 -23.175   6.633  0.00  0.00    +0.000 C 
BRANCH   6   7
ATOM      7  C   LIG    1       23.169 -22.007   7.405  0.00  0.00    +0.000 C 
BRANCH   7   8
ATOM      8  C   LIG    1       23.205 -20.652   6.659  0.00  0.00    -0.000 C 
BRANCH   8   9
ATOM      9  C   LIG    1       22.759 -20.676   5.191  0.00  0.00    -0.000 C 
BRANCH   9  11
ATOM     10  C   LIG    1       22.175 -18.356   4.372  0.00  0.00    +0.004 C 
ATOM     11  C   LIG    1       23.231 -19.447   4.413  0.00  0.00    -0.003 C 
ENDBRANCH   9  11
ENDBRANCH   8   9
ENDBRANCH   7   8
ENDBRANCH   6   7
ENDBRANCH   5   6
ENDBRANCH   4   5
ENDBRANCH   2   4
ENDBRANCH   1   3
BRANCH   1  12
ATOM     12  C   LIG    1       26.779 -20.390   7.743  0.00  0.00    +0.004 C 
BRANCH  12  13
ATOM     13  C   LIG    1       26.844 -20.253   6.177  0.00  0.00    +0.000 C 
BRANCH  13  14
ATOM     14  C   LIG    1       28.213 -19.738   5.619  0.00  0.00    +0.000 C 
BRANCH  14  15
ATOM     15  C   LIG    1       29.323 -19.875   6.673  0.00  0.00    +0.000 C 
BRANCH  15  16
ATOM     16  C   LIG    1       30.092 -18.629   7.130  0.00  0.00    +0.011 C 
BRANCH  16  17
ATOM     17  C   LIG    1       31.442 -18.903   7.771  0.00  0.00    +0.120 C 
BRANCH  17  18
ATOM     18  C   LIG    1       31.421 -19.442   9.170  0.00  0.00    +0.305 C 
ATOM     19  O   LIG    1       30.831 -19.017  10.147  0.00  0.00    -0.251 OA
BRANCH  18  20
ATOM     20  O   LIG    1       32.163 -20.569   9.228  0.00  0.00    -0.481 OA
ATOM     21  H   LIG    1       31.514 -21.299   9.261  0.00  0.00    +0.295 HD
ENDBRANCH  18  20
ENDBRANCH  17  18
ENDBRANCH  16  17
ENDBRANCH  15  16
ENDBRANCH  14  15
ENDBRANCH  13  14
ENDBRANCH  12  13
ENDBRANCH   1  12
TORSDOF 16
ENDMDL
MODEL 2
REMARK VINA RESULT:      -7.5      1.367      3.547
REMARK  Name = *****
REMARK                            x       y       z     vdW  Elec       q    Type
REMARK                         _______ _______ _______ _____ _____    ______ ____
ROOT
ATOM      1  C   LIG    1       27.104 -20.133   5.820  0.00  0.00    +0.027 C 
ENDROOT
BRANCH   1   3
ATOM      2  C   LIG    1       25.042 -19.999   3.800  0.00  0.00    -0.031 C 
ATOM      3  C   LIG    1       25.975 -20.022   4.780  0.00  0.00    -0.031 C 
BRANCH   2   4
ATOM      4  C   LIG    1       23.714 -19.234   3.662  0.00  0.00    +0.027 C 
BRANCH   4   5
ATOM      5  C   LIG    1       22.665 -19.310   4.806  0.00  0.00    +0.004 C 
BRANCH   5   6
ATOM      6  C   LIG    1       22.576 -20.671   5.569  0.00  0.00    +0.000 C 
BRANCH   6   7
ATOM      7  C   LIG    1       23.174 -20.688   6.986  0.00  0.00    +0.000 C 
BRANCH   7   8
ATOM      8  C   LIG    1       23.650 -22.071   7.495  0.00  0.00    -0.000 C 
BRANCH   8   9
ATOM      9  C   LIG    1       23.482 -23.244   6.521  0.00  0.00    -0.000 C 
BRANCH   9  11
ATOM     10  C   LIG    1       25.836 -24.029   7.008  0.00  0.00    +0.004 C 
ATOM     11  C   LIG    1       24.813 -23.714   5.931  0.00  0.00    -0.003 C 
ENDBRANCH   9  11
ENDBRANCH   8   9
ENDBRANCH   7   8
ENDBRANCH   6   7
ENDBRANCH   5   6
ENDBRANCH   4   5
ENDBRANCH   2   4
ENDBRANCH   1   3
BRANCH   1  12
ATOM     12  C   LIG    1       26.809 -20.440   7.318  0.00  0.00    +0.004 C 
BRANCH  12  13
ATOM     13  C   LIG    1       27.970 -21.177   8.083  0.00  0.00    +0.000 C 
BRANCH  13  14
ATOM     14  C   LIG    1       29.335 -21.221   7.319  0.00  0.00    +0.000 C 
BRANCH  14  15
ATOM     15  C   LIG    1       30.308 -20.168   7.869  0.00  0.00    +0.000 C 
BRANCH  15  16
ATOM     16  C   LIG    1       29.967 -18.678   7.739  0.00  0.00    +0.011 C 
BRANCH  16  17
ATOM     17  C   LIG    1       30.270 -17.836   8.967  0.00  0.00    +0.120 C 
BRANCH  17  18
ATOM     18  C   LIG    1       31.717 -17.675   9.327  0.00  0.00    +0.305 C 
ATOM     19  O   LIG    1       32.305 -18.049  10.326  0.00  0.00    -0.251 OA
BRANCH  18  20
ATOM     20  O   LIG    1       32.363 -17.048   8.320  0.00  0.00    -0.481 OA
ATOM     21  H   LIG    1       31.669 -16.842   7.663  0.00  0.00    +0.295 HD
ENDBRANCH  18  20
ENDBRANCH  17  18
ENDBRANCH  16  17
ENDBRANCH  15  16
ENDBRANCH  14  15
ENDBRANCH  13  14
ENDBRANCH  12  13
ENDBRANCH   1  12
TORSDOF 16
ENDMDL
MODEL 3
REMARK VINA RESULT:      -7.3      1.222      1.750
REMARK  Name = *****
REMARK                            x       y       z     vdW  Elec       q    Type
REMARK                         _______ _______ _______ _____ _____    ______ ____
ROOT
ATOM      1  C   LIG    1       27.360 -21.319   7.900  0.00  0.00    +0.027 C 
ENDROOT
BRANCH   1   3
ATOM      2  C   LIG    1       25.767 -23.625   7.192  0.00  0.00    -0.031 C 
ATOM      3  C   LIG    1       26.478 -22.511   7.486  0.00  0.00    -0.031 C 
BRANCH   2   4
ATOM      4  C   LIG    1       24.569 -23.863   6.257  0.00  0.00    +0.027 C 
BRANCH   4   5
ATOM      5  C   LIG    1       23.146 -23.437   6.713  0.00  0.00    +0.004 C 
BRANCH   5   6
ATOM      6  C   LIG    1       23.053 -22.100   7.518  0.00  0.00    +0.000 C 
BRANCH   6   7
ATOM      7  C   LIG    1       23.304 -20.812   6.715  0.00  0.00    +0.000 C 
BRANCH   7   8
ATOM      8  C   LIG    1       22.699 -20.783   5.291  0.00  0.00    -0.000 C 
BRANCH   8   9
ATOM      9  C   LIG    1       23.635 -20.318   4.167  0.00  0.00    -0.000 C 
BRANCH   9  11
ATOM     10  C   LIG    1       22.169 -18.274   4.435  0.00  0.00    +0.004 C 
ATOM     11  C   LIG    1       23.417 -18.852   3.790  0.00  0.00    -0.003 C 
ENDBRANCH   9  11
ENDBRANCH   8   9
ENDBRANCH   7   8
ENDBRANCH   6   7
ENDBRANCH   5   6
ENDBRANCH   4   5
ENDBRANCH   2   4
ENDBRANCH   1   3
BRANCH   1  12
ATOM     12  C   LIG    1       28.756 -21.073   7.257  0.00  0.00    +0.004 C 
BRANCH  12  13
ATOM     13  C   LIG    1       28.773 -20.003   6.103  0.00  0.00    +0.000 C 
BRANCH  13  14
ATOM     14  C   LIG    1       29.699 -18.769   6.366  0.00  0.00    +0.000 C 
BRANCH  14  15
ATOM     15  C   LIG    1       30.991 -19.193   7.081  0.00  0.00    +0.000 C 
BRANCH  15  16
ATOM     16  C   LIG    1       31.297 -18.646   8.481  0.00  0.00    +0.011 C 
BRANCH  16  17
ATOM     17  C   LIG    1       30.145 -17.924   9.159  0.00  0.00    +0.120 C 
BRANCH  17  18
ATOM     18  C   LIG    1       30.373 -17.480  10.573  0.00  0.00    +0.305 C 
ATOM     19  O   LIG    1       30.239 -16.372  11.060  0.00  0.00    -0.251 OA
BRANCH  18  20
ATOM     20  O   LIG    1       30.743 -18.541  11.322  0.00  0.00    -0.481 OA
ATOM     21  H   LIG    1       31.081 -19.198  10.682  0.00  0.00    +0.295 HD
ENDBRANCH  18  20
ENDBRANCH  17  18
ENDBRANCH  16  17
ENDBRANCH  15  16
ENDBRANCH  14  15
ENDBRANCH  13  14
ENDBRANCH  12  13
ENDBRANCH   1  12
TORSDOF 16
ENDMDL
MODEL 4
REMARK VINA RESULT:      -7.0      4.498      7.681
REMARK  Name = *****
REMARK                            x       y       z     vdW  Elec       q    Type
REMARK                         _______ _______ _______ _____ _____    ______ ____
ROOT
ATOM      1  C   LIG    1       22.958 -22.714   6.887  0.00  0.00    +0.027 C 
ENDROOT
BRANCH   1   3
ATOM      2  C   LIG    1       22.798 -20.041   5.798  0.00  0.00    -0.031 C 
ATOM      3  C   LIG    1       22.892 -21.313   6.253  0.00  0.00    -0.031 C 
BRANCH   2   4
ATOM      4  C   LIG    1       23.068 -19.421   4.416  0.00  0.00    +0.027 C 
BRANCH   4   5
ATOM      5  C   LIG    1       24.306 -19.884   3.599  0.00  0.00    +0.004 C 
BRANCH   5   6
ATOM      6  C   LIG    1       25.703 -19.545   4.214  0.00  0.00    +0.000 C 
BRANCH   6   7
ATOM      7  C   LIG    1       26.260 -20.567   5.220  0.00  0.00    +0.000 C 
BRANCH   7   8
ATOM      8  C   LIG    1       27.366 -20.041   6.165  0.00  0.00    -0.000 C 
BRANCH   8   9
ATOM      9  C   LIG    1       27.959 -21.060   7.147  0.00  0.00    -0.000 C 
BRANCH   9  11
ATOM     10  C   LIG    1       25.962 -20.596   8.629  0.00  0.00    +0.004 C 
ATOM     11  C   LIG    1       26.906 -21.654   8.084  0.00  0.00    -0.003 C 
ENDBRANCH   9  11
ENDBRANCH   8   9
ENDBRANCH   7   8
ENDBRANCH   6   7
ENDBRANCH   5   6
ENDBRANCH   4   5
ENDBRANCH   2   4
ENDBRANCH   1   3
BRANCH   1  12
ATOM     12  C   LIG    1       24.250 -23.581   6.820  0.00  0.00    +0.004 C 
BRANCH  12  13
ATOM     13  C   LIG    1       24.851 -23.762   5.378  0.00  0.00    +0.000 C 
BRANCH  13  14
ATOM     14  C   LIG    1       25.056 -25.248   4.934  0.00  0.00    +0.000 C 
BRANCH  14  15
ATOM     15  C   LIG    1       24.428 -26.217   5.946  0.00  0.00    +0.000 C 
BRANCH  15  16
ATOM     16  C   LIG    1       25.314 -27.239   6.669  0.00  0.00    +0.011 C 
BRANCH  16  17
ATOM     17  C   LIG    1       24.653 -28.576   6.961  0.00  0.00    +0.120 C 
BRANCH  17  18
ATOM     18  C   LIG    1       24.490 -29.509   5.797  0.00  0.00    +0.305 C 
ATOM     19  O   LIG    1       25.320 -30.224   5.266  0.00  0.00    -0.251 OA
BRANCH  18  20
ATOM     20  O   LIG    1       23.203 -29.497   5.389  0.00  0.00    -0.481 OA
ATOM     21  H   LIG    1       23.208 -28.995   4.550  0.00  0.00    +0.295 HD
ENDBRANCH  18  20
ENDBRANCH  17  18
ENDBRANCH  16  17
ENDBRANCH  15  16
ENDBRANCH  14  15
ENDBRANCH  13  14
ENDBRANCH  12  13
ENDBRANCH   1  12
TORSDOF 16
ENDMDL
MODEL 5
REMARK VINA RESULT:      -7.0      1.563      3.844
REMARK  Name = *****
REMARK                            x       y       z     vdW  Elec       q    Type
REMARK                         _______ _______ _______ _____ _____    ______ ____
ROOT
ATOM      1  C   LIG    1       25.939 -20.600   8.645  0.00  0.00    +0.027 C 
ENDROOT
BRANCH   1   3
ATOM      2  C   LIG    1       23.798 -20.685   6.705  0.00  0.00    -0.031 C 
ATOM      3  C   LIG    1       24.798 -20.706   7.618  0.00  0.00    -0.031 C 
BRANCH   2   4
ATOM      4  C   LIG    1       22.955 -21.808   6.077  0.00  0.00    +0.027 C 
BRANCH   4   5
ATOM      5  C   LIG    1       22.622 -23.074   6.913  0.00  0.00    +0.004 C 
BRANCH   5   6
ATOM      6  C   LIG    1       23.463 -24.352   6.591  0.00  0.00    +0.000 C 
BRANCH   6   7
ATOM      7  C   LIG    1       24.950 -24.294   6.980  0.00  0.00    +0.000 C 
BRANCH   7   8
ATOM      8  C   LIG    1       25.934 -24.900   5.950  0.00  0.00    -0.000 C 
BRANCH   8   9
ATOM      9  C   LIG    1       25.318 -25.812   4.881  0.00  0.00    -0.000 C 
BRANCH   9  11
ATOM     10  C   LIG    1       24.622 -27.875   6.168  0.00  0.00    +0.004 C 
ATOM     11  C   LIG    1       25.585 -27.294   5.147  0.00  0.00    -0.003 C 
ENDBRANCH   9  11
ENDBRANCH   8   9
ENDBRANCH   7   8
ENDBRANCH   6   7
ENDBRANCH   5   6
ENDBRANCH   4   5
ENDBRANCH   2   4
ENDBRANCH   1   3
BRANCH   1  12
ATOM     12  C   LIG    1       27.360 -21.166   8.351  0.00  0.00    +0.004 C 
BRANCH  12  13
ATOM     13  C   LIG    1       27.668 -21.421   6.829  0.00  0.00    +0.000 C 
BRANCH  13  14
ATOM     14  C   LIG    1       28.120 -20.153   6.030  0.00  0.00    +0.000 C 
BRANCH  14  15
ATOM     15  C   LIG    1       29.505 -19.676   6.494  0.00  0.00    +0.000 C 
BRANCH  15  16
ATOM     16  C   LIG    1       29.639 -18.331   7.220  0.00  0.00    +0.011 C 
BRANCH  16  17
ATOM     17  C   LIG    1       30.224 -18.407   8.620  0.00  0.00    +0.120 C 
BRANCH  17  18
ATOM     18  C   LIG    1       31.644 -18.878   8.726  0.00  0.00    +0.305 C 
ATOM     19  O   LIG    1       32.094 -19.827   9.341  0.00  0.00    -0.251 OA
BRANCH  18  20
ATOM     20  O   LIG    1       32.437 -18.087   7.970  0.00  0.00    -0.481 OA
ATOM     21  H   LIG    1       31.822 -17.577   7.406  0.00  0.00    +0.295 HD
ENDBRANCH  18  20
ENDBRANCH  17  18
ENDBRANCH  16  17
ENDBRANCH  15  16
ENDBRANCH  14  15
ENDBRANCH  13  14
ENDBRANCH  12  13
ENDBRANCH   1  12
TORSDOF 16
ENDMDL
MODEL 6
REMARK VINA RESULT:      -7.0      3.186      7.440
REMARK  Name = *****
REMARK                            x       y       z     vdW  Elec       q    Type
REMARK                         _______ _______ _______ _____ _____    ______ ____
ROOT
ATOM      1  C   LIG    1       24.702 -19.865   3.765  0.00  0.00    +0.027 C 
ENDROOT
BRANCH   1   3
ATOM      2  C   LIG    1       27.009 -20.010   5.501  0.00  0.00    -0.031 C 
ATOM      3  C   LIG    1       25.894 -19.965   4.734  0.00  0.00    -0.031 C 
BRANCH   2   4
ATOM      4  C   LIG    1       27.241 -20.467   6.951  0.00  0.00    +0.027 C 
BRANCH   4   5
ATOM      5  C   LIG    1       28.425 -21.420   7.273  0.00  0.00    +0.004 C 
BRANCH   5   6
ATOM      6  C   LIG    1       29.673 -20.763   7.948  0.00  0.00    +0.000 C 
BRANCH   6   7
ATOM      7  C   LIG    1       29.967 -19.308   7.544  0.00  0.00    +0.000 C 
BRANCH   7   8
ATOM      8  C   LIG    1       31.438 -18.854   7.704  0.00  0.00    -0.000 C 
BRANCH   8   9
ATOM      9  C   LIG    1       31.733 -17.916   8.882  0.00  0.00    -0.000 C 
BRANCH   9  11
ATOM     10  C   LIG    1       30.344 -17.536  10.961  0.00  0.00    +0.004 C 
ATOM     11  C   LIG    1       30.466 -17.291   9.467  0.00  0.00    -0.003 C 
ENDBRANCH   9  11
ENDBRANCH   8   9
ENDBRANCH   7   8
ENDBRANCH   6   7
ENDBRANCH   5   6
ENDBRANCH   4   5
ENDBRANCH   2   4
ENDBRANCH   1   3
BRANCH   1  12
ATOM     12  C   LIG    1       23.264 -19.543   4.268  0.00  0.00    +0.004 C 
BRANCH  12  13
ATOM     13  C   LIG    1       22.655 -20.606   5.254  0.00  0.00    +0.000 C 
BRANCH  13  14
ATOM     14  C   LIG    1       23.240 -20.566   6.705  0.00  0.00    +0.000 C 
BRANCH  14  15
ATOM     15  C   LIG    1       23.256 -21.968   7.332  0.00  0.00    +0.000 C 
BRANCH  15  16
ATOM     16  C   LIG    1       24.513 -22.838   7.212  0.00  0.00    +0.011 C 
BRANCH  16  17
ATOM     17  C   LIG    1       24.288 -24.219   6.620  0.00  0.00    +0.120 C 
BRANCH  17  18
ATOM     18  C   LIG    1       25.027 -24.531   5.352  0.00  0.00    +0.305 C 
ATOM     19  O   LIG    1       25.758 -25.472   5.101  0.00  0.00    -0.251 OA
BRANCH  18  20
ATOM     20  O   LIG    1       24.741 -23.592   4.424  0.00  0.00    -0.481 OA
ATOM     21  H   LIG    1       23.857 -23.254   4.670  0.00  0.00    +0.295 HD
ENDBRANCH  18  20
ENDBRANCH  17  18
ENDBRANCH  16  17
ENDBRANCH  15  16
ENDBRANCH  14  15
ENDBRANCH  13  14
ENDBRANCH  12  13
ENDBRANCH   1  12
TORSDOF 16
ENDMDL
MODEL 7
REMARK VINA RESULT:      -6.9      1.493      3.863
REMARK  Name = *****
REMARK                            x       y       z     vdW  Elec       q    Type
REMARK                         _______ _______ _______ _____ _____    ______ ____
ROOT
ATOM      1  C   LIG    1       26.834 -20.576   5.391  0.00  0.00    +0.027 C 
ENDROOT
BRANCH   1   3
ATOM      2  C   LIG    1       24.728 -19.469   3.749  0.00  0.00    -0.031 C 
ATOM      3  C   LIG    1       25.676 -19.985   4.566  0.00  0.00    -0.031 C 
BRANCH   2   4
ATOM      4  C   LIG    1       23.284 -19.010   4.011  0.00  0.00    +0.027 C 
BRANCH   4   5
ATOM      5  C   LIG    1       22.530 -19.534   5.264  0.00  0.00    +0.004 C 
BRANCH   5   6
ATOM      6  C   LIG    1       22.549 -21.082   5.482  0.00  0.00    +0.000 C 
BRANCH   6   7
ATOM      7  C   LIG    1       23.183 -21.569   6.796  0.00  0.00    +0.000 C 
BRANCH   7   8
ATOM      8  C   LIG    1       23.513 -23.080   6.859  0.00  0.00    -0.000 C 
BRANCH   8   9
ATOM      9  C   LIG    1       25.003 -23.449   6.845  0.00  0.00    -0.000 C 
BRANCH   9  11
ATOM     10  C   LIG    1       24.148 -25.684   6.026  0.00  0.00    +0.004 C 
ATOM     11  C   LIG    1       25.234 -24.960   6.804  0.00  0.00    -0.003 C 
ENDBRANCH   9  11
ENDBRANCH   8   9
ENDBRANCH   7   8
ENDBRANCH   6   7
ENDBRANCH   5   6
ENDBRANCH   4   5
ENDBRANCH   2   4
ENDBRANCH   1   3
BRANCH   1  12
ATOM     12  C   LIG    1       27.748 -19.680   6.276  0.00  0.00    +0.004 C 
BRANCH  12  13
ATOM     13  C   LIG    1       28.852 -18.880   5.490  0.00  0.00    +0.000 C 
BRANCH  13  14
ATOM     14  C   LIG    1       30.256 -18.849   6.180  0.00  0.00    +0.000 C 
BRANCH  14  15
ATOM     15  C   LIG    1       30.133 -18.457   7.660  0.00  0.00    +0.000 C 
BRANCH  15  16
ATOM     16  C   LIG    1       30.321 -19.525   8.745  0.00  0.00    +0.011 C 
BRANCH  16  17
ATOM     17  C   LIG    1       30.609 -20.925   8.231  0.00  0.00    +0.120 C 
BRANCH  17  18
ATOM     18  C   LIG    1       31.201 -21.891   9.214  0.00  0.00    +0.305 C 
ATOM     19  O   LIG    1       30.903 -22.077  10.380  0.00  0.00    -0.251 OA
BRANCH  18  20
ATOM     20  O   LIG    1       32.161 -22.620   8.606  0.00  0.00    -0.481 OA
ATOM     21  H   LIG    1       32.887 -21.989   8.432  0.00  0.00    +0.295 HD
ENDBRANCH  18  20
ENDBRANCH  17  18
ENDBRANCH  16  17
ENDBRANCH  15  16
ENDBRANCH  14  15
ENDBRANCH  13  14
ENDBRANCH  12  13
ENDBRANCH   1  12
TORSDOF 16
ENDMDL
MODEL 8
REMARK VINA RESULT:      -6.8      1.901      4.955
REMARK  Name = *****
REMARK                            x       y       z     vdW  Elec       q    Type
REMARK                         _______ _______ _______ _____ _____    ______ ____
ROOT
ATOM      1  C   LIG    1       22.498 -19.376   4.966  0.00  0.00    +0.027 C 
ENDROOT
BRANCH   1   3
ATOM      2  C   LIG    1       23.235 -20.980   7.255  0.00  0.00    -0.031 C 
ATOM      3  C   LIG    1       22.905 -20.276   6.146  0.00  0.00    -0.031 C 
BRANCH   2   4
ATOM      4  C   LIG    1       23.780 -22.406   7.443  0.00  0.00    +0.027 C 
BRANCH   4   5
ATOM      5  C   LIG    1       23.676 -23.425   6.274  0.00  0.00    +0.004 C 
BRANCH   5   6
ATOM      6  C   LIG    1       25.030 -23.988   5.731  0.00  0.00    +0.000 C 
BRANCH   6   7
ATOM      7  C   LIG    1       25.838 -24.857   6.710  0.00  0.00    +0.000 C 
BRANCH   7   8
ATOM      8  C   LIG    1       26.365 -26.195   6.139  0.00  0.00    -0.000 C 
BRANCH   8   9
ATOM      9  C   LIG    1       25.637 -26.735   4.900  0.00  0.00    -0.000 C 
BRANCH   9  11
ATOM     10  C   LIG    1       24.673 -28.286   6.650  0.00  0.00    +0.004 C 
ATOM     11  C   LIG    1       24.926 -28.062   5.169  0.00  0.00    -0.003 C 
ENDBRANCH   9  11
ENDBRANCH   8   9
ENDBRANCH   7   8
ENDBRANCH   6   7
ENDBRANCH   5   6
ENDBRANCH   4   5
ENDBRANCH   2   4
ENDBRANCH   1   3
BRANCH   1  12
ATOM     12  C   LIG    1       23.489 -19.045   3.811  0.00  0.00    +0.004 C 
BRANCH  12  13
ATOM     13  C   LIG    1       24.687 -20.053   3.658  0.00  0.00    +0.000 C 
BRANCH  13  14
ATOM     14  C   LIG    1       26.004 -19.622   4.384  0.00  0.00    +0.000 C 
BRANCH  14  15
ATOM     15  C   LIG    1       26.446 -20.685   5.400  0.00  0.00    +0.000 C 
BRANCH  15  16
ATOM     16  C   LIG    1       26.713 -20.279   6.855  0.00  0.00    +0.011 C 
BRANCH  16  17
ATOM     17  C   LIG    1       27.892 -20.973   7.515  0.00  0.00    +0.120 C 
BRANCH  17  18
ATOM     18  C   LIG    1       29.118 -20.139   7.742  0.00  0.00    +0.305 C 
ATOM     19  O   LIG    1       29.348 -19.341   8.632  0.00  0.00    -0.251 OA
BRANCH  18  20
ATOM     20  O   LIG    1       30.033 -20.419   6.789  0.00  0.00    -0.481 OA
ATOM     21  H   LIG    1       30.173 -19.575   6.316  0.00  0.00    +0.295 HD
ENDBRANCH  18  20
ENDBRANCH  17  18
ENDBRANCH  16  17
ENDBRANCH  15  16
ENDBRANCH  14  15
ENDBRANCH  13  14
ENDBRANCH  12  13
ENDBRANCH   1  12
TORSDOF 16
ENDMDL
MODEL 9
REMARK VINA RESULT:      -6.8      2.597      5.638
REMARK  Name = *****
REMARK                            x       y       z     vdW  Elec       q    Type
REMARK                         _______ _______ _______ _____ _____    ______ ____
ROOT
ATOM      1  C   LIG    1       23.010 -20.340   6.271  0.00  0.00    +0.027 C 
ENDROOT
BRANCH   1   3
ATOM      2  C   LIG    1       22.824 -23.144   6.949  0.00  0.00    -0.031 C 
ATOM      3  C   LIG    1       22.952 -21.845   6.588  0.00  0.00    -0.031 C 
BRANCH   2   4
ATOM      4  C   LIG    1       23.491 -24.427   6.425  0.00  0.00    +0.027 C 
BRANCH   4   5
ATOM      5  C   LIG    1       24.916 -24.352   5.809  0.00  0.00    +0.004 C 
BRANCH   5   6
ATOM      6  C   LIG    1       26.060 -25.023   6.637  0.00  0.00    +0.000 C 
BRANCH   6   7
ATOM      7  C   LIG    1       26.054 -26.560   6.670  0.00  0.00    +0.000 C 
BRANCH   7   8
ATOM      8  C   LIG    1       25.662 -27.256   5.344  0.00  0.00    -0.000 C 
BRANCH   8   9
ATOM      9  C   LIG    1       24.464 -28.212   5.410  0.00  0.00    -0.000 C 
BRANCH   9  11
ATOM     10  C   LIG    1       25.097 -30.152   6.905  0.00  0.00    +0.004 C 
ATOM     11  C   LIG    1       24.305 -28.861   6.786  0.00  0.00    -0.003 C 
ENDBRANCH   9  11
ENDBRANCH   8   9
ENDBRANCH   7   8
ENDBRANCH   6   7
ENDBRANCH   5   6
ENDBRANCH   4   5
ENDBRANCH   2   4
ENDBRANCH   1   3
BRANCH   1  12
ATOM     12  C   LIG    1       22.674 -19.789   4.854  0.00  0.00    +0.004 C 
BRANCH  12  13
ATOM     13  C   LIG    1       23.921 -19.552   3.924  0.00  0.00    +0.000 C 
BRANCH  13  14
ATOM     14  C   LIG    1       25.139 -20.494   4.207  0.00  0.00    +0.000 C 
BRANCH  14  15
ATOM     15  C   LIG    1       26.318 -19.706   4.796  0.00  0.00    +0.000 C 
BRANCH  15  16
ATOM     16  C   LIG    1       27.178 -20.337   5.898  0.00  0.00    +0.011 C 
BRANCH  16  17
ATOM     17  C   LIG    1       26.402 -21.035   7.003  0.00  0.00    +0.120 C 
BRANCH  17  18
ATOM     18  C   LIG    1       26.626 -20.532   8.398  0.00  0.00    +0.305 C 
ATOM     19  O   LIG    1       25.871 -20.557   9.353  0.00  0.00    -0.251 OA
BRANCH  18  20
ATOM     20  O   LIG    1       27.878 -20.035   8.500  0.00  0.00    -0.481 OA
ATOM     21  H   LIG    1       27.767 -19.145   8.887  0.00  0.00    +0.295 HD
ENDBRANCH  18  20
ENDBRANCH  17  18
ENDBRANCH  16  17
ENDBRANCH  15  16
ENDBRANCH  14  15
ENDBRANCH  13  14
ENDBRANCH  12  13
ENDBRANCH   1  12
TORSDOF 16
ENDMDL
