MODEL 1
REMARK VINA RESULT:      -5.1      0.000      0.000
REMARK  Name = *****
REMARK                            x       y       z     vdW  Elec       q    Type
REMARK                         _______ _______ _______ _____ _____    ______ ____
ROOT
ATOM      1  C   LIG    1       24.047 -20.998   4.850  0.00  0.00    +0.406 C 
ATOM      2  F   LIG    1       23.766 -21.278   3.545  0.00  0.00    -0.205 F 
ENDROOT
BRANCH   1   3
ATOM      3  C   LIG    1       22.781 -20.624   5.639  0.00  0.00    +0.446 C 
ATOM      4  F   LIG    1       21.682 -21.193   5.078  0.00  0.00    -0.165 F 
ATOM      5  F   LIG    1       22.564 -19.291   5.679  0.00  0.00    -0.165 F 
ATOM      6  F   LIG    1       22.837 -21.078   6.915  0.00  0.00    -0.165 F 
ENDBRANCH   1   3
BRANCH   1   7
ATOM      7  O   LIG    1       25.162 -20.112   4.888  0.00  0.00    -0.280 OA
BRANCH   7   9
ATOM      8  F   LIG    1       27.295 -19.829   5.554  0.00  0.00    -0.178 F 
ATOM      9  C   LIG    1       26.150 -20.502   5.819  0.00  0.00    +0.485 C 
ATOM     10  F   LIG    1       25.754 -20.177   7.058  0.00  0.00    -0.178 F 
ENDBRANCH   7   9
ENDBRANCH   1   7
TORSDOF 3
ENDMDL
MODEL 2
REMARK VINA RESULT:      -5.1      1.585      2.306
REMARK  Name = *****
REMARK                            x       y       z     vdW  Elec       q    Type
REMARK                         _______ _______ _______ _____ _____    ______ ____
ROOT
ATOM      1  C   LIG    1       24.038 -21.042   4.801  0.00  0.00    +0.406 C 
ATOM      2  F   LIG    1       23.816 -21.413   3.508  0.00  0.00    -0.205 F 
ENDROOT
BRANCH   1   3
ATOM      3  C   LIG    1       22.722 -20.843   5.572  0.00  0.00    +0.446 C 
ATOM      4  F   LIG    1       22.726 -21.572   6.718  0.00  0.00    -0.165 F 
ATOM      5  F   LIG    1       21.638 -21.221   4.861  0.00  0.00    -0.165 F 
ATOM      6  F   LIG    1       22.552 -19.550   5.941  0.00  0.00    -0.165 F 
ENDBRANCH   1   3
BRANCH   1   7
ATOM      7  O   LIG    1       24.999 -19.990   4.807  0.00  0.00    -0.280 OA
BRANCH   7   9
ATOM      8  F   LIG    1       23.834 -18.531   3.547  0.00  0.00    -0.178 F 
ATOM      9  C   LIG    1       24.994 -19.225   3.619  0.00  0.00    +0.485 C 
ATOM     10  F   LIG    1       26.005 -18.345   3.649  0.00  0.00    -0.178 F 
ENDBRANCH   7   9
ENDBRANCH   1   7
TORSDOF 3
ENDMDL
MODEL 3
REMARK VINA RESULT:      -5.1      0.090      1.183
REMARK  Name = *****
REMARK                            x       y       z     vdW  Elec       q    Type
REMARK                         _______ _______ _______ _____ _____    ______ ____
ROOT
ATOM      1  C   LIG    1       24.031 -20.972   4.775  0.00  0.00    +0.406 C 
ATOM      2  F   LIG    1       23.790 -21.188   3.451  0.00  0.00    -0.205 F 
ENDROOT
BRANCH   1   3
ATOM      3  C   LIG    1       22.737 -20.661   5.548  0.00  0.00    +0.446 C 
ATOM      4  F   LIG    1       22.803 -21.158   6.810  0.00  0.00    -0.165 F 
ATOM      5  F   LIG    1       21.640 -21.193   4.966  0.00  0.00    -0.165 F 
ATOM      6  F   LIG    1       22.540 -19.326   5.672  0.00  0.00    -0.165 F 
ENDBRANCH   1   3
BRANCH   1   7
ATOM      7  O   LIG    1       25.127 -20.070   4.891  0.00  0.00    -0.280 OA
BRANCH   7   9
ATOM      8  F   LIG    1       27.258 -19.829   5.581  0.00  0.00    -0.178 F 
ATOM      9  C   LIG    1       26.104 -20.498   5.817  0.00  0.00    +0.485 C 
ATOM     10  F   LIG    1       25.702 -20.205   7.062  0.00  0.00    -0.178 F 
ENDBRANCH   7   9
ENDBRANCH   1   7
TORSDOF 3
ENDMDL
MODEL 4
REMARK VINA RESULT:      -5.0      1.627      2.499
REMARK  Name = *****
REMARK                            x       y       z     vdW  Elec       q    Type
REMARK                         _______ _______ _______ _____ _____    ______ ____
ROOT
ATOM      1  C   LIG    1       22.351 -20.372   5.082  0.00  0.00    +0.406 C 
ATOM      2  F   LIG    1       21.311 -21.168   4.704  0.00  0.00    -0.205 F 
ENDROOT
BRANCH   1   3
ATOM      3  C   LIG    1       22.249 -18.967   4.464  0.00  0.00    +0.446 C 
ATOM      4  F   LIG    1       22.268 -18.015   5.433  0.00  0.00    -0.165 F 
ATOM      5  F   LIG    1       21.115 -18.790   3.752  0.00  0.00    -0.165 F 
ATOM      6  F   LIG    1       23.301 -18.704   3.650  0.00  0.00    -0.165 F 
ENDBRANCH   1   3
BRANCH   1   7
ATOM      7  O   LIG    1       23.561 -21.105   4.915  0.00  0.00    -0.280 OA
BRANCH   7   9
ATOM      8  F   LIG    1       25.443 -20.129   5.676  0.00  0.00    -0.178 F 
ATOM      9  C   LIG    1       24.443 -20.978   6.011  0.00  0.00    +0.485 C 
ATOM     10  F   LIG    1       23.788 -20.456   7.058  0.00  0.00    -0.178 F 
ENDBRANCH   7   9
ENDBRANCH   1   7
TORSDOF 3
ENDMDL
MODEL 5
REMARK VINA RESULT:      -5.0      6.241      7.757
REMARK  Name = *****
REMARK                            x       y       z     vdW  Elec       q    Type
REMARK                         _______ _______ _______ _____ _____    ______ ____
ROOT
ATOM      1  C   LIG    1       26.221 -13.944   3.331  0.00  0.00    +0.406 C 
ATOM      2  F   LIG    1       26.423 -14.023   1.986  0.00  0.00    -0.205 F 
ENDROOT
BRANCH   1   3
ATOM      3  C   LIG    1       27.546 -13.984   4.111  0.00  0.00    +0.446 C 
ATOM      4  F   LIG    1       27.949 -15.267   4.302  0.00  0.00    -0.165 F 
ATOM      5  F   LIG    1       27.453 -13.408   5.330  0.00  0.00    -0.165 F 
ATOM      6  F   LIG    1       28.543 -13.367   3.431  0.00  0.00    -0.165 F 
ENDBRANCH   1   3
BRANCH   1   7
ATOM      7  O   LIG    1       25.192 -14.863   3.686  0.00  0.00    -0.280 OA
BRANCH   7   9
ATOM      8  F   LIG    1       23.499 -13.553   2.987  0.00  0.00    -0.178 F 
ATOM      9  C   LIG    1       23.984 -14.231   4.054  0.00  0.00    +0.485 C 
ATOM     10  F   LIG    1       23.080 -15.158   4.403  0.00  0.00    -0.178 F 
ENDBRANCH   7   9
ENDBRANCH   1   7
TORSDOF 3
ENDMDL
MODEL 6
REMARK VINA RESULT:      -5.0      6.232      7.739
REMARK  Name = *****
REMARK                            x       y       z     vdW  Elec       q    Type
REMARK                         _______ _______ _______ _____ _____    ______ ____
ROOT
ATOM      1  C   LIG    1       26.224 -13.957   3.327  0.00  0.00    +0.406 C 
ATOM      2  F   LIG    1       26.411 -14.023   1.978  0.00  0.00    -0.205 F 
ENDROOT
BRANCH   1   3
ATOM      3  C   LIG    1       27.556 -14.026   4.093  0.00  0.00    +0.446 C 
ATOM      4  F   LIG    1       27.427 -13.473   5.327  0.00  0.00    -0.165 F 
ATOM      5  F   LIG    1       28.555 -13.371   3.463  0.00  0.00    -0.165 F 
ATOM      6  F   LIG    1       27.952 -15.308   4.287  0.00  0.00    -0.165 F 
ENDBRANCH   1   3
BRANCH   1   7
ATOM      7  O   LIG    1       25.185 -14.866   3.681  0.00  0.00    -0.280 OA
BRANCH   7   9
ATOM      8  F   LIG    1       23.517 -13.513   3.003  0.00  0.00    -0.178 F 
ATOM      9  C   LIG    1       23.986 -14.221   4.058  0.00  0.00    +0.485 C 
ATOM     10  F   LIG    1       23.065 -15.139   4.384  0.00  0.00    -0.178 F 
ENDBRANCH   7   9
ENDBRANCH   1   7
TORSDOF 3
ENDMDL
MODEL 7
REMARK VINA RESULT:      -4.9      6.468      7.856
REMARK  Name = *****
REMARK                            x       y       z     vdW  Elec       q    Type
REMARK                         _______ _______ _______ _____ _____    ______ ____
ROOT
ATOM      1  C   LIG    1       26.227 -13.979   4.589  0.00  0.00    +0.406 C 
ATOM      2  F   LIG    1       26.824 -13.588   5.751  0.00  0.00    -0.205 F 
ENDROOT
BRANCH   1   3
ATOM      3  C   LIG    1       27.257 -14.455   3.551  0.00  0.00    +0.446 C 
ATOM      4  F   LIG    1       27.425 -15.801   3.626  0.00  0.00    -0.165 F 
ATOM      5  F   LIG    1       28.472 -13.891   3.723  0.00  0.00    -0.165 F 
ATOM      6  F   LIG    1       26.848 -14.191   2.286  0.00  0.00    -0.165 F 
ENDBRANCH   1   3
BRANCH   1   7
ATOM      7  O   LIG    1       25.287 -12.979   4.208  0.00  0.00    -0.280 OA
BRANCH   7   9
ATOM      8  F   LIG    1       23.746 -13.439   2.630  0.00  0.00    -0.178 F 
ATOM      9  C   LIG    1       23.996 -13.496   3.960  0.00  0.00    +0.485 C 
ATOM     10  F   LIG    1       23.947 -14.782   4.336  0.00  0.00    -0.178 F 
ENDBRANCH   7   9
ENDBRANCH   1   7
TORSDOF 3
ENDMDL
MODEL 8
REMARK VINA RESULT:      -4.9      6.702      7.359
REMARK  Name = *****
REMARK                            x       y       z     vdW  Elec       q    Type
REMARK                         _______ _______ _______ _____ _____    ______ ____
ROOT
ATOM      1  C   LIG    1       25.727 -13.600   2.404  0.00  0.00    +0.406 C 
ATOM      2  F   LIG    1       26.038 -12.275   2.328  0.00  0.00    -0.205 F 
ENDROOT
BRANCH   1   3
ATOM      3  C   LIG    1       24.635 -13.871   3.453  0.00  0.00    +0.446 C 
ATOM      4  F   LIG    1       23.403 -13.636   2.931  0.00  0.00    -0.165 F 
ATOM      5  F   LIG    1       24.760 -13.093   4.550  0.00  0.00    -0.165 F 
ATOM      6  F   LIG    1       24.640 -15.166   3.854  0.00  0.00    -0.165 F 
ENDBRANCH   1   3
BRANCH   1   7
ATOM      7  O   LIG    1       26.941 -14.343   2.476  0.00  0.00    -0.280 OA
BRANCH   7   9
ATOM      8  F   LIG    1       27.936 -15.310   4.250  0.00  0.00    -0.178 F 
ATOM      9  C   LIG    1       27.661 -14.118   3.670  0.00  0.00    +0.485 C 
ATOM     10  F   LIG    1       28.825 -13.517   3.385  0.00  0.00    -0.178 F 
ENDBRANCH   7   9
ENDBRANCH   1   7
TORSDOF 3
ENDMDL
MODEL 9
REMARK VINA RESULT:      -4.9      6.760      8.153
REMARK  Name = *****
REMARK                            x       y       z     vdW  Elec       q    Type
REMARK                         _______ _______ _______ _____ _____    ______ ____
ROOT
ATOM      1  C   LIG    1       26.814 -13.317   2.926  0.00  0.00    +0.406 C 
ATOM      2  F   LIG    1       26.723 -14.244   1.930  0.00  0.00    -0.205 F 
ENDROOT
BRANCH   1   3
ATOM      3  C   LIG    1       27.813 -13.745   4.015  0.00  0.00    +0.446 C 
ATOM      4  F   LIG    1       29.065 -13.313   3.712  0.00  0.00    -0.165 F 
ATOM      5  F   LIG    1       27.878 -15.086   4.166  0.00  0.00    -0.165 F 
ATOM      6  F   LIG    1       27.501 -13.202   5.217  0.00  0.00    -0.165 F 
ENDBRANCH   1   3
BRANCH   1   7
ATOM      7  O   LIG    1       25.495 -12.947   3.317  0.00  0.00    -0.280 OA
BRANCH   7   9
ATOM      8  F   LIG    1       24.514 -14.308   4.818  0.00  0.00    -0.178 F 
ATOM      9  C   LIG    1       24.636 -14.054   3.494  0.00  0.00    +0.485 C 
ATOM     10  F   LIG    1       23.420 -13.760   3.013  0.00  0.00    -0.178 F 
ENDBRANCH   7   9
ENDBRANCH   1   7
TORSDOF 3
ENDMDL
