MODEL 1
REMARK VINA RESULT:      -9.4      0.000      0.000
REMARK  Name = *****
REMARK                            x       y       z     vdW  Elec       q    Type
REMARK                         _______ _______ _______ _____ _____    ______ ____
ROOT
ATOM      1  O   LIG    1       23.614 -20.458   7.672  0.00  0.00    -0.287 OA
ATOM      2  C   LIG    1       24.624 -21.108   7.435  0.00  0.00    +0.193 C 
ATOM      3  C   LIG    1       24.577 -22.530   7.061  0.00  0.00    +0.064 A 
ATOM      4  C   LIG    1       25.776 -23.192   6.808  0.00  0.00    +0.139 A 
ATOM      5  C   LIG    1       25.762 -24.540   6.453  0.00  0.00    +0.047 A 
ATOM      6  C   LIG    1       24.547 -25.221   6.351  0.00  0.00    +0.004 A 
ATOM      7  C   LIG    1       23.346 -24.555   6.604  0.00  0.00    +0.001 A 
ATOM      8  O   LIG    1       27.000 -22.578   6.891  0.00  0.00    -0.455 OA
ATOM      9  C   LIG    1       27.042 -21.240   7.254  0.00  0.00    +0.139 C 
ATOM     10  C   LIG    1       23.358 -23.205   6.961  0.00  0.00    +0.015 A 
ATOM     11  C   LIG    1       25.959 -20.494   7.513  0.00  0.00    +0.098 C 
ENDROOT
BRANCH   9  12
ATOM     12  C   LIG    1       28.404 -20.672   7.308  0.00  0.00    +0.017 A 
ATOM     13  C   LIG    1       29.391 -21.210   8.149  0.00  0.00    +0.011 A 
ATOM     14  C   LIG    1       30.678 -20.665   8.179  0.00  0.00    +0.001 A 
ATOM     15  C   LIG    1       30.995 -19.579   7.366  0.00  0.00    +0.000 A 
ATOM     16  C   LIG    1       30.029 -19.040   6.519  0.00  0.00    +0.001 A 
ATOM     17  C   LIG    1       28.743 -19.585   6.488  0.00  0.00    +0.011 A 
ENDBRANCH   9  12
TORSDOF 1
ENDMDL
MODEL 2
REMARK VINA RESULT:      -8.9      2.112      2.943
REMARK  Name = *****
REMARK                            x       y       z     vdW  Elec       q    Type
REMARK                         _______ _______ _______ _____ _____    ______ ____
ROOT
ATOM      1  O   LIG    1       24.171 -21.541   8.295  0.00  0.00    -0.287 OA
ATOM      2  C   LIG    1       24.967 -21.086   7.484  0.00  0.00    +0.193 C 
ATOM      3  C   LIG    1       24.566 -20.672   6.132  0.00  0.00    +0.064 A 
ATOM      4  C   LIG    1       25.538 -20.165   5.274  0.00  0.00    +0.139 A 
ATOM      5  C   LIG    1       25.186 -19.764   3.985  0.00  0.00    +0.047 A 
ATOM      6  C   LIG    1       23.860 -19.873   3.560  0.00  0.00    +0.004 A 
ATOM      7  C   LIG    1       22.886 -20.382   4.423  0.00  0.00    +0.001 A 
ATOM      8  O   LIG    1       26.855 -20.033   5.634  0.00  0.00    -0.455 OA
ATOM      9  C   LIG    1       27.234 -20.434   6.906  0.00  0.00    +0.139 C 
ATOM     10  C   LIG    1       23.237 -20.783   5.713  0.00  0.00    +0.015 A 
ATOM     11  C   LIG    1       26.390 -20.928   7.824  0.00  0.00    +0.098 C 
ENDROOT
BRANCH   9  12
ATOM     12  C   LIG    1       28.669 -20.246   7.196  0.00  0.00    +0.017 A 
ATOM     13  C   LIG    1       29.391 -19.167   6.664  0.00  0.00    +0.011 A 
ATOM     14  C   LIG    1       30.747 -19.000   6.959  0.00  0.00    +0.001 A 
ATOM     15  C   LIG    1       31.397 -19.907   7.793  0.00  0.00    +0.000 A 
ATOM     16  C   LIG    1       30.692 -20.978   8.337  0.00  0.00    +0.001 A 
ATOM     17  C   LIG    1       29.336 -21.145   8.044  0.00  0.00    +0.011 A 
ENDBRANCH   9  12
TORSDOF 1
ENDMDL
MODEL 3
REMARK VINA RESULT:      -8.6      4.074      5.580
REMARK  Name = *****
REMARK                            x       y       z     vdW  Elec       q    Type
REMARK                         _______ _______ _______ _____ _____    ______ ____
ROOT
ATOM      1  O   LIG    1       22.892 -21.213   8.068  0.00  0.00    -0.287 OA
ATOM      2  C   LIG    1       23.398 -21.654   7.044  0.00  0.00    +0.193 C 
ATOM      3  C   LIG    1       23.462 -20.877   5.798  0.00  0.00    +0.064 A 
ATOM      4  C   LIG    1       24.057 -21.458   4.680  0.00  0.00    +0.139 A 
ATOM      5  C   LIG    1       24.131 -20.744   3.484  0.00  0.00    +0.047 A 
ATOM      6  C   LIG    1       23.609 -19.451   3.412  0.00  0.00    +0.004 A 
ATOM      7  C   LIG    1       23.013 -18.871   4.534  0.00  0.00    +0.001 A 
ATOM      8  O   LIG    1       24.588 -22.722   4.690  0.00  0.00    -0.455 OA
ATOM      9  C   LIG    1       24.517 -23.458   5.864  0.00  0.00    +0.139 C 
ATOM     10  C   LIG    1       22.938 -19.584   5.731  0.00  0.00    +0.015 A 
ATOM     11  C   LIG    1       23.979 -23.006   7.005  0.00  0.00    +0.098 C 
ENDROOT
BRANCH   9  12
ATOM     12  C   LIG    1       25.121 -24.802   5.771  0.00  0.00    +0.017 A 
ATOM     13  C   LIG    1       25.174 -25.502   4.556  0.00  0.00    +0.011 A 
ATOM     14  C   LIG    1       25.759 -26.769   4.487  0.00  0.00    +0.001 A 
ATOM     15  C   LIG    1       26.303 -27.350   5.630  0.00  0.00    +0.000 A 
ATOM     16  C   LIG    1       26.267 -26.664   6.842  0.00  0.00    +0.001 A 
ATOM     17  C   LIG    1       25.683 -25.397   6.911  0.00  0.00    +0.011 A 
ENDBRANCH   9  12
TORSDOF 1
ENDMDL
MODEL 4
REMARK VINA RESULT:      -8.6      1.411      5.958
REMARK  Name = *****
REMARK                            x       y       z     vdW  Elec       q    Type
REMARK                         _______ _______ _______ _____ _____    ______ ____
ROOT
ATOM      1  O   LIG    1       28.407 -18.630   5.004  0.00  0.00    -0.287 OA
ATOM      2  C   LIG    1       28.231 -19.553   5.788  0.00  0.00    +0.193 C 
ATOM      3  C   LIG    1       29.249 -19.961   6.767  0.00  0.00    +0.064 A 
ATOM      4  C   LIG    1       28.964 -21.023   7.622  0.00  0.00    +0.139 A 
ATOM      5  C   LIG    1       29.911 -21.431   8.561  0.00  0.00    +0.047 A 
ATOM      6  C   LIG    1       31.141 -20.774   8.640  0.00  0.00    +0.004 A 
ATOM      7  C   LIG    1       31.425 -19.709   7.782  0.00  0.00    +0.001 A 
ATOM      8  O   LIG    1       27.775 -21.705   7.593  0.00  0.00    -0.455 OA
ATOM      9  C   LIG    1       26.820 -21.326   6.661  0.00  0.00    +0.139 C 
ATOM     10  C   LIG    1       30.478 -19.299   6.842  0.00  0.00    +0.015 A 
ATOM     11  C   LIG    1       26.973 -20.316   5.793  0.00  0.00    +0.098 C 
ENDROOT
BRANCH   9  12
ATOM     12  C   LIG    1       25.576 -22.119   6.715  0.00  0.00    +0.017 A 
ATOM     13  C   LIG    1       25.582 -23.510   6.527  0.00  0.00    +0.011 A 
ATOM     14  C   LIG    1       24.395 -24.245   6.592  0.00  0.00    +0.001 A 
ATOM     15  C   LIG    1       23.188 -23.599   6.851  0.00  0.00    +0.000 A 
ATOM     16  C   LIG    1       23.167 -22.220   7.050  0.00  0.00    +0.001 A 
ATOM     17  C   LIG    1       24.353 -21.486   6.986  0.00  0.00    +0.011 A 
ENDBRANCH   9  12
TORSDOF 1
ENDMDL
MODEL 5
REMARK VINA RESULT:      -8.6      3.314      4.728
REMARK  Name = *****
REMARK                            x       y       z     vdW  Elec       q    Type
REMARK                         _______ _______ _______ _____ _____    ______ ____
ROOT
ATOM      1  O   LIG    1       26.053 -22.842   8.768  0.00  0.00    -0.287 OA
ATOM      2  C   LIG    1       25.609 -22.845   7.628  0.00  0.00    +0.193 C 
ATOM      3  C   LIG    1       25.558 -24.062   6.804  0.00  0.00    +0.064 A 
ATOM      4  C   LIG    1       25.035 -23.974   5.516  0.00  0.00    +0.139 A 
ATOM      5  C   LIG    1       24.974 -25.112   4.713  0.00  0.00    +0.047 A 
ATOM      6  C   LIG    1       25.437 -26.336   5.203  0.00  0.00    +0.004 A 
ATOM      7  C   LIG    1       25.961 -26.422   6.495  0.00  0.00    +0.001 A 
ATOM      8  O   LIG    1       24.564 -22.803   4.981  0.00  0.00    -0.455 OA
ATOM      9  C   LIG    1       24.623 -21.653   5.755  0.00  0.00    +0.139 C 
ATOM     10  C   LIG    1       26.022 -25.283   7.300  0.00  0.00    +0.015 A 
ATOM     11  C   LIG    1       25.095 -21.613   7.009  0.00  0.00    +0.098 C 
ENDROOT
BRANCH   9  12
ATOM     12  C   LIG    1       24.087 -20.449   5.090  0.00  0.00    +0.017 A 
ATOM     13  C   LIG    1       24.827 -19.755   4.121  0.00  0.00    +0.011 A 
ATOM     14  C   LIG    1       24.299 -18.622   3.494  0.00  0.00    +0.001 A 
ATOM     15  C   LIG    1       23.022 -18.174   3.826  0.00  0.00    +0.000 A 
ATOM     16  C   LIG    1       22.271 -18.858   4.779  0.00  0.00    +0.001 A 
ATOM     17  C   LIG    1       22.799 -19.990   5.404  0.00  0.00    +0.011 A 
ENDBRANCH   9  12
TORSDOF 1
ENDMDL
MODEL 6
REMARK VINA RESULT:      -8.5      1.834      2.578
REMARK  Name = *****
REMARK                            x       y       z     vdW  Elec       q    Type
REMARK                         _______ _______ _______ _____ _____    ______ ____
ROOT
ATOM      1  O   LIG    1       25.270 -19.487   3.589  0.00  0.00    -0.287 OA
ATOM      2  C   LIG    1       25.621 -19.979   4.653  0.00  0.00    +0.193 C 
ATOM      3  C   LIG    1       24.714 -20.774   5.493  0.00  0.00    +0.064 A 
ATOM      4  C   LIG    1       25.199 -21.298   6.689  0.00  0.00    +0.139 A 
ATOM      5  C   LIG    1       24.360 -22.055   7.506  0.00  0.00    +0.047 A 
ATOM      6  C   LIG    1       23.038 -22.287   7.122  0.00  0.00    +0.004 A 
ATOM      7  C   LIG    1       22.553 -21.762   5.921  0.00  0.00    +0.001 A 
ATOM      8  O   LIG    1       26.487 -21.105   7.119  0.00  0.00    -0.455 OA
ATOM      9  C   LIG    1       27.339 -20.346   6.331  0.00  0.00    +0.139 C 
ATOM     10  C   LIG    1       23.392 -21.003   5.103  0.00  0.00    +0.015 A 
ATOM     11  C   LIG    1       26.992 -19.799   5.157  0.00  0.00    +0.098 C 
ENDROOT
BRANCH   9  12
ATOM     12  C   LIG    1       28.702 -20.204   6.879  0.00  0.00    +0.017 A 
ATOM     13  C   LIG    1       29.523 -19.119   6.533  0.00  0.00    +0.011 A 
ATOM     14  C   LIG    1       30.808 -18.996   7.070  0.00  0.00    +0.001 A 
ATOM     15  C   LIG    1       31.285 -19.953   7.964  0.00  0.00    +0.000 A 
ATOM     16  C   LIG    1       30.479 -21.030   8.324  0.00  0.00    +0.001 A 
ATOM     17  C   LIG    1       29.194 -21.152   7.788  0.00  0.00    +0.011 A 
ENDBRANCH   9  12
TORSDOF 1
ENDMDL
MODEL 7
REMARK VINA RESULT:      -8.3      0.787      1.362
REMARK  Name = *****
REMARK                            x       y       z     vdW  Elec       q    Type
REMARK                         _______ _______ _______ _____ _____    ______ ____
ROOT
ATOM      1  O   LIG    1       23.406 -20.548   6.382  0.00  0.00    -0.287 OA
ATOM      2  C   LIG    1       24.493 -21.094   6.516  0.00  0.00    +0.193 C 
ATOM      3  C   LIG    1       24.638 -22.554   6.606  0.00  0.00    +0.064 A 
ATOM      4  C   LIG    1       25.915 -23.089   6.757  0.00  0.00    +0.139 A 
ATOM      5  C   LIG    1       26.082 -24.471   6.845  0.00  0.00    +0.047 A 
ATOM      6  C   LIG    1       24.969 -25.312   6.780  0.00  0.00    +0.004 A 
ATOM      7  C   LIG    1       23.690 -24.773   6.628  0.00  0.00    +0.001 A 
ATOM      8  O   LIG    1       27.045 -22.315   6.826  0.00  0.00    -0.455 OA
ATOM      9  C   LIG    1       26.906 -20.937   6.752  0.00  0.00    +0.139 C 
ATOM     10  C   LIG    1       23.521 -23.391   6.540  0.00  0.00    +0.015 A 
ATOM     11  C   LIG    1       25.733 -20.305   6.597  0.00  0.00    +0.098 C 
ENDROOT
BRANCH   9  12
ATOM     12  C   LIG    1       28.180 -20.196   6.830  0.00  0.00    +0.017 A 
ATOM     13  C   LIG    1       28.648 -19.424   5.755  0.00  0.00    +0.011 A 
ATOM     14  C   LIG    1       29.852 -18.721   5.851  0.00  0.00    +0.001 A 
ATOM     15  C   LIG    1       30.601 -18.777   7.025  0.00  0.00    +0.000 A 
ATOM     16  C   LIG    1       30.145 -19.531   8.104  0.00  0.00    +0.001 A 
ATOM     17  C   LIG    1       28.941 -20.233   8.008  0.00  0.00    +0.011 A 
ENDBRANCH   9  12
TORSDOF 1
ENDMDL
MODEL 8
REMARK VINA RESULT:      -8.2      1.370      2.398
REMARK  Name = *****
REMARK                            x       y       z     vdW  Elec       q    Type
REMARK                         _______ _______ _______ _____ _____    ______ ____
ROOT
ATOM      1  O   LIG    1       25.635 -24.332   7.448  0.00  0.00    -0.287 OA
ATOM      2  C   LIG    1       25.767 -23.164   7.107  0.00  0.00    +0.193 C 
ATOM      3  C   LIG    1       24.650 -22.366   6.579  0.00  0.00    +0.064 A 
ATOM      4  C   LIG    1       24.890 -21.043   6.215  0.00  0.00    +0.139 A 
ATOM      5  C   LIG    1       23.850 -20.263   5.712  0.00  0.00    +0.047 A 
ATOM      6  C   LIG    1       22.572 -20.810   5.575  0.00  0.00    +0.004 A 
ATOM      7  C   LIG    1       22.334 -22.137   5.941  0.00  0.00    +0.001 A 
ATOM      8  O   LIG    1       26.121 -20.450   6.328  0.00  0.00    -0.455 OA
ATOM      9  C   LIG    1       27.176 -21.208   6.815  0.00  0.00    +0.139 C 
ATOM     10  C   LIG    1       23.374 -22.919   6.445  0.00  0.00    +0.015 A 
ATOM     11  C   LIG    1       27.069 -22.485   7.207  0.00  0.00    +0.098 C 
ENDROOT
BRANCH   9  12
ATOM     12  C   LIG    1       28.455 -20.476   6.902  0.00  0.00    +0.017 A 
ATOM     13  C   LIG    1       29.459 -20.856   7.807  0.00  0.00    +0.011 A 
ATOM     14  C   LIG    1       30.668 -20.158   7.867  0.00  0.00    +0.001 A 
ATOM     15  C   LIG    1       30.891 -19.074   7.020  0.00  0.00    +0.000 A 
ATOM     16  C   LIG    1       29.908 -18.691   6.110  0.00  0.00    +0.001 A 
ATOM     17  C   LIG    1       28.700 -19.390   6.049  0.00  0.00    +0.011 A 
ENDBRANCH   9  12
TORSDOF 1
ENDMDL
MODEL 9
REMARK VINA RESULT:      -8.2      1.333      6.114
REMARK  Name = *****
REMARK                            x       y       z     vdW  Elec       q    Type
REMARK                         _______ _______ _______ _____ _____    ______ ____
ROOT
ATOM      1  O   LIG    1       29.557 -21.656   8.849  0.00  0.00    -0.287 OA
ATOM      2  C   LIG    1       28.707 -21.363   8.019  0.00  0.00    +0.193 C 
ATOM      3  C   LIG    1       28.897 -20.280   7.043  0.00  0.00    +0.064 A 
ATOM      4  C   LIG    1       27.876 -20.015   6.133  0.00  0.00    +0.139 A 
ATOM      5  C   LIG    1       28.029 -18.994   5.197  0.00  0.00    +0.047 A 
ATOM      6  C   LIG    1       29.205 -18.241   5.174  0.00  0.00    +0.004 A 
ATOM      7  C   LIG    1       30.228 -18.508   6.086  0.00  0.00    +0.001 A 
ATOM      8  O   LIG    1       26.700 -20.721   6.106  0.00  0.00    -0.455 OA
ATOM      9  C   LIG    1       26.518 -21.735   7.035  0.00  0.00    +0.139 C 
ATOM     10  C   LIG    1       30.076 -19.530   7.025  0.00  0.00    +0.015 A 
ATOM     11  C   LIG    1       27.429 -22.089   7.952  0.00  0.00    +0.098 C 
ENDROOT
BRANCH   9  12
ATOM     12  C   LIG    1       25.223 -22.435   6.918  0.00  0.00    +0.017 A 
ATOM     13  C   LIG    1       25.154 -23.810   6.647  0.00  0.00    +0.011 A 
ATOM     14  C   LIG    1       23.919 -24.458   6.551  0.00  0.00    +0.001 A 
ATOM     15  C   LIG    1       22.738 -23.739   6.729  0.00  0.00    +0.000 A 
ATOM     16  C   LIG    1       22.791 -22.375   7.008  0.00  0.00    +0.001 A 
ATOM     17  C   LIG    1       24.026 -21.728   7.105  0.00  0.00    +0.011 A 
ENDBRANCH   9  12
TORSDOF 1
ENDMDL
