MODEL 1
REMARK VINA RESULT:      -6.5      0.000      0.000
REMARK  Name = *****
REMARK                            x       y       z     vdW  Elec       q    Type
REMARK                         _______ _______ _______ _____ _____    ______ ____
ROOT
ATOM      1  C   LIG    1       24.307 -32.834   8.732  0.00  0.00    -0.002 C 
ATOM      2  C   LIG    1       24.439 -31.387   9.370  0.00  0.00    -0.026 C 
ATOM      3  C   LIG    1       24.159 -30.248   8.361  0.00  0.00    +0.012 C 
ATOM      4  C   LIG    1       25.970 -31.282   9.764  0.00  0.00    +0.001 C 
ATOM      5  C   LIG    1       26.416 -30.596  11.092  0.00  0.00    +0.025 C 
ATOM      6  C   LIG    1       25.054 -30.670  12.390  0.00  0.00    +0.001 C 
ATOM      7  C   LIG    1       23.948 -31.615  11.901  0.00  0.00    +0.005 C 
ATOM      8  C   LIG    1       24.516 -28.985  13.000  0.00  0.00    -0.026 C 
ATOM      9  C   LIG    1       23.031 -28.697  12.833  0.00  0.00    +0.012 C 
ATOM     10  C   LIG    1       25.446 -27.365  12.937  0.00  0.00    +0.000 C 
ATOM     11  C   LIG    1       26.100 -27.117  14.263  0.00  0.00    +0.035 C 
ATOM     12  C   LIG    1       27.207 -28.105  14.181  0.00  0.00    +0.115 C 
ATOM     13  C   LIG    1       26.752 -29.193  13.150  0.00  0.00    +0.032 C 
ATOM     14  C   LIG    1       26.817 -27.344  11.595  0.00  0.00    +0.035 C 
ATOM     15  C   LIG    1       25.299 -28.835  11.871  0.00  0.00    +0.009 C 
ATOM     16  C   LIG    1       27.230 -28.933  10.740  0.00  0.00    +0.118 C 
ATOM     17  C   LIG    1       26.519 -32.702   9.620  0.00  0.00    +0.005 C 
ATOM     18  C   LIG    1       23.411 -31.267  10.528  0.00  0.00    +0.007 C 
ATOM     19  C   LIG    1       25.757 -33.231   8.417  0.00  0.00    +0.004 C 
ENDROOT
BRANCH   1  21
ATOM     20  C   LIG    1       22.065 -33.825   7.894  0.00  0.00    +0.008 C 
ATOM     21  C   LIG    1       23.340 -33.050   7.530  0.00  0.00    -0.010 C 
BRANCH  21  22
ATOM     22  C   LIG    1       24.021 -33.769   6.333  0.00  0.00    +0.012 C 
BRANCH  22  23
ATOM     23  C   LIG    1       24.076 -32.944   5.041  0.00  0.00    +0.096 C 
BRANCH  23  24
ATOM     24  C   LIG    1       25.173 -31.904   5.088  0.00  0.00    +0.213 C 
ATOM     25  N   LIG    1       24.705 -30.609   5.035  0.00  0.00    -0.314 N 
ATOM     26  H   LIG    1       23.706 -30.439   5.032  0.00  0.00    +0.149 HD
ATOM     27  O   LIG    1       26.362 -32.184   5.188  0.00  0.00    -0.276 OA
BRANCH  25  28
ATOM     28  C   LIG    1       25.606 -29.468   5.094  0.00  0.00    +0.129 C 
BRANCH  28  29
ATOM     29  C   LIG    1       24.862 -28.154   5.258  0.00  0.00    +0.216 C 
BRANCH  29  30
ATOM     30  S   LIG    1       25.977 -26.825   5.646  0.00  0.00    +0.081 S 
ATOM     31  O   LIG    1       26.219 -26.786   7.058  0.00  0.00    -0.147 OA
ATOM     32  O   LIG    1       25.596 -25.647   4.893  0.00  0.00    -0.147 OA
BRANCH  30  33
ATOM     33  O   LIG    1       27.305 -27.394   4.925  0.00  0.00    -0.254 OA
ATOM     34  H   LIG    1       28.010 -26.715   5.004  0.00  0.00    +0.244 HD
ENDBRANCH  30  33
ENDBRANCH  29  30
ENDBRANCH  28  29
ENDBRANCH  25  28
ENDBRANCH  23  24
ENDBRANCH  22  23
ENDBRANCH  21  22
ENDBRANCH   1  21
BRANCH  12  35
ATOM     35  O   LIG    1       27.466 -28.660  15.463  0.00  0.00    -0.392 OA
ATOM     36  H   LIG    1       28.328 -29.106  15.417  0.00  0.00    +0.210 HD
ENDBRANCH  12  35
BRANCH  16  37
ATOM     37  O   LIG    1       27.232 -28.651   9.342  0.00  0.00    -0.392 OA
ATOM     38  H   LIG    1       27.413 -27.704   9.236  0.00  0.00    +0.210 HD
ENDBRANCH  16  37
TORSDOF 10
ENDMDL
MODEL 2
REMARK VINA RESULT:      -6.1      2.633      3.757
REMARK  Name = *****
REMARK                            x       y       z     vdW  Elec       q    Type
REMARK                         _______ _______ _______ _____ _____    ______ ____
ROOT
ATOM      1  C   LIG    1       24.799 -30.770   7.093  0.00  0.00    -0.002 C 
ATOM      2  C   LIG    1       25.017 -30.008   8.467  0.00  0.00    -0.026 C 
ATOM      3  C   LIG    1       25.568 -28.573   8.287  0.00  0.00    +0.012 C 
ATOM      4  C   LIG    1       26.150 -30.844   9.193  0.00  0.00    +0.001 C 
ATOM      5  C   LIG    1       26.099 -31.108  10.729  0.00  0.00    +0.025 C 
ATOM      6  C   LIG    1       24.331 -31.054  11.374  0.00  0.00    +0.001 C 
ATOM      7  C   LIG    1       23.365 -31.023  10.182  0.00  0.00    +0.005 C 
ATOM      8  C   LIG    1       24.066 -29.770  12.710  0.00  0.00    -0.026 C 
ATOM      9  C   LIG    1       22.976 -28.754  12.401  0.00  0.00    +0.012 C 
ATOM     10  C   LIG    1       25.329 -28.966  13.828  0.00  0.00    +0.000 C 
ATOM     11  C   LIG    1       25.331 -29.664  15.154  0.00  0.00    +0.035 C 
ATOM     12  C   LIG    1       26.024 -30.921  14.770  0.00  0.00    +0.115 C 
ATOM     13  C   LIG    1       25.817 -31.086  13.227  0.00  0.00    +0.032 C 
ATOM     14  C   LIG    1       27.110 -29.046  13.120  0.00  0.00    +0.035 C 
ATOM     15  C   LIG    1       25.290 -29.556  12.105  0.00  0.00    +0.009 C 
ATOM     16  C   LIG    1       27.410 -30.091  11.622  0.00  0.00    +0.118 C 
ATOM     17  C   LIG    1       26.282 -32.131   8.377  0.00  0.00    +0.005 C 
ATOM     18  C   LIG    1       23.648 -29.909   9.195  0.00  0.00    +0.007 C 
ATOM     19  C   LIG    1       26.053 -31.646   6.956  0.00  0.00    +0.004 C 
ENDROOT
BRANCH   1  21
ATOM     20  C   LIG    1       25.606 -29.989   4.759  0.00  0.00    +0.008 C 
ATOM     21  C   LIG    1       24.484 -29.948   5.808  0.00  0.00    -0.010 C 
BRANCH  21  22
ATOM     22  C   LIG    1       24.156 -28.460   6.112  0.00  0.00    +0.012 C 
BRANCH  22  23
ATOM     23  C   LIG    1       24.549 -27.482   4.999  0.00  0.00    +0.096 C 
BRANCH  23  24
ATOM     24  C   LIG    1       25.411 -26.355   5.522  0.00  0.00    +0.213 C 
ATOM     25  N   LIG    1       24.699 -25.385   6.194  0.00  0.00    -0.314 N 
ATOM     26  H   LIG    1       23.705 -25.509   6.343  0.00  0.00    +0.149 HD
ATOM     27  O   LIG    1       26.629 -26.319   5.385  0.00  0.00    -0.276 OA
BRANCH  25  28
ATOM     28  C   LIG    1       25.356 -24.233   6.794  0.00  0.00    +0.129 C 
BRANCH  28  29
ATOM     29  C   LIG    1       24.870 -22.921   6.203  0.00  0.00    +0.216 C 
BRANCH  29  30
ATOM     30  S   LIG    1       23.215 -22.548   6.731  0.00  0.00    +0.081 S 
ATOM     31  O   LIG    1       23.243 -21.561   7.770  0.00  0.00    -0.147 OA
ATOM     32  O   LIG    1       22.463 -23.781   6.855  0.00  0.00    -0.147 OA
BRANCH  30  33
ATOM     33  O   LIG    1       22.675 -21.841   5.384  0.00  0.00    -0.254 OA
ATOM     34  H   LIG    1       22.743 -22.490   4.650  0.00  0.00    +0.244 HD
ENDBRANCH  30  33
ENDBRANCH  29  30
ENDBRANCH  28  29
ENDBRANCH  25  28
ENDBRANCH  23  24
ENDBRANCH  22  23
ENDBRANCH  21  22
ENDBRANCH   1  21
BRANCH  12  35
ATOM     35  O   LIG    1       25.491 -32.018  15.500  0.00  0.00    -0.392 OA
ATOM     36  H   LIG    1       24.671 -31.713  15.925  0.00  0.00    +0.210 HD
ENDBRANCH  12  35
BRANCH  16  37
ATOM     37  O   LIG    1       28.141 -29.280  10.704  0.00  0.00    -0.392 OA
ATOM     38  H   LIG    1       27.768 -28.385  10.744  0.00  0.00    +0.210 HD
ENDBRANCH  16  37
TORSDOF 10
ENDMDL
MODEL 3
REMARK VINA RESULT:      -6.0      1.681      3.017
REMARK  Name = *****
REMARK                            x       y       z     vdW  Elec       q    Type
REMARK                         _______ _______ _______ _____ _____    ______ ____
ROOT
ATOM      1  C   LIG    1       25.420 -31.609   8.858  0.00  0.00    -0.002 C 
ATOM      2  C   LIG    1       25.496 -31.225  10.396  0.00  0.00    -0.026 C 
ATOM      3  C   LIG    1       25.409 -32.452  11.335  0.00  0.00    +0.012 C 
ATOM      4  C   LIG    1       24.185 -30.370  10.641  0.00  0.00    +0.001 C 
ATOM      5  C   LIG    1       24.204 -29.110  11.560  0.00  0.00    +0.025 C 
ATOM      6  C   LIG    1       25.923 -28.346  11.637  0.00  0.00    +0.001 C 
ATOM      7  C   LIG    1       26.810 -29.002  10.570  0.00  0.00    +0.005 C 
ATOM      8  C   LIG    1       26.618 -28.253  13.372  0.00  0.00    -0.026 C 
ATOM      9  C   LIG    1       27.957 -28.951  13.555  0.00  0.00    +0.012 C 
ATOM     10  C   LIG    1       25.704 -28.284  15.003  0.00  0.00    +0.000 C 
ATOM     11  C   LIG    1       25.531 -26.881  15.500  0.00  0.00    +0.035 C 
ATOM     12  C   LIG    1       24.471 -26.417  14.567  0.00  0.00    +0.115 C 
ATOM     13  C   LIG    1       24.564 -27.334  13.302  0.00  0.00    +0.032 C 
ATOM     14  C   LIG    1       23.962 -29.077  14.866  0.00  0.00    +0.035 C 
ATOM     15  C   LIG    1       25.499 -29.066  13.369  0.00  0.00    +0.009 C 
ATOM     16  C   LIG    1       23.302 -29.455  13.178  0.00  0.00    +0.118 C 
ATOM     17  C   LIG    1       23.634 -30.073   9.244  0.00  0.00    +0.005 C 
ATOM     18  C   LIG    1       26.851 -30.514  10.657  0.00  0.00    +0.007 C 
ATOM     19  C   LIG    1       23.953 -31.350   8.485  0.00  0.00    +0.004 C 
ENDROOT
BRANCH   1  21
ATOM     20  C   LIG    1       27.386 -33.295   8.791  0.00  0.00    +0.008 C 
ATOM     21  C   LIG    1       25.930 -33.007   8.397  0.00  0.00    -0.010 C 
BRANCH  21  22
ATOM     22  C   LIG    1       25.790 -33.223   6.865  0.00  0.00    +0.012 C 
BRANCH  22  23
ATOM     23  C   LIG    1       26.709 -32.340   6.011  0.00  0.00    +0.096 C 
BRANCH  23  24
ATOM     24  C   LIG    1       25.920 -31.386   5.143  0.00  0.00    +0.213 C 
ATOM     25  N   LIG    1       25.799 -30.123   5.684  0.00  0.00    -0.314 N 
ATOM     26  H   LIG    1       26.273 -29.905   6.553  0.00  0.00    +0.149 HD
ATOM     27  O   LIG    1       25.454 -31.695   4.053  0.00  0.00    -0.276 OA
BRANCH  25  28
ATOM     28  C   LIG    1       25.097 -29.058   4.986  0.00  0.00    +0.129 C 
BRANCH  28  29
ATOM     29  C   LIG    1       24.698 -27.925   5.916  0.00  0.00    +0.216 C 
BRANCH  29  30
ATOM     30  S   LIG    1       25.735 -26.501   5.682  0.00  0.00    +0.081 S 
ATOM     31  O   LIG    1       26.090 -25.939   6.953  0.00  0.00    -0.147 OA
ATOM     32  O   LIG    1       25.205 -25.696   4.601  0.00  0.00    -0.147 OA
BRANCH  30  33
ATOM     33  O   LIG    1       27.040 -27.237   5.079  0.00  0.00    -0.254 OA
ATOM     34  H   LIG    1       27.223 -26.856   4.194  0.00  0.00    +0.244 HD
ENDBRANCH  30  33
ENDBRANCH  29  30
ENDBRANCH  28  29
ENDBRANCH  25  28
ENDBRANCH  23  24
ENDBRANCH  22  23
ENDBRANCH  21  22
ENDBRANCH   1  21
BRANCH  12  35
ATOM     35  O   LIG    1       24.663 -25.046  14.249  0.00  0.00    -0.392 OA
ATOM     36  H   LIG    1       25.059 -24.620  15.027  0.00  0.00    +0.210 HD
ENDBRANCH  12  35
BRANCH  16  37
ATOM     37  O   LIG    1       22.828 -30.800  13.222  0.00  0.00    -0.392 OA
ATOM     38  H   LIG    1       22.354 -30.914  14.061  0.00  0.00    +0.210 HD
ENDBRANCH  16  37
TORSDOF 10
ENDMDL
MODEL 4
REMARK VINA RESULT:      -5.9      2.949      4.445
REMARK  Name = *****
REMARK                            x       y       z     vdW  Elec       q    Type
REMARK                         _______ _______ _______ _____ _____    ______ ____
ROOT
ATOM      1  C   LIG    1       23.932 -31.172   7.059  0.00  0.00    -0.002 C 
ATOM      2  C   LIG    1       24.532 -31.142   8.528  0.00  0.00    -0.026 C 
ATOM      3  C   LIG    1       26.075 -31.024   8.553  0.00  0.00    +0.012 C 
ATOM      4  C   LIG    1       24.174 -32.569   9.115  0.00  0.00    +0.001 C 
ATOM      5  C   LIG    1       23.720 -32.740  10.597  0.00  0.00    +0.025 C 
ATOM      6  C   LIG    1       22.931 -31.163  11.257  0.00  0.00    +0.001 C 
ATOM      7  C   LIG    1       22.699 -30.194  10.090  0.00  0.00    +0.005 C 
ATOM      8  C   LIG    1       23.797 -30.474  12.767  0.00  0.00    -0.026 C 
ATOM      9  C   LIG    1       24.281 -29.039  12.617  0.00  0.00    +0.012 C 
ATOM     10  C   LIG    1       24.912 -31.355  13.980  0.00  0.00    +0.000 C 
ATOM     11  C   LIG    1       24.119 -31.742  15.191  0.00  0.00    +0.035 C 
ATOM     12  C   LIG    1       23.338 -32.872  14.623  0.00  0.00    +0.115 C 
ATOM     13  C   LIG    1       23.300 -32.648  13.074  0.00  0.00    +0.032 C 
ATOM     14  C   LIG    1       25.691 -32.950  13.254  0.00  0.00    +0.035 C 
ATOM     15  C   LIG    1       24.588 -31.450  12.189  0.00  0.00    +0.009 C 
ATOM     16  C   LIG    1       25.076 -33.559  11.617  0.00  0.00    +0.118 C 
ATOM     17  C   LIG    1       23.182 -33.174   8.120  0.00  0.00    +0.005 C 
ATOM     18  C   LIG    1       23.943 -29.913   9.273  0.00  0.00    +0.007 C 
ATOM     19  C   LIG    1       23.700 -32.665   6.786  0.00  0.00    +0.004 C 
ENDROOT
BRANCH   1  21
ATOM     20  C   LIG    1       25.947 -31.208   5.432  0.00  0.00    +0.008 C 
ATOM     21  C   LIG    1       24.698 -30.452   5.909  0.00  0.00    -0.010 C 
BRANCH  21  22
ATOM     22  C   LIG    1       25.119 -29.004   6.281  0.00  0.00    +0.012 C 
BRANCH  22  23
ATOM     23  C   LIG    1       24.424 -27.909   5.463  0.00  0.00    +0.096 C 
BRANCH  23  24
ATOM     24  C   LIG    1       25.249 -26.643   5.409  0.00  0.00    +0.213 C 
ATOM     25  N   LIG    1       24.489 -25.493   5.384  0.00  0.00    -0.314 N 
ATOM     26  H   LIG    1       23.481 -25.559   5.463  0.00  0.00    +0.149 HD
ATOM     27  O   LIG    1       26.475 -26.637   5.411  0.00  0.00    -0.276 OA
BRANCH  25  28
ATOM     28  C   LIG    1       25.101 -24.173   5.357  0.00  0.00    +0.129 C 
BRANCH  28  29
ATOM     29  C   LIG    1       24.922 -23.428   6.668  0.00  0.00    +0.216 C 
BRANCH  29  30
ATOM     30  S   LIG    1       23.269 -22.795   6.831  0.00  0.00    +0.081 S 
ATOM     31  O   LIG    1       23.235 -21.766   7.829  0.00  0.00    -0.147 OA
ATOM     32  O   LIG    1       22.332 -23.899   6.825  0.00  0.00    -0.147 OA
BRANCH  30  33
ATOM     33  O   LIG    1       23.127 -22.093   5.383  0.00  0.00    -0.254 OA
ATOM     34  H   LIG    1       23.225 -21.124   5.502  0.00  0.00    +0.244 HD
ENDBRANCH  30  33
ENDBRANCH  29  30
ENDBRANCH  28  29
ENDBRANCH  25  28
ENDBRANCH  23  24
ENDBRANCH  22  23
ENDBRANCH  21  22
ENDBRANCH   1  21
BRANCH  12  35
ATOM     35  O   LIG    1       22.036 -32.903  15.190  0.00  0.00    -0.392 OA
ATOM     36  H   LIG    1       21.399 -32.893  14.456  0.00  0.00    +0.210 HD
ENDBRANCH  12  35
BRANCH  16  37
ATOM     37  O   LIG    1       26.231 -33.815  10.821  0.00  0.00    -0.392 OA
ATOM     38  H   LIG    1       26.368 -34.775  10.805  0.00  0.00    +0.210 HD
ENDBRANCH  16  37
TORSDOF 10
ENDMDL
MODEL 5
REMARK VINA RESULT:      -5.7      4.444      6.472
REMARK  Name = *****
REMARK                            x       y       z     vdW  Elec       q    Type
REMARK                         _______ _______ _______ _____ _____    ______ ____
ROOT
ATOM      1  C   LIG    1       23.782 -32.407  10.863  0.00  0.00    -0.002 C 
ATOM      2  C   LIG    1       22.387 -31.700  11.128  0.00  0.00    -0.026 C 
ATOM      3  C   LIG    1       22.471 -30.155  11.104  0.00  0.00    +0.012 C 
ATOM      4  C   LIG    1       22.025 -32.114  12.614  0.00  0.00    +0.001 C 
ATOM      5  C   LIG    1       20.561 -32.470  13.019  0.00  0.00    +0.025 C 
ATOM      6  C   LIG    1       19.577 -33.096  11.541  0.00  0.00    +0.001 C 
ATOM      7  C   LIG    1       20.536 -33.344  10.369  0.00  0.00    +0.005 C 
ATOM      8  C   LIG    1       18.049 -32.076  11.180  0.00  0.00    -0.026 C 
ATOM      9  C   LIG    1       17.990 -31.504   9.771  0.00  0.00    +0.012 C 
ATOM     10  C   LIG    1       17.103 -30.939  12.324  0.00  0.00    +0.000 C 
ATOM     11  C   LIG    1       15.915 -31.668  12.874  0.00  0.00    +0.035 C 
ATOM     12  C   LIG    1       16.601 -32.566  13.839  0.00  0.00    +0.115 C 
ATOM     13  C   LIG    1       18.079 -32.701  13.342  0.00  0.00    +0.032 C 
ATOM     14  C   LIG    1       18.156 -30.330  13.807  0.00  0.00    +0.035 C 
ATOM     15  C   LIG    1       18.850 -31.399  12.082  0.00  0.00    +0.009 C 
ATOM     16  C   LIG    1       19.815 -31.105  14.081  0.00  0.00    +0.118 C 
ATOM     17  C   LIG    1       23.022 -33.216  12.977  0.00  0.00    +0.005 C 
ATOM     18  C   LIG    1       21.395 -32.145  10.019  0.00  0.00    +0.007 C 
ATOM     19  C   LIG    1       24.288 -32.762  12.269  0.00  0.00    +0.004 C 
ENDROOT
BRANCH   1  21
ATOM     20  C   LIG    1       25.558 -32.594   8.986  0.00  0.00    +0.008 C 
ATOM     21  C   LIG    1       24.852 -31.677   9.996  0.00  0.00    -0.010 C 
BRANCH  21  22
ATOM     22  C   LIG    1       25.938 -30.969  10.852  0.00  0.00    +0.012 C 
BRANCH  22  23
ATOM     23  C   LIG    1       27.065 -30.320  10.040  0.00  0.00    +0.096 C 
BRANCH  23  24
ATOM     24  C   LIG    1       26.689 -28.934   9.568  0.00  0.00    +0.213 C 
ATOM     25  N   LIG    1       26.316 -28.886   8.242  0.00  0.00    -0.314 N 
ATOM     26  H   LIG    1       26.259 -29.746   7.709  0.00  0.00    +0.149 HD
ATOM     27  O   LIG    1       26.691 -27.950  10.300  0.00  0.00    -0.276 OA
BRANCH  25  28
ATOM     28  C   LIG    1       25.895 -27.645   7.611  0.00  0.00    +0.129 C 
BRANCH  28  29
ATOM     29  C   LIG    1       24.993 -27.885   6.413  0.00  0.00    +0.216 C 
BRANCH  29  30
ATOM     30  S   LIG    1       24.355 -29.544   6.406  0.00  0.00    +0.081 S 
ATOM     31  O   LIG    1       23.707 -29.825   7.653  0.00  0.00    -0.147 OA
ATOM     32  O   LIG    1       25.343 -30.433   5.829  0.00  0.00    -0.147 OA
BRANCH  30  33
ATOM     33  O   LIG    1       23.214 -29.369   5.277  0.00  0.00    -0.254 OA
ATOM     34  H   LIG    1       22.843 -28.464   5.356  0.00  0.00    +0.244 HD
ENDBRANCH  30  33
ENDBRANCH  29  30
ENDBRANCH  28  29
ENDBRANCH  25  28
ENDBRANCH  23  24
ENDBRANCH  22  23
ENDBRANCH  21  22
ENDBRANCH   1  21
BRANCH  12  35
ATOM     35  O   LIG    1       15.940 -33.822  13.896  0.00  0.00    -0.392 OA
ATOM     36  H   LIG    1       16.613 -34.510  13.761  0.00  0.00    +0.210 HD
ENDBRANCH  12  35
BRANCH  16  37
ATOM     37  O   LIG    1       20.738 -30.031  14.256  0.00  0.00    -0.392 OA
ATOM     38  H   LIG    1       20.549 -29.622  15.115  0.00  0.00    +0.210 HD
ENDBRANCH  16  37
TORSDOF 10
ENDMDL
MODEL 6
REMARK VINA RESULT:      -5.6      3.272      4.837
REMARK  Name = *****
REMARK                            x       y       z     vdW  Elec       q    Type
REMARK                         _______ _______ _______ _____ _____    ______ ____
ROOT
ATOM      1  C   LIG    1       25.468 -29.351   8.025  0.00  0.00    -0.002 C 
ATOM      2  C   LIG    1       24.836 -29.944   9.354  0.00  0.00    -0.026 C 
ATOM      3  C   LIG    1       23.359 -29.532   9.564  0.00  0.00    +0.012 C 
ATOM      4  C   LIG    1       25.670 -29.257  10.513  0.00  0.00    +0.001 C 
ATOM      5  C   LIG    1       26.091 -30.055  11.785  0.00  0.00    +0.025 C 
ATOM      6  C   LIG    1       26.212 -31.899  11.427  0.00  0.00    +0.001 C 
ATOM      7  C   LIG    1       26.120 -32.121   9.912  0.00  0.00    +0.005 C 
ATOM      8  C   LIG    1       25.089 -32.940  12.503  0.00  0.00    -0.026 C 
ATOM      9  C   LIG    1       24.115 -33.821  11.733  0.00  0.00    +0.012 C 
ATOM     10  C   LIG    1       24.326 -32.515  14.155  0.00  0.00    +0.000 C 
ATOM     11  C   LIG    1       25.153 -33.115  15.251  0.00  0.00    +0.035 C 
ATOM     12  C   LIG    1       26.320 -32.195  15.211  0.00  0.00    +0.115 C 
ATOM     13  C   LIG    1       26.340 -31.569  13.776  0.00  0.00    +0.032 C 
ATOM     14  C   LIG    1       24.224 -30.624  14.464  0.00  0.00    +0.035 C 
ATOM     15  C   LIG    1       24.740 -31.609  12.629  0.00  0.00    +0.009 C 
ATOM     16  C   LIG    1       25.091 -29.495  13.281  0.00  0.00    +0.118 C 
ATOM     17  C   LIG    1       26.858 -28.594   9.813  0.00  0.00    +0.005 C 
ATOM     18  C   LIG    1       24.896 -31.494   9.276  0.00  0.00    +0.007 C 
ATOM     19  C   LIG    1       26.247 -28.117   8.506  0.00  0.00    +0.004 C 
ENDROOT
BRANCH   1  21
ATOM     20  C   LIG    1       24.067 -30.311   6.069  0.00  0.00    +0.008 C 
ATOM     21  C   LIG    1       24.540 -29.051   6.810  0.00  0.00    -0.010 C 
BRANCH  21  22
ATOM     22  C   LIG    1       25.196 -28.096   5.775  0.00  0.00    +0.012 C 
BRANCH  22  23
ATOM     23  C   LIG    1       24.369 -26.847   5.449  0.00  0.00    +0.096 C 
BRANCH  23  24
ATOM     24  C   LIG    1       25.170 -25.579   5.644  0.00  0.00    +0.213 C 
ATOM     25  N   LIG    1       24.389 -24.455   5.807  0.00  0.00    -0.314 N 
ATOM     26  H   LIG    1       23.381 -24.549   5.846  0.00  0.00    +0.149 HD
ATOM     27  O   LIG    1       26.395 -25.555   5.680  0.00  0.00    -0.276 OA
BRANCH  25  28
ATOM     28  C   LIG    1       24.976 -23.143   6.033  0.00  0.00    +0.129 C 
BRANCH  28  29
ATOM     29  C   LIG    1       25.292 -22.899   7.498  0.00  0.00    +0.216 C 
BRANCH  29  30
ATOM     30  S   LIG    1       25.379 -21.161   7.860  0.00  0.00    +0.081 S 
ATOM     31  O   LIG    1       25.957 -20.459   6.752  0.00  0.00    -0.147 OA
ATOM     32  O   LIG    1       25.843 -20.978   9.220  0.00  0.00    -0.147 OA
BRANCH  30  33
ATOM     33  O   LIG    1       23.798 -20.833   7.890  0.00  0.00    -0.254 OA
ATOM     34  H   LIG    1       23.405 -21.295   8.662  0.00  0.00    +0.244 HD
ENDBRANCH  30  33
ENDBRANCH  29  30
ENDBRANCH  28  29
ENDBRANCH  25  28
ENDBRANCH  23  24
ENDBRANCH  22  23
ENDBRANCH  21  22
ENDBRANCH   1  21
BRANCH  12  35
ATOM     35  O   LIG    1       27.515 -32.907  15.500  0.00  0.00    -0.392 OA
ATOM     36  H   LIG    1       27.265 -33.706  15.992  0.00  0.00    +0.210 HD
ENDBRANCH  12  35
BRANCH  16  37
ATOM     37  O   LIG    1       24.147 -28.489  12.918  0.00  0.00    -0.392 OA
ATOM     38  H   LIG    1       24.376 -27.684  13.408  0.00  0.00    +0.210 HD
ENDBRANCH  16  37
TORSDOF 10
ENDMDL
MODEL 7
REMARK VINA RESULT:      -5.6      3.909      5.930
REMARK  Name = *****
REMARK                            x       y       z     vdW  Elec       q    Type
REMARK                         _______ _______ _______ _____ _____    ______ ____
ROOT
ATOM      1  C   LIG    1       24.113 -30.285  10.964  0.00  0.00    -0.002 C 
ATOM      2  C   LIG    1       23.157 -30.514  12.209  0.00  0.00    -0.026 C 
ATOM      3  C   LIG    1       23.748 -31.483  13.261  0.00  0.00    +0.012 C 
ATOM      4  C   LIG    1       21.888 -31.231  11.590  0.00  0.00    +0.001 C 
ATOM      5  C   LIG    1       20.447 -30.880  12.072  0.00  0.00    +0.025 C 
ATOM      6  C   LIG    1       20.366 -29.132  12.765  0.00  0.00    +0.001 C 
ATOM      7  C   LIG    1       21.677 -28.403  12.440  0.00  0.00    +0.005 C 
ATOM      8  C   LIG    1       19.779 -29.063  14.542  0.00  0.00    -0.026 C 
ATOM      9  C   LIG    1       20.744 -28.377  15.499  0.00  0.00    +0.012 C 
ATOM     10  C   LIG    1       18.790 -30.328  15.498  0.00  0.00    +0.000 C 
ATOM     11  C   LIG    1       17.346 -29.930  15.498  0.00  0.00    +0.035 C 
ATOM     12  C   LIG    1       16.996 -30.271  14.094  0.00  0.00    +0.115 C 
ATOM     13  C   LIG    1       18.338 -30.254  13.288  0.00  0.00    +0.032 C 
ATOM     14  C   LIG    1       18.914 -32.090  14.751  0.00  0.00    +0.035 C 
ATOM     15  C   LIG    1       20.076 -30.371  14.207  0.00  0.00    +0.009 C 
ATOM     16  C   LIG    1       19.730 -32.287  13.100  0.00  0.00    +0.118 C 
ATOM     17  C   LIG    1       22.052 -31.097  10.075  0.00  0.00    +0.005 C 
ATOM     18  C   LIG    1       22.916 -29.143  12.899  0.00  0.00    +0.007 C 
ATOM     19  C   LIG    1       23.554 -31.232   9.892  0.00  0.00    +0.004 C 
ENDROOT
BRANCH   1  21
ATOM     20  C   LIG    1       26.224 -29.501  12.245  0.00  0.00    +0.008 C 
ATOM     21  C   LIG    1       25.654 -30.418  11.153  0.00  0.00    -0.010 C 
BRANCH  21  22
ATOM     22  C   LIG    1       26.445 -30.162   9.841  0.00  0.00    +0.012 C 
BRANCH  22  23
ATOM     23  C   LIG    1       26.139 -28.820   9.165  0.00  0.00    +0.096 C 
BRANCH  23  24
ATOM     24  C   LIG    1       25.683 -29.004   7.735  0.00  0.00    +0.213 C 
ATOM     25  N   LIG    1       25.764 -27.854   6.979  0.00  0.00    -0.314 N 
ATOM     26  H   LIG    1       26.161 -27.015   7.388  0.00  0.00    +0.149 HD
ATOM     27  O   LIG    1       25.303 -30.078   7.282  0.00  0.00    -0.276 OA
BRANCH  25  28
ATOM     28  C   LIG    1       25.394 -27.836   5.573  0.00  0.00    +0.129 C 
BRANCH  28  29
ATOM     29  C   LIG    1       25.710 -26.507   4.910  0.00  0.00    +0.216 C 
BRANCH  29  30
ATOM     30  S   LIG    1       25.040 -25.147   5.838  0.00  0.00    +0.081 S 
ATOM     31  O   LIG    1       26.030 -24.633   6.739  0.00  0.00    -0.147 OA
ATOM     32  O   LIG    1       23.698 -25.479   6.271  0.00  0.00    -0.147 OA
BRANCH  30  33
ATOM     33  O   LIG    1       24.860 -24.087   4.634  0.00  0.00    -0.254 OA
ATOM     34  H   LIG    1       23.902 -24.013   4.432  0.00  0.00    +0.244 HD
ENDBRANCH  30  33
ENDBRANCH  29  30
ENDBRANCH  28  29
ENDBRANCH  25  28
ENDBRANCH  23  24
ENDBRANCH  22  23
ENDBRANCH  21  22
ENDBRANCH   1  21
BRANCH  12  35
ATOM     35  O   LIG    1       16.054 -29.339  13.583  0.00  0.00    -0.392 OA
ATOM     36  H   LIG    1       16.549 -28.551  13.301  0.00  0.00    +0.210 HD
ENDBRANCH  12  35
BRANCH  16  37
ATOM     37  O   LIG    1       20.671 -33.350  13.240  0.00  0.00    -0.392 OA
ATOM     38  H   LIG    1       20.980 -33.348  14.159  0.00  0.00    +0.210 HD
ENDBRANCH  16  37
TORSDOF 10
ENDMDL
MODEL 8
REMARK VINA RESULT:      -5.6      4.430      7.841
REMARK  Name = *****
REMARK                            x       y       z     vdW  Elec       q    Type
REMARK                         _______ _______ _______ _____ _____    ______ ____
ROOT
ATOM      1  C   LIG    1       24.361 -29.669  12.020  0.00  0.00    -0.002 C 
ATOM      2  C   LIG    1       24.107 -30.265  10.572  0.00  0.00    -0.026 C 
ATOM      3  C   LIG    1       22.605 -30.429  10.235  0.00  0.00    +0.012 C 
ATOM      4  C   LIG    1       24.720 -31.724  10.646  0.00  0.00    +0.001 C 
ATOM      5  C   LIG    1       25.510 -32.329   9.445  0.00  0.00    +0.025 C 
ATOM      6  C   LIG    1       26.276 -30.978   8.381  0.00  0.00    +0.001 C 
ATOM      7  C   LIG    1       26.148 -29.634   9.110  0.00  0.00    +0.005 C 
ATOM      8  C   LIG    1       25.711 -31.028   6.597  0.00  0.00    -0.026 C 
ATOM      9  C   LIG    1       25.074 -29.738   6.100  0.00  0.00    +0.012 C 
ATOM     10  C   LIG    1       24.985 -32.458   5.638  0.00  0.00    +0.000 C 
ATOM     11  C   LIG    1       26.063 -33.108   4.825  0.00  0.00    +0.035 C 
ATOM     12  C   LIG    1       26.798 -33.812   5.908  0.00  0.00    +0.115 C 
ATOM     13  C   LIG    1       26.465 -33.050   7.235  0.00  0.00    +0.032 C 
ATOM     14  C   LIG    1       24.215 -33.800   6.772  0.00  0.00    +0.035 C 
ATOM     15  C   LIG    1       24.905 -31.855   7.356  0.00  0.00    +0.009 C 
ATOM     16  C   LIG    1       24.501 -33.675   8.597  0.00  0.00    +0.118 C 
ATOM     17  C   LIG    1       25.514 -31.758  11.953  0.00  0.00    +0.005 C 
ATOM     18  C   LIG    1       24.731 -29.299   9.528  0.00  0.00    +0.007 C 
ATOM     19  C   LIG    1       24.664 -30.906  12.879  0.00  0.00    +0.004 C 
ENDROOT
BRANCH   1  21
ATOM     20  C   LIG    1       23.879 -27.445  13.258  0.00  0.00    +0.008 C 
ATOM     21  C   LIG    1       23.292 -28.731  12.656  0.00  0.00    -0.010 C 
BRANCH  21  22
ATOM     22  C   LIG    1       22.446 -29.438  13.750  0.00  0.00    +0.012 C 
BRANCH  22  23
ATOM     23  C   LIG    1       20.930 -29.296  13.573  0.00  0.00    +0.096 C 
BRANCH  23  24
ATOM     24  C   LIG    1       20.275 -30.624  13.266  0.00  0.00    +0.213 C 
ATOM     25  N   LIG    1       18.952 -30.513  12.897  0.00  0.00    -0.314 N 
ATOM     26  H   LIG    1       18.537 -29.593  12.798  0.00  0.00    +0.149 HD
ATOM     27  O   LIG    1       20.869 -31.695  13.316  0.00  0.00    -0.276 OA
BRANCH  25  28
ATOM     28  C   LIG    1       18.158 -31.678  12.538  0.00  0.00    +0.129 C 
BRANCH  28  29
ATOM     29  C   LIG    1       17.225 -31.402  11.372  0.00  0.00    +0.216 C 
BRANCH  29  30
ATOM     30  S   LIG    1       18.104 -31.401   9.827  0.00  0.00    +0.081 S 
ATOM     31  O   LIG    1       17.855 -32.623   9.121  0.00  0.00    -0.147 OA
ATOM     32  O   LIG    1       19.442 -30.887  10.039  0.00  0.00    -0.147 OA
BRANCH  30  33
ATOM     33  O   LIG    1       17.296 -30.218   9.081  0.00  0.00    -0.254 OA
ATOM     34  H   LIG    1       16.368 -30.512   8.958  0.00  0.00    +0.244 HD
ENDBRANCH  30  33
ENDBRANCH  29  30
ENDBRANCH  28  29
ENDBRANCH  25  28
ENDBRANCH  23  24
ENDBRANCH  22  23
ENDBRANCH  21  22
ENDBRANCH   1  21
BRANCH  12  35
ATOM     35  O   LIG    1       28.191 -33.819   5.631  0.00  0.00    -0.392 OA
ATOM     36  H   LIG    1       28.634 -34.247   6.383  0.00  0.00    +0.210 HD
ENDBRANCH  12  35
BRANCH  16  37
ATOM     37  O   LIG    1       23.224 -33.825   9.216  0.00  0.00    -0.392 OA
ATOM     38  H   LIG    1       23.200 -33.229   9.981  0.00  0.00    +0.210 HD
ENDBRANCH  16  37
TORSDOF 10
ENDMDL
MODEL 9
REMARK VINA RESULT:      -5.6      3.698      8.221
REMARK  Name = *****
REMARK                            x       y       z     vdW  Elec       q    Type
REMARK                         _______ _______ _______ _____ _____    ______ ____
ROOT
ATOM      1  C   LIG    1       25.604 -28.425  12.861  0.00  0.00    -0.002 C 
ATOM      2  C   LIG    1       25.357 -29.805  12.119  0.00  0.00    -0.026 C 
ATOM      3  C   LIG    1       26.034 -31.005  12.823  0.00  0.00    +0.012 C 
ATOM      4  C   LIG    1       26.086 -29.624  10.724  0.00  0.00    +0.001 C 
ATOM      5  C   LIG    1       25.459 -30.180   9.409  0.00  0.00    +0.025 C 
ATOM      6  C   LIG    1       23.586 -30.311   9.546  0.00  0.00    +0.001 C 
ATOM      7  C   LIG    1       23.127 -29.594  10.822  0.00  0.00    +0.005 C 
ATOM      8  C   LIG    1       22.940 -32.047   9.275  0.00  0.00    -0.026 C 
ATOM      9  C   LIG    1       22.112 -32.600  10.426  0.00  0.00    +0.012 C 
ATOM     10  C   LIG    1       23.760 -33.477   8.392  0.00  0.00    +0.000 C 
ATOM     11  C   LIG    1       23.229 -33.564   6.993  0.00  0.00    +0.035 C 
ATOM     12  C   LIG    1       23.925 -32.397   6.392  0.00  0.00    +0.115 C 
ATOM     13  C   LIG    1       24.286 -31.439   7.576  0.00  0.00    +0.032 C 
ATOM     14  C   LIG    1       25.666 -33.292   8.286  0.00  0.00    +0.035 C 
ATOM     15  C   LIG    1       24.313 -32.088   9.435  0.00  0.00    +0.009 C 
ATOM     16  C   LIG    1       26.421 -31.681   8.797  0.00  0.00    +0.118 C 
ATOM     17  C   LIG    1       26.417 -28.134  10.636  0.00  0.00    +0.005 C 
ATOM     18  C   LIG    1       23.828 -30.072  12.078  0.00  0.00    +0.007 C 
ATOM     19  C   LIG    1       26.758 -27.785  12.075  0.00  0.00    +0.004 C 
ENDROOT
BRANCH   1  21
ATOM     20  C   LIG    1       24.610 -27.981  15.212  0.00  0.00    +0.008 C 
ATOM     21  C   LIG    1       25.839 -28.420  14.401  0.00  0.00    -0.010 C 
BRANCH  21  22
ATOM     22  C   LIG    1       27.042 -27.533  14.823  0.00  0.00    +0.012 C 
BRANCH  22  23
ATOM     23  C   LIG    1       28.211 -28.302  15.452  0.00  0.00    +0.096 C 
BRANCH  23  24
ATOM     24  C   LIG    1       29.503 -27.520  15.373  0.00  0.00    +0.213 C 
ATOM     25  N   LIG    1       30.606 -28.306  15.117  0.00  0.00    -0.314 N 
ATOM     26  H   LIG    1       30.483 -29.297  14.944  0.00  0.00    +0.149 HD
ATOM     27  O   LIG    1       29.561 -26.302  15.500  0.00  0.00    -0.276 OA
BRANCH  25  28
ATOM     28  C   LIG    1       31.936 -27.733  14.979  0.00  0.00    +0.129 C 
BRANCH  28  29
ATOM     29  C   LIG    1       32.703 -28.331  13.813  0.00  0.00    +0.216 C 
BRANCH  29  30
ATOM     30  S   LIG    1       32.110 -29.959  13.415  0.00  0.00    +0.081 S 
ATOM     31  O   LIG    1       31.716 -30.642  14.613  0.00  0.00    -0.147 OA
ATOM     32  O   LIG    1       32.988 -30.561  12.433  0.00  0.00    -0.147 OA
BRANCH  30  33
ATOM     33  O   LIG    1       30.771 -29.548  12.611  0.00  0.00    -0.254 OA
ATOM     34  H   LIG    1       30.759 -28.571  12.516  0.00  0.00    +0.244 HD
ENDBRANCH  30  33
ENDBRANCH  29  30
ENDBRANCH  28  29
ENDBRANCH  25  28
ENDBRANCH  23  24
ENDBRANCH  22  23
ENDBRANCH  21  22
ENDBRANCH   1  21
BRANCH  12  35
ATOM     35  O   LIG    1       23.088 -31.768   5.432  0.00  0.00    -0.392 OA
ATOM     36  H   LIG    1       23.144 -32.288   4.612  0.00  0.00    +0.210 HD
ENDBRANCH  12  35
BRANCH  16  37
ATOM     37  O   LIG    1       27.490 -32.000   9.685  0.00  0.00    -0.392 OA
ATOM     38  H   LIG    1       27.992 -31.185   9.842  0.00  0.00    +0.210 HD
ENDBRANCH  16  37
TORSDOF 10
ENDMDL
