MODEL 1
REMARK VINA RESULT:      -5.0      0.000      0.000
REMARK  Name = *****
REMARK                            x       y       z     vdW  Elec       q    Type
REMARK                         _______ _______ _______ _____ _____    ______ ____
ROOT
ATOM      1  C   LIG    1       25.871 -19.551   4.389  0.00  0.00    +0.180 C 
ATOM      2  O   LIG    1       25.918 -18.625   3.562  0.00  0.00    -0.290 OA
ENDROOT
BRANCH   1   3
ATOM      3  C   LIG    1       27.055 -19.777   5.282  0.00  0.00    +0.019 A 
ATOM      4  C   LIG    1       28.168 -18.935   5.169  0.00  0.00    +0.011 A 
ATOM      5  C   LIG    1       29.282 -19.121   5.996  0.00  0.00    +0.001 A 
ATOM      6  C   LIG    1       29.287 -20.142   6.946  0.00  0.00    +0.000 A 
ATOM      7  C   LIG    1       28.190 -20.987   7.062  0.00  0.00    +0.001 A 
ATOM      8  C   LIG    1       27.090 -20.813   6.226  0.00  0.00    +0.011 A 
ENDBRANCH   1   3
BRANCH   1   9
ATOM      9  C   LIG    1       24.603 -20.428   4.503  0.00  0.00    +0.125 C 
ATOM     10  C   LIG    1       24.253 -20.924   3.087  0.00  0.00    +0.032 C 
BRANCH   9  11
ATOM     11  N   LIG    1       23.487 -19.718   5.197  0.00  0.00    -0.293 NA
BRANCH  11  13
ATOM     12  C   LIG    1       22.305 -17.512   4.701  0.00  0.00    +0.020 C 
ATOM     13  C   LIG    1       22.622 -18.946   4.288  0.00  0.00    +0.082 C 
ENDBRANCH  11  13
BRANCH  11  14
ATOM     14  C   LIG    1       22.723 -20.592   6.112  0.00  0.00    +0.082 C 
ATOM     15  C   LIG    1       23.629 -21.386   7.052  0.00  0.00    +0.020 C 
ENDBRANCH  11  14
ENDBRANCH   9  11
ENDBRANCH   1   9
TORSDOF 5
ENDMDL
MODEL 2
REMARK VINA RESULT:      -4.3      2.377      4.424
REMARK  Name = *****
REMARK                            x       y       z     vdW  Elec       q    Type
REMARK                         _______ _______ _______ _____ _____    ______ ____
ROOT
ATOM      1  C   LIG    1       23.989 -18.658   3.873  0.00  0.00    +0.180 C 
ATOM      2  O   LIG    1       22.755 -18.798   3.846  0.00  0.00    -0.290 OA
ENDROOT
BRANCH   1   3
ATOM      3  C   LIG    1       24.556 -17.272   3.781  0.00  0.00    +0.019 A 
ATOM      4  C   LIG    1       23.752 -16.178   4.126  0.00  0.00    +0.011 A 
ATOM      5  C   LIG    1       24.261 -14.877   4.056  0.00  0.00    +0.001 A 
ATOM      6  C   LIG    1       25.577 -14.660   3.649  0.00  0.00    +0.000 A 
ATOM      7  C   LIG    1       26.382 -15.737   3.299  0.00  0.00    +0.001 A 
ATOM      8  C   LIG    1       25.869 -17.030   3.351  0.00  0.00    +0.011 A 
ENDBRANCH   1   3
BRANCH   1   9
ATOM      9  C   LIG    1       24.908 -19.891   4.023  0.00  0.00    +0.125 C 
ATOM     10  C   LIG    1       24.178 -21.094   3.395  0.00  0.00    +0.032 C 
BRANCH   9  11
ATOM     11  N   LIG    1       25.337 -20.105   5.439  0.00  0.00    -0.293 NA
BRANCH  11  13
ATOM     12  C   LIG    1       23.463 -20.798   7.026  0.00  0.00    +0.020 C 
ATOM     13  C   LIG    1       24.618 -21.200   6.113  0.00  0.00    +0.082 C 
ENDBRANCH  11  13
BRANCH  11  14
ATOM     14  C   LIG    1       26.803 -20.201   5.593  0.00  0.00    +0.082 C 
ATOM     15  C   LIG    1       27.221 -20.479   7.037  0.00  0.00    +0.020 C 
ENDBRANCH  11  14
ENDBRANCH   9  11
ENDBRANCH   1   9
TORSDOF 5
ENDMDL
MODEL 3
REMARK VINA RESULT:      -3.8      3.881      5.993
REMARK  Name = *****
REMARK                            x       y       z     vdW  Elec       q    Type
REMARK                         _______ _______ _______ _____ _____    ______ ____
ROOT
ATOM      1  C   LIG    1       26.009 -16.433   3.385  0.00  0.00    +0.180 C 
ATOM      2  O   LIG    1       27.215 -16.726   3.434  0.00  0.00    -0.290 OA
ENDROOT
BRANCH   1   3
ATOM      3  C   LIG    1       24.996 -17.511   3.641  0.00  0.00    +0.019 A 
ATOM      4  C   LIG    1       25.378 -18.853   3.515  0.00  0.00    +0.011 A 
ATOM      5  C   LIG    1       24.454 -19.876   3.756  0.00  0.00    +0.001 A 
ATOM      6  C   LIG    1       23.147 -19.566   4.132  0.00  0.00    +0.000 A 
ATOM      7  C   LIG    1       22.757 -18.239   4.254  0.00  0.00    +0.001 A 
ATOM      8  C   LIG    1       23.672 -17.221   3.996  0.00  0.00    +0.011 A 
ENDBRANCH   1   3
BRANCH   1   9
ATOM      9  C   LIG    1       25.573 -14.980   3.091  0.00  0.00    +0.125 C 
ATOM     10  C   LIG    1       26.674 -14.330   2.232  0.00  0.00    +0.032 C 
BRANCH   9  11
ATOM     11  N   LIG    1       25.244 -14.227   4.339  0.00  0.00    -0.293 NA
BRANCH  11  13
ATOM     12  C   LIG    1       27.118 -13.666   5.976  0.00  0.00    +0.020 C 
ATOM     13  C   LIG    1       26.295 -13.280   4.751  0.00  0.00    +0.082 C 
ENDBRANCH  11  13
BRANCH  11  14
ATOM     14  C   LIG    1       23.899 -13.614   4.310  0.00  0.00    +0.082 C 
ATOM     15  C   LIG    1       23.898 -12.239   3.644  0.00  0.00    +0.020 C 
ENDBRANCH  11  14
ENDBRANCH   9  11
ENDBRANCH   1   9
TORSDOF 5
ENDMDL
MODEL 4
REMARK VINA RESULT:      -3.7      2.921      4.943
REMARK  Name = *****
REMARK                            x       y       z     vdW  Elec       q    Type
REMARK                         _______ _______ _______ _____ _____    ______ ____
ROOT
ATOM      1  C   LIG    1       22.883 -16.755   4.468  0.00  0.00    +0.180 C 
ATOM      2  O   LIG    1       22.023 -16.363   5.274  0.00  0.00    -0.290 OA
ENDROOT
BRANCH   1   3
ATOM      3  C   LIG    1       23.996 -15.821   4.095  0.00  0.00    +0.019 A 
ATOM      4  C   LIG    1       23.811 -14.441   4.242  0.00  0.00    +0.011 A 
ATOM      5  C   LIG    1       24.837 -13.550   3.907  0.00  0.00    +0.001 A 
ATOM      6  C   LIG    1       26.056 -14.032   3.432  0.00  0.00    +0.000 A 
ATOM      7  C   LIG    1       26.249 -15.399   3.276  0.00  0.00    +0.001 A 
ATOM      8  C   LIG    1       25.221 -16.283   3.592  0.00  0.00    +0.011 A 
ENDBRANCH   1   3
BRANCH   1   9
ATOM      9  C   LIG    1       22.810 -18.185   3.888  0.00  0.00    +0.125 C 
ATOM     10  C   LIG    1       21.322 -18.526   3.677  0.00  0.00    +0.032 C 
BRANCH   9  11
ATOM     11  N   LIG    1       23.551 -19.173   4.729  0.00  0.00    -0.293 NA
BRANCH  11  13
ATOM     12  C   LIG    1       23.337 -20.683   6.774  0.00  0.00    +0.020 C 
ATOM     13  C   LIG    1       22.676 -19.995   5.583  0.00  0.00    +0.082 C 
ENDBRANCH  11  13
BRANCH  11  14
ATOM     14  C   LIG    1       24.522 -19.979   3.959  0.00  0.00    +0.082 C 
ATOM     15  C   LIG    1       25.946 -19.846   4.497  0.00  0.00    +0.020 C 
ENDBRANCH  11  14
ENDBRANCH   9  11
ENDBRANCH   1   9
TORSDOF 5
ENDMDL
MODEL 5
REMARK VINA RESULT:      -3.6      3.643      5.847
REMARK  Name = *****
REMARK                            x       y       z     vdW  Elec       q    Type
REMARK                         _______ _______ _______ _____ _____    ______ ____
ROOT
ATOM      1  C   LIG    1       25.095 -16.689   3.568  0.00  0.00    +0.180 C 
ATOM      2  O   LIG    1       26.057 -16.742   2.783  0.00  0.00    -0.290 OA
ENDROOT
BRANCH   1   3
ATOM      3  C   LIG    1       24.348 -17.954   3.874  0.00  0.00    +0.019 A 
ATOM      4  C   LIG    1       24.987 -19.187   3.697  0.00  0.00    +0.011 A 
ATOM      5  C   LIG    1       24.314 -20.380   3.983  0.00  0.00    +0.001 A 
ATOM      6  C   LIG    1       23.002 -20.349   4.454  0.00  0.00    +0.000 A 
ATOM      7  C   LIG    1       22.356 -19.132   4.627  0.00  0.00    +0.001 A 
ATOM      8  C   LIG    1       23.021 -17.946   4.325  0.00  0.00    +0.011 A 
ENDBRANCH   1   3
BRANCH   1   9
ATOM      9  C   LIG    1       24.703 -15.348   4.228  0.00  0.00    +0.125 C 
ATOM     10  C   LIG    1       23.171 -15.214   4.132  0.00  0.00    +0.032 C 
BRANCH   9  11
ATOM     11  N   LIG    1       25.457 -14.194   3.652  0.00  0.00    -0.293 NA
BRANCH  11  13
ATOM     12  C   LIG    1       24.589 -12.655   1.812  0.00  0.00    +0.020 C 
ATOM     13  C   LIG    1       24.599 -13.054   3.285  0.00  0.00    +0.082 C 
ENDBRANCH  11  13
BRANCH  11  14
ATOM     14  C   LIG    1       26.623 -13.796   4.469  0.00  0.00    +0.082 C 
ATOM     15  C   LIG    1       27.920 -13.771   3.660  0.00  0.00    +0.020 C 
ENDBRANCH  11  14
ENDBRANCH   9  11
ENDBRANCH   1   9
TORSDOF 5
ENDMDL
MODEL 6
REMARK VINA RESULT:      -3.5      2.360      4.299
REMARK  Name = *****
REMARK                            x       y       z     vdW  Elec       q    Type
REMARK                         _______ _______ _______ _____ _____    ______ ____
ROOT
ATOM      1  C   LIG    1       23.941 -18.739   3.867  0.00  0.00    +0.180 C 
ATOM      2  O   LIG    1       22.713 -18.804   4.042  0.00  0.00    -0.290 OA
ENDROOT
BRANCH   1   3
ATOM      3  C   LIG    1       24.582 -17.386   3.774  0.00  0.00    +0.019 A 
ATOM      4  C   LIG    1       23.825 -16.247   4.077  0.00  0.00    +0.011 A 
ATOM      5  C   LIG    1       24.402 -14.974   4.004  0.00  0.00    +0.001 A 
ATOM      6  C   LIG    1       25.740 -14.831   3.637  0.00  0.00    +0.000 A 
ATOM      7  C   LIG    1       26.498 -15.954   3.328  0.00  0.00    +0.001 A 
ATOM      8  C   LIG    1       25.918 -17.218   3.383  0.00  0.00    +0.011 A 
ENDBRANCH   1   3
BRANCH   1   9
ATOM      9  C   LIG    1       24.783 -20.031   3.776  0.00  0.00    +0.125 C 
ATOM     10  C   LIG    1       24.021 -21.020   2.872  0.00  0.00    +0.032 C 
BRANCH   9  11
ATOM     11  N   LIG    1       25.129 -20.575   5.124  0.00  0.00    -0.293 NA
BRANCH  11  13
ATOM     12  C   LIG    1       26.793 -20.474   7.055  0.00  0.00    +0.020 C 
ATOM     13  C   LIG    1       26.469 -20.181   5.593  0.00  0.00    +0.082 C 
ENDBRANCH  11  13
BRANCH  11  14
ATOM     14  C   LIG    1       24.076 -20.340   6.133  0.00  0.00    +0.082 C 
ATOM     15  C   LIG    1       23.197 -21.571   6.357  0.00  0.00    +0.020 C 
ENDBRANCH  11  14
ENDBRANCH   9  11
ENDBRANCH   1   9
TORSDOF 5
ENDMDL
MODEL 7
REMARK VINA RESULT:      -3.4      4.076      6.450
REMARK  Name = *****
REMARK                            x       y       z     vdW  Elec       q    Type
REMARK                         _______ _______ _______ _____ _____    ______ ____
ROOT
ATOM      1  C   LIG    1       24.236 -15.748   3.932  0.00  0.00    +0.180 C 
ATOM      2  O   LIG    1       23.454 -14.902   4.397  0.00  0.00    -0.290 OA
ENDROOT
BRANCH   1   3
ATOM      3  C   LIG    1       23.859 -17.198   4.018  0.00  0.00    +0.019 A 
ATOM      4  C   LIG    1       22.596 -17.549   4.510  0.00  0.00    +0.011 A 
ATOM      5  C   LIG    1       22.218 -18.894   4.594  0.00  0.00    +0.001 A 
ATOM      6  C   LIG    1       23.096 -19.895   4.178  0.00  0.00    +0.000 A 
ATOM      7  C   LIG    1       24.353 -19.558   3.694  0.00  0.00    +0.001 A 
ATOM      8  C   LIG    1       24.735 -18.221   3.629  0.00  0.00    +0.011 A 
ENDBRANCH   1   3
BRANCH   1   9
ATOM      9  C   LIG    1       25.553 -15.302   3.258  0.00  0.00    +0.125 C 
ATOM     10  C   LIG    1       26.630 -16.347   3.607  0.00  0.00    +0.032 C 
BRANCH   9  11
ATOM     11  N   LIG    1       25.922 -13.899   3.615  0.00  0.00    -0.293 NA
BRANCH  11  13
ATOM     12  C   LIG    1       28.357 -13.166   3.823  0.00  0.00    +0.020 C 
ATOM     13  C   LIG    1       27.125 -13.802   4.460  0.00  0.00    +0.082 C 
ENDBRANCH  11  13
BRANCH  11  14
ATOM     14  C   LIG    1       25.968 -12.995   2.446  0.00  0.00    +0.082 C 
ATOM     15  C   LIG    1       24.609 -12.365   2.142  0.00  0.00    +0.020 C 
ENDBRANCH  11  14
ENDBRANCH   9  11
ENDBRANCH   1   9
TORSDOF 5
ENDMDL
MODEL 8
REMARK VINA RESULT:      -3.4      2.637      4.388
REMARK  Name = *****
REMARK                            x       y       z     vdW  Elec       q    Type
REMARK                         _______ _______ _______ _____ _____    ______ ____
ROOT
ATOM      1  C   LIG    1       25.439 -18.185   3.408  0.00  0.00    +0.180 C 
ATOM      2  O   LIG    1       25.716 -18.695   2.310  0.00  0.00    -0.290 OA
ENDROOT
BRANCH   1   3
ATOM      3  C   LIG    1       25.535 -16.695   3.553  0.00  0.00    +0.019 A 
ATOM      4  C   LIG    1       26.779 -16.070   3.396  0.00  0.00    +0.011 A 
ATOM      5  C   LIG    1       26.893 -14.682   3.520  0.00  0.00    +0.001 A 
ATOM      6  C   LIG    1       25.766 -13.907   3.793  0.00  0.00    +0.000 A 
ATOM      7  C   LIG    1       24.529 -14.516   3.957  0.00  0.00    +0.001 A 
ATOM      8  C   LIG    1       24.419 -15.901   3.852  0.00  0.00    +0.011 A 
ENDBRANCH   1   3
BRANCH   1   9
ATOM      9  C   LIG    1       24.980 -19.076   4.585  0.00  0.00    +0.125 C 
ATOM     10  C   LIG    1       26.113 -20.078   4.877  0.00  0.00    +0.032 C 
BRANCH   9  11
ATOM     11  N   LIG    1       23.652 -19.710   4.328  0.00  0.00    -0.293 NA
BRANCH  11  13
ATOM     12  C   LIG    1       22.860 -21.571   5.882  0.00  0.00    +0.020 C 
ATOM     13  C   LIG    1       23.619 -21.152   4.627  0.00  0.00    +0.082 C 
ENDBRANCH  11  13
BRANCH  11  14
ATOM     14  C   LIG    1       22.527 -18.971   4.939  0.00  0.00    +0.082 C 
ATOM     15  C   LIG    1       21.589 -18.368   3.895  0.00  0.00    +0.020 C 
ENDBRANCH  11  14
ENDBRANCH   9  11
ENDBRANCH   1   9
TORSDOF 5
ENDMDL
MODEL 9
REMARK VINA RESULT:      -3.1      4.207      6.333
REMARK  Name = *****
REMARK                            x       y       z     vdW  Elec       q    Type
REMARK                         _______ _______ _______ _____ _____    ______ ____
ROOT
ATOM      1  C   LIG    1       23.913 -15.519   4.251  0.00  0.00    +0.180 C 
ATOM      2  O   LIG    1       22.797 -15.070   4.561  0.00  0.00    -0.290 OA
ENDROOT
BRANCH   1   3
ATOM      3  C   LIG    1       24.053 -16.994   4.016  0.00  0.00    +0.019 A 
ATOM      4  C   LIG    1       22.960 -17.834   4.263  0.00  0.00    +0.011 A 
ATOM      5  C   LIG    1       23.063 -19.212   4.046  0.00  0.00    +0.001 A 
ATOM      6  C   LIG    1       24.256 -19.759   3.573  0.00  0.00    +0.000 A 
ATOM      7  C   LIG    1       25.349 -18.937   3.331  0.00  0.00    +0.001 A 
ATOM      8  C   LIG    1       25.250 -17.567   3.565  0.00  0.00    +0.011 A 
ENDBRANCH   1   3
BRANCH   1   9
ATOM      9  C   LIG    1       25.117 -14.565   4.088  0.00  0.00    +0.125 C 
ATOM     10  C   LIG    1       24.924 -13.399   5.078  0.00  0.00    +0.032 C 
BRANCH   9  11
ATOM     11  N   LIG    1       25.311 -14.138   2.669  0.00  0.00    -0.293 NA
BRANCH  11  13
ATOM     12  C   LIG    1       25.021 -11.753   1.813  0.00  0.00    +0.020 C 
ATOM     13  C   LIG    1       24.388 -13.073   2.242  0.00  0.00    +0.082 C 
ENDBRANCH  11  13
BRANCH  11  14
ATOM     14  C   LIG    1       26.721 -13.842   2.339  0.00  0.00    +0.082 C 
ATOM     15  C   LIG    1       27.673 -14.189   3.484  0.00  0.00    +0.020 C 
ENDBRANCH  11  14
ENDBRANCH   9  11
ENDBRANCH   1   9
TORSDOF 5
ENDMDL
