MODEL 1
REMARK VINA RESULT:      -3.9      0.000      0.000
REMARK  Name = *****
REMARK                            x       y       z     vdW  Elec       q    Type
REMARK                         _______ _______ _______ _____ _____    ______ ____
ROOT
ATOM      1  C   LIG    1       21.155 -31.585  14.423  0.00  0.00    +0.218 C 
ATOM      2  C   LIG    1       21.895 -31.707  12.996  0.00  0.00    +0.188 C 
ATOM      3  C   LIG    1       22.824 -30.499  12.293  0.00  0.00    +0.157 C 
ATOM      4  C   LIG    1       22.764 -29.167  13.151  0.00  0.00    +0.028 C 
ATOM      5  C   LIG    1       21.356 -28.499  13.228  0.00  0.00    +0.012 C 
ATOM      6  C   LIG    1       21.259 -27.095  13.926  0.00  0.00    +0.019 C 
ATOM      7  C   LIG    1       21.234 -25.938  12.917  0.00  0.00    +0.010 C 
ATOM      8  C   LIG    1       20.080 -26.985  14.933  0.00  0.00    +0.140 C 
ATOM      9  C   LIG    1       18.812 -27.693  14.517  0.00  0.00    +0.004 C 
ATOM     10  C   LIG    1       18.410 -28.771  15.209  0.00  0.00    -0.002 C 
ATOM     11  C   LIG    1       17.468 -29.807  14.878  0.00  0.00    -0.004 C 
ATOM     12  C   LIG    1       16.796 -29.987  13.735  0.00  0.00    -0.023 C 
ATOM     13  C   LIG    1       16.120 -31.299  13.428  0.00  0.00    +0.071 C 
ATOM     14  C   LIG    1       17.041 -32.530  13.150  0.00  0.00    +0.177 C 
ATOM     15  C   LIG    1       17.038 -32.860  11.649  0.00  0.00    +0.052 C 
ATOM     16  O   LIG    1       18.421 -32.344  13.594  0.00  0.00    -0.461 OA
ATOM     17  C   LIG    1       18.904 -33.050  14.642  0.00  0.00    +0.311 C 
ATOM     18  O   LIG    1       18.217 -33.824  15.308  0.00  0.00    -0.251 OA
ATOM     19  C   LIG    1       20.398 -32.860  14.930  0.00  0.00    +0.168 C 
ENDROOT
BRANCH   8  20
ATOM     20  O   LIG    1       19.790 -25.628  15.236  0.00  0.00    -0.388 OA
ATOM     21  H   LIG    1       20.506 -25.285  15.794  0.00  0.00    +0.210 HD
ENDBRANCH   8  20
BRANCH   2  22
ATOM     22  O   LIG    1       21.070 -32.383  12.051  0.00  0.00    -0.373 OA
ATOM     23  C   LIG    1       21.630 -33.557  11.499  0.00  0.00    +0.194 C 
ENDBRANCH   2  22
BRANCH   3  24
ATOM     24  O   LIG    1       22.665 -30.444  10.798  0.00  0.00    -0.343 OA
BRANCH  24  25
ATOM     25  C   LIG    1       23.599 -29.694   9.964  0.00  0.00    +0.281 C 
ATOM     26  C   LIG    1       25.168 -29.815  10.211  0.00  0.00    +0.190 C 
ATOM     27  C   LIG    1       26.078 -30.275   8.896  0.00  0.00    +0.121 C 
ATOM     28  C   LIG    1       25.597 -29.432   7.680  0.00  0.00    +0.169 C 
ATOM     29  C   LIG    1       24.072 -29.387   7.687  0.00  0.00    +0.149 C 
ATOM     30  C   LIG    1       23.486 -29.949   6.389  0.00  0.00    +0.040 C 
ATOM     31  O   LIG    1       23.462 -30.193   8.670  0.00  0.00    -0.343 OA
BRANCH  27  32
ATOM     32  N   LIG    1       26.238 -31.747   8.592  0.00  0.00    -0.301 NA
ATOM     33  C   LIG    1       26.567 -32.015   7.203  0.00  0.00    +0.105 C 
ATOM     34  C   LIG    1       27.087 -32.594   9.462  0.00  0.00    +0.105 C 
ENDBRANCH  27  32
BRANCH  26  35
ATOM     35  O   LIG    1       25.585 -28.468  10.567  0.00  0.00    -0.385 OA
ATOM     36  H   LIG    1       25.285 -28.292  11.476  0.00  0.00    +0.210 HD
ENDBRANCH  26  35
BRANCH  28  37
ATOM     37  O   LIG    1       26.200 -28.116   7.741  0.00  0.00    -0.344 OA
BRANCH  37  38
ATOM     38  C   LIG    1       26.402 -27.314   6.560  0.00  0.00    +0.254 C 
ATOM     39  O   LIG    1       26.852 -25.965   6.747  0.00  0.00    -0.344 OA
ATOM     40  C   LIG    1       25.812 -25.051   7.044  0.00  0.00    +0.162 C 
ATOM     41  C   LIG    1       26.329 -23.749   7.629  0.00  0.00    +0.042 C 
ATOM     42  C   LIG    1       24.665 -24.912   6.014  0.00  0.00    +0.236 C 
ATOM     43  C   LIG    1       24.654 -26.127   5.062  0.00  0.00    +0.107 C 
ATOM     44  C   LIG    1       25.353 -25.609   3.818  0.00  0.00    +0.045 C 
ATOM     45  C   LIG    1       25.284 -27.435   5.544  0.00  0.00    +0.099 C 
BRANCH  43  46
ATOM     46  O   LIG    1       23.321 -26.524   4.687  0.00  0.00    -0.385 OA
ATOM     47  H   LIG    1       23.097 -26.044   3.869  0.00  0.00    +0.210 HD
ENDBRANCH  43  46
BRANCH  42  48
ATOM     48  O   LIG    1       23.362 -24.789   6.651  0.00  0.00    -0.456 OA
BRANCH  48  49
ATOM     49  C   LIG    1       22.710 -23.575   6.663  0.00  0.00    +0.307 C 
ATOM     50  O   LIG    1       21.588 -23.386   6.988  0.00  0.00    -0.251 OA
BRANCH  49  51
ATOM     51  C   LIG    1       23.702 -22.486   6.245  0.00  0.00    +0.117 C 
ATOM     52  C   LIG    1       22.928 -21.214   5.981  0.00  0.00    +0.015 C 
ENDBRANCH  49  51
ENDBRANCH  48  49
ENDBRANCH  42  48
ENDBRANCH  37  38
ENDBRANCH  28  37
ENDBRANCH  24  25
ENDBRANCH   3  24
BRANCH   4  53
ATOM     53  C   LIG    1       23.719 -28.074  12.746  0.00  0.00    +0.077 C 
BRANCH  53  54
ATOM     54  C   LIG    1       24.946 -27.855  13.512  0.00  0.00    +0.223 C 
ATOM     55  O   LIG    1       25.817 -26.961  13.079  0.00  0.00    -0.301 OA
ENDBRANCH  53  54
ENDBRANCH   4  53
BRANCH   1  56
ATOM     56  O   LIG    1       22.178 -31.268  15.425  0.00  0.00    -0.458 OA
BRANCH  56  57
ATOM     57  C   LIG    1       23.286 -32.060  15.487  0.00  0.00    +0.307 C 
ATOM     58  O   LIG    1       23.266 -33.284  15.500  0.00  0.00    -0.251 OA
BRANCH  57  60
ATOM     59  C   LIG    1       25.388 -31.487  14.241  0.00  0.00    +0.015 C 
ATOM     60  C   LIG    1       24.569 -31.260  15.500  0.00  0.00    +0.117 C 
ENDBRANCH  57  60
ENDBRANCH  56  57
ENDBRANCH   1  56
TORSDOF 17
ENDMDL
MODEL 2
REMARK VINA RESULT:      -1.5      2.154      2.960
REMARK  Name = *****
REMARK                            x       y       z     vdW  Elec       q    Type
REMARK                         _______ _______ _______ _____ _____    ______ ____
ROOT
ATOM      1  C   LIG    1       23.323 -32.677  13.389  0.00  0.00    +0.218 C 
ATOM      2  C   LIG    1       24.225 -33.247  12.182  0.00  0.00    +0.188 C 
ATOM      3  C   LIG    1       25.588 -32.485  11.563  0.00  0.00    +0.157 C 
ATOM      4  C   LIG    1       25.789 -31.059  12.226  0.00  0.00    +0.028 C 
ATOM      5  C   LIG    1       24.663 -30.026  11.917  0.00  0.00    +0.012 C 
ATOM      6  C   LIG    1       24.880 -28.549  12.409  0.00  0.00    +0.019 C 
ATOM      7  C   LIG    1       25.386 -27.626  11.292  0.00  0.00    +0.010 C 
ATOM      8  C   LIG    1       23.635 -27.944  13.116  0.00  0.00    +0.140 C 
ATOM      9  C   LIG    1       22.304 -28.334  12.518  0.00  0.00    +0.004 C 
ATOM     10  C   LIG    1       21.478 -29.121  13.226  0.00  0.00    -0.002 C 
ATOM     11  C   LIG    1       20.336 -29.898  12.821  0.00  0.00    -0.004 C 
ATOM     12  C   LIG    1       19.851 -30.083  11.587  0.00  0.00    -0.023 C 
ATOM     13  C   LIG    1       18.869 -31.189  11.295  0.00  0.00    +0.071 C 
ATOM     14  C   LIG    1       19.404 -32.656  11.369  0.00  0.00    +0.177 C 
ATOM     15  C   LIG    1       19.560 -33.230   9.952  0.00  0.00    +0.052 C 
ATOM     16  O   LIG    1       20.676 -32.784  12.078  0.00  0.00    -0.461 OA
ATOM     17  C   LIG    1       20.729 -33.401  13.281  0.00  0.00    +0.311 C 
ATOM     18  O   LIG    1       19.734 -33.825  13.867  0.00  0.00    -0.251 OA
ATOM     19  C   LIG    1       22.136 -33.584  13.863  0.00  0.00    +0.168 C 
ENDROOT
BRANCH   8  20
ATOM     20  O   LIG    1       23.726 -26.527  13.189  0.00  0.00    -0.388 OA
ATOM     21  H   LIG    1       23.711 -26.179  12.284  0.00  0.00    +0.210 HD
ENDBRANCH   8  20
BRANCH   2  22
ATOM     22  O   LIG    1       23.410 -33.823  11.164  0.00  0.00    -0.373 OA
ATOM     23  C   LIG    1       22.887 -32.906  10.226  0.00  0.00    +0.194 C 
ENDBRANCH   2  22
BRANCH   3  24
ATOM     24  O   LIG    1       25.715 -32.650  10.072  0.00  0.00    -0.343 OA
BRANCH  24  25
ATOM     25  C   LIG    1       25.382 -31.564   9.158  0.00  0.00    +0.281 C 
ATOM     26  C   LIG    1       26.536 -30.792   8.377  0.00  0.00    +0.190 C 
ATOM     27  C   LIG    1       26.394 -30.757   6.720  0.00  0.00    +0.121 C 
ATOM     28  C   LIG    1       24.920 -30.388   6.386  0.00  0.00    +0.169 C 
ATOM     29  C   LIG    1       23.997 -31.183   7.303  0.00  0.00    +0.149 C 
ATOM     30  C   LIG    1       23.019 -32.050   6.505  0.00  0.00    +0.040 C 
ATOM     31  O   LIG    1       24.648 -32.132   8.119  0.00  0.00    -0.343 OA
BRANCH  27  32
ATOM     32  N   LIG    1       26.930 -31.917   5.912  0.00  0.00    -0.301 NA
ATOM     33  C   LIG    1       27.749 -32.830   6.689  0.00  0.00    +0.105 C 
ATOM     34  C   LIG    1       26.017 -32.703   5.050  0.00  0.00    +0.105 C 
ENDBRANCH  27  32
BRANCH  26  35
ATOM     35  O   LIG    1       26.434 -29.418   8.842  0.00  0.00    -0.385 OA
ATOM     36  H   LIG    1       27.128 -29.276   9.510  0.00  0.00    +0.210 HD
ENDBRANCH  26  35
BRANCH  28  37
ATOM     37  O   LIG    1       24.745 -28.955   6.514  0.00  0.00    -0.344 OA
BRANCH  37  38
ATOM     38  C   LIG    1       24.990 -28.055   5.414  0.00  0.00    +0.254 C 
ATOM     39  O   LIG    1       26.347 -27.662   5.173  0.00  0.00    -0.344 OA
ATOM     40  C   LIG    1       26.786 -26.592   5.989  0.00  0.00    +0.162 C 
ATOM     41  C   LIG    1       28.298 -26.461   6.016  0.00  0.00    +0.042 C 
ATOM     42  C   LIG    1       26.002 -25.259   5.907  0.00  0.00    +0.236 C 
ATOM     43  C   LIG    1       24.615 -25.497   5.270  0.00  0.00    +0.107 C 
ATOM     44  C   LIG    1       24.806 -25.059   3.829  0.00  0.00    +0.045 C 
ATOM     45  C   LIG    1       24.012 -26.900   5.344  0.00  0.00    +0.099 C 
BRANCH  43  46
ATOM     46  O   LIG    1       23.591 -24.668   5.851  0.00  0.00    -0.385 OA
ATOM     47  H   LIG    1       23.694 -24.718   6.819  0.00  0.00    +0.210 HD
ENDBRANCH  43  46
BRANCH  42  48
ATOM     48  O   LIG    1       25.832 -24.637   7.211  0.00  0.00    -0.456 OA
BRANCH  48  49
ATOM     49  C   LIG    1       25.520 -23.298   7.303  0.00  0.00    +0.307 C 
ATOM     50  O   LIG    1       24.437 -22.838   7.422  0.00  0.00    -0.251 OA
BRANCH  49  51
ATOM     51  C   LIG    1       26.822 -22.493   7.289  0.00  0.00    +0.117 C 
ATOM     52  C   LIG    1       26.559 -21.173   6.600  0.00  0.00    +0.015 C 
ENDBRANCH  49  51
ENDBRANCH  48  49
ENDBRANCH  42  48
ENDBRANCH  37  38
ENDBRANCH  28  37
ENDBRANCH  24  25
ENDBRANCH   3  24
BRANCH   4  53
ATOM     53  C   LIG    1       27.088 -30.361  11.916  0.00  0.00    +0.077 C 
BRANCH  53  54
ATOM     54  C   LIG    1       28.129 -30.263  12.939  0.00  0.00    +0.223 C 
ATOM     55  O   LIG    1       28.804 -29.134  13.055  0.00  0.00    -0.301 OA
ENDBRANCH  53  54
ENDBRANCH   4  53
BRANCH   1  56
ATOM     56  O   LIG    1       24.203 -32.484  14.546  0.00  0.00    -0.458 OA
BRANCH  56  57
ATOM     57  C   LIG    1       24.230 -31.257  15.137  0.00  0.00    +0.307 C 
ATOM     58  O   LIG    1       23.239 -30.581  15.383  0.00  0.00    -0.251 OA
BRANCH  57  60
ATOM     59  C   LIG    1       25.770 -29.307  15.494  0.00  0.00    +0.015 C 
ATOM     60  C   LIG    1       25.631 -30.819  15.499  0.00  0.00    +0.117 C 
ENDBRANCH  57  60
ENDBRANCH  56  57
ENDBRANCH   1  56
TORSDOF 17
ENDMDL
MODEL 3
REMARK VINA RESULT:      -1.3      2.422      4.248
REMARK  Name = *****
REMARK                            x       y       z     vdW  Elec       q    Type
REMARK                         _______ _______ _______ _____ _____    ______ ____
ROOT
ATOM      1  C   LIG    1       23.926 -31.885  11.411  0.00  0.00    +0.218 C 
ATOM      2  C   LIG    1       24.086 -31.345   9.900  0.00  0.00    +0.188 C 
ATOM      3  C   LIG    1       25.100 -30.089   9.436  0.00  0.00    +0.157 C 
ATOM      4  C   LIG    1       25.774 -29.408  10.699  0.00  0.00    +0.028 C 
ATOM      5  C   LIG    1       24.782 -28.692  11.666  0.00  0.00    +0.012 C 
ATOM      6  C   LIG    1       25.398 -27.862  12.849  0.00  0.00    +0.019 C 
ATOM      7  C   LIG    1       25.451 -26.357  12.546  0.00  0.00    +0.010 C 
ATOM      8  C   LIG    1       24.711 -28.133  14.217  0.00  0.00    +0.140 C 
ATOM      9  C   LIG    1       23.215 -28.334  14.157  0.00  0.00    +0.004 C 
ATOM     10  C   LIG    1       22.710 -29.548  14.432  0.00  0.00    -0.002 C 
ATOM     11  C   LIG    1       21.417 -30.117  14.157  0.00  0.00    -0.004 C 
ATOM     12  C   LIG    1       20.399 -29.577  13.475  0.00  0.00    -0.023 C 
ATOM     13  C   LIG    1       19.254 -30.427  12.985  0.00  0.00    +0.071 C 
ATOM     14  C   LIG    1       19.560 -31.445  11.840  0.00  0.00    +0.177 C 
ATOM     15  C   LIG    1       18.969 -30.939  10.515  0.00  0.00    +0.052 C 
ATOM     16  O   LIG    1       20.985 -31.712  11.654  0.00  0.00    -0.461 OA
ATOM     17  C   LIG    1       21.502 -32.920  11.973  0.00  0.00    +0.311 C 
ATOM     18  O   LIG    1       20.842 -33.824  12.483  0.00  0.00    -0.251 OA
ATOM     19  C   LIG    1       22.981 -33.118  11.615  0.00  0.00    +0.168 C 
ENDROOT
BRANCH   8  20
ATOM     20  O   LIG    1       25.014 -27.109  15.155  0.00  0.00    -0.388 OA
ATOM     21  H   LIG    1       24.704 -27.398  16.027  0.00  0.00    +0.210 HD
ENDBRANCH   8  20
BRANCH   2  22
ATOM     22  O   LIG    1       22.826 -31.305   9.237  0.00  0.00    -0.373 OA
ATOM     23  C   LIG    1       22.635 -32.303   8.256  0.00  0.00    +0.194 C 
ENDBRANCH   2  22
BRANCH   3  24
ATOM     24  O   LIG    1       24.504 -29.239   8.346  0.00  0.00    -0.343 OA
BRANCH  24  25
ATOM     25  C   LIG    1       25.089 -27.953   7.984  0.00  0.00    +0.281 C 
ATOM     26  C   LIG    1       26.463 -27.896   7.179  0.00  0.00    +0.190 C 
ATOM     27  C   LIG    1       26.435 -27.040   5.752  0.00  0.00    +0.121 C 
ATOM     28  C   LIG    1       25.700 -25.698   6.029  0.00  0.00    +0.169 C 
ATOM     29  C   LIG    1       24.463 -25.982   6.876  0.00  0.00    +0.149 C 
ATOM     30  C   LIG    1       23.184 -25.507   6.182  0.00  0.00    +0.040 C 
ATOM     31  O   LIG    1       24.200 -27.349   7.096  0.00  0.00    -0.343 OA
BRANCH  27  32
ATOM     32  N   LIG    1       25.982 -27.735   4.489  0.00  0.00    -0.301 NA
ATOM     33  C   LIG    1       25.297 -28.992   4.736  0.00  0.00    +0.105 C 
ATOM     34  C   LIG    1       25.241 -26.978   3.453  0.00  0.00    +0.105 C 
ENDBRANCH  27  32
BRANCH  26  35
ATOM     35  O   LIG    1       27.379 -27.204   8.072  0.00  0.00    -0.385 OA
ATOM     36  H   LIG    1       27.862 -26.540   7.549  0.00  0.00    +0.210 HD
ENDBRANCH  26  35
BRANCH  28  37
ATOM     37  O   LIG    1       26.616 -24.772   6.662  0.00  0.00    -0.344 OA
BRANCH  37  38
ATOM     38  C   LIG    1       26.152 -23.673   7.473  0.00  0.00    +0.254 C 
ATOM     39  O   LIG    1       24.761 -23.332   7.388  0.00  0.00    -0.344 OA
ATOM     40  C   LIG    1       24.443 -22.499   6.288  0.00  0.00    +0.162 C 
ATOM     41  C   LIG    1       22.957 -22.483   5.980  0.00  0.00    +0.042 C 
ATOM     42  C   LIG    1       25.159 -21.129   6.197  0.00  0.00    +0.236 C 
ATOM     43  C   LIG    1       26.416 -21.125   7.094  0.00  0.00    +0.107 C 
ATOM     44  C   LIG    1       25.957 -20.398   8.345  0.00  0.00    +0.045 C 
ATOM     45  C   LIG    1       27.065 -22.465   7.442  0.00  0.00    +0.099 C 
BRANCH  43  46
ATOM     46  O   LIG    1       27.502 -20.373   6.520  0.00  0.00    -0.385 OA
ATOM     47  H   LIG    1       27.151 -19.912   5.737  0.00  0.00    +0.210 HD
ENDBRANCH  43  46
BRANCH  42  48
ATOM     48  O   LIG    1       25.540 -20.795   4.833  0.00  0.00    -0.456 OA
BRANCH  48  49
ATOM     49  C   LIG    1       24.572 -20.518   3.892  0.00  0.00    +0.307 C 
ATOM     50  O   LIG    1       24.154 -21.266   3.077  0.00  0.00    -0.251 OA
BRANCH  49  51
ATOM     51  C   LIG    1       24.073 -19.088   4.115  0.00  0.00    +0.117 C 
ATOM     52  C   LIG    1       22.748 -19.154   4.841  0.00  0.00    +0.015 C 
ENDBRANCH  49  51
ENDBRANCH  48  49
ENDBRANCH  42  48
ENDBRANCH  37  38
ENDBRANCH  28  37
ENDBRANCH  24  25
ENDBRANCH   3  24
BRANCH   4  53
ATOM     53  C   LIG    1       26.864 -28.410  10.410  0.00  0.00    +0.077 C 
BRANCH  53  54
ATOM     54  C   LIG    1       28.155 -28.519  11.090  0.00  0.00    +0.223 C 
ATOM     55  O   LIG    1       28.561 -29.707  11.502  0.00  0.00    -0.301 OA
ENDBRANCH  53  54
ENDBRANCH   4  53
BRANCH   1  56
ATOM     56  O   LIG    1       25.257 -32.284  11.881  0.00  0.00    -0.458 OA
BRANCH  56  57
ATOM     57  C   LIG    1       25.393 -32.659  13.184  0.00  0.00    +0.307 C 
ATOM     58  O   LIG    1       25.496 -33.817  13.567  0.00  0.00    -0.251 OA
BRANCH  57  60
ATOM     59  C   LIG    1       26.413 -31.707  15.271  0.00  0.00    +0.015 C 
ATOM     60  C   LIG    1       25.442 -31.477  14.125  0.00  0.00    +0.117 C 
ENDBRANCH  57  60
ENDBRANCH  56  57
ENDBRANCH   1  56
TORSDOF 17
ENDMDL
MODEL 4
REMARK VINA RESULT:      -1.1      1.570      2.201
REMARK  Name = *****
REMARK                            x       y       z     vdW  Elec       q    Type
REMARK                         _______ _______ _______ _____ _____    ______ ____
ROOT
ATOM      1  C   LIG    1       21.594 -32.221  13.331  0.00  0.00    +0.218 C 
ATOM      2  C   LIG    1       21.939 -32.203  11.757  0.00  0.00    +0.188 C 
ATOM      3  C   LIG    1       23.104 -31.227  11.044  0.00  0.00    +0.157 C 
ATOM      4  C   LIG    1       23.724 -30.221  12.100  0.00  0.00    +0.028 C 
ATOM      5  C   LIG    1       22.722 -29.173  12.676  0.00  0.00    +0.012 C 
ATOM      6  C   LIG    1       23.306 -28.048  13.604  0.00  0.00    +0.019 C 
ATOM      7  C   LIG    1       23.529 -26.726  12.855  0.00  0.00    +0.010 C 
ATOM      8  C   LIG    1       22.477 -27.824  14.900  0.00  0.00    +0.140 C 
ATOM      9  C   LIG    1       20.980 -27.942  14.734  0.00  0.00    +0.004 C 
ATOM     10  C   LIG    1       20.339 -28.970  15.314  0.00  0.00    -0.002 C 
ATOM     11  C   LIG    1       19.028 -29.516  15.083  0.00  0.00    -0.004 C 
ATOM     12  C   LIG    1       18.131 -29.162  14.155  0.00  0.00    -0.023 C 
ATOM     13  C   LIG    1       16.959 -30.052  13.826  0.00  0.00    +0.071 C 
ATOM     14  C   LIG    1       17.268 -31.399  13.098  0.00  0.00    +0.177 C 
ATOM     15  C   LIG    1       16.848 -31.307  11.623  0.00  0.00    +0.052 C 
ATOM     16  O   LIG    1       18.672 -31.798  13.169  0.00  0.00    -0.461 OA
ATOM     17  C   LIG    1       19.042 -32.870  13.906  0.00  0.00    +0.311 C 
ATOM     18  O   LIG    1       18.256 -33.521  14.593  0.00  0.00    -0.251 OA
ATOM     19  C   LIG    1       20.521 -33.263  13.800  0.00  0.00    +0.168 C 
ENDROOT
BRANCH   8  20
ATOM     20  O   LIG    1       22.791 -26.575  15.500  0.00  0.00    -0.388 OA
ATOM     21  H   LIG    1       23.752 -26.539  15.632  0.00  0.00    +0.210 HD
ENDBRANCH   8  20
BRANCH   2  22
ATOM     22  O   LIG    1       20.752 -32.300  10.974  0.00  0.00    -0.373 OA
ATOM     23  C   LIG    1       20.301 -33.616  10.731  0.00  0.00    +0.194 C 
ENDBRANCH   2  22
BRANCH   3  24
ATOM     24  O   LIG    1       22.691 -30.735   9.682  0.00  0.00    -0.343 OA
BRANCH  24  25
ATOM     25  C   LIG    1       23.668 -30.559   8.613  0.00  0.00    +0.281 C 
ATOM     26  C   LIG    1       25.224 -30.711   8.916  0.00  0.00    +0.190 C 
ATOM     27  C   LIG    1       26.042 -31.820   7.983  0.00  0.00    +0.121 C 
ATOM     28  C   LIG    1       25.609 -31.594   6.506  0.00  0.00    +0.169 C 
ATOM     29  C   LIG    1       24.097 -31.395   6.463  0.00  0.00    +0.149 C 
ATOM     30  C   LIG    1       23.417 -32.432   5.565  0.00  0.00    +0.040 C 
ATOM     31  O   LIG    1       23.441 -31.585   7.697  0.00  0.00    -0.343 OA
BRANCH  27  32
ATOM     32  N   LIG    1       26.045 -33.272   8.402  0.00  0.00    -0.301 NA
ATOM     33  C   LIG    1       27.380 -33.825   8.551  0.00  0.00    +0.105 C 
ATOM     34  C   LIG    1       25.209 -33.716   9.541  0.00  0.00    +0.105 C 
ENDBRANCH  27  32
BRANCH  26  35
ATOM     35  O   LIG    1       25.784 -29.404   8.612  0.00  0.00    -0.385 OA
ATOM     36  H   LIG    1       26.449 -29.520   7.911  0.00  0.00    +0.210 HD
ENDBRANCH  26  35
BRANCH  28  37
ATOM     37  O   LIG    1       26.341 -30.470   5.959  0.00  0.00    -0.344 OA
BRANCH  37  38
ATOM     38  C   LIG    1       25.754 -29.575   4.993  0.00  0.00    +0.254 C 
ATOM     39  O   LIG    1       26.646 -28.758   4.222  0.00  0.00    -0.344 OA
ATOM     40  C   LIG    1       27.060 -27.578   4.886  0.00  0.00    +0.162 C 
ATOM     41  C   LIG    1       28.286 -26.950   4.249  0.00  0.00    +0.042 C 
ATOM     42  C   LIG    1       25.960 -26.587   5.337  0.00  0.00    +0.236 C 
ATOM     43  C   LIG    1       24.586 -27.293   5.365  0.00  0.00    +0.107 C 
ATOM     44  C   LIG    1       23.939 -26.861   4.061  0.00  0.00    +0.045 C 
ATOM     45  C   LIG    1       24.553 -28.814   5.518  0.00  0.00    +0.099 C 
BRANCH  43  46
ATOM     46  O   LIG    1       23.751 -26.836   6.445  0.00  0.00    -0.385 OA
ATOM     47  H   LIG    1       24.326 -26.362   7.073  0.00  0.00    +0.210 HD
ENDBRANCH  43  46
BRANCH  42  48
ATOM     48  O   LIG    1       26.233 -26.017   6.648  0.00  0.00    -0.456 OA
BRANCH  48  49
ATOM     49  C   LIG    1       25.821 -24.736   6.945  0.00  0.00    +0.307 C 
ATOM     50  O   LIG    1       26.160 -24.090   7.875  0.00  0.00    -0.251 OA
BRANCH  49  51
ATOM     51  C   LIG    1       24.891 -24.254   5.829  0.00  0.00    +0.117 C 
ATOM     52  C   LIG    1       23.741 -23.500   6.459  0.00  0.00    +0.015 C 
ENDBRANCH  49  51
ENDBRANCH  48  49
ENDBRANCH  42  48
ENDBRANCH  37  38
ENDBRANCH  28  37
ENDBRANCH  24  25
ENDBRANCH   3  24
BRANCH   4  53
ATOM     53  C   LIG    1       24.926 -29.436  11.642  0.00  0.00    +0.077 C 
BRANCH  53  54
ATOM     54  C   LIG    1       26.036 -29.195  12.563  0.00  0.00    +0.223 C 
ATOM     55  O   LIG    1       26.549 -27.980  12.640  0.00  0.00    -0.301 OA
ENDBRANCH  53  54
ENDBRANCH   4  53
BRANCH   1  56
ATOM     56  O   LIG    1       22.833 -32.529  14.052  0.00  0.00    -0.458 OA
BRANCH  56  57
ATOM     57  C   LIG    1       23.267 -31.644  14.993  0.00  0.00    +0.307 C 
ATOM     58  O   LIG    1       22.574 -30.771  15.499  0.00  0.00    -0.251 OA
BRANCH  57  60
ATOM     59  C   LIG    1       25.475 -32.622  14.305  0.00  0.00    +0.015 C 
ATOM     60  C   LIG    1       24.709 -31.877  15.385  0.00  0.00    +0.117 C 
ENDBRANCH  57  60
ENDBRANCH  56  57
ENDBRANCH   1  56
TORSDOF 17
ENDMDL
