MODEL 1
REMARK VINA RESULT:      -8.4      0.000      0.000
REMARK  Name = *****
REMARK                            x       y       z     vdW  Elec       q    Type
REMARK                         _______ _______ _______ _____ _____    ______ ____
ROOT
ATOM      1  C   LIG    1       25.032 -30.580  10.618  0.00  0.00    +0.162 A 
ATOM      2  C   LIG    1       24.007 -31.202   9.862  0.00  0.00    +0.162 A 
ATOM      3  C   LIG    1       23.732 -30.742   8.567  0.00  0.00    +0.061 A 
ATOM      4  C   LIG    1       24.499 -29.710   8.056  0.00  0.00    +0.025 A 
ATOM      5  C   LIG    1       24.400 -29.078   6.747  0.00  0.00    +0.167 C 
ATOM      6  C   LIG    1       25.406 -27.950   6.626  0.00  0.00    +0.065 C 
ATOM      7  C   LIG    1       26.215 -28.049   7.960  0.00  0.00    +0.047 C 
ATOM      8  O   LIG    1       23.608 -29.446   5.886  0.00  0.00    -0.292 OA
ATOM      9  C   LIG    1       25.515 -29.102   8.762  0.00  0.00    -0.033 A 
ATOM     10  C   LIG    1       25.785 -29.528  10.054  0.00  0.00    +0.053 A 
ENDROOT
BRANCH   1  12
ATOM     11  C   LIG    1       26.260 -29.923  12.570  0.00  0.00    +0.277 C 
ATOM     12  O   LIG    1       25.382 -30.832  11.921  0.00  0.00    -0.491 OA
ENDBRANCH   1  12
BRANCH   2  13
ATOM     13  O   LIG    1       23.247 -32.184  10.445  0.00  0.00    -0.491 OA
ATOM     14  C   LIG    1       21.927 -32.338   9.927  0.00  0.00    +0.277 C 
ENDBRANCH   2  13
BRANCH   6  15
ATOM     15  C   LIG    1       24.743 -26.571   6.434  0.00  0.00    +0.015 C 
BRANCH  15  16
ATOM     16  C   LIG    1       25.590 -25.474   5.720  0.00  0.00    -0.008 C 
ATOM     17  C   LIG    1       24.699 -24.522   4.893  0.00  0.00    +0.019 C 
ATOM     18  C   LIG    1       23.905 -23.528   5.759  0.00  0.00    +0.085 C 
ATOM     19  N   LIG    1       24.690 -22.792   6.766  0.00  0.00    -0.298 NA
ATOM     20  C   LIG    1       25.549 -23.709   7.529  0.00  0.00    +0.085 C 
ATOM     21  C   LIG    1       26.435 -24.594   6.650  0.00  0.00    +0.019 C 
BRANCH  19  22
ATOM     22  C   LIG    1       25.397 -21.629   6.195  0.00  0.00    +0.119 C 
BRANCH  22  23
ATOM     23  C   LIG    1       24.486 -20.683   5.426  0.00  0.00    -0.033 A 
ATOM     24  C   LIG    1       24.906 -20.118   4.210  0.00  0.00    +0.005 A 
ATOM     25  C   LIG    1       24.127 -19.162   3.556  0.00  0.00    +0.000 A 
ATOM     26  C   LIG    1       22.896 -18.788   4.087  0.00  0.00    +0.000 A 
ATOM     27  C   LIG    1       22.444 -19.369   5.270  0.00  0.00    +0.000 A 
ATOM     28  C   LIG    1       23.238 -20.304   5.942  0.00  0.00    +0.005 A 
ENDBRANCH  22  23
ENDBRANCH  19  22
ENDBRANCH  15  16
ENDBRANCH   6  15
TORSDOF 6
ENDMDL
MODEL 2
REMARK VINA RESULT:      -8.3      4.552      9.475
REMARK  Name = *****
REMARK                            x       y       z     vdW  Elec       q    Type
REMARK                         _______ _______ _______ _____ _____    ______ ____
ROOT
ATOM      1  C   LIG    1       28.837 -20.508   7.766  0.00  0.00    +0.162 A 
ATOM      2  C   LIG    1       28.594 -20.017   6.460  0.00  0.00    +0.162 A 
ATOM      3  C   LIG    1       27.380 -20.316   5.826  0.00  0.00    +0.061 A 
ATOM      4  C   LIG    1       26.441 -21.060   6.518  0.00  0.00    +0.025 A 
ATOM      5  C   LIG    1       25.121 -21.485   6.069  0.00  0.00    +0.167 C 
ATOM      6  C   LIG    1       24.447 -22.330   7.132  0.00  0.00    +0.065 C 
ATOM      7  C   LIG    1       25.451 -22.266   8.328  0.00  0.00    +0.047 C 
ATOM      8  O   LIG    1       24.653 -21.169   4.980  0.00  0.00    -0.292 OA
ATOM      9  C   LIG    1       26.643 -21.533   7.797  0.00  0.00    -0.033 A 
ATOM     10  C   LIG    1       27.849 -21.267   8.429  0.00  0.00    +0.053 A 
ENDROOT
BRANCH   1  12
ATOM     11  C   LIG    1       30.733 -21.573   8.778  0.00  0.00    +0.277 C 
ATOM     12  O   LIG    1       29.989 -20.394   8.504  0.00  0.00    -0.491 OA
ENDBRANCH   1  12
BRANCH   2  13
ATOM     13  O   LIG    1       29.587 -19.331   5.808  0.00  0.00    -0.491 OA
ATOM     14  C   LIG    1       29.193 -18.110   5.185  0.00  0.00    +0.277 C 
ENDBRANCH   2  13
BRANCH   6  15
ATOM     15  C   LIG    1       24.168 -23.773   6.665  0.00  0.00    +0.015 C 
BRANCH  15  16
ATOM     16  C   LIG    1       25.361 -24.555   6.038  0.00  0.00    -0.008 C 
ATOM     17  C   LIG    1       25.909 -25.624   7.008  0.00  0.00    +0.019 C 
ATOM     18  C   LIG    1       24.997 -26.858   7.130  0.00  0.00    +0.085 C 
ATOM     19  N   LIG    1       24.564 -27.458   5.856  0.00  0.00    -0.298 NA
ATOM     20  C   LIG    1       24.066 -26.426   4.936  0.00  0.00    +0.085 C 
ATOM     21  C   LIG    1       25.049 -25.273   4.719  0.00  0.00    +0.019 C 
BRANCH  19  22
ATOM     22  C   LIG    1       25.585 -28.352   5.275  0.00  0.00    +0.119 C 
BRANCH  22  23
ATOM     23  C   LIG    1       25.253 -29.830   5.424  0.00  0.00    -0.033 A 
ATOM     24  C   LIG    1       25.974 -30.800   4.707  0.00  0.00    +0.005 A 
ATOM     25  C   LIG    1       25.605 -32.145   4.750  0.00  0.00    +0.000 A 
ATOM     26  C   LIG    1       24.534 -32.547   5.542  0.00  0.00    +0.000 A 
ATOM     27  C   LIG    1       23.834 -31.605   6.294  0.00  0.00    +0.000 A 
ATOM     28  C   LIG    1       24.184 -30.253   6.228  0.00  0.00    +0.005 A 
ENDBRANCH  22  23
ENDBRANCH  19  22
ENDBRANCH  15  16
ENDBRANCH   6  15
TORSDOF 6
ENDMDL
MODEL 3
REMARK VINA RESULT:      -8.2      1.987      2.794
REMARK  Name = *****
REMARK                            x       y       z     vdW  Elec       q    Type
REMARK                         _______ _______ _______ _____ _____    ______ ____
ROOT
ATOM      1  C   LIG    1       26.304 -30.160   9.397  0.00  0.00    +0.162 A 
ATOM      2  C   LIG    1       25.418 -30.926   8.600  0.00  0.00    +0.162 A 
ATOM      3  C   LIG    1       24.776 -30.322   7.510  0.00  0.00    +0.061 A 
ATOM      4  C   LIG    1       25.058 -28.997   7.230  0.00  0.00    +0.025 A 
ATOM      5  C   LIG    1       24.521 -28.170   6.157  0.00  0.00    +0.167 C 
ATOM      6  C   LIG    1       25.064 -26.758   6.254  0.00  0.00    +0.065 C 
ATOM      7  C   LIG    1       26.091 -26.851   7.429  0.00  0.00    +0.047 C 
ATOM      8  O   LIG    1       23.748 -28.599   5.306  0.00  0.00    -0.292 OA
ATOM      9  C   LIG    1       25.932 -28.236   7.976  0.00  0.00    -0.033 A 
ATOM     10  C   LIG    1       26.557 -28.810   9.074  0.00  0.00    +0.053 A 
ENDROOT
BRANCH   1  12
ATOM     11  C   LIG    1       27.716 -29.583  11.249  0.00  0.00    +0.277 C 
ATOM     12  O   LIG    1       26.950 -30.551  10.544  0.00  0.00    -0.491 OA
ENDBRANCH   1  12
BRANCH   2  13
ATOM     13  O   LIG    1       25.140 -32.219   8.963  0.00  0.00    -0.491 OA
ATOM     14  C   LIG    1       25.021 -33.153   7.891  0.00  0.00    +0.277 C 
ENDBRANCH   2  13
BRANCH   6  15
ATOM     15  C   LIG    1       23.966 -25.706   6.507  0.00  0.00    +0.015 C 
BRANCH  15  16
ATOM     16  C   LIG    1       24.060 -24.378   5.697  0.00  0.00    -0.008 C 
ATOM     17  C   LIG    1       23.065 -23.322   6.225  0.00  0.00    +0.019 C 
ATOM     18  C   LIG    1       23.501 -22.691   7.560  0.00  0.00    +0.085 C 
ATOM     19  N   LIG    1       24.887 -22.194   7.607  0.00  0.00    -0.298 NA
ATOM     20  C   LIG    1       25.819 -23.202   7.080  0.00  0.00    +0.085 C 
ATOM     21  C   LIG    1       25.444 -23.716   5.688  0.00  0.00    +0.019 C 
BRANCH  19  22
ATOM     22  C   LIG    1       25.031 -20.856   7.002  0.00  0.00    +0.119 C 
BRANCH  22  23
ATOM     23  C   LIG    1       26.476 -20.388   6.901  0.00  0.00    -0.033 A 
ATOM     24  C   LIG    1       27.026 -20.027   5.659  0.00  0.00    +0.005 A 
ATOM     25  C   LIG    1       28.379 -19.706   5.540  0.00  0.00    +0.000 A 
ATOM     26  C   LIG    1       29.194 -19.701   6.667  0.00  0.00    +0.000 A 
ATOM     27  C   LIG    1       28.657 -20.015   7.915  0.00  0.00    +0.000 A 
ATOM     28  C   LIG    1       27.308 -20.366   8.031  0.00  0.00    +0.005 A 
ENDBRANCH  22  23
ENDBRANCH  19  22
ENDBRANCH  15  16
ENDBRANCH   6  15
TORSDOF 6
ENDMDL
MODEL 4
REMARK VINA RESULT:      -8.1      4.499      9.294
REMARK  Name = *****
REMARK                            x       y       z     vdW  Elec       q    Type
REMARK                         _______ _______ _______ _____ _____    ______ ____
ROOT
ATOM      1  C   LIG    1       29.041 -20.140   7.901  0.00  0.00    +0.162 A 
ATOM      2  C   LIG    1       29.296 -19.923   6.524  0.00  0.00    +0.162 A 
ATOM      3  C   LIG    1       28.238 -20.002   5.607  0.00  0.00    +0.061 A 
ATOM      4  C   LIG    1       26.967 -20.260   6.088  0.00  0.00    +0.025 A 
ATOM      5  C   LIG    1       25.727 -20.382   5.331  0.00  0.00    +0.167 C 
ATOM      6  C   LIG    1       24.575 -20.722   6.256  0.00  0.00    +0.065 C 
ATOM      7  C   LIG    1       25.227 -20.668   7.676  0.00  0.00    +0.047 C 
ATOM      8  O   LIG    1       25.665 -20.212   4.119  0.00  0.00    -0.292 OA
ATOM      9  C   LIG    1       26.688 -20.455   7.423  0.00  0.00    -0.033 A 
ATOM     10  C   LIG    1       27.727 -20.405   8.342  0.00  0.00    +0.053 A 
ENDROOT
BRANCH   1  12
ATOM     11  C   LIG    1       30.655 -21.407   9.144  0.00  0.00    +0.277 C 
ATOM     12  O   LIG    1       29.954 -20.190   8.924  0.00  0.00    -0.491 OA
ENDBRANCH   1  12
BRANCH   2  13
ATOM     13  O   LIG    1       30.587 -19.725   6.106  0.00  0.00    -0.491 OA
ATOM     14  C   LIG    1       31.373 -18.846   6.909  0.00  0.00    +0.277 C 
ENDBRANCH   2  13
BRANCH   6  15
ATOM     15  C   LIG    1       23.939 -22.092   5.946  0.00  0.00    +0.015 C 
BRANCH  15  16
ATOM     16  C   LIG    1       23.966 -23.158   7.083  0.00  0.00    -0.008 C 
ATOM     17  C   LIG    1       23.357 -24.498   6.617  0.00  0.00    +0.019 C 
ATOM     18  C   LIG    1       24.283 -25.291   5.677  0.00  0.00    +0.085 C 
ATOM     19  N   LIG    1       25.669 -25.463   6.144  0.00  0.00    -0.298 NA
ATOM     20  C   LIG    1       26.226 -24.183   6.605  0.00  0.00    +0.085 C 
ATOM     21  C   LIG    1       25.356 -23.475   7.647  0.00  0.00    +0.019 C 
BRANCH  19  22
ATOM     22  C   LIG    1       25.808 -26.571   7.109  0.00  0.00    +0.119 C 
BRANCH  22  23
ATOM     23  C   LIG    1       25.324 -27.910   6.570  0.00  0.00    -0.033 A 
ATOM     24  C   LIG    1       24.577 -28.779   7.383  0.00  0.00    +0.005 A 
ATOM     25  C   LIG    1       24.227 -30.054   6.937  0.00  0.00    +0.000 A 
ATOM     26  C   LIG    1       24.582 -30.464   5.656  0.00  0.00    +0.000 A 
ATOM     27  C   LIG    1       25.286 -29.599   4.820  0.00  0.00    +0.000 A 
ATOM     28  C   LIG    1       25.664 -28.333   5.276  0.00  0.00    +0.005 A 
ENDBRANCH  22  23
ENDBRANCH  19  22
ENDBRANCH  15  16
ENDBRANCH   6  15
TORSDOF 6
ENDMDL
MODEL 5
REMARK VINA RESULT:      -7.9      4.024     10.185
REMARK  Name = *****
REMARK                            x       y       z     vdW  Elec       q    Type
REMARK                         _______ _______ _______ _____ _____    ______ ____
ROOT
ATOM      1  C   LIG    1       24.313 -19.831   4.018  0.00  0.00    +0.162 A 
ATOM      2  C   LIG    1       22.996 -19.787   4.540  0.00  0.00    +0.162 A 
ATOM      3  C   LIG    1       22.579 -20.777   5.440  0.00  0.00    +0.061 A 
ATOM      4  C   LIG    1       23.485 -21.752   5.815  0.00  0.00    +0.025 A 
ATOM      5  C   LIG    1       23.280 -22.867   6.731  0.00  0.00    +0.167 C 
ATOM      6  C   LIG    1       24.530 -23.722   6.812  0.00  0.00    +0.065 C 
ATOM      7  C   LIG    1       25.560 -22.932   5.942  0.00  0.00    +0.047 C 
ATOM      8  O   LIG    1       22.232 -23.046   7.342  0.00  0.00    -0.292 OA
ATOM      9  C   LIG    1       24.778 -21.806   5.339  0.00  0.00    -0.033 A 
ATOM     10  C   LIG    1       25.200 -20.849   4.428  0.00  0.00    +0.053 A 
ENDROOT
BRANCH   1  12
ATOM     11  C   LIG    1       25.804 -18.028   3.492  0.00  0.00    +0.277 C 
ATOM     12  O   LIG    1       24.866 -19.008   3.070  0.00  0.00    -0.491 OA
ENDBRANCH   1  12
BRANCH   2  13
ATOM     13  O   LIG    1       22.129 -18.826   4.087  0.00  0.00    -0.491 OA
ATOM     14  C   LIG    1       22.230 -17.550   4.718  0.00  0.00    +0.277 C 
ENDBRANCH   2  13
BRANCH   6  15
ATOM     15  C   LIG    1       24.307 -25.162   6.308  0.00  0.00    +0.015 C 
BRANCH  15  16
ATOM     16  C   LIG    1       25.577 -26.034   6.076  0.00  0.00    -0.008 C 
ATOM     17  C   LIG    1       25.772 -27.064   7.210  0.00  0.00    +0.019 C 
ATOM     18  C   LIG    1       24.789 -28.246   7.132  0.00  0.00    +0.085 C 
ATOM     19  N   LIG    1       24.689 -28.905   5.818  0.00  0.00    -0.298 NA
ATOM     20  C   LIG    1       24.527 -27.911   4.748  0.00  0.00    +0.085 C 
ATOM     21  C   LIG    1       25.598 -26.818   4.758  0.00  0.00    +0.019 C 
BRANCH  19  22
ATOM     22  C   LIG    1       25.775 -29.877   5.587  0.00  0.00    +0.119 C 
BRANCH  22  23
ATOM     23  C   LIG    1       25.276 -31.279   5.265  0.00  0.00    -0.033 A 
ATOM     24  C   LIG    1       25.864 -32.026   4.231  0.00  0.00    +0.005 A 
ATOM     25  C   LIG    1       25.341 -33.264   3.853  0.00  0.00    +0.000 A 
ATOM     26  C   LIG    1       24.247 -33.793   4.533  0.00  0.00    +0.000 A 
ATOM     27  C   LIG    1       23.678 -33.084   5.590  0.00  0.00    +0.000 A 
ATOM     28  C   LIG    1       24.182 -31.831   5.948  0.00  0.00    +0.005 A 
ENDBRANCH  22  23
ENDBRANCH  19  22
ENDBRANCH  15  16
ENDBRANCH   6  15
TORSDOF 6
ENDMDL
MODEL 6
REMARK VINA RESULT:      -7.7      2.915      4.103
REMARK  Name = *****
REMARK                            x       y       z     vdW  Elec       q    Type
REMARK                         _______ _______ _______ _____ _____    ______ ____
ROOT
ATOM      1  C   LIG    1       26.775 -32.598   5.240  0.00  0.00    +0.162 A 
ATOM      2  C   LIG    1       27.134 -32.831   6.591  0.00  0.00    +0.162 A 
ATOM      3  C   LIG    1       26.633 -31.987   7.592  0.00  0.00    +0.061 A 
ATOM      4  C   LIG    1       25.773 -30.967   7.226  0.00  0.00    +0.025 A 
ATOM      5  C   LIG    1       25.132 -29.979   8.084  0.00  0.00    +0.167 C 
ATOM      6  C   LIG    1       24.309 -29.013   7.255  0.00  0.00    +0.065 C 
ATOM      7  C   LIG    1       24.418 -29.599   5.810  0.00  0.00    +0.047 C 
ATOM      8  O   LIG    1       25.255 -29.974   9.304  0.00  0.00    -0.292 OA
ATOM      9  C   LIG    1       25.391 -30.732   5.922  0.00  0.00    -0.033 A 
ATOM     10  C   LIG    1       25.897 -31.542   4.916  0.00  0.00    +0.053 A 
ENDROOT
BRANCH   1  12
ATOM     11  C   LIG    1       26.328 -33.462   3.048  0.00  0.00    +0.277 C 
ATOM     12  O   LIG    1       27.231 -33.258   4.127  0.00  0.00    -0.491 OA
ENDBRANCH   1  12
BRANCH   2  13
ATOM     13  O   LIG    1       28.034 -33.825   6.882  0.00  0.00    -0.491 OA
ATOM     14  C   LIG    1       29.398 -33.537   6.582  0.00  0.00    +0.277 C 
ENDBRANCH   2  13
BRANCH   6  15
ATOM     15  C   LIG    1       24.815 -27.560   7.347  0.00  0.00    +0.015 C 
BRANCH  15  16
ATOM     16  C   LIG    1       25.208 -26.862   6.009  0.00  0.00    -0.008 C 
ATOM     17  C   LIG    1       24.011 -26.105   5.393  0.00  0.00    +0.019 C 
ATOM     18  C   LIG    1       23.679 -24.794   6.129  0.00  0.00    +0.085 C 
ATOM     19  N   LIG    1       24.820 -23.893   6.370  0.00  0.00    -0.298 NA
ATOM     20  C   LIG    1       25.957 -24.633   6.935  0.00  0.00    +0.085 C 
ATOM     21  C   LIG    1       26.362 -25.858   6.111  0.00  0.00    +0.019 C 
BRANCH  19  22
ATOM     22  C   LIG    1       25.153 -23.071   5.191  0.00  0.00    +0.119 C 
BRANCH  22  23
ATOM     23  C   LIG    1       24.402 -21.747   5.142  0.00  0.00    -0.033 A 
ATOM     24  C   LIG    1       23.349 -21.490   6.035  0.00  0.00    +0.005 A 
ATOM     25  C   LIG    1       22.582 -20.328   5.924  0.00  0.00    +0.000 A 
ATOM     26  C   LIG    1       22.884 -19.388   4.944  0.00  0.00    +0.000 A 
ATOM     27  C   LIG    1       23.952 -19.607   4.076  0.00  0.00    +0.000 A 
ATOM     28  C   LIG    1       24.702 -20.784   4.167  0.00  0.00    +0.005 A 
ENDBRANCH  22  23
ENDBRANCH  19  22
ENDBRANCH  15  16
ENDBRANCH   6  15
TORSDOF 6
ENDMDL
MODEL 7
REMARK VINA RESULT:      -7.7      3.709      9.995
REMARK  Name = *****
REMARK                            x       y       z     vdW  Elec       q    Type
REMARK                         _______ _______ _______ _____ _____    ______ ____
ROOT
ATOM      1  C   LIG    1       25.470 -20.358   5.069  0.00  0.00    +0.162 A 
ATOM      2  C   LIG    1       24.061 -20.239   4.981  0.00  0.00    +0.162 A 
ATOM      3  C   LIG    1       23.251 -21.286   5.443  0.00  0.00    +0.061 A 
ATOM      4  C   LIG    1       23.862 -22.394   6.004  0.00  0.00    +0.025 A 
ATOM      5  C   LIG    1       23.231 -23.589   6.550  0.00  0.00    +0.167 C 
ATOM      6  C   LIG    1       24.284 -24.577   7.014  0.00  0.00    +0.065 C 
ATOM      7  C   LIG    1       25.622 -23.797   6.807  0.00  0.00    +0.047 C 
ATOM      8  O   LIG    1       22.015 -23.730   6.619  0.00  0.00    -0.292 OA
ATOM      9  C   LIG    1       25.229 -22.525   6.121  0.00  0.00    -0.033 A 
ATOM     10  C   LIG    1       26.046 -21.510   5.646  0.00  0.00    +0.053 A 
ENDROOT
BRANCH   1  12
ATOM     11  C   LIG    1       27.720 -19.532   5.155  0.00  0.00    +0.277 C 
ATOM     12  O   LIG    1       26.415 -19.484   4.594  0.00  0.00    -0.491 OA
ENDBRANCH   1  12
BRANCH   2  13
ATOM     13  O   LIG    1       23.519 -19.140   4.365  0.00  0.00    -0.491 OA
ATOM     14  C   LIG    1       22.245 -18.720   4.851  0.00  0.00    +0.277 C 
ENDBRANCH   2  13
BRANCH   6  15
ATOM     15  C   LIG    1       24.244 -25.907   6.236  0.00  0.00    +0.015 C 
BRANCH  15  16
ATOM     16  C   LIG    1       25.546 -26.763   6.233  0.00  0.00    -0.008 C 
ATOM     17  C   LIG    1       25.593 -27.727   7.438  0.00  0.00    +0.019 C 
ATOM     18  C   LIG    1       24.648 -28.932   7.288  0.00  0.00    +0.085 C 
ATOM     19  N   LIG    1       24.743 -29.662   6.012  0.00  0.00    -0.298 NA
ATOM     20  C   LIG    1       24.720 -28.729   4.876  0.00  0.00    +0.085 C 
ATOM     21  C   LIG    1       25.764 -27.615   4.976  0.00  0.00    +0.019 C 
BRANCH  19  22
ATOM     22  C   LIG    1       25.864 -30.621   5.989  0.00  0.00    +0.119 C 
BRANCH  22  23
ATOM     23  C   LIG    1       25.728 -31.738   7.014  0.00  0.00    -0.033 A 
ATOM     24  C   LIG    1       24.599 -32.575   7.013  0.00  0.00    +0.005 A 
ATOM     25  C   LIG    1       24.411 -33.527   8.017  0.00  0.00    +0.000 A 
ATOM     26  C   LIG    1       25.369 -33.685   9.013  0.00  0.00    +0.000 A 
ATOM     27  C   LIG    1       26.516 -32.893   9.006  0.00  0.00    +0.000 A 
ATOM     28  C   LIG    1       26.691 -31.918   8.018  0.00  0.00    +0.005 A 
ENDBRANCH  22  23
ENDBRANCH  19  22
ENDBRANCH  15  16
ENDBRANCH   6  15
TORSDOF 6
ENDMDL
MODEL 8
REMARK VINA RESULT:      -7.4      3.351      8.627
REMARK  Name = *****
REMARK                            x       y       z     vdW  Elec       q    Type
REMARK                         _______ _______ _______ _____ _____    ______ ____
ROOT
ATOM      1  C   LIG    1       24.131 -23.497   6.900  0.00  0.00    +0.162 A 
ATOM      2  C   LIG    1       25.537 -23.353   6.998  0.00  0.00    +0.162 A 
ATOM      3  C   LIG    1       26.368 -24.398   6.569  0.00  0.00    +0.061 A 
ATOM      4  C   LIG    1       25.781 -25.529   6.030  0.00  0.00    +0.025 A 
ATOM      5  C   LIG    1       26.436 -26.726   5.518  0.00  0.00    +0.167 C 
ATOM      6  C   LIG    1       25.404 -27.742   5.069  0.00  0.00    +0.065 C 
ATOM      7  C   LIG    1       24.051 -26.980   5.245  0.00  0.00    +0.047 C 
ATOM      8  O   LIG    1       27.655 -26.849   5.464  0.00  0.00    -0.292 OA
ATOM      9  C   LIG    1       24.417 -25.685   5.903  0.00  0.00    -0.033 A 
ATOM     10  C   LIG    1       23.579 -24.672   6.346  0.00  0.00    +0.053 A 
ENDROOT
BRANCH   1  12
ATOM     11  C   LIG    1       22.901 -21.464   6.573  0.00  0.00    +0.277 C 
ATOM     12  O   LIG    1       23.167 -22.628   7.345  0.00  0.00    -0.491 OA
ENDBRANCH   1  12
BRANCH   2  13
ATOM     13  O   LIG    1       26.055 -22.230   7.592  0.00  0.00    -0.491 OA
ATOM     14  C   LIG    1       26.589 -21.249   6.705  0.00  0.00    +0.277 C 
ENDBRANCH   2  13
BRANCH   6  15
ATOM     15  C   LIG    1       25.458 -29.053   5.880  0.00  0.00    +0.015 C 
BRANCH  15  16
ATOM     16  C   LIG    1       24.572 -29.129   7.159  0.00  0.00    -0.008 C 
ATOM     17  C   LIG    1       24.256 -30.591   7.542  0.00  0.00    +0.019 C 
ATOM     18  C   LIG    1       25.454 -31.325   8.172  0.00  0.00    +0.085 C 
ATOM     19  N   LIG    1       26.130 -30.615   9.271  0.00  0.00    -0.298 NA
ATOM     20  C   LIG    1       26.403 -29.219   8.899  0.00  0.00    +0.085 C 
ATOM     21  C   LIG    1       25.167 -28.463   8.406  0.00  0.00    +0.019 C 
BRANCH  19  22
ATOM     22  C   LIG    1       25.436 -30.776  10.563  0.00  0.00    +0.119 C 
BRANCH  22  23
ATOM     23  C   LIG    1       25.843 -29.743  11.604  0.00  0.00    -0.033 A 
ATOM     24  C   LIG    1       24.902 -28.831  12.112  0.00  0.00    +0.005 A 
ATOM     25  C   LIG    1       25.290 -27.809  12.980  0.00  0.00    +0.000 A 
ATOM     26  C   LIG    1       26.618 -27.709  13.386  0.00  0.00    +0.000 A 
ATOM     27  C   LIG    1       27.557 -28.630  12.926  0.00  0.00    +0.000 A 
ATOM     28  C   LIG    1       27.175 -29.636  12.033  0.00  0.00    +0.005 A 
ENDBRANCH  22  23
ENDBRANCH  19  22
ENDBRANCH  15  16
ENDBRANCH   6  15
TORSDOF 6
ENDMDL
MODEL 9
REMARK VINA RESULT:      -7.4      6.669      9.965
REMARK  Name = *****
REMARK                            x       y       z     vdW  Elec       q    Type
REMARK                         _______ _______ _______ _____ _____    ______ ____
ROOT
ATOM      1  C   LIG    1       31.542 -17.067   9.117  0.00  0.00    +0.162 A 
ATOM      2  C   LIG    1       31.992 -17.948  10.131  0.00  0.00    +0.162 A 
ATOM      3  C   LIG    1       31.595 -19.293  10.100  0.00  0.00    +0.061 A 
ATOM      4  C   LIG    1       30.799 -19.722   9.053  0.00  0.00    +0.025 A 
ATOM      5  C   LIG    1       30.273 -21.059   8.812  0.00  0.00    +0.167 C 
ATOM      6  C   LIG    1       29.401 -21.069   7.571  0.00  0.00    +0.065 C 
ATOM      7  C   LIG    1       29.558 -19.618   7.012  0.00  0.00    +0.047 C 
ATOM      8  O   LIG    1       30.534 -22.019   9.529  0.00  0.00    -0.292 OA
ATOM      9  C   LIG    1       30.365 -18.890   8.043  0.00  0.00    -0.033 A 
ATOM     10  C   LIG    1       30.727 -17.551   8.072  0.00  0.00    +0.053 A 
ENDROOT
BRANCH   1  12
ATOM     11  C   LIG    1       32.982 -15.190   9.516  0.00  0.00    +0.277 C 
ATOM     12  O   LIG    1       31.752 -15.714   9.030  0.00  0.00    -0.491 OA
ENDBRANCH   1  12
BRANCH   2  13
ATOM     13  O   LIG    1       32.735 -17.450  11.171  0.00  0.00    -0.491 OA
ATOM     14  C   LIG    1       31.994 -16.986  12.298  0.00  0.00    +0.277 C 
ENDBRANCH   2  13
BRANCH   6  15
ATOM     15  C   LIG    1       27.934 -21.436   7.870  0.00  0.00    +0.015 C 
BRANCH  15  16
ATOM     16  C   LIG    1       26.996 -21.655   6.644  0.00  0.00    -0.008 C 
ATOM     17  C   LIG    1       26.232 -22.992   6.749  0.00  0.00    +0.019 C 
ATOM     18  C   LIG    1       25.089 -22.960   7.779  0.00  0.00    +0.085 C 
ATOM     19  N   LIG    1       24.164 -21.818   7.669  0.00  0.00    -0.298 NA
ATOM     20  C   LIG    1       24.907 -20.556   7.548  0.00  0.00    +0.085 C 
ATOM     21  C   LIG    1       25.945 -20.560   6.423  0.00  0.00    +0.019 C 
BRANCH  19  22
ATOM     22  C   LIG    1       23.135 -22.021   6.631  0.00  0.00    +0.119 C 
BRANCH  22  23
ATOM     23  C   LIG    1       23.178 -20.979   5.522  0.00  0.00    -0.033 A 
ATOM     24  C   LIG    1       23.952 -21.194   4.370  0.00  0.00    +0.005 A 
ATOM     25  C   LIG    1       24.088 -20.198   3.401  0.00  0.00    +0.000 A 
ATOM     26  C   LIG    1       23.417 -18.987   3.550  0.00  0.00    +0.000 A 
ATOM     27  C   LIG    1       22.610 -18.773   4.666  0.00  0.00    +0.000 A 
ATOM     28  C   LIG    1       22.498 -19.759   5.651  0.00  0.00    +0.005 A 
ENDBRANCH  22  23
ENDBRANCH  19  22
ENDBRANCH  15  16
ENDBRANCH   6  15
TORSDOF 6
ENDMDL
