MODEL 1
REMARK VINA RESULT:      -0.9      0.000      0.000
REMARK  Name = *****
REMARK                            x       y       z     vdW  Elec       q    Type
REMARK                         _______ _______ _______ _____ _____    ______ ____
ROOT
ATOM      1  C   LIG    1       25.970 -18.668   4.384  0.00  0.00    +0.003 C 
ATOM      2  C   LIG    1       26.735 -17.674   3.874  0.00  0.00    -0.050 C 
ATOM      3  C   LIG    1       28.093 -17.406   4.472  0.00  0.00    +0.044 C 
ENDROOT
BRANCH   1   5
ATOM      4  C   LIG    1       23.549 -18.964   4.759  0.00  0.00    +0.003 C 
ATOM      5  C   LIG    1       24.629 -19.039   3.964  0.00  0.00    +0.001 C 
BRANCH   4   7
ATOM      6  C   LIG    1       21.808 -20.756   4.686  0.00  0.00    +0.044 C 
ATOM      7  C   LIG    1       22.204 -19.347   4.334  0.00  0.00    -0.044 C 
ATOM      8  C   LIG    1       21.425 -18.478   3.660  0.00  0.00    +0.094 C 
BRANCH   8   9
ATOM      9  C   LIG    1       20.034 -18.764   3.220  0.00  0.00    +0.330 C 
ATOM     10  O   LIG    1       19.350 -19.698   3.574  0.00  0.00    -0.246 OA
BRANCH   9  11
ATOM     11  O   LIG    1       19.593 -17.811   2.362  0.00  0.00    -0.477 OA
ATOM     12  H   LIG    1       18.956 -17.173   2.727  0.00  0.00    +0.295 HD
ENDBRANCH   9  11
ENDBRANCH   8   9
ENDBRANCH   4   7
ENDBRANCH   1   5
BRANCH   2  13
ATOM     13  C   LIG    1       26.281 -16.832   2.770  0.00  0.00    +0.003 C 
ATOM     14  C   LIG    1       25.943 -15.534   2.688  0.00  0.00    +0.004 C 
BRANCH  14  15
ATOM     15  C   LIG    1       25.883 -14.473   3.690  0.00  0.00    -0.043 C 
ATOM     16  C   LIG    1       24.453 -13.925   3.977  0.00  0.00    -0.010 C 
ATOM     17  C   LIG    1       23.806 -13.361   2.684  0.00  0.00    +0.016 C 
ATOM     18  C   LIG    1       23.533 -15.035   4.530  0.00  0.00    +0.016 C 
ATOM     19  C   LIG    1       24.458 -12.743   4.988  0.00  0.00    +0.011 C 
ATOM     20  C   LIG    1       25.513 -12.912   6.065  0.00  0.00    +0.005 C 
ATOM     21  C   LIG    1       26.884 -12.933   5.407  0.00  0.00    +0.031 C 
ATOM     22  C   LIG    1       26.982 -13.921   4.264  0.00  0.00    -0.069 C 
ATOM     23  C   LIG    1       28.415 -14.170   3.858  0.00  0.00    +0.039 C 
ENDBRANCH  14  15
ENDBRANCH   2  13
TORSDOF 6
ENDMDL
MODEL 2
REMARK VINA RESULT:      -0.7      3.493      4.918
REMARK  Name = *****
REMARK                            x       y       z     vdW  Elec       q    Type
REMARK                         _______ _______ _______ _____ _____    ______ ____
ROOT
ATOM      1  C   LIG    1       23.472 -18.761   3.634  0.00  0.00    +0.003 C 
ATOM      2  C   LIG    1       22.696 -17.659   3.772  0.00  0.00    -0.050 C 
ATOM      3  C   LIG    1       21.551 -17.439   2.816  0.00  0.00    +0.044 C 
ENDROOT
BRANCH   1   5
ATOM      4  C   LIG    1       24.756 -20.265   5.110  0.00  0.00    +0.003 C 
ATOM      5  C   LIG    1       24.635 -19.113   4.431  0.00  0.00    +0.001 C 
BRANCH   4   7
ATOM      6  C   LIG    1       25.647 -21.547   7.062  0.00  0.00    +0.044 C 
ATOM      7  C   LIG    1       25.925 -20.609   5.917  0.00  0.00    -0.044 C 
ATOM      8  C   LIG    1       27.133 -20.084   5.634  0.00  0.00    +0.094 C 
BRANCH   8   9
ATOM      9  C   LIG    1       28.382 -20.402   6.374  0.00  0.00    +0.330 C 
ATOM     10  O   LIG    1       28.729 -21.498   6.752  0.00  0.00    -0.246 OA
BRANCH   9  11
ATOM     11  O   LIG    1       29.130 -19.287   6.564  0.00  0.00    -0.477 OA
ATOM     12  H   LIG    1       29.750 -19.065   5.850  0.00  0.00    +0.295 HD
ENDBRANCH   9  11
ENDBRANCH   8   9
ENDBRANCH   4   7
ENDBRANCH   1   5
BRANCH   2  13
ATOM     13  C   LIG    1       22.943 -16.659   4.808  0.00  0.00    +0.003 C 
ATOM     14  C   LIG    1       23.713 -15.559   4.853  0.00  0.00    +0.004 C 
BRANCH  14  15
ATOM     15  C   LIG    1       24.618 -14.957   3.877  0.00  0.00    -0.043 C 
ATOM     16  C   LIG    1       24.136 -13.594   3.293  0.00  0.00    -0.010 C 
ATOM     17  C   LIG    1       22.757 -13.746   2.597  0.00  0.00    +0.016 C 
ATOM     18  C   LIG    1       24.000 -12.531   4.403  0.00  0.00    +0.016 C 
ATOM     19  C   LIG    1       25.094 -13.042   2.199  0.00  0.00    +0.011 C 
ATOM     20  C   LIG    1       26.549 -13.347   2.502  0.00  0.00    +0.005 C 
ATOM     21  C   LIG    1       26.737 -14.856   2.528  0.00  0.00    +0.031 C 
ATOM     22  C   LIG    1       25.742 -15.565   3.422  0.00  0.00    -0.069 C 
ATOM     23  C   LIG    1       26.153 -16.992   3.698  0.00  0.00    +0.039 C 
ENDBRANCH  14  15
ENDBRANCH   2  13
TORSDOF 6
ENDMDL
MODEL 3
REMARK VINA RESULT:      -0.5      1.710      3.926
REMARK  Name = *****
REMARK                            x       y       z     vdW  Elec       q    Type
REMARK                         _______ _______ _______ _____ _____    ______ ____
ROOT
ATOM      1  C   LIG    1       23.061 -14.705   4.967  0.00  0.00    +0.003 C 
ATOM      2  C   LIG    1       23.643 -13.648   4.351  0.00  0.00    -0.050 C 
ATOM      3  C   LIG    1       23.625 -12.300   5.024  0.00  0.00    +0.044 C 
ENDROOT
BRANCH   1   5
ATOM      4  C   LIG    1       22.289 -17.046   5.081  0.00  0.00    +0.003 C 
ATOM      5  C   LIG    1       22.946 -16.059   4.452  0.00  0.00    +0.001 C 
BRANCH   4   7
ATOM      6  C   LIG    1       21.091 -18.617   3.550  0.00  0.00    +0.044 C 
ATOM      7  C   LIG    1       22.185 -18.409   4.563  0.00  0.00    -0.044 C 
ATOM      8  C   LIG    1       23.012 -19.375   5.006  0.00  0.00    +0.094 C 
BRANCH   8   9
ATOM      9  C   LIG    1       23.006 -20.778   4.513  0.00  0.00    +0.330 C 
ATOM     10  O   LIG    1       23.782 -21.259   3.718  0.00  0.00    -0.246 OA
BRANCH   9  11
ATOM     11  O   LIG    1       22.009 -21.491   5.093  0.00  0.00    -0.477 OA
ATOM     12  H   LIG    1       21.899 -21.365   6.051  0.00  0.00    +0.295 HD
ENDBRANCH   9  11
ENDBRANCH   8   9
ENDBRANCH   4   7
ENDBRANCH   1   5
BRANCH   2  13
ATOM     13  C   LIG    1       24.273 -13.765   3.038  0.00  0.00    +0.003 C 
ATOM     14  C   LIG    1       25.420 -14.329   2.620  0.00  0.00    +0.004 C 
BRANCH  14  15
ATOM     15  C   LIG    1       26.485 -15.026   3.337  0.00  0.00    -0.043 C 
ATOM     16  C   LIG    1       27.617 -14.104   3.883  0.00  0.00    -0.010 C 
ATOM     17  C   LIG    1       28.290 -13.312   2.730  0.00  0.00    +0.016 C 
ATOM     18  C   LIG    1       27.061 -13.088   4.904  0.00  0.00    +0.016 C 
ATOM     19  C   LIG    1       28.764 -14.905   4.562  0.00  0.00    +0.011 C 
ATOM     20  C   LIG    1       28.251 -16.121   5.311  0.00  0.00    +0.005 C 
ATOM     21  C   LIG    1       27.587 -17.062   4.318  0.00  0.00    +0.031 C 
ATOM     22  C   LIG    1       26.558 -16.377   3.443  0.00  0.00    -0.069 C 
ATOM     23  C   LIG    1       25.684 -17.373   2.719  0.00  0.00    +0.039 C 
ENDBRANCH  14  15
ENDBRANCH   2  13
TORSDOF 6
ENDMDL
MODEL 4
REMARK VINA RESULT:       0.0      0.757      2.150
REMARK  Name = *****
REMARK                            x       y       z     vdW  Elec       q    Type
REMARK                         _______ _______ _______ _____ _____    ______ ____
ROOT
ATOM      1  C   LIG    1       25.954 -19.022   4.635  0.00  0.00    +0.003 C 
ATOM      2  C   LIG    1       26.717 -18.049   4.082  0.00  0.00    -0.050 C 
ATOM      3  C   LIG    1       28.056 -17.725   4.694  0.00  0.00    +0.044 C 
ENDROOT
BRANCH   1   5
ATOM      4  C   LIG    1       23.492 -19.043   4.804  0.00  0.00    +0.003 C 
ATOM      5  C   LIG    1       24.628 -19.438   4.208  0.00  0.00    +0.001 C 
BRANCH   4   7
ATOM      6  C   LIG    1       21.812 -20.892   4.732  0.00  0.00    +0.044 C 
ATOM      7  C   LIG    1       22.162 -19.472   4.376  0.00  0.00    -0.044 C 
ATOM      8  C   LIG    1       21.356 -18.632   3.697  0.00  0.00    +0.094 C 
BRANCH   8   9
ATOM      9  C   LIG    1       19.978 -18.965   3.253  0.00  0.00    +0.330 C 
ATOM     10  O   LIG    1       19.352 -19.959   3.550  0.00  0.00    -0.246 OA
BRANCH   9  11
ATOM     11  O   LIG    1       19.471 -17.983   2.468  0.00  0.00    -0.477 OA
ATOM     12  H   LIG    1       18.917 -17.323   2.919  0.00  0.00    +0.295 HD
ENDBRANCH   9  11
ENDBRANCH   8   9
ENDBRANCH   4   7
ENDBRANCH   1   5
BRANCH   2  13
ATOM     13  C   LIG    1       26.277 -17.284   2.918  0.00  0.00    +0.003 C 
ATOM     14  C   LIG    1       25.801 -16.036   2.770  0.00  0.00    +0.004 C 
BRANCH  14  15
ATOM     15  C   LIG    1       25.522 -14.974   3.734  0.00  0.00    -0.043 C 
ATOM     16  C   LIG    1       26.732 -14.044   4.049  0.00  0.00    -0.010 C 
ATOM     17  C   LIG    1       27.927 -14.861   4.609  0.00  0.00    +0.016 C 
ATOM     18  C   LIG    1       27.208 -13.303   2.781  0.00  0.00    +0.016 C 
ATOM     19  C   LIG    1       26.403 -12.987   5.141  0.00  0.00    +0.011 C 
ATOM     20  C   LIG    1       24.975 -12.485   5.045  0.00  0.00    +0.005 C 
ATOM     21  C   LIG    1       24.030 -13.656   5.269  0.00  0.00    +0.031 C 
ATOM     22  C   LIG    1       24.342 -14.850   4.393  0.00  0.00    -0.069 C 
ATOM     23  C   LIG    1       23.211 -15.850   4.382  0.00  0.00    +0.039 C 
ENDBRANCH  14  15
ENDBRANCH   2  13
TORSDOF 6
ENDMDL
MODEL 5
REMARK VINA RESULT:       0.1      2.041      3.760
REMARK  Name = *****
REMARK                            x       y       z     vdW  Elec       q    Type
REMARK                         _______ _______ _______ _____ _____    ______ ____
ROOT
ATOM      1  C   LIG    1       22.633 -14.897   5.451  0.00  0.00    +0.003 C 
ATOM      2  C   LIG    1       23.513 -14.263   4.639  0.00  0.00    -0.050 C 
ATOM      3  C   LIG    1       23.666 -12.766   4.743  0.00  0.00    +0.044 C 
ENDROOT
BRANCH   1   5
ATOM      4  C   LIG    1       22.543 -17.138   4.422  0.00  0.00    +0.003 C 
ATOM      5  C   LIG    1       22.326 -16.317   5.462  0.00  0.00    +0.001 C 
BRANCH   4   7
ATOM      6  C   LIG    1       20.853 -18.909   3.916  0.00  0.00    +0.044 C 
ATOM      7  C   LIG    1       22.223 -18.564   4.435  0.00  0.00    -0.044 C 
ATOM      8  C   LIG    1       23.110 -19.461   4.908  0.00  0.00    +0.094 C 
BRANCH   8   9
ATOM      9  C   LIG    1       22.890 -20.931   4.929  0.00  0.00    +0.330 C 
ATOM     10  O   LIG    1       21.997 -21.511   5.507  0.00  0.00    -0.246 OA
BRANCH   9  11
ATOM     11  O   LIG    1       23.821 -21.572   4.181  0.00  0.00    -0.477 OA
ATOM     12  H   LIG    1       23.542 -21.829   3.286  0.00  0.00    +0.295 HD
ENDBRANCH   9  11
ENDBRANCH   8   9
ENDBRANCH   4   7
ENDBRANCH   1   5
BRANCH   2  13
ATOM     13  C   LIG    1       24.311 -14.979   3.647  0.00  0.00    +0.003 C 
ATOM     14  C   LIG    1       25.556 -14.802   3.172  0.00  0.00    +0.004 C 
BRANCH  14  15
ATOM     15  C   LIG    1       26.579 -13.801   3.460  0.00  0.00    -0.043 C 
ATOM     16  C   LIG    1       27.497 -14.135   4.675  0.00  0.00    -0.010 C 
ATOM     17  C   LIG    1       26.660 -14.311   5.969  0.00  0.00    +0.016 C 
ATOM     18  C   LIG    1       28.286 -15.440   4.432  0.00  0.00    +0.016 C 
ATOM     19  C   LIG    1       28.512 -12.998   4.987  0.00  0.00    +0.011 C 
ATOM     20  C   LIG    1       29.016 -12.316   3.729  0.00  0.00    +0.005 C 
ATOM     21  C   LIG    1       27.838 -11.670   3.018  0.00  0.00    +0.031 C 
ATOM     22  C   LIG    1       26.678 -12.618   2.802  0.00  0.00    -0.069 C 
ATOM     23  C   LIG    1       25.679 -12.068   1.812  0.00  0.00    +0.039 C 
ENDBRANCH  14  15
ENDBRANCH   2  13
TORSDOF 6
ENDMDL
MODEL 6
REMARK VINA RESULT:       0.8      3.133      4.804
REMARK  Name = *****
REMARK                            x       y       z     vdW  Elec       q    Type
REMARK                         _______ _______ _______ _____ _____    ______ ____
ROOT
ATOM      1  C   LIG    1       22.753 -17.458   3.680  0.00  0.00    +0.003 C 
ATOM      2  C   LIG    1       22.615 -16.126   3.886  0.00  0.00    -0.050 C 
ATOM      3  C   LIG    1       21.837 -15.302   2.891  0.00  0.00    +0.044 C 
ENDROOT
BRANCH   1   5
ATOM      4  C   LIG    1       24.428 -19.236   4.026  0.00  0.00    +0.003 C 
ATOM      5  C   LIG    1       23.498 -18.395   4.504  0.00  0.00    +0.001 C 
BRANCH   4   7
ATOM      6  C   LIG    1       24.446 -21.474   5.140  0.00  0.00    +0.044 C 
ATOM      7  C   LIG    1       25.168 -20.183   4.859  0.00  0.00    -0.044 C 
ATOM      8  C   LIG    1       26.389 -19.869   5.334  0.00  0.00    +0.094 C 
BRANCH   8   9
ATOM      9  C   LIG    1       27.230 -20.778   6.156  0.00  0.00    +0.330 C 
ATOM     10  O   LIG    1       26.830 -21.572   6.979  0.00  0.00    -0.246 OA
BRANCH   9  11
ATOM     11  O   LIG    1       28.543 -20.631   5.852  0.00  0.00    -0.477 OA
ATOM     12  H   LIG    1       29.135 -21.329   6.180  0.00  0.00    +0.295 HD
ENDBRANCH   9  11
ENDBRANCH   8   9
ENDBRANCH   4   7
ENDBRANCH   1   5
BRANCH   2  13
ATOM     13  C   LIG    1       23.214 -15.452   5.035  0.00  0.00    +0.003 C 
ATOM     14  C   LIG    1       24.166 -14.510   5.150  0.00  0.00    +0.004 C 
BRANCH  14  15
ATOM     15  C   LIG    1       24.981 -13.817   4.155  0.00  0.00    -0.043 C 
ATOM     16  C   LIG    1       26.414 -14.401   3.963  0.00  0.00    -0.010 C 
ATOM     17  C   LIG    1       27.207 -14.373   5.296  0.00  0.00    +0.016 C 
ATOM     18  C   LIG    1       26.355 -15.863   3.468  0.00  0.00    +0.016 C 
ATOM     19  C   LIG    1       27.264 -13.576   2.956  0.00  0.00    +0.011 C 
ATOM     20  C   LIG    1       26.432 -13.029   1.812  0.00  0.00    +0.005 C 
ATOM     21  C   LIG    1       25.384 -12.083   2.379  0.00  0.00    +0.031 C 
ATOM     22  C   LIG    1       24.583 -12.690   3.511  0.00  0.00    -0.069 C 
ATOM     23  C   LIG    1       23.347 -11.881   3.823  0.00  0.00    +0.039 C 
ENDBRANCH  14  15
ENDBRANCH   2  13
TORSDOF 6
ENDMDL
MODEL 7
REMARK VINA RESULT:       1.2      3.334      6.883
REMARK  Name = *****
REMARK                            x       y       z     vdW  Elec       q    Type
REMARK                         _______ _______ _______ _____ _____    ______ ____
ROOT
ATOM      1  C   LIG    1       26.069 -18.594   2.930  0.00  0.00    +0.003 C 
ATOM      2  C   LIG    1       25.362 -19.586   3.522  0.00  0.00    -0.050 C 
ATOM      3  C   LIG    1       25.041 -20.833   2.738  0.00  0.00    +0.044 C 
ENDROOT
BRANCH   1   5
ATOM      4  C   LIG    1       25.897 -16.141   3.136  0.00  0.00    +0.003 C 
ATOM      5  C   LIG    1       26.431 -17.313   3.513  0.00  0.00    +0.001 C 
BRANCH   4   7
ATOM      6  C   LIG    1       25.129 -13.896   3.923  0.00  0.00    +0.044 C 
ATOM      7  C   LIG    1       26.272 -14.855   3.721  0.00  0.00    -0.044 C 
ATOM      8  C   LIG    1       27.559 -14.586   4.017  0.00  0.00    +0.094 C 
BRANCH   8   9
ATOM      9  C   LIG    1       28.030 -13.324   4.646  0.00  0.00    +0.330 C 
ATOM     10  O   LIG    1       28.794 -12.523   4.154  0.00  0.00    -0.246 OA
BRANCH   9  11
ATOM     11  O   LIG    1       27.469 -13.152   5.868  0.00  0.00    -0.477 OA
ATOM     12  H   LIG    1       28.029 -12.719   6.535  0.00  0.00    +0.295 HD
ENDBRANCH   9  11
ENDBRANCH   8   9
ENDBRANCH   4   7
ENDBRANCH   1   5
BRANCH   2  13
ATOM     13  C   LIG    1       24.880 -19.481   4.897  0.00  0.00    +0.003 C 
ATOM     14  C   LIG    1       23.657 -19.308   5.428  0.00  0.00    +0.004 C 
BRANCH  14  15
ATOM     15  C   LIG    1       22.341 -19.135   4.817  0.00  0.00    -0.043 C 
ATOM     16  C   LIG    1       21.947 -17.656   4.522  0.00  0.00    -0.010 C 
ATOM     17  C   LIG    1       21.956 -16.811   5.823  0.00  0.00    +0.016 C 
ATOM     18  C   LIG    1       22.929 -17.009   3.521  0.00  0.00    +0.016 C 
ATOM     19  C   LIG    1       20.507 -17.525   3.950  0.00  0.00    +0.011 C 
ATOM     20  C   LIG    1       20.144 -18.679   3.034  0.00  0.00    +0.005 C 
ATOM     21  C   LIG    1       20.182 -19.970   3.836  0.00  0.00    +0.031 C 
ATOM     22  C   LIG    1       21.471 -20.156   4.608  0.00  0.00    -0.069 C 
ATOM     23  C   LIG    1       21.627 -21.571   5.110  0.00  0.00    +0.039 C 
ENDBRANCH  14  15
ENDBRANCH   2  13
TORSDOF 6
ENDMDL
MODEL 8
REMARK VINA RESULT:       1.4      2.198      3.584
REMARK  Name = *****
REMARK                            x       y       z     vdW  Elec       q    Type
REMARK                         _______ _______ _______ _____ _____    ______ ____
ROOT
ATOM      1  C   LIG    1       28.021 -15.338   4.356  0.00  0.00    +0.003 C 
ATOM      2  C   LIG    1       27.799 -14.441   3.366  0.00  0.00    -0.050 C 
ATOM      3  C   LIG    1       28.666 -13.210   3.278  0.00  0.00    +0.044 C 
ENDROOT
BRANCH   1   5
ATOM      4  C   LIG    1       26.951 -17.456   3.679  0.00  0.00    +0.003 C 
ATOM      5  C   LIG    1       27.264 -16.550   4.619  0.00  0.00    +0.001 C 
BRANCH   4   7
ATOM      6  C   LIG    1       26.936 -19.746   4.679  0.00  0.00    +0.044 C 
ATOM      7  C   LIG    1       26.181 -18.669   3.948  0.00  0.00    -0.044 C 
ATOM      8  C   LIG    1       24.904 -18.776   3.532  0.00  0.00    +0.094 C 
BRANCH   8   9
ATOM      9  C   LIG    1       24.032 -19.953   3.789  0.00  0.00    +0.330 C 
ATOM     10  O   LIG    1       23.884 -20.905   3.057  0.00  0.00    -0.246 OA
BRANCH   9  11
ATOM     11  O   LIG    1       23.417 -19.846   4.993  0.00  0.00    -0.477 OA
ATOM     12  H   LIG    1       23.284 -18.941   5.322  0.00  0.00    +0.295 HD
ENDBRANCH   9  11
ENDBRANCH   8   9
ENDBRANCH   4   7
ENDBRANCH   1   5
BRANCH   2  13
ATOM     13  C   LIG    1       26.730 -14.613   2.386  0.00  0.00    +0.003 C 
ATOM     14  C   LIG    1       25.443 -14.225   2.357  0.00  0.00    +0.004 C 
BRANCH  14  15
ATOM     15  C   LIG    1       24.620 -13.495   3.318  0.00  0.00    -0.043 C 
ATOM     16  C   LIG    1       24.202 -14.314   4.576  0.00  0.00    -0.010 C 
ATOM     17  C   LIG    1       23.406 -15.583   4.171  0.00  0.00    +0.016 C 
ATOM     18  C   LIG    1       25.439 -14.761   5.384  0.00  0.00    +0.016 C 
ATOM     19  C   LIG    1       23.260 -13.516   5.522  0.00  0.00    +0.011 C 
ATOM     20  C   LIG    1       23.609 -12.041   5.572  0.00  0.00    +0.005 C 
ATOM     21  C   LIG    1       23.437 -11.451   4.181  0.00  0.00    +0.031 C 
ATOM     22  C   LIG    1       24.158 -12.236   3.106  0.00  0.00    -0.069 C 
ATOM     23  C   LIG    1       24.259 -11.460   1.814  0.00  0.00    +0.039 C 
ENDBRANCH  14  15
ENDBRANCH   2  13
TORSDOF 6
ENDMDL
MODEL 9
REMARK VINA RESULT:       1.4      2.692      6.557
REMARK  Name = *****
REMARK                            x       y       z     vdW  Elec       q    Type
REMARK                         _______ _______ _______ _____ _____    ______ ____
ROOT
ATOM      1  C   LIG    1       26.097 -18.260   3.236  0.00  0.00    +0.003 C 
ATOM      2  C   LIG    1       25.902 -19.291   4.093  0.00  0.00    -0.050 C 
ATOM      3  C   LIG    1       26.402 -20.664   3.721  0.00  0.00    +0.044 C 
ENDROOT
BRANCH   1   5
ATOM      4  C   LIG    1       26.457 -15.820   3.313  0.00  0.00    +0.003 C 
ATOM      5  C   LIG    1       25.649 -16.888   3.408  0.00  0.00    +0.001 C 
BRANCH   4   7
ATOM      6  C   LIG    1       27.104 -13.416   3.542  0.00  0.00    +0.044 C 
ATOM      7  C   LIG    1       26.003 -14.443   3.496  0.00  0.00    -0.044 C 
ATOM      8  C   LIG    1       24.692 -14.166   3.632  0.00  0.00    +0.094 C 
BRANCH   8   9
ATOM      9  C   LIG    1       24.134 -12.797   3.786  0.00  0.00    +0.330 C 
ATOM     10  O   LIG    1       23.985 -12.199   4.829  0.00  0.00    -0.246 OA
BRANCH   9  11
ATOM     11  O   LIG    1       23.819 -12.263   2.580  0.00  0.00    -0.477 OA
ATOM     12  H   LIG    1       23.108 -12.711   2.091  0.00  0.00    +0.295 HD
ENDBRANCH   9  11
ENDBRANCH   8   9
ENDBRANCH   4   7
ENDBRANCH   1   5
BRANCH   2  13
ATOM     13  C   LIG    1       25.203 -19.123   5.364  0.00  0.00    +0.003 C 
ATOM     14  C   LIG    1       23.903 -19.151   5.705  0.00  0.00    +0.004 C 
BRANCH  14  15
ATOM     15  C   LIG    1       22.689 -19.340   4.916  0.00  0.00    -0.043 C 
ATOM     16  C   LIG    1       22.305 -20.827   4.653  0.00  0.00    -0.010 C 
ATOM     17  C   LIG    1       23.447 -21.571   3.911  0.00  0.00    +0.016 C 
ATOM     18  C   LIG    1       22.028 -21.571   5.977  0.00  0.00    +0.016 C 
ATOM     19  C   LIG    1       21.055 -20.969   3.739  0.00  0.00    +0.011 C 
ATOM     20  C   LIG    1       20.029 -19.881   3.995  0.00  0.00    +0.005 C 
ATOM     21  C   LIG    1       20.657 -18.533   3.675  0.00  0.00    +0.031 C 
ATOM     22  C   LIG    1       21.991 -18.318   4.357  0.00  0.00    -0.069 C 
ATOM     23  C   LIG    1       22.423 -16.873   4.304  0.00  0.00    +0.039 C 
ENDBRANCH  14  15
ENDBRANCH   2  13
TORSDOF 6
ENDMDL
