MODEL 1
REMARK VINA RESULT:      -9.3      0.000      0.000
REMARK  Name = *****
REMARK                            x       y       z     vdW  Elec       q    Type
REMARK                         _______ _______ _______ _____ _____    ______ ____
ROOT
ATOM      1  C   LIG    1       26.429 -22.699   7.232  0.00  0.00    +0.190 C 
ENDROOT
BRANCH   1   4
ATOM      2  N   LIG    1       24.979 -25.891   6.160  0.00  0.00    -0.131 N 
ATOM      3  C   LIG    1       26.013 -25.193   6.662  0.00  0.00    +0.430 A 
ATOM      4  N   LIG    1       25.563 -23.962   7.032  0.00  0.00    -0.207 N 
ATOM      5  N   LIG    1       24.201 -23.909   6.857  0.00  0.00    -0.108 NA
ATOM      6  C   LIG    1       23.894 -25.052   6.326  0.00  0.00    +0.452 A 
BRANCH   2   7
ATOM      7  C   LIG    1       25.092 -27.214   5.529  0.00  0.00    +0.465 C 
ATOM      8  C   LIG    1       26.466 -27.469   4.929  0.00  0.00    +0.138 C 
BRANCH   7   9
ATOM      9  O   LIG    1       24.360 -28.225   6.242  0.00  0.00    -0.387 OA
BRANCH   9  11
ATOM     10  N   LIG    1       24.769 -30.397   6.801  0.00  0.00    -0.224 N 
ATOM     11  C   LIG    1       24.948 -29.056   7.140  0.00  0.00    +0.413 C 
ATOM     12  O   LIG    1       25.536 -28.627   8.122  0.00  0.00    -0.226 OA
ATOM     13  C   LIG    1       23.778 -30.795   5.786  0.00  0.00    +0.143 C 
BRANCH  10  15
ATOM     14  C   LIG    1       24.477 -31.926   8.702  0.00  0.00    +0.030 A 
ATOM     15  C   LIG    1       25.289 -31.383   7.696  0.00  0.00    +0.136 A 
ATOM     16  N   LIG    1       26.608 -31.644   7.697  0.00  0.00    -0.239 NA
ATOM     17  C   LIG    1       27.080 -32.476   8.679  0.00  0.00    +0.113 A 
ATOM     18  C   LIG    1       26.335 -33.055   9.693  0.00  0.00    +0.020 A 
ATOM     19  C   LIG    1       24.986 -32.832   9.661  0.00  0.00    +0.012 A 
BRANCH  14  20
ATOM     20  C   LIG    1       23.391 -31.098   9.300  0.00  0.00    +0.271 C 
BRANCH  20  21
ATOM     21  O   LIG    1       23.340 -30.884  10.675  0.00  0.00    -0.459 OA
BRANCH  21  22
ATOM     22  C   LIG    1       22.116 -30.958  11.235  0.00  0.00    +0.321 C 
ATOM     23  O   LIG    1       21.267 -31.793  10.969  0.00  0.00    -0.249 OA
BRANCH  22  24
ATOM     24  C   LIG    1       22.015 -29.659  12.071  0.00  0.00    +0.202 C 
BRANCH  24  26
ATOM     25  C   LIG    1       23.970 -28.325  13.310  0.00  0.00    +0.101 C 
ATOM     26  N   LIG    1       23.340 -28.953  12.144  0.00  0.00    -0.310 NA
ATOM     27  H   LIG    1       23.590 -28.453  11.293  0.00  0.00    +0.122 HD
ENDBRANCH  24  26
ENDBRANCH  22  24
ENDBRANCH  21  22
ENDBRANCH  20  21
ENDBRANCH  14  20
ENDBRANCH  10  15
ENDBRANCH   9  11
ENDBRANCH   7   9
ENDBRANCH   2   7
ENDBRANCH   1   4
BRANCH   1  28
ATOM     28  C   LIG    1       26.202 -21.060   6.792  0.00  0.00    +0.122 C 
BRANCH  28  29
ATOM     29  C   LIG    1       25.021 -20.411   5.902  0.00  0.00    +0.024 A 
ATOM     30  C   LIG    1       23.652 -20.347   6.303  0.00  0.00    +0.130 A 
ATOM     31  F   LIG    1       23.219 -20.839   7.457  0.00  0.00    -0.205 F 
ATOM     32  C   LIG    1       22.589 -19.802   5.559  0.00  0.00    +0.041 A 
ATOM     33  C   LIG    1       22.849 -19.151   4.382  0.00  0.00    +0.041 A 
ATOM     34  C   LIG    1       24.124 -19.302   3.867  0.00  0.00    +0.124 A 
ATOM     35  F   LIG    1       24.376 -18.690   2.703  0.00  0.00    -0.205 F 
ATOM     36  C   LIG    1       25.167 -20.006   4.555  0.00  0.00    +0.047 A 
ENDBRANCH  28  29
BRANCH  28  37
ATOM     37  O   LIG    1       26.138 -20.328   8.056  0.00  0.00    -0.381 OA
ATOM     38  H   LIG    1       25.574 -20.837   8.671  0.00  0.00    +0.211 HD
ENDBRANCH  28  37
BRANCH  28  39
ATOM     39  C   LIG    1       27.652 -20.600   6.163  0.00  0.00    +0.080 C 
ATOM     40  C   LIG    1       27.617 -19.231   5.458  0.00  0.00    +0.018 C 
BRANCH  39  41
ATOM     41  C   LIG    1       28.785 -20.509   7.181  0.00  0.00    +0.085 A 
ATOM     42  S   LIG    1       29.619 -21.930   7.732  0.00  0.00    -0.080 S 
ATOM     43  C   LIG    1       30.782 -20.926   8.492  0.00  0.00    +0.075 A 
ATOM     44  C   LIG    1       30.300 -19.633   8.528  0.00  0.00    +0.078 A 
ATOM     45  N   LIG    1       29.207 -19.385   7.715  0.00  0.00    -0.244 NA
BRANCH  44  46
ATOM     46  C   LIG    1       30.854 -18.584   9.361  0.00  0.00    +0.001 A 
ATOM     47  C   LIG    1       32.052 -17.944   9.029  0.00  0.00    +0.011 A 
ATOM     48  C   LIG    1       32.605 -16.992   9.888  0.00  0.00    +0.019 A 
ATOM     49  C   LIG    1       31.963 -16.681  11.086  0.00  0.00    +0.052 A 
ATOM     50  C   LIG    1       30.758 -17.301  11.417  0.00  0.00    +0.019 A 
ATOM     51  C   LIG    1       30.203 -18.248  10.557  0.00  0.00    +0.011 A 
BRANCH  49  52
ATOM     52  C   LIG    1       32.565 -15.718  12.007  0.00  0.00    +0.099 C 
ATOM     53  N   LIG    1       33.025 -14.984  12.710  0.00  0.00    -0.191 NA
ENDBRANCH  49  52
ENDBRANCH  44  46
ENDBRANCH  39  41
ENDBRANCH  28  39
ENDBRANCH   1  28
TORSDOF 17
ENDMDL
MODEL 2
REMARK VINA RESULT:      -9.1      3.834     10.914
REMARK  Name = *****
REMARK                            x       y       z     vdW  Elec       q    Type
REMARK                         _______ _______ _______ _____ _____    ______ ____
ROOT
ATOM      1  C   LIG    1       23.828 -29.685   8.975  0.00  0.00    +0.190 C 
ENDROOT
BRANCH   1   4
ATOM      2  N   LIG    1       25.495 -27.901   6.240  0.00  0.00    -0.131 N 
ATOM      3  C   LIG    1       25.529 -28.431   7.475  0.00  0.00    +0.430 A 
ATOM      4  N   LIG    1       24.442 -29.234   7.631  0.00  0.00    -0.207 N 
ATOM      5  N   LIG    1       23.755 -29.298   6.442  0.00  0.00    -0.108 NA
ATOM      6  C   LIG    1       24.391 -28.489   5.653  0.00  0.00    +0.452 A 
BRANCH   2   7
ATOM      7  C   LIG    1       26.425 -26.876   5.744  0.00  0.00    +0.465 C 
ATOM      8  C   LIG    1       26.814 -27.085   4.289  0.00  0.00    +0.138 C 
BRANCH   7   9
ATOM      9  O   LIG    1       26.150 -25.575   6.291  0.00  0.00    -0.387 OA
BRANCH   9  11
ATOM     10  N   LIG    1       25.341 -23.445   6.329  0.00  0.00    -0.224 N 
ATOM     11  C   LIG    1       25.364 -24.667   5.659  0.00  0.00    +0.413 C 
ATOM     12  O   LIG    1       24.757 -24.946   4.634  0.00  0.00    -0.226 OA
ATOM     13  C   LIG    1       25.844 -23.329   7.709  0.00  0.00    +0.143 C 
BRANCH  10  15
ATOM     14  C   LIG    1       25.064 -21.331   5.107  0.00  0.00    +0.030 A 
ATOM     15  C   LIG    1       24.503 -22.413   5.800  0.00  0.00    +0.136 A 
ATOM     16  N   LIG    1       23.202 -22.382   6.137  0.00  0.00    -0.239 NA
ATOM     17  C   LIG    1       22.479 -21.288   5.736  0.00  0.00    +0.113 A 
ATOM     18  C   LIG    1       22.964 -20.193   5.041  0.00  0.00    +0.020 A 
ATOM     19  C   LIG    1       24.275 -20.249   4.654  0.00  0.00    +0.012 A 
BRANCH  14  20
ATOM     20  C   LIG    1       26.433 -20.858   5.460  0.00  0.00    +0.271 C 
BRANCH  20  21
ATOM     21  O   LIG    1       26.626 -19.975   6.520  0.00  0.00    -0.459 OA
BRANCH  21  22
ATOM     22  C   LIG    1       27.572 -20.329   7.413  0.00  0.00    +0.321 C 
ATOM     23  O   LIG    1       27.466 -20.246   8.625  0.00  0.00    -0.249 OA
BRANCH  22  24
ATOM     24  C   LIG    1       28.812 -20.627   6.534  0.00  0.00    +0.202 C 
BRANCH  24  26
ATOM     25  C   LIG    1       31.075 -19.581   7.493  0.00  0.00    +0.101 C 
ATOM     26  N   LIG    1       30.071 -20.641   7.355  0.00  0.00    -0.310 NA
ATOM     27  H   LIG    1       30.511 -21.557   7.423  0.00  0.00    +0.122 HD
ENDBRANCH  24  26
ENDBRANCH  22  24
ENDBRANCH  21  22
ENDBRANCH  20  21
ENDBRANCH  14  20
ENDBRANCH  10  15
ENDBRANCH   9  11
ENDBRANCH   7   9
ENDBRANCH   2   7
ENDBRANCH   1   4
BRANCH   1  28
ATOM     28  C   LIG    1       23.170 -31.175   9.503  0.00  0.00    +0.122 C 
BRANCH  28  29
ATOM     29  C   LIG    1       21.744 -31.454  10.207  0.00  0.00    +0.024 A 
ATOM     30  C   LIG    1       21.149 -30.603  11.188  0.00  0.00    +0.130 A 
ATOM     31  F   LIG    1       21.735 -29.495  11.626  0.00  0.00    -0.205 F 
ATOM     32  C   LIG    1       19.918 -30.810  11.836  0.00  0.00    +0.041 A 
ATOM     33  C   LIG    1       19.112 -31.847  11.445  0.00  0.00    +0.041 A 
ATOM     34  C   LIG    1       19.686 -32.787  10.609  0.00  0.00    +0.124 A 
ATOM     35  F   LIG    1       18.911 -33.818  10.245  0.00  0.00    -0.205 F 
ATOM     36  C   LIG    1       21.013 -32.658  10.079  0.00  0.00    +0.047 A 
ENDBRANCH  28  29
BRANCH  28  37
ATOM     37  O   LIG    1       23.153 -32.029   8.316  0.00  0.00    -0.381 OA
ATOM     38  H   LIG    1       22.521 -31.646   7.677  0.00  0.00    +0.211 HD
ENDBRANCH  28  37
BRANCH  28  39
ATOM     39  C   LIG    1       24.357 -31.841  10.429  0.00  0.00    +0.080 C 
ATOM     40  C   LIG    1       25.652 -32.145   9.653  0.00  0.00    +0.018 C 
BRANCH  39  41
ATOM     41  C   LIG    1       24.783 -30.992  11.623  0.00  0.00    +0.085 A 
ATOM     42  S   LIG    1       25.201 -31.721  13.144  0.00  0.00    -0.080 S 
ATOM     43  C   LIG    1       25.788 -30.203  13.684  0.00  0.00    +0.075 A 
ATOM     44  C   LIG    1       25.359 -29.223  12.811  0.00  0.00    +0.078 A 
ATOM     45  N   LIG    1       24.860 -29.681  11.604  0.00  0.00    -0.244 NA
BRANCH  44  46
ATOM     46  C   LIG    1       25.390 -27.804  13.108  0.00  0.00    +0.001 A 
ATOM     47  C   LIG    1       26.529 -27.031  12.859  0.00  0.00    +0.011 A 
ATOM     48  C   LIG    1       26.561 -25.684  13.226  0.00  0.00    +0.019 A 
ATOM     49  C   LIG    1       25.454 -25.107  13.848  0.00  0.00    +0.052 A 
ATOM     50  C   LIG    1       24.308 -25.866  14.083  0.00  0.00    +0.019 A 
ATOM     51  C   LIG    1       24.274 -27.210  13.712  0.00  0.00    +0.011 A 
BRANCH  49  52
ATOM     52  C   LIG    1       25.504 -23.708  14.273  0.00  0.00    +0.099 C 
ATOM     53  N   LIG    1       25.544 -22.642  14.598  0.00  0.00    -0.191 NA
ENDBRANCH  49  52
ENDBRANCH  44  46
ENDBRANCH  39  41
ENDBRANCH  28  39
ENDBRANCH   1  28
TORSDOF 17
ENDMDL
MODEL 3
REMARK VINA RESULT:      -9.0      1.623      2.149
REMARK  Name = *****
REMARK                            x       y       z     vdW  Elec       q    Type
REMARK                         _______ _______ _______ _____ _____    ______ ____
ROOT
ATOM      1  C   LIG    1       26.387 -22.897   6.961  0.00  0.00    +0.190 C 
ENDROOT
BRANCH   1   4
ATOM      2  N   LIG    1       25.219 -26.260   6.087  0.00  0.00    -0.131 N 
ATOM      3  C   LIG    1       25.608 -25.368   7.014  0.00  0.00    +0.430 A 
ATOM      4  N   LIG    1       25.611 -24.130   6.448  0.00  0.00    -0.207 N 
ATOM      5  N   LIG    1       25.120 -24.219   5.168  0.00  0.00    -0.108 NA
ATOM      6  C   LIG    1       24.917 -25.486   4.982  0.00  0.00    +0.452 A 
BRANCH   2   7
ATOM      7  C   LIG    1       25.220 -27.718   6.276  0.00  0.00    +0.465 C 
ATOM      8  C   LIG    1       25.814 -28.468   5.094  0.00  0.00    +0.138 C 
BRANCH   7   9
ATOM      9  O   LIG    1       25.481 -28.093   7.639  0.00  0.00    -0.387 OA
BRANCH   9  11
ATOM     10  N   LIG    1       25.652 -29.608   9.333  0.00  0.00    -0.224 N 
ATOM     11  C   LIG    1       24.934 -29.196   8.210  0.00  0.00    +0.413 C 
ATOM     12  O   LIG    1       23.941 -29.736   7.744  0.00  0.00    -0.226 OA
ATOM     13  C   LIG    1       27.001 -29.081   9.605  0.00  0.00    +0.143 C 
BRANCH  10  15
ATOM     14  C   LIG    1       24.370 -30.713  11.114  0.00  0.00    +0.030 A 
ATOM     15  C   LIG    1       25.217 -30.796  10.000  0.00  0.00    +0.136 A 
ATOM     16  N   LIG    1       25.776 -31.976   9.678  0.00  0.00    -0.239 NA
ATOM     17  C   LIG    1       25.442 -33.057  10.453  0.00  0.00    +0.113 A 
ATOM     18  C   LIG    1       24.606 -33.050  11.557  0.00  0.00    +0.020 A 
ATOM     19  C   LIG    1       23.998 -31.861  11.852  0.00  0.00    +0.012 A 
BRANCH  14  20
ATOM     20  C   LIG    1       24.446 -29.526  12.012  0.00  0.00    +0.271 C 
BRANCH  20  21
ATOM     21  O   LIG    1       25.017 -29.630  13.278  0.00  0.00    -0.459 OA
BRANCH  21  22
ATOM     22  C   LIG    1       26.357 -29.489  13.329  0.00  0.00    +0.321 C 
ATOM     23  O   LIG    1       27.169 -30.294  12.903  0.00  0.00    -0.249 OA
BRANCH  22  24
ATOM     24  C   LIG    1       26.560 -28.234  14.213  0.00  0.00    +0.202 C 
BRANCH  24  26
ATOM     25  C   LIG    1       26.927 -25.771  13.246  0.00  0.00    +0.101 C 
ATOM     26  N   LIG    1       26.141 -26.984  13.490  0.00  0.00    -0.310 NA
ATOM     27  H   LIG    1       25.155 -26.752  13.603  0.00  0.00    +0.122 HD
ENDBRANCH  24  26
ENDBRANCH  22  24
ENDBRANCH  21  22
ENDBRANCH  20  21
ENDBRANCH  14  20
ENDBRANCH  10  15
ENDBRANCH   9  11
ENDBRANCH   7   9
ENDBRANCH   2   7
ENDBRANCH   1   4
BRANCH   1  28
ATOM     28  C   LIG    1       26.182 -21.216   6.710  0.00  0.00    +0.122 C 
BRANCH  28  29
ATOM     29  C   LIG    1       25.008 -20.454   5.905  0.00  0.00    +0.024 A 
ATOM     30  C   LIG    1       23.638 -20.430   6.309  0.00  0.00    +0.130 A 
ATOM     31  F   LIG    1       23.199 -21.058   7.393  0.00  0.00    -0.205 F 
ATOM     32  C   LIG    1       22.581 -19.791   5.636  0.00  0.00    +0.041 A 
ATOM     33  C   LIG    1       22.847 -19.001   4.549  0.00  0.00    +0.041 A 
ATOM     34  C   LIG    1       24.123 -19.096   4.021  0.00  0.00    +0.124 A 
ATOM     35  F   LIG    1       24.381 -18.347   2.941  0.00  0.00    -0.205 F 
ATOM     36  C   LIG    1       25.160 -19.887   4.618  0.00  0.00    +0.047 A 
ENDBRANCH  28  29
BRANCH  28  37
ATOM     37  O   LIG    1       26.132 -20.631   8.049  0.00  0.00    -0.381 OA
ATOM     38  H   LIG    1       25.272 -20.865   8.449  0.00  0.00    +0.211 HD
ENDBRANCH  28  37
BRANCH  28  39
ATOM     39  C   LIG    1       27.637 -20.708   6.130  0.00  0.00    +0.080 C 
ATOM     40  C   LIG    1       27.584 -19.330   5.444  0.00  0.00    +0.018 C 
BRANCH  39  41
ATOM     41  C   LIG    1       28.737 -20.601   7.182  0.00  0.00    +0.085 A 
ATOM     42  S   LIG    1       29.500 -22.019   7.835  0.00  0.00    -0.080 S 
ATOM     43  C   LIG    1       30.672 -21.016   8.583  0.00  0.00    +0.075 A 
ATOM     44  C   LIG    1       30.235 -19.707   8.535  0.00  0.00    +0.078 A 
ATOM     45  N   LIG    1       29.180 -19.465   7.672  0.00  0.00    -0.244 NA
BRANCH  44  46
ATOM     46  C   LIG    1       30.798 -18.635   9.333  0.00  0.00    +0.001 A 
ATOM     47  C   LIG    1       31.946 -17.948   8.926  0.00  0.00    +0.011 A 
ATOM     48  C   LIG    1       32.513 -16.973   9.750  0.00  0.00    +0.019 A 
ATOM     49  C   LIG    1       31.935 -16.685  10.986  0.00  0.00    +0.052 A 
ATOM     50  C   LIG    1       30.778 -17.352  11.390  0.00  0.00    +0.019 A 
ATOM     51  C   LIG    1       30.209 -18.322  10.566  0.00  0.00    +0.011 A 
BRANCH  49  52
ATOM     52  C   LIG    1       32.554 -15.696  11.868  0.00  0.00    +0.099 C 
ATOM     53  N   LIG    1       33.025 -14.941  12.541  0.00  0.00    -0.191 NA
ENDBRANCH  49  52
ENDBRANCH  44  46
ENDBRANCH  39  41
ENDBRANCH  28  39
ENDBRANCH   1  28
TORSDOF 17
ENDMDL
MODEL 4
REMARK VINA RESULT:      -8.9      4.135     12.026
REMARK  Name = *****
REMARK                            x       y       z     vdW  Elec       q    Type
REMARK                         _______ _______ _______ _____ _____    ______ ____
ROOT
ATOM      1  C   LIG    1       24.891 -29.199   5.841  0.00  0.00    +0.190 C 
ENDROOT
BRANCH   1   4
ATOM      2  N   LIG    1       25.343 -25.606   6.415  0.00  0.00    -0.131 N 
ATOM      3  C   LIG    1       25.086 -26.837   6.890  0.00  0.00    +0.430 A 
ATOM      4  N   LIG    1       25.411 -27.747   5.932  0.00  0.00    -0.207 N 
ATOM      5  N   LIG    1       25.980 -27.094   4.865  0.00  0.00    -0.108 NA
ATOM      6  C   LIG    1       25.907 -25.837   5.174  0.00  0.00    +0.452 A 
BRANCH   2   7
ATOM      7  C   LIG    1       24.997 -24.354   7.103  0.00  0.00    +0.465 C 
ATOM      8  C   LIG    1       26.196 -23.443   7.312  0.00  0.00    +0.138 C 
BRANCH   7   9
ATOM      9  O   LIG    1       23.706 -23.855   6.716  0.00  0.00    -0.387 OA
BRANCH   9  11
ATOM     10  N   LIG    1       23.657 -22.253   5.097  0.00  0.00    -0.224 N 
ATOM     11  C   LIG    1       23.479 -22.544   6.449  0.00  0.00    +0.413 C 
ATOM     12  O   LIG    1       23.174 -21.753   7.330  0.00  0.00    -0.226 OA
ATOM     13  C   LIG    1       24.332 -23.206   4.199  0.00  0.00    +0.143 C 
BRANCH  10  15
ATOM     14  C   LIG    1       24.633 -20.099   4.427  0.00  0.00    +0.030 A 
ATOM     15  C   LIG    1       23.505 -20.891   4.686  0.00  0.00    +0.136 A 
ATOM     16  N   LIG    1       22.290 -20.316   4.739  0.00  0.00    -0.239 NA
ATOM     17  C   LIG    1       22.225 -18.970   4.490  0.00  0.00    +0.113 A 
ATOM     18  C   LIG    1       23.293 -18.132   4.217  0.00  0.00    +0.020 A 
ATOM     19  C   LIG    1       24.521 -18.725   4.111  0.00  0.00    +0.012 A 
BRANCH  14  20
ATOM     20  C   LIG    1       25.901 -20.356   5.168  0.00  0.00    +0.271 C 
BRANCH  20  21
ATOM     21  O   LIG    1       25.969 -20.156   6.544  0.00  0.00    -0.459 OA
BRANCH  21  22
ATOM     22  C   LIG    1       27.186 -20.321   7.101  0.00  0.00    +0.321 C 
ATOM     23  O   LIG    1       27.415 -20.368   8.298  0.00  0.00    -0.249 OA
BRANCH  22  24
ATOM     24  C   LIG    1       28.157 -20.211   5.900  0.00  0.00    +0.202 C 
BRANCH  24  26
ATOM     25  C   LIG    1       30.520 -19.166   6.578  0.00  0.00    +0.101 C 
ATOM     26  N   LIG    1       29.138 -19.089   6.092  0.00  0.00    -0.310 NA
ATOM     27  H   LIG    1       28.710 -18.209   6.376  0.00  0.00    +0.122 HD
ENDBRANCH  24  26
ENDBRANCH  22  24
ENDBRANCH  21  22
ENDBRANCH  20  21
ENDBRANCH  14  20
ENDBRANCH  10  15
ENDBRANCH   9  11
ENDBRANCH   7   9
ENDBRANCH   2   7
ENDBRANCH   1   4
BRANCH   1  28
ATOM     28  C   LIG    1       25.418 -30.662   6.557  0.00  0.00    +0.122 C 
BRANCH  28  29
ATOM     29  C   LIG    1       26.364 -31.809   5.926  0.00  0.00    +0.024 A 
ATOM     30  C   LIG    1       26.167 -32.399   4.640  0.00  0.00    +0.130 A 
ATOM     31  F   LIG    1       25.162 -32.060   3.843  0.00  0.00    -0.205 F 
ATOM     32  C   LIG    1       26.956 -33.406   4.055  0.00  0.00    +0.041 A 
ATOM     33  C   LIG    1       28.103 -33.817   4.679  0.00  0.00    +0.041 A 
ATOM     34  C   LIG    1       28.275 -33.396   5.986  0.00  0.00    +0.124 A 
ATOM     35  F   LIG    1       29.382 -33.817   6.611  0.00  0.00    -0.205 F 
ATOM     36  C   LIG    1       27.373 -32.494   6.642  0.00  0.00    +0.047 A 
ENDBRANCH  28  29
BRANCH  28  37
ATOM     37  O   LIG    1       26.113 -30.262   7.780  0.00  0.00    -0.381 OA
ATOM     38  H   LIG    1       26.663 -29.482   7.573  0.00  0.00    +0.211 HD
ENDBRANCH  28  37
BRANCH  28  39
ATOM     39  C   LIG    1       24.039 -31.363   7.119  0.00  0.00    +0.080 C 
ATOM     40  C   LIG    1       23.885 -32.841   6.715  0.00  0.00    +0.018 C 
BRANCH  39  41
ATOM     41  C   LIG    1       23.885 -31.334   8.637  0.00  0.00    +0.085 A 
ATOM     42  S   LIG    1       24.464 -32.639   9.627  0.00  0.00    -0.080 S 
ATOM     43  C   LIG    1       24.184 -31.678  11.019  0.00  0.00    +0.075 A 
ATOM     44  C   LIG    1       23.413 -30.589  10.661  0.00  0.00    +0.078 A 
ATOM     45  N   LIG    1       23.313 -30.354   9.300  0.00  0.00    -0.244 NA
BRANCH  44  46
ATOM     46  C   LIG    1       22.721 -29.740  11.610  0.00  0.00    +0.001 A 
ATOM     47  C   LIG    1       21.327 -29.752  11.718  0.00  0.00    +0.011 A 
ATOM     48  C   LIG    1       20.679 -28.869  12.584  0.00  0.00    +0.019 A 
ATOM     49  C   LIG    1       21.425 -27.967  13.343  0.00  0.00    +0.052 A 
ATOM     50  C   LIG    1       22.817 -27.962  13.256  0.00  0.00    +0.019 A 
ATOM     51  C   LIG    1       23.464 -28.847  12.395  0.00  0.00    +0.011 A 
BRANCH  49  52
ATOM     52  C   LIG    1       20.744 -27.012  14.217  0.00  0.00    +0.099 C 
ATOM     53  N   LIG    1       20.224 -26.283  14.881  0.00  0.00    -0.191 NA
ENDBRANCH  49  52
ENDBRANCH  44  46
ENDBRANCH  39  41
ENDBRANCH  28  39
ENDBRANCH   1  28
TORSDOF 17
ENDMDL
MODEL 5
REMARK VINA RESULT:      -8.8      3.661      5.766
REMARK  Name = *****
REMARK                            x       y       z     vdW  Elec       q    Type
REMARK                         _______ _______ _______ _____ _____    ______ ____
ROOT
ATOM      1  C   LIG    1       24.175 -24.541   6.357  0.00  0.00    +0.190 C 
ENDROOT
BRANCH   1   4
ATOM      2  N   LIG    1       25.151 -28.034   5.823  0.00  0.00    -0.131 N 
ATOM      3  C   LIG    1       24.220 -27.124   6.159  0.00  0.00    +0.430 A 
ATOM      4  N   LIG    1       24.668 -25.892   5.794  0.00  0.00    -0.207 N 
ATOM      5  N   LIG    1       25.860 -26.027   5.123  0.00  0.00    -0.108 NA
ATOM      6  C   LIG    1       26.122 -27.296   5.174  0.00  0.00    +0.452 A 
BRANCH   2   7
ATOM      7  C   LIG    1       25.093 -29.460   6.176  0.00  0.00    +0.465 C 
ATOM      8  C   LIG    1       25.506 -30.370   5.030  0.00  0.00    +0.138 C 
BRANCH   7   9
ATOM      9  O   LIG    1       25.487 -29.704   7.537  0.00  0.00    -0.387 OA
BRANCH   9  11
ATOM     10  N   LIG    1       25.414 -31.005   9.406  0.00  0.00    -0.224 N 
ATOM     11  C   LIG    1       24.681 -30.332   8.429  0.00  0.00    +0.413 C 
ATOM     12  O   LIG    1       23.462 -30.295   8.331  0.00  0.00    -0.226 OA
ATOM     13  C   LIG    1       26.858 -31.247   9.237  0.00  0.00    +0.143 C 
BRANCH  10  15
ATOM     14  C   LIG    1       24.395 -31.205  11.633  0.00  0.00    +0.030 A 
ATOM     15  C   LIG    1       24.687 -31.760  10.379  0.00  0.00    +0.136 A 
ATOM     16  N   LIG    1       24.456 -33.067  10.164  0.00  0.00    -0.239 NA
ATOM     17  C   LIG    1       23.898 -33.781  11.193  0.00  0.00    +0.113 A 
ATOM     18  C   LIG    1       23.574 -33.296  12.448  0.00  0.00    +0.020 A 
ATOM     19  C   LIG    1       23.761 -31.956  12.650  0.00  0.00    +0.012 A 
BRANCH  14  20
ATOM     20  C   LIG    1       25.326 -30.208  12.234  0.00  0.00    +0.271 C 
BRANCH  20  21
ATOM     21  O   LIG    1       26.610 -30.582  12.622  0.00  0.00    -0.459 OA
BRANCH  21  22
ATOM     22  C   LIG    1       27.535 -29.601  12.610  0.00  0.00    +0.321 C 
ATOM     23  O   LIG    1       28.658 -29.695  12.142  0.00  0.00    -0.249 OA
BRANCH  22  24
ATOM     24  C   LIG    1       26.906 -28.493  13.490  0.00  0.00    +0.202 C 
BRANCH  24  26
ATOM     25  C   LIG    1       27.110 -25.829  13.477  0.00  0.00    +0.101 C 
ATOM     26  N   LIG    1       27.638 -27.189  13.331  0.00  0.00    -0.310 NA
ATOM     27  H   LIG    1       28.374 -27.211  12.627  0.00  0.00    +0.122 HD
ENDBRANCH  24  26
ENDBRANCH  22  24
ENDBRANCH  21  22
ENDBRANCH  20  21
ENDBRANCH  14  20
ENDBRANCH  10  15
ENDBRANCH   9  11
ENDBRANCH   7   9
ENDBRANCH   2   7
ENDBRANCH   1   4
BRANCH   1  28
ATOM     28  C   LIG    1       24.566 -22.918   5.975  0.00  0.00    +0.122 C 
BRANCH  28  29
ATOM     29  C   LIG    1       25.834 -22.046   6.463  0.00  0.00    +0.024 A 
ATOM     30  C   LIG    1       26.433 -22.148   7.755  0.00  0.00    +0.130 A 
ATOM     31  F   LIG    1       25.982 -22.975   8.691  0.00  0.00    -0.205 F 
ATOM     32  C   LIG    1       27.529 -21.403   8.229  0.00  0.00    +0.041 A 
ATOM     33  C   LIG    1       28.200 -20.568   7.375  0.00  0.00    +0.041 A 
ATOM     34  C   LIG    1       27.589 -20.313   6.161  0.00  0.00    +0.124 A 
ATOM     35  F   LIG    1       28.228 -19.476   5.333  0.00  0.00    -0.205 F 
ATOM     36  C   LIG    1       26.374 -20.952   5.746  0.00  0.00    +0.047 A 
ENDBRANCH  28  29
BRANCH  28  37
ATOM     37  O   LIG    1       24.647 -22.876   4.516  0.00  0.00    -0.381 OA
ATOM     38  H   LIG    1       25.396 -22.299   4.271  0.00  0.00    +0.211 HD
ENDBRANCH  28  37
BRANCH  28  39
ATOM     39  C   LIG    1       23.188 -22.078   6.300  0.00  0.00    +0.080 C 
ATOM     40  C   LIG    1       23.104 -21.560   7.748  0.00  0.00    +0.018 C 
BRANCH  39  41
ATOM     41  C   LIG    1       22.966 -20.856   5.413  0.00  0.00    +0.085 A 
ATOM     42  S   LIG    1       21.501 -20.661   4.498  0.00  0.00    -0.080 S 
ATOM     43  C   LIG    1       21.969 -19.052   4.135  0.00  0.00    +0.075 A 
ATOM     44  C   LIG    1       23.298 -18.887   4.470  0.00  0.00    +0.078 A 
ATOM     45  N   LIG    1       23.837 -19.884   5.267  0.00  0.00    -0.244 NA
BRANCH  44  46
ATOM     46  C   LIG    1       24.115 -17.777   4.022  0.00  0.00    +0.001 A 
ATOM     47  C   LIG    1       25.399 -17.978   3.505  0.00  0.00    +0.011 A 
ATOM     48  C   LIG    1       26.196 -16.887   3.153  0.00  0.00    +0.019 A 
ATOM     49  C   LIG    1       25.713 -15.590   3.321  0.00  0.00    +0.052 A 
ATOM     50  C   LIG    1       24.426 -15.381   3.818  0.00  0.00    +0.019 A 
ATOM     51  C   LIG    1       23.628 -16.470   4.165  0.00  0.00    +0.011 A 
BRANCH  49  52
ATOM     52  C   LIG    1       26.564 -14.446   2.994  0.00  0.00    +0.099 C 
ATOM     53  N   LIG    1       27.214 -13.575   2.744  0.00  0.00    -0.191 NA
ENDBRANCH  49  52
ENDBRANCH  44  46
ENDBRANCH  39  41
ENDBRANCH  28  39
ENDBRANCH   1  28
TORSDOF 17
ENDMDL
MODEL 6
REMARK VINA RESULT:      -8.5      4.195     10.857
REMARK  Name = *****
REMARK                            x       y       z     vdW  Elec       q    Type
REMARK                         _______ _______ _______ _____ _____    ______ ____
ROOT
ATOM      1  C   LIG    1       24.241 -28.493   6.116  0.00  0.00    +0.190 C 
ENDROOT
BRANCH   1   4
ATOM      2  N   LIG    1       24.413 -24.831   6.110  0.00  0.00    -0.131 N 
ATOM      3  C   LIG    1       24.295 -25.989   6.783  0.00  0.00    +0.430 A 
ATOM      4  N   LIG    1       24.637 -27.009   5.949  0.00  0.00    -0.207 N 
ATOM      5  N   LIG    1       25.077 -26.488   4.756  0.00  0.00    -0.108 NA
ATOM      6  C   LIG    1       24.915 -25.207   4.879  0.00  0.00    +0.452 A 
BRANCH   2   7
ATOM      7  C   LIG    1       24.003 -23.517   6.628  0.00  0.00    +0.465 C 
ATOM      8  C   LIG    1       22.521 -23.241   6.433  0.00  0.00    +0.138 C 
BRANCH   7   9
ATOM      9  O   LIG    1       24.705 -23.160   7.831  0.00  0.00    -0.387 OA
BRANCH   9  11
ATOM     10  N   LIG    1       26.740 -22.296   7.279  0.00  0.00    -0.224 N 
ATOM     11  C   LIG    1       25.516 -22.074   7.909  0.00  0.00    +0.413 C 
ATOM     12  O   LIG    1       25.170 -21.055   8.489  0.00  0.00    -0.226 OA
ATOM     13  C   LIG    1       27.163 -23.656   6.903  0.00  0.00    +0.143 C 
BRANCH  10  15
ATOM     14  C   LIG    1       27.615 -20.141   6.485  0.00  0.00    +0.030 A 
ATOM     15  C   LIG    1       27.715 -21.250   7.337  0.00  0.00    +0.136 A 
ATOM     16  N   LIG    1       28.829 -21.425   8.068  0.00  0.00    -0.239 NA
ATOM     17  C   LIG    1       29.802 -20.465   7.964  0.00  0.00    +0.113 A 
ATOM     18  C   LIG    1       29.765 -19.342   7.155  0.00  0.00    +0.020 A 
ATOM     19  C   LIG    1       28.610 -19.137   6.451  0.00  0.00    +0.012 A 
BRANCH  14  20
ATOM     20  C   LIG    1       26.996 -20.298   5.138  0.00  0.00    +0.271 C 
BRANCH  20  21
ATOM     21  O   LIG    1       25.614 -20.396   5.001  0.00  0.00    -0.459 OA
BRANCH  21  22
ATOM     22  C   LIG    1       25.073 -19.685   3.990  0.00  0.00    +0.321 C 
ATOM     23  O   LIG    1       25.543 -18.666   3.513  0.00  0.00    -0.249 OA
BRANCH  22  24
ATOM     24  C   LIG    1       23.687 -20.343   3.780  0.00  0.00    +0.202 C 
BRANCH  24  26
ATOM     25  C   LIG    1       22.161 -18.288   4.547  0.00  0.00    +0.101 C 
ATOM     26  N   LIG    1       22.633 -19.675   4.619  0.00  0.00    -0.310 NA
ATOM     27  H   LIG    1       22.591 -20.016   5.578  0.00  0.00    +0.122 HD
ENDBRANCH  24  26
ENDBRANCH  22  24
ENDBRANCH  21  22
ENDBRANCH  20  21
ENDBRANCH  14  20
ENDBRANCH  10  15
ENDBRANCH   9  11
ENDBRANCH   7   9
ENDBRANCH   2   7
ENDBRANCH   1   4
BRANCH   1  28
ATOM     28  C   LIG    1       25.063 -29.840   6.780  0.00  0.00    +0.122 C 
BRANCH  28  29
ATOM     29  C   LIG    1       25.737 -31.089   6.010  0.00  0.00    +0.024 A 
ATOM     30  C   LIG    1       26.692 -31.976   6.594  0.00  0.00    +0.130 A 
ATOM     31  F   LIG    1       27.130 -31.839   7.840  0.00  0.00    -0.205 F 
ATOM     32  C   LIG    1       27.313 -33.068   5.960  0.00  0.00    +0.041 A 
ATOM     33  C   LIG    1       26.917 -33.437   4.702  0.00  0.00    +0.041 A 
ATOM     34  C   LIG    1       26.107 -32.541   4.028  0.00  0.00    +0.124 A 
ATOM     35  F   LIG    1       25.739 -32.884   2.786  0.00  0.00    -0.205 F 
ATOM     36  C   LIG    1       25.608 -31.336   4.623  0.00  0.00    +0.047 A 
ENDBRANCH  28  29
BRANCH  28  37
ATOM     37  O   LIG    1       26.159 -29.273   7.564  0.00  0.00    -0.381 OA
ATOM     38  H   LIG    1       25.825 -28.474   8.016  0.00  0.00    +0.211 HD
ENDBRANCH  28  37
BRANCH  28  39
ATOM     39  C   LIG    1       24.038 -30.419   7.931  0.00  0.00    +0.080 C 
ATOM     40  C   LIG    1       23.701 -31.912   7.767  0.00  0.00    +0.018 C 
BRANCH  39  41
ATOM     41  C   LIG    1       24.540 -30.265   9.364  0.00  0.00    +0.085 A 
ATOM     42  S   LIG    1       24.876 -31.653  10.355  0.00  0.00    -0.080 S 
ATOM     43  C   LIG    1       25.608 -30.621  11.512  0.00  0.00    +0.075 A 
ATOM     44  C   LIG    1       25.284 -29.312  11.212  0.00  0.00    +0.078 A 
ATOM     45  N   LIG    1       24.747 -29.109   9.951  0.00  0.00    -0.244 NA
BRANCH  44  46
ATOM     46  C   LIG    1       25.454 -28.204  12.130  0.00  0.00    +0.001 A 
ATOM     47  C   LIG    1       24.432 -27.815  13.002  0.00  0.00    +0.011 A 
ATOM     48  C   LIG    1       24.592 -26.696  13.821  0.00  0.00    +0.019 A 
ATOM     49  C   LIG    1       25.775 -25.959  13.768  0.00  0.00    +0.052 A 
ATOM     50  C   LIG    1       26.808 -26.352  12.916  0.00  0.00    +0.019 A 
ATOM     51  C   LIG    1       26.650 -27.472  12.101  0.00  0.00    +0.011 A 
BRANCH  49  52
ATOM     52  C   LIG    1       25.926 -24.762  14.594  0.00  0.00    +0.099 C 
ATOM     53  N   LIG    1       26.042 -23.848  15.223  0.00  0.00    -0.191 NA
ENDBRANCH  49  52
ENDBRANCH  44  46
ENDBRANCH  39  41
ENDBRANCH  28  39
ENDBRANCH   1  28
TORSDOF 17
ENDMDL
MODEL 7
REMARK VINA RESULT:      -8.5      3.999     12.697
REMARK  Name = *****
REMARK                            x       y       z     vdW  Elec       q    Type
REMARK                         _______ _______ _______ _____ _____    ______ ____
ROOT
ATOM      1  C   LIG    1       25.421 -29.458   9.990  0.00  0.00    +0.190 C 
ENDROOT
BRANCH   1   4
ATOM      2  N   LIG    1       25.806 -27.565   6.873  0.00  0.00    -0.131 N 
ATOM      3  C   LIG    1       26.313 -28.002   8.040  0.00  0.00    +0.430 A 
ATOM      4  N   LIG    1       25.503 -28.984   8.522  0.00  0.00    -0.207 N 
ATOM      5  N   LIG    1       24.518 -29.249   7.600  0.00  0.00    -0.108 NA
ATOM      6  C   LIG    1       24.716 -28.385   6.653  0.00  0.00    +0.452 A 
BRANCH   2   7
ATOM      7  C   LIG    1       26.323 -26.417   6.115  0.00  0.00    +0.465 C 
ATOM      8  C   LIG    1       26.451 -26.701   4.626  0.00  0.00    +0.138 C 
BRANCH   7   9
ATOM      9  O   LIG    1       25.841 -25.162   6.624  0.00  0.00    -0.387 OA
BRANCH   9  11
ATOM     10  N   LIG    1       25.208 -22.980   6.442  0.00  0.00    -0.224 N 
ATOM     11  C   LIG    1       25.240 -24.236   5.835  0.00  0.00    +0.413 C 
ATOM     12  O   LIG    1       24.781 -24.526   4.740  0.00  0.00    -0.226 OA
ATOM     13  C   LIG    1       25.496 -22.826   7.878  0.00  0.00    +0.143 C 
BRANCH  10  15
ATOM     14  C   LIG    1       25.278 -20.818   5.277  0.00  0.00    +0.030 A 
ATOM     15  C   LIG    1       24.549 -21.922   5.742  0.00  0.00    +0.136 A 
ATOM     16  N   LIG    1       23.205 -21.892   5.703  0.00  0.00    -0.239 NA
ATOM     17  C   LIG    1       22.620 -20.777   5.160  0.00  0.00    +0.113 A 
ATOM     18  C   LIG    1       23.277 -19.660   4.673  0.00  0.00    +0.020 A 
ATOM     19  C   LIG    1       24.644 -19.712   4.664  0.00  0.00    +0.012 A 
BRANCH  14  20
ATOM     20  C   LIG    1       26.492 -20.371   6.016  0.00  0.00    +0.271 C 
BRANCH  20  21
ATOM     21  O   LIG    1       27.690 -20.148   5.342  0.00  0.00    -0.459 OA
BRANCH  21  22
ATOM     22  C   LIG    1       28.801 -20.138   6.107  0.00  0.00    +0.321 C 
ATOM     23  O   LIG    1       29.117 -21.007   6.903  0.00  0.00    -0.249 OA
BRANCH  22  24
ATOM     24  C   LIG    1       29.391 -18.726   5.878  0.00  0.00    +0.202 C 
BRANCH  24  26
ATOM     25  C   LIG    1       31.407 -18.935   7.618  0.00  0.00    +0.101 C 
ATOM     26  N   LIG    1       30.222 -18.285   7.051  0.00  0.00    -0.310 NA
ATOM     27  H   LIG    1       29.689 -17.817   7.782  0.00  0.00    +0.122 HD
ENDBRANCH  24  26
ENDBRANCH  22  24
ENDBRANCH  21  22
ENDBRANCH  20  21
ENDBRANCH  14  20
ENDBRANCH  10  15
ENDBRANCH   9  11
ENDBRANCH   7   9
ENDBRANCH   2   7
ENDBRANCH   1   4
BRANCH   1  28
ATOM     28  C   LIG    1       24.139 -30.095  10.928  0.00  0.00    +0.122 C 
BRANCH  28  29
ATOM     29  C   LIG    1       23.598 -29.598  12.366  0.00  0.00    +0.024 A 
ATOM     30  C   LIG    1       24.390 -29.555  13.554  0.00  0.00    +0.130 A 
ATOM     31  F   LIG    1       25.659 -29.942  13.584  0.00  0.00    -0.205 F 
ATOM     32  C   LIG    1       23.960 -29.141  14.828  0.00  0.00    +0.041 A 
ATOM     33  C   LIG    1       22.709 -28.606  14.982  0.00  0.00    +0.041 A 
ATOM     34  C   LIG    1       21.845 -28.752  13.911  0.00  0.00    +0.124 A 
ATOM     35  F   LIG    1       20.611 -28.254  14.065  0.00  0.00    -0.205 F 
ATOM     36  C   LIG    1       22.241 -29.331  12.660  0.00  0.00    +0.047 A 
ENDBRANCH  28  29
BRANCH  28  37
ATOM     37  O   LIG    1       22.961 -30.030  10.064  0.00  0.00    -0.381 OA
ATOM     38  H   LIG    1       22.665 -29.100  10.028  0.00  0.00    +0.211 HD
ENDBRANCH  28  37
BRANCH  28  39
ATOM     39  C   LIG    1       24.456 -31.709  11.011  0.00  0.00    +0.080 C 
ATOM     40  C   LIG    1       23.676 -32.438  12.122  0.00  0.00    +0.018 C 
BRANCH  39  41
ATOM     41  C   LIG    1       24.162 -32.481   9.728  0.00  0.00    +0.085 A 
ATOM     42  S   LIG    1       23.051 -33.817   9.715  0.00  0.00    -0.080 S 
ATOM     43  C   LIG    1       23.112 -33.821   8.001  0.00  0.00    +0.075 A 
ATOM     44  C   LIG    1       24.169 -33.033   7.590  0.00  0.00    +0.078 A 
ATOM     45  N   LIG    1       24.711 -32.212   8.566  0.00  0.00    -0.244 NA
BRANCH  44  46
ATOM     46  C   LIG    1       24.720 -33.051   6.250  0.00  0.00    +0.001 A 
ATOM     47  C   LIG    1       26.026 -32.625   5.992  0.00  0.00    +0.011 A 
ATOM     48  C   LIG    1       26.507 -32.577   4.681  0.00  0.00    +0.019 A 
ATOM     49  C   LIG    1       25.678 -32.952   3.623  0.00  0.00    +0.052 A 
ATOM     50  C   LIG    1       24.380 -33.396   3.874  0.00  0.00    +0.019 A 
ATOM     51  C   LIG    1       23.902 -33.449   5.182  0.00  0.00    +0.011 A 
BRANCH  49  52
ATOM     52  C   LIG    1       26.167 -32.859   2.248  0.00  0.00    +0.099 C 
ATOM     53  N   LIG    1       26.537 -32.788   1.198  0.00  0.00    -0.191 NA
ENDBRANCH  49  52
ENDBRANCH  44  46
ENDBRANCH  39  41
ENDBRANCH  28  39
ENDBRANCH   1  28
TORSDOF 17
ENDMDL
MODEL 8
REMARK VINA RESULT:      -7.9      3.652      5.690
REMARK  Name = *****
REMARK                            x       y       z     vdW  Elec       q    Type
REMARK                         _______ _______ _______ _____ _____    ______ ____
ROOT
ATOM      1  C   LIG    1       24.341 -24.575   6.507  0.00  0.00    +0.190 C 
ENDROOT
BRANCH   1   4
ATOM      2  N   LIG    1       25.044 -28.082   5.702  0.00  0.00    -0.131 N 
ATOM      3  C   LIG    1       24.228 -27.149   6.222  0.00  0.00    +0.430 A 
ATOM      4  N   LIG    1       24.666 -25.923   5.825  0.00  0.00    -0.207 N 
ATOM      5  N   LIG    1       25.719 -26.080   4.955  0.00  0.00    -0.108 NA
ATOM      6  C   LIG    1       25.925 -27.360   4.920  0.00  0.00    +0.452 A 
BRANCH   2   7
ATOM      7  C   LIG    1       24.980 -29.518   6.013  0.00  0.00    +0.465 C 
ATOM      8  C   LIG    1       25.706 -30.378   4.992  0.00  0.00    +0.138 C 
BRANCH   7   9
ATOM      9  O   LIG    1       25.044 -29.775   7.426  0.00  0.00    -0.387 OA
BRANCH   9  11
ATOM     10  N   LIG    1       24.430 -30.680   9.425  0.00  0.00    -0.224 N 
ATOM     11  C   LIG    1       24.223 -30.659   8.046  0.00  0.00    +0.413 C 
ATOM     12  O   LIG    1       23.426 -31.344   7.420  0.00  0.00    -0.226 OA
ATOM     13  C   LIG    1       25.625 -30.058  10.021  0.00  0.00    +0.143 C 
BRANCH  10  15
ATOM     14  C   LIG    1       22.511 -31.197  10.870  0.00  0.00    +0.030 A 
ATOM     15  C   LIG    1       23.668 -31.613  10.197  0.00  0.00    +0.136 A 
ATOM     16  N   LIG    1       24.169 -32.838  10.435  0.00  0.00    -0.239 NA
ATOM     17  C   LIG    1       23.478 -33.636  11.309  0.00  0.00    +0.113 A 
ATOM     18  C   LIG    1       22.326 -33.296  11.997  0.00  0.00    +0.020 A 
ATOM     19  C   LIG    1       21.788 -32.070  11.715  0.00  0.00    +0.012 A 
BRANCH  14  20
ATOM     20  C   LIG    1       22.410 -29.796  11.369  0.00  0.00    +0.271 C 
BRANCH  20  21
ATOM     21  O   LIG    1       21.262 -29.359  12.025  0.00  0.00    -0.459 OA
BRANCH  21  22
ATOM     22  C   LIG    1       21.419 -29.028  13.323  0.00  0.00    +0.321 C 
ATOM     23  O   LIG    1       21.240 -29.777  14.269  0.00  0.00    -0.249 OA
BRANCH  22  24
ATOM     24  C   LIG    1       21.646 -27.497  13.286  0.00  0.00    +0.202 C 
BRANCH  24  26
ATOM     25  C   LIG    1       19.227 -26.858  14.221  0.00  0.00    +0.101 C 
ATOM     26  N   LIG    1       20.691 -26.782  14.200  0.00  0.00    -0.310 NA
ATOM     27  H   LIG    1       21.003 -25.853  14.480  0.00  0.00    +0.122 HD
ENDBRANCH  24  26
ENDBRANCH  22  24
ENDBRANCH  21  22
ENDBRANCH  20  21
ENDBRANCH  14  20
ENDBRANCH  10  15
ENDBRANCH   9  11
ENDBRANCH   7   9
ENDBRANCH   2   7
ENDBRANCH   1   4
BRANCH   1  28
ATOM     28  C   LIG    1       24.636 -22.951   6.054  0.00  0.00    +0.122 C 
BRANCH  28  29
ATOM     29  C   LIG    1       25.831 -21.974   6.528  0.00  0.00    +0.024 A 
ATOM     30  C   LIG    1       26.344 -21.915   7.860  0.00  0.00    +0.130 A 
ATOM     31  F   LIG    1       25.864 -22.662   8.847  0.00  0.00    -0.205 F 
ATOM     32  C   LIG    1       27.373 -21.074   8.321  0.00  0.00    +0.041 A 
ATOM     33  C   LIG    1       28.068 -20.301   7.430  0.00  0.00    +0.041 A 
ATOM     34  C   LIG    1       27.531 -20.200   6.158  0.00  0.00    +0.124 A 
ATOM     35  F   LIG    1       28.191 -19.423   5.290  0.00  0.00    -0.205 F 
ATOM     36  C   LIG    1       26.374 -20.935   5.737  0.00  0.00    +0.047 A 
ENDBRANCH  28  29
BRANCH  28  37
ATOM     37  O   LIG    1       24.752 -22.973   4.597  0.00  0.00    -0.381 OA
ATOM     38  H   LIG    1       25.430 -22.319   4.338  0.00  0.00    +0.211 HD
ENDBRANCH  28  37
BRANCH  28  39
ATOM     39  C   LIG    1       23.198 -22.189   6.305  0.00  0.00    +0.080 C 
ATOM     40  C   LIG    1       22.998 -21.702   7.753  0.00  0.00    +0.018 C 
BRANCH  39  41
ATOM     41  C   LIG    1       22.966 -20.966   5.424  0.00  0.00    +0.085 A 
ATOM     42  S   LIG    1       21.555 -20.835   4.417  0.00  0.00    -0.080 S 
ATOM     43  C   LIG    1       21.954 -19.196   4.110  0.00  0.00    +0.075 A 
ATOM     44  C   LIG    1       23.248 -18.964   4.534  0.00  0.00    +0.078 A 
ATOM     45  N   LIG    1       23.788 -19.944   5.350  0.00  0.00    -0.244 NA
BRANCH  44  46
ATOM     46  C   LIG    1       24.029 -17.803   4.157  0.00  0.00    +0.001 A 
ATOM     47  C   LIG    1       23.536 -16.505   4.330  0.00  0.00    +0.011 A 
ATOM     48  C   LIG    1       24.275 -15.406   3.887  0.00  0.00    +0.019 A 
ATOM     49  C   LIG    1       25.508 -15.602   3.265  0.00  0.00    +0.052 A 
ATOM     50  C   LIG    1       26.015 -16.892   3.106  0.00  0.00    +0.019 A 
ATOM     51  C   LIG    1       25.280 -17.989   3.553  0.00  0.00    +0.011 A 
BRANCH  49  52
ATOM     52  C   LIG    1       26.261 -14.454   2.761  0.00  0.00    +0.099 C 
ATOM     53  N   LIG    1       26.836 -13.579   2.377  0.00  0.00    -0.191 NA
ENDBRANCH  49  52
ENDBRANCH  44  46
ENDBRANCH  39  41
ENDBRANCH  28  39
ENDBRANCH   1  28
TORSDOF 17
ENDMDL
MODEL 9
REMARK VINA RESULT:      -7.8      4.684     11.009
REMARK  Name = *****
REMARK                            x       y       z     vdW  Elec       q    Type
REMARK                         _______ _______ _______ _____ _____    ______ ____
ROOT
ATOM      1  C   LIG    1       23.379 -30.156   9.211  0.00  0.00    +0.190 C 
ENDROOT
BRANCH   1   4
ATOM      2  N   LIG    1       24.826 -28.476   6.291  0.00  0.00    -0.131 N 
ATOM      3  C   LIG    1       24.807 -28.694   7.618  0.00  0.00    +0.430 A 
ATOM      4  N   LIG    1       24.043 -29.793   7.864  0.00  0.00    -0.207 N 
ATOM      5  N   LIG    1       23.649 -30.345   6.669  0.00  0.00    -0.108 NA
ATOM      6  C   LIG    1       24.111 -29.536   5.767  0.00  0.00    +0.452 A 
BRANCH   2   7
ATOM      7  C   LIG    1       25.433 -27.303   5.644  0.00  0.00    +0.465 C 
ATOM      8  C   LIG    1       25.929 -27.595   4.237  0.00  0.00    +0.138 C 
BRANCH   7   9
ATOM      9  O   LIG    1       24.764 -26.079   5.991  0.00  0.00    -0.387 OA
BRANCH   9  11
ATOM     10  N   LIG    1       24.566 -23.971   6.835  0.00  0.00    -0.224 N 
ATOM     11  C   LIG    1       25.434 -24.967   6.386  0.00  0.00    +0.413 C 
ATOM     12  O   LIG    1       26.653 -24.893   6.318  0.00  0.00    -0.226 OA
ATOM     13  C   LIG    1       23.120 -24.051   6.568  0.00  0.00    +0.143 C 
BRANCH  10  15
ATOM     14  C   LIG    1       25.033 -21.600   6.393  0.00  0.00    +0.030 A 
ATOM     15  C   LIG    1       25.138 -22.721   7.229  0.00  0.00    +0.136 A 
ATOM     16  N   LIG    1       25.943 -22.672   8.305  0.00  0.00    -0.239 NA
ATOM     17  C   LIG    1       26.592 -21.489   8.546  0.00  0.00    +0.113 A 
ATOM     18  C   LIG    1       26.525 -20.343   7.773  0.00  0.00    +0.020 A 
ATOM     19  C   LIG    1       25.667 -20.376   6.708  0.00  0.00    +0.012 A 
BRANCH  14  20
ATOM     20  C   LIG    1       24.974 -21.784   4.915  0.00  0.00    +0.271 C 
BRANCH  20  21
ATOM     21  O   LIG    1       23.850 -21.386   4.196  0.00  0.00    -0.459 OA
BRANCH  21  22
ATOM     22  C   LIG    1       23.796 -20.079   3.868  0.00  0.00    +0.321 C 
ATOM     23  O   LIG    1       24.757 -19.379   3.596  0.00  0.00    -0.249 OA
BRANCH  22  24
ATOM     24  C   LIG    1       22.321 -19.695   4.137  0.00  0.00    +0.202 C 
BRANCH  24  26
ATOM     25  C   LIG    1       22.378 -17.067   4.615  0.00  0.00    +0.101 C 
ATOM     26  N   LIG    1       22.225 -18.472   5.006  0.00  0.00    -0.310 NA
ATOM     27  H   LIG    1       22.560 -18.615   5.958  0.00  0.00    +0.122 HD
ENDBRANCH  24  26
ENDBRANCH  22  24
ENDBRANCH  21  22
ENDBRANCH  20  21
ENDBRANCH  14  20
ENDBRANCH  10  15
ENDBRANCH   9  11
ENDBRANCH   7   9
ENDBRANCH   2   7
ENDBRANCH   1   4
BRANCH   1  28
ATOM     28  C   LIG    1       23.235 -31.631  10.067  0.00  0.00    +0.122 C 
BRANCH  28  29
ATOM     29  C   LIG    1       22.097 -32.078  11.121  0.00  0.00    +0.024 A 
ATOM     30  C   LIG    1       20.809 -32.577  10.755  0.00  0.00    +0.130 A 
ATOM     31  F   LIG    1       20.423 -32.704   9.491  0.00  0.00    -0.205 F 
ATOM     32  C   LIG    1       19.784 -32.966  11.635  0.00  0.00    +0.041 A 
ATOM     33  C   LIG    1       20.025 -33.006  12.983  0.00  0.00    +0.041 A 
ATOM     34  C   LIG    1       21.193 -32.402  13.413  0.00  0.00    +0.124 A 
ATOM     35  F   LIG    1       21.422 -32.413  14.733  0.00  0.00    -0.205 F 
ATOM     36  C   LIG    1       22.166 -31.850  12.516  0.00  0.00    +0.047 A 
ENDBRANCH  28  29
BRANCH  28  37
ATOM     37  O   LIG    1       23.194 -32.670   9.039  0.00  0.00    -0.381 OA
ATOM     38  H   LIG    1       23.751 -32.377   8.292  0.00  0.00    +0.211 HD
ENDBRANCH  28  37
BRANCH  28  39
ATOM     39  C   LIG    1       24.713 -31.847  10.761  0.00  0.00    +0.080 C 
ATOM     40  C   LIG    1       25.644 -32.777   9.961  0.00  0.00    +0.018 C 
BRANCH  39  41
ATOM     41  C   LIG    1       25.505 -30.562  10.980  0.00  0.00    +0.085 A 
ATOM     42  S   LIG    1       27.041 -30.307  10.208  0.00  0.00    -0.080 S 
ATOM     43  C   LIG    1       27.002 -28.671  10.720  0.00  0.00    +0.075 A 
ATOM     44  C   LIG    1       26.006 -28.523  11.665  0.00  0.00    +0.078 A 
ATOM     45  N   LIG    1       25.109 -29.575  11.751  0.00  0.00    -0.244 NA
BRANCH  44  46
ATOM     46  C   LIG    1       25.885 -27.376  12.542  0.00  0.00    +0.001 A 
ATOM     47  C   LIG    1       24.701 -27.109  13.236  0.00  0.00    +0.011 A 
ATOM     48  C   LIG    1       24.584 -25.954  14.013  0.00  0.00    +0.019 A 
ATOM     49  C   LIG    1       25.651 -25.061  14.095  0.00  0.00    +0.052 A 
ATOM     50  C   LIG    1       26.843 -25.330  13.423  0.00  0.00    +0.019 A 
ATOM     51  C   LIG    1       26.962 -26.485  12.651  0.00  0.00    +0.011 A 
BRANCH  49  52
ATOM     52  C   LIG    1       25.513 -23.830  14.873  0.00  0.00    +0.099 C 
ATOM     53  N   LIG    1       25.409 -22.891  15.466  0.00  0.00    -0.191 NA
ENDBRANCH  49  52
ENDBRANCH  44  46
ENDBRANCH  39  41
ENDBRANCH  28  39
ENDBRANCH   1  28
TORSDOF 17
ENDMDL
