MODEL 1
REMARK VINA RESULT:       6.1      0.000      0.000
REMARK  Name = *****
REMARK                            x       y       z     vdW  Elec       q    Type
REMARK                         _______ _______ _______ _____ _____    ______ ____
ROOT
ATOM      1  C   LIG    1       24.534 -16.812   4.024  0.00  0.00    +0.166 C 
ENDROOT
BRANCH   1   2
ATOM      2  O   LIG    1       23.386 -15.952   3.997  0.00  0.00    -0.280 OA
BRANCH   2   3
ATOM      3  P   LIG    1       22.366 -15.812   5.210  0.00  0.00    +0.473 P 
ATOM      4  O   LIG    1       22.500 -14.762   6.245  0.00  0.00    -0.228 OA
BRANCH   3   5
ATOM      5  O   LIG    1       20.919 -16.242   4.694  0.00  0.00    -0.303 OA
ATOM      6  H   LIG    1       20.875 -17.210   4.651  0.00  0.00    +0.222 HD
ENDBRANCH   3   5
BRANCH   3   7
ATOM      7  O   LIG    1       22.574 -17.166   6.052  0.00  0.00    -0.303 OA
ATOM      8  H   LIG    1       23.424 -17.502   5.689  0.00  0.00    +0.222 HD
ENDBRANCH   3   7
ENDBRANCH   2   3
ENDBRANCH   1   2
BRANCH   1   9
ATOM      9  C   LIG    1       25.672 -16.040   3.190  0.00  0.00    +0.111 C 
BRANCH   9  10
ATOM     10  N   LIG    1       25.242 -14.897   2.351  0.00  0.00    -0.275 N 
ATOM     11  H   LIG    1       25.395 -14.915   1.351  0.00  0.00    +0.152 HD
ATOM     12  C   LIG    1       24.394 -13.877   2.693  0.00  0.00    +0.401 C 
ATOM     13  O   LIG    1       23.835 -13.208   1.812  0.00  0.00    -0.227 OA
BRANCH  12  14
ATOM     14  O   LIG    1       24.307 -13.645   4.018  0.00  0.00    -0.445 OA
BRANCH  14  15
ATOM     15  C   LIG    1       24.634 -12.314   4.489  0.00  0.00    +0.206 C 
ATOM     16  C   LIG    1       25.305 -12.380   5.865  0.00  0.00    +0.204 C 
ATOM     17  O   LIG    1       24.616 -11.447   6.712  0.00  0.00    -0.376 OA
ATOM     18  C   LIG    1       23.264 -11.449   6.255  0.00  0.00    +0.163 C 
ATOM     19  C   LIG    1       23.373 -11.500   4.745  0.00  0.00    +0.075 C 
ENDBRANCH  14  15
ENDBRANCH  12  14
ENDBRANCH   9  10
BRANCH   9  20
ATOM     20  C   LIG    1       27.118 -15.892   3.879  0.00  0.00    +0.060 C 
BRANCH  20  21
ATOM     21  C   LIG    1       27.807 -14.583   4.274  0.00  0.00    -0.045 A 
ATOM     22  C   LIG    1       28.228 -13.643   3.298  0.00  0.00    +0.003 A 
ATOM     23  C   LIG    1       28.712 -12.366   3.656  0.00  0.00    +0.000 A 
ATOM     24  C   LIG    1       28.738 -11.978   4.990  0.00  0.00    +0.000 A 
ATOM     25  C   LIG    1       28.332 -12.884   5.959  0.00  0.00    +0.000 A 
ATOM     26  C   LIG    1       27.892 -14.167   5.603  0.00  0.00    +0.003 A 
ENDBRANCH  20  21
ENDBRANCH   9  20
ENDBRANCH   1   9
BRANCH   1  27
ATOM     27  C   LIG    1       24.171 -18.233   3.533  0.00  0.00    +0.143 C 
BRANCH  27  28
ATOM     28  N   LIG    1       22.998 -19.052   4.236  0.00  0.00    -0.174 NA
BRANCH  28  29
ATOM     29  S   LIG    1       23.381 -20.318   5.386  0.00  0.00    +0.061 S 
ATOM     30  O   LIG    1       22.785 -21.553   5.020  0.00  0.00    -0.153 OA
ATOM     31  O   LIG    1       22.994 -19.705   6.670  0.00  0.00    -0.153 OA
BRANCH  29  32
ATOM     32  C   LIG    1       25.193 -20.598   5.601  0.00  0.00    +0.106 A 
ATOM     33  C   LIG    1       26.127 -19.804   4.962  0.00  0.00    +0.030 A 
ATOM     34  C   LIG    1       27.497 -19.871   5.185  0.00  0.00    +0.024 A 
ATOM     35  C   LIG    1       27.937 -20.453   6.357  0.00  0.00    +0.025 A 
ATOM     36  C   LIG    1       27.060 -21.306   7.021  0.00  0.00    +0.024 A 
ATOM     37  C   LIG    1       25.704 -21.452   6.609  0.00  0.00    +0.030 A 
BRANCH  35  38
ATOM     38  N   LIG    1       29.268 -20.291   6.762  0.00  0.00    -0.358 N 
ATOM     39  H   LIG    1       29.450 -20.710   7.673  0.00  0.00    +0.142 HD
ATOM     40  H   LIG    1       29.912 -20.671   6.072  0.00  0.00    +0.142 HD
ENDBRANCH  35  38
ENDBRANCH  29  32
ENDBRANCH  28  29
BRANCH  28  41
ATOM     41  C   LIG    1       21.902 -19.149   3.199  0.00  0.00    +0.112 C 
BRANCH  41  43
ATOM     42  C   LIG    1       19.947 -17.907   2.064  0.00  0.00    +0.008 C 
ATOM     43  C   LIG    1       20.535 -18.486   3.362  0.00  0.00    -0.002 C 
ATOM     44  C   LIG    1       19.539 -19.554   3.837  0.00  0.00    +0.008 C 
ENDBRANCH  41  43
ENDBRANCH  28  41
ENDBRANCH  27  28
ENDBRANCH   1  27
TORSDOF 17
ENDMDL
MODEL 2
REMARK VINA RESULT:       8.8      2.342      4.969
REMARK  Name = *****
REMARK                            x       y       z     vdW  Elec       q    Type
REMARK                         _______ _______ _______ _____ _____    ______ ____
ROOT
ATOM      1  C   LIG    1       25.755 -17.712   4.343  0.00  0.00    +0.166 C 
ENDROOT
BRANCH   1   2
ATOM      2  O   LIG    1       24.515 -17.931   3.655  0.00  0.00    -0.280 OA
BRANCH   2   3
ATOM      3  P   LIG    1       23.090 -17.643   4.301  0.00  0.00    +0.473 P 
ATOM      4  O   LIG    1       22.587 -18.382   5.481  0.00  0.00    -0.228 OA
BRANCH   3   5
ATOM      5  O   LIG    1       22.780 -16.086   4.143  0.00  0.00    -0.303 OA
ATOM      6  H   LIG    1       22.958 -15.821   3.227  0.00  0.00    +0.222 HD
ENDBRANCH   3   5
BRANCH   3   7
ATOM      7  O   LIG    1       22.049 -18.065   3.150  0.00  0.00    -0.303 OA
ATOM      8  H   LIG    1       21.184 -17.866   3.575  0.00  0.00    +0.222 HD
ENDBRANCH   3   7
ENDBRANCH   2   3
ENDBRANCH   1   2
BRANCH   1   9
ATOM      9  C   LIG    1       26.149 -16.181   4.048  0.00  0.00    +0.111 C 
BRANCH   9  10
ATOM     10  N   LIG    1       27.586 -15.825   4.116  0.00  0.00    -0.275 N 
ATOM     11  H   LIG    1       28.274 -16.529   4.353  0.00  0.00    +0.152 HD
ATOM     12  C   LIG    1       28.195 -14.696   3.635  0.00  0.00    +0.401 C 
ATOM     13  O   LIG    1       29.416 -14.686   3.427  0.00  0.00    -0.227 OA
BRANCH  12  14
ATOM     14  O   LIG    1       27.374 -13.635   3.501  0.00  0.00    -0.445 OA
BRANCH  14  15
ATOM     15  C   LIG    1       27.316 -12.690   4.597  0.00  0.00    +0.206 C 
ATOM     16  C   LIG    1       28.677 -12.013   4.797  0.00  0.00    +0.204 C 
ATOM     17  O   LIG    1       28.996 -12.118   6.194  0.00  0.00    -0.376 OA
ATOM     18  C   LIG    1       28.416 -13.349   6.623  0.00  0.00    +0.163 C 
ATOM     19  C   LIG    1       27.075 -13.402   5.921  0.00  0.00    +0.075 C 
ENDBRANCH  14  15
ENDBRANCH  12  14
ENDBRANCH   9  10
BRANCH   9  20
ATOM     20  C   LIG    1       25.292 -15.400   2.933  0.00  0.00    +0.060 C 
BRANCH  20  21
ATOM     21  C   LIG    1       24.545 -14.077   3.124  0.00  0.00    -0.045 A 
ATOM     22  C   LIG    1       24.146 -13.629   4.410  0.00  0.00    +0.003 A 
ATOM     23  C   LIG    1       23.605 -12.341   4.614  0.00  0.00    +0.000 A 
ATOM     24  C   LIG    1       23.500 -11.452   3.552  0.00  0.00    +0.000 A 
ATOM     25  C   LIG    1       23.883 -11.873   2.286  0.00  0.00    +0.000 A 
ATOM     26  C   LIG    1       24.379 -13.168   2.079  0.00  0.00    +0.003 A 
ENDBRANCH  20  21
ENDBRANCH   9  20
ENDBRANCH   1   9
BRANCH   1  27
ATOM     27  C   LIG    1       26.802 -18.778   3.946  0.00  0.00    +0.143 C 
BRANCH  27  28
ATOM     28  N   LIG    1       27.069 -20.035   4.888  0.00  0.00    -0.174 NA
BRANCH  28  29
ATOM     29  S   LIG    1       25.952 -20.409   6.185  0.00  0.00    +0.061 S 
ATOM     30  O   LIG    1       25.675 -19.266   6.980  0.00  0.00    -0.153 OA
ATOM     31  O   LIG    1       26.592 -21.572   6.828  0.00  0.00    -0.153 OA
BRANCH  29  32
ATOM     32  C   LIG    1       24.345 -21.102   5.601  0.00  0.00    +0.106 A 
ATOM     33  C   LIG    1       23.233 -21.139   6.422  0.00  0.00    +0.030 A 
ATOM     34  C   LIG    1       21.963 -21.520   6.005  0.00  0.00    +0.024 A 
ATOM     35  C   LIG    1       21.683 -21.481   4.654  0.00  0.00    +0.025 A 
ATOM     36  C   LIG    1       22.761 -21.495   3.772  0.00  0.00    +0.024 A 
ATOM     37  C   LIG    1       24.105 -21.386   4.234  0.00  0.00    +0.030 A 
BRANCH  35  38
ATOM     38  N   LIG    1       20.358 -21.572   4.211  0.00  0.00    -0.358 N 
ATOM     39  H   LIG    1       19.686 -21.415   4.962  0.00  0.00    +0.142 HD
ATOM     40  H   LIG    1       20.179 -20.924   3.447  0.00  0.00    +0.142 HD
ENDBRANCH  35  38
ENDBRANCH  29  32
ENDBRANCH  28  29
BRANCH  28  41
ATOM     41  C   LIG    1       28.573 -20.133   5.007  0.00  0.00    +0.112 C 
BRANCH  41  43
ATOM     42  C   LIG    1       29.369 -17.680   4.916  0.00  0.00    +0.008 C 
ATOM     43  C   LIG    1       29.436 -19.039   5.635  0.00  0.00    -0.002 C 
ATOM     44  C   LIG    1       28.925 -18.788   7.061  0.00  0.00    +0.008 C 
ENDBRANCH  41  43
ENDBRANCH  28  41
ENDBRANCH  27  28
ENDBRANCH   1  27
TORSDOF 17
ENDMDL
