MODEL 1
REMARK VINA RESULT:      -9.3      0.000      0.000
REMARK  Name = *****
REMARK                            x       y       z     vdW  Elec       q    Type
REMARK                         _______ _______ _______ _____ _____    ______ ____
ROOT
ATOM      1  C   LIG    1       28.880 -20.475   7.323  0.00  0.00    +0.003 C 
ATOM      2  C   LIG    1       27.645 -20.967   7.511  0.00  0.00    -0.050 C 
ATOM      3  C   LIG    1       27.480 -22.221   8.333  0.00  0.00    +0.044 C 
ENDROOT
BRANCH   1   5
ATOM      4  C   LIG    1       30.046 -18.292   7.022  0.00  0.00    +0.003 C 
ATOM      5  C   LIG    1       29.309 -19.320   6.563  0.00  0.00    +0.001 C 
BRANCH   4   7
ATOM      6  C   LIG    1       32.117 -18.153   8.430  0.00  0.00    +0.044 C 
ATOM      7  C   LIG    1       30.612 -18.058   8.354  0.00  0.00    -0.044 C 
ATOM      8  C   LIG    1       29.860 -17.692   9.415  0.00  0.00    +0.094 C 
BRANCH   8   9
ATOM      9  C   LIG    1       30.346 -17.391  10.762  0.00  0.00    +0.330 C 
ATOM     10  O   LIG    1       30.427 -16.302  11.321  0.00  0.00    -0.246 OA
BRANCH   9  11
ATOM     11  O   LIG    1       30.696 -18.526  11.384  0.00  0.00    -0.477 OA
ATOM     12  H   LIG    1       30.987 -19.119  10.664  0.00  0.00    +0.295 HD
ENDBRANCH   9  11
ENDBRANCH   8   9
ENDBRANCH   4   7
ENDBRANCH   1   5
BRANCH   2  13
ATOM     13  C   LIG    1       26.447 -20.390   6.936  0.00  0.00    +0.003 C 
ATOM     14  C   LIG    1       25.888 -20.836   5.799  0.00  0.00    +0.004 C 
BRANCH  14  15
ATOM     15  C   LIG    1       24.660 -20.311   5.208  0.00  0.00    -0.043 C 
ATOM     16  C   LIG    1       23.339 -20.875   5.797  0.00  0.00    -0.010 C 
ATOM     17  C   LIG    1       23.328 -22.421   5.718  0.00  0.00    +0.016 C 
ATOM     18  C   LIG    1       23.131 -20.456   7.271  0.00  0.00    +0.016 C 
ATOM     19  C   LIG    1       22.104 -20.394   4.986  0.00  0.00    +0.011 C 
ATOM     20  C   LIG    1       22.222 -18.932   4.597  0.00  0.00    +0.005 C 
ATOM     21  C   LIG    1       23.413 -18.764   3.668  0.00  0.00    +0.031 C 
ATOM     22  C   LIG    1       24.679 -19.399   4.201  0.00  0.00    -0.069 C 
ATOM     23  C   LIG    1       25.913 -18.898   3.485  0.00  0.00    +0.039 C 
ENDBRANCH  14  15
ENDBRANCH   2  13
TORSDOF 6
ENDMDL
MODEL 2
REMARK VINA RESULT:      -8.8      1.794      2.950
REMARK  Name = *****
REMARK                            x       y       z     vdW  Elec       q    Type
REMARK                         _______ _______ _______ _____ _____    ______ ____
ROOT
ATOM      1  C   LIG    1       30.821 -19.354   8.936  0.00  0.00    +0.003 C 
ATOM      2  C   LIG    1       30.391 -20.555   8.515  0.00  0.00    -0.050 C 
ATOM      3  C   LIG    1       31.029 -21.796   9.089  0.00  0.00    +0.044 C 
ENDROOT
BRANCH   1   5
ATOM      4  C   LIG    1       30.739 -16.869   9.124  0.00  0.00    +0.003 C 
ATOM      5  C   LIG    1       30.403 -18.029   8.530  0.00  0.00    +0.001 C 
BRANCH   4   7
ATOM      6  C   LIG    1       33.025 -16.272   9.967  0.00  0.00    +0.044 C 
ATOM      7  C   LIG    1       31.592 -16.619  10.290  0.00  0.00    -0.044 C 
ATOM      8  C   LIG    1       31.117 -16.607  11.555  0.00  0.00    +0.094 C 
BRANCH   8   9
ATOM      9  C   LIG    1       31.883 -16.319  12.768  0.00  0.00    +0.330 C 
ATOM     10  O   LIG    1       32.772 -16.985  13.288  0.00  0.00    -0.246 OA
BRANCH   9  11
ATOM     11  O   LIG    1       31.501 -15.140  13.280  0.00  0.00    -0.477 OA
ATOM     12  H   LIG    1       30.813 -15.371  13.934  0.00  0.00    +0.295 HD
ENDBRANCH   9  11
ENDBRANCH   8   9
ENDBRANCH   4   7
ENDBRANCH   1   5
BRANCH   2  13
ATOM     13  C   LIG    1       29.373 -20.742   7.502  0.00  0.00    +0.003 C 
ATOM     14  C   LIG    1       28.086 -20.400   7.680  0.00  0.00    +0.004 C 
BRANCH  14  15
ATOM     15  C   LIG    1       27.038 -20.535   6.672  0.00  0.00    -0.043 C 
ATOM     16  C   LIG    1       25.898 -21.530   7.023  0.00  0.00    -0.010 C 
ATOM     17  C   LIG    1       26.480 -22.926   7.351  0.00  0.00    +0.016 C 
ATOM     18  C   LIG    1       25.056 -21.050   8.228  0.00  0.00    +0.016 C 
ATOM     19  C   LIG    1       24.935 -21.737   5.820  0.00  0.00    +0.011 C 
ATOM     20  C   LIG    1       24.638 -20.430   5.107  0.00  0.00    +0.005 C 
ATOM     21  C   LIG    1       25.928 -19.891   4.511  0.00  0.00    +0.031 C 
ATOM     22  C   LIG    1       27.070 -19.845   5.503  0.00  0.00    -0.069 C 
ATOM     23  C   LIG    1       28.201 -18.961   5.028  0.00  0.00    +0.039 C 
ENDBRANCH  14  15
ENDBRANCH   2  13
TORSDOF 6
ENDMDL
MODEL 3
REMARK VINA RESULT:      -8.5      1.356      2.633
REMARK  Name = *****
REMARK                            x       y       z     vdW  Elec       q    Type
REMARK                         _______ _______ _______ _____ _____    ______ ____
ROOT
ATOM      1  C   LIG    1       30.351 -19.392   6.609  0.00  0.00    +0.003 C 
ATOM      2  C   LIG    1       29.187 -19.036   6.042  0.00  0.00    -0.050 C 
ATOM      3  C   LIG    1       29.202 -18.018   4.928  0.00  0.00    +0.044 C 
ENDROOT
BRANCH   1   5
ATOM      4  C   LIG    1       31.080 -19.992   8.916  0.00  0.00    +0.003 C 
ATOM      5  C   LIG    1       30.605 -20.311   7.698  0.00  0.00    +0.001 C 
BRANCH   4   7
ATOM      6  C   LIG    1       32.342 -17.849   8.592  0.00  0.00    +0.044 C 
ATOM      7  C   LIG    1       31.448 -18.687   9.473  0.00  0.00    -0.044 C 
ATOM      8  C   LIG    1       30.955 -18.225  10.643  0.00  0.00    +0.094 C 
BRANCH   8   9
ATOM      9  C   LIG    1       31.229 -16.921  11.247  0.00  0.00    +0.330 C 
ATOM     10  O   LIG    1       32.263 -16.523  11.774  0.00  0.00    -0.246 OA
BRANCH   9  11
ATOM     11  O   LIG    1       30.153 -16.129  11.131  0.00  0.00    -0.477 OA
ATOM     12  H   LIG    1       30.047 -15.732  12.018  0.00  0.00    +0.295 HD
ENDBRANCH   9  11
ENDBRANCH   8   9
ENDBRANCH   4   7
ENDBRANCH   1   5
BRANCH   2  13
ATOM     13  C   LIG    1       27.894 -19.539   6.461  0.00  0.00    +0.003 C 
ATOM     14  C   LIG    1       27.003 -20.077   5.613  0.00  0.00    +0.004 C 
BRANCH  14  15
ATOM     15  C   LIG    1       25.708 -20.630   6.000  0.00  0.00    -0.043 C 
ATOM     16  C   LIG    1       25.706 -21.481   7.299  0.00  0.00    -0.010 C 
ATOM     17  C   LIG    1       26.746 -22.623   7.199  0.00  0.00    +0.016 C 
ATOM     18  C   LIG    1       26.024 -20.633   8.552  0.00  0.00    +0.016 C 
ATOM     19  C   LIG    1       24.331 -22.169   7.525  0.00  0.00    +0.011 C 
ATOM     20  C   LIG    1       23.177 -21.238   7.201  0.00  0.00    +0.005 C 
ATOM     21  C   LIG    1       23.224 -20.892   5.721  0.00  0.00    +0.031 C 
ATOM     22  C   LIG    1       24.587 -20.422   5.261  0.00  0.00    -0.069 C 
ATOM     23  C   LIG    1       24.526 -19.721   3.924  0.00  0.00    +0.039 C 
ENDBRANCH  14  15
ENDBRANCH   2  13
TORSDOF 6
ENDMDL
MODEL 4
REMARK VINA RESULT:      -8.3      3.947      7.401
REMARK  Name = *****
REMARK                            x       y       z     vdW  Elec       q    Type
REMARK                         _______ _______ _______ _____ _____    ______ ____
ROOT
ATOM      1  C   LIG    1       23.477 -20.967   5.254  0.00  0.00    +0.003 C 
ATOM      2  C   LIG    1       24.587 -20.364   4.797  0.00  0.00    -0.050 C 
ATOM      3  C   LIG    1       24.748 -20.169   3.309  0.00  0.00    +0.044 C 
ENDROOT
BRANCH   1   5
ATOM      4  C   LIG    1       23.407 -22.427   7.273  0.00  0.00    +0.003 C 
ATOM      5  C   LIG    1       23.098 -21.296   6.611  0.00  0.00    +0.001 C 
BRANCH   4   7
ATOM      6  C   LIG    1       25.643 -23.560   7.237  0.00  0.00    +0.044 C 
ATOM      7  C   LIG    1       24.187 -23.590   6.841  0.00  0.00    -0.044 C 
ATOM      8  C   LIG    1       23.633 -24.653   6.219  0.00  0.00    +0.094 C 
BRANCH   8   9
ATOM      9  C   LIG    1       24.325 -25.872   5.799  0.00  0.00    +0.330 C 
ATOM     10  O   LIG    1       24.314 -26.979   6.327  0.00  0.00    -0.246 OA
BRANCH   9  11
ATOM     11  O   LIG    1       25.008 -25.643   4.668  0.00  0.00    -0.477 OA
ATOM     12  H   LIG    1       24.490 -26.097   3.975  0.00  0.00    +0.295 HD
ENDBRANCH   9  11
ENDBRANCH   8   9
ENDBRANCH   4   7
ENDBRANCH   1   5
BRANCH   2  13
ATOM     13  C   LIG    1       25.675 -19.920   5.644  0.00  0.00    +0.003 C 
ATOM     14  C   LIG    1       26.957 -20.260   5.434  0.00  0.00    +0.004 C 
BRANCH  14  15
ATOM     15  C   LIG    1       28.087 -19.802   6.239  0.00  0.00    -0.043 C 
ATOM     16  C   LIG    1       28.284 -20.537   7.593  0.00  0.00    -0.010 C 
ATOM     17  C   LIG    1       26.988 -20.470   8.438  0.00  0.00    +0.016 C 
ATOM     18  C   LIG    1       28.671 -22.021   7.401  0.00  0.00    +0.016 C 
ATOM     19  C   LIG    1       29.391 -19.861   8.450  0.00  0.00    +0.011 C 
ATOM     20  C   LIG    1       30.583 -19.452   7.605  0.00  0.00    +0.005 C 
ATOM     21  C   LIG    1       30.138 -18.396   6.605  0.00  0.00    +0.031 C 
ATOM     22  C   LIG    1       28.899 -18.792   5.832  0.00  0.00    -0.069 C 
ATOM     23  C   LIG    1       28.702 -17.941   4.598  0.00  0.00    +0.039 C 
ENDBRANCH  14  15
ENDBRANCH   2  13
TORSDOF 6
ENDMDL
MODEL 5
REMARK VINA RESULT:      -8.0      0.706      2.274
REMARK  Name = *****
REMARK                            x       y       z     vdW  Elec       q    Type
REMARK                         _______ _______ _______ _____ _____    ______ ____
ROOT
ATOM      1  C   LIG    1       28.980 -20.599   6.850  0.00  0.00    +0.003 C 
ATOM      2  C   LIG    1       27.734 -21.084   6.976  0.00  0.00    -0.050 C 
ATOM      3  C   LIG    1       27.549 -22.473   7.537  0.00  0.00    +0.044 C 
ENDROOT
BRANCH   1   5
ATOM      4  C   LIG    1       30.100 -18.377   6.996  0.00  0.00    +0.003 C 
ATOM      5  C   LIG    1       29.427 -19.328   6.322  0.00  0.00    +0.001 C 
BRANCH   4   7
ATOM      6  C   LIG    1       31.860 -19.084   8.636  0.00  0.00    +0.044 C 
ATOM      7  C   LIG    1       30.563 -18.354   8.387  0.00  0.00    -0.044 C 
ATOM      8  C   LIG    1       29.932 -17.657   9.357  0.00  0.00    +0.094 C 
BRANCH   8   9
ATOM      9  C   LIG    1       30.351 -17.539  10.754  0.00  0.00    +0.330 C 
ATOM     10  O   LIG    1       30.742 -18.420  11.513  0.00  0.00    -0.246 OA
BRANCH   9  11
ATOM     11  O   LIG    1       30.283 -16.258  11.144  0.00  0.00    -0.477 OA
ATOM     12  H   LIG    1       31.203 -15.934  11.076  0.00  0.00    +0.295 HD
ENDBRANCH   9  11
ENDBRANCH   8   9
ENDBRANCH   4   7
ENDBRANCH   1   5
BRANCH   2  13
ATOM     13  C   LIG    1       26.542 -20.372   6.565  0.00  0.00    +0.003 C 
ATOM     14  C   LIG    1       25.737 -20.794   5.576  0.00  0.00    +0.004 C 
BRANCH  14  15
ATOM     15  C   LIG    1       24.506 -20.128   5.158  0.00  0.00    -0.043 C 
ATOM     16  C   LIG    1       24.569 -19.409   3.782  0.00  0.00    -0.010 C 
ATOM     17  C   LIG    1       25.739 -18.396   3.754  0.00  0.00    +0.016 C 
ATOM     18  C   LIG    1       24.751 -20.405   2.613  0.00  0.00    +0.016 C 
ATOM     19  C   LIG    1       23.279 -18.585   3.512  0.00  0.00    +0.011 C 
ATOM     20  C   LIG    1       22.033 -19.336   3.943  0.00  0.00    +0.005 C 
ATOM     21  C   LIG    1       22.079 -19.543   5.449  0.00  0.00    +0.031 C 
ATOM     22  C   LIG    1       23.389 -20.128   5.931  0.00  0.00    -0.069 C 
ATOM     23  C   LIG    1       23.282 -20.687   7.331  0.00  0.00    +0.039 C 
ENDBRANCH  14  15
ENDBRANCH   2  13
TORSDOF 6
ENDMDL
MODEL 6
REMARK VINA RESULT:      -8.0      5.419      8.318
REMARK  Name = *****
REMARK                            x       y       z     vdW  Elec       q    Type
REMARK                         _______ _______ _______ _____ _____    ______ ____
ROOT
ATOM      1  C   LIG    1       24.007 -25.368   5.697  0.00  0.00    +0.003 C 
ATOM      2  C   LIG    1       24.005 -24.120   6.195  0.00  0.00    -0.050 C 
ATOM      3  C   LIG    1       22.767 -23.623   6.902  0.00  0.00    +0.044 C 
ENDROOT
BRANCH   1   5
ATOM      4  C   LIG    1       25.649 -27.207   5.332  0.00  0.00    +0.003 C 
ATOM      5  C   LIG    1       25.039 -26.066   4.961  0.00  0.00    +0.001 C 
BRANCH   4   7
ATOM      6  C   LIG    1       26.111 -27.523   7.777  0.00  0.00    +0.044 C 
ATOM      7  C   LIG    1       25.450 -28.040   6.522  0.00  0.00    -0.044 C 
ATOM      8  C   LIG    1       24.661 -29.137   6.524  0.00  0.00    +0.094 C 
BRANCH   8   9
ATOM      9  C   LIG    1       24.368 -29.994   7.672  0.00  0.00    +0.330 C 
ATOM     10  O   LIG    1       23.433 -29.922   8.463  0.00  0.00    -0.246 OA
BRANCH   9  11
ATOM     11  O   LIG    1       25.289 -30.965   7.764  0.00  0.00    -0.477 OA
ATOM     12  H   LIG    1       25.659 -30.865   8.663  0.00  0.00    +0.295 HD
ENDBRANCH   9  11
ENDBRANCH   8   9
ENDBRANCH   4   7
ENDBRANCH   1   5
BRANCH   2  13
ATOM     13  C   LIG    1       25.109 -23.192   6.062  0.00  0.00    +0.003 C 
ATOM     14  C   LIG    1       25.009 -21.884   6.347  0.00  0.00    +0.004 C 
BRANCH  14  15
ATOM     15  C   LIG    1       26.107 -20.924   6.264  0.00  0.00    -0.043 C 
ATOM     16  C   LIG    1       27.024 -20.847   7.515  0.00  0.00    -0.010 C 
ATOM     17  C   LIG    1       26.185 -20.564   8.785  0.00  0.00    +0.016 C 
ATOM     18  C   LIG    1       27.822 -22.154   7.734  0.00  0.00    +0.016 C 
ATOM     19  C   LIG    1       28.043 -19.679   7.402  0.00  0.00    +0.011 C 
ATOM     20  C   LIG    1       28.622 -19.572   6.004  0.00  0.00    +0.005 C 
ATOM     21  C   LIG    1       27.502 -19.234   5.032  0.00  0.00    +0.031 C 
ATOM     22  C   LIG    1       26.299 -20.142   5.170  0.00  0.00    -0.069 C 
ATOM     23  C   LIG    1       25.383 -20.060   3.970  0.00  0.00    +0.039 C 
ENDBRANCH  14  15
ENDBRANCH   2  13
TORSDOF 6
ENDMDL
MODEL 7
REMARK VINA RESULT:      -7.9      1.363      2.858
REMARK  Name = *****
REMARK                            x       y       z     vdW  Elec       q    Type
REMARK                         _______ _______ _______ _____ _____    ______ ____
ROOT
ATOM      1  C   LIG    1       29.870 -19.686   6.632  0.00  0.00    +0.003 C 
ATOM      2  C   LIG    1       28.679 -19.452   6.058  0.00  0.00    -0.050 C 
ATOM      3  C   LIG    1       28.596 -18.434   4.947  0.00  0.00    +0.044 C 
ENDROOT
BRANCH   1   5
ATOM      4  C   LIG    1       30.800 -20.231   8.880  0.00  0.00    +0.003 C 
ATOM      5  C   LIG    1       30.212 -20.578   7.720  0.00  0.00    +0.001 C 
BRANCH   4   7
ATOM      6  C   LIG    1       32.028 -18.105   8.367  0.00  0.00    +0.044 C 
ATOM      7  C   LIG    1       31.234 -18.916   9.362  0.00  0.00    -0.044 C 
ATOM      8  C   LIG    1       30.877 -18.425  10.568  0.00  0.00    +0.094 C 
BRANCH   8   9
ATOM      9  C   LIG    1       31.222 -17.109  11.107  0.00  0.00    +0.330 C 
ATOM     10  O   LIG    1       32.291 -16.731  11.577  0.00  0.00    -0.246 OA
BRANCH   9  11
ATOM     11  O   LIG    1       30.172 -16.282  11.002  0.00  0.00    -0.477 OA
ATOM     12  H   LIG    1       30.570 -15.394  10.911  0.00  0.00    +0.295 HD
ENDBRANCH   9  11
ENDBRANCH   8   9
ENDBRANCH   4   7
ENDBRANCH   1   5
BRANCH   2  13
ATOM     13  C   LIG    1       27.443 -20.088   6.466  0.00  0.00    +0.003 C 
ATOM     14  C   LIG    1       26.308 -20.017   5.753  0.00  0.00    +0.004 C 
BRANCH  14  15
ATOM     15  C   LIG    1       25.054 -20.675   6.109  0.00  0.00    -0.043 C 
ATOM     16  C   LIG    1       23.964 -20.680   5.001  0.00  0.00    -0.010 C 
ATOM     17  C   LIG    1       23.672 -19.237   4.524  0.00  0.00    +0.016 C 
ATOM     18  C   LIG    1       24.380 -21.530   3.778  0.00  0.00    +0.016 C 
ATOM     19  C   LIG    1       22.615 -21.239   5.534  0.00  0.00    +0.011 C 
ATOM     20  C   LIG    1       22.822 -22.447   6.430  0.00  0.00    +0.005 C 
ATOM     21  C   LIG    1       23.604 -22.018   7.662  0.00  0.00    +0.031 C 
ATOM     22  C   LIG    1       24.854 -21.232   7.331  0.00  0.00    -0.069 C 
ATOM     23  C   LIG    1       25.806 -21.158   8.503  0.00  0.00    +0.039 C 
ENDBRANCH  14  15
ENDBRANCH   2  13
TORSDOF 6
ENDMDL
MODEL 8
REMARK VINA RESULT:      -7.5      3.773      7.726
REMARK  Name = *****
REMARK                            x       y       z     vdW  Elec       q    Type
REMARK                         _______ _______ _______ _____ _____    ______ ____
ROOT
ATOM      1  C   LIG    1       24.271 -20.249   5.884  0.00  0.00    +0.003 C 
ATOM      2  C   LIG    1       25.418 -20.167   5.190  0.00  0.00    -0.050 C 
ATOM      3  C   LIG    1       25.367 -19.712   3.753  0.00  0.00    +0.044 C 
ENDROOT
BRANCH   1   5
ATOM      4  C   LIG    1       23.888 -21.948   7.667  0.00  0.00    +0.003 C 
ATOM      5  C   LIG    1       24.045 -20.679   7.247  0.00  0.00    +0.001 C 
BRANCH   4   7
ATOM      6  C   LIG    1       22.554 -23.793   6.615  0.00  0.00    +0.044 C 
ATOM      7  C   LIG    1       23.912 -23.203   6.910  0.00  0.00    -0.044 C 
ATOM      8  C   LIG    1       25.052 -23.746   6.429  0.00  0.00    +0.094 C 
BRANCH   8   9
ATOM      9  C   LIG    1       25.162 -24.963   5.624  0.00  0.00    +0.330 C 
ATOM     10  O   LIG    1       25.468 -26.094   5.986  0.00  0.00    -0.246 OA
BRANCH   9  11
ATOM     11  O   LIG    1       24.841 -24.698   4.350  0.00  0.00    -0.477 OA
ATOM     12  H   LIG    1       24.786 -25.577   3.925  0.00  0.00    +0.295 HD
ENDBRANCH   9  11
ENDBRANCH   8   9
ENDBRANCH   4   7
ENDBRANCH   1   5
BRANCH   2  13
ATOM     13  C   LIG    1       26.715 -20.532   5.723  0.00  0.00    +0.003 C 
ATOM     14  C   LIG    1       27.410 -19.753   6.567  0.00  0.00    +0.004 C 
BRANCH  14  15
ATOM     15  C   LIG    1       28.700 -20.100   7.157  0.00  0.00    -0.043 C 
ATOM     16  C   LIG    1       29.851 -19.094   6.887  0.00  0.00    -0.010 C 
ATOM     17  C   LIG    1       30.025 -18.866   5.366  0.00  0.00    +0.016 C 
ATOM     18  C   LIG    1       29.602 -17.726   7.566  0.00  0.00    +0.016 C 
ATOM     19  C   LIG    1       31.214 -19.639   7.399  0.00  0.00    +0.011 C 
ATOM     20  C   LIG    1       31.075 -20.321   8.748  0.00  0.00    +0.005 C 
ATOM     21  C   LIG    1       30.179 -21.539   8.593  0.00  0.00    +0.031 C 
ATOM     22  C   LIG    1       28.878 -21.236   7.881  0.00  0.00    -0.069 C 
ATOM     23  C   LIG    1       27.852 -22.328   8.081  0.00  0.00    +0.039 C 
ENDBRANCH  14  15
ENDBRANCH   2  13
TORSDOF 6
ENDMDL
MODEL 9
REMARK VINA RESULT:      -6.9      6.681      9.276
REMARK  Name = *****
REMARK                            x       y       z     vdW  Elec       q    Type
REMARK                         _______ _______ _______ _____ _____    ______ ____
ROOT
ATOM      1  C   LIG    1       26.036 -27.414   6.466  0.00  0.00    +0.003 C 
ATOM      2  C   LIG    1       25.621 -26.310   5.824  0.00  0.00    -0.050 C 
ATOM      3  C   LIG    1       25.550 -26.330   4.317  0.00  0.00    +0.044 C 
ENDROOT
BRANCH   1   5
ATOM      4  C   LIG    1       25.725 -28.674   8.594  0.00  0.00    +0.003 C 
ATOM      5  C   LIG    1       26.219 -27.644   7.883  0.00  0.00    +0.001 C 
BRANCH   4   7
ATOM      6  C   LIG    1       23.731 -30.124   9.055  0.00  0.00    +0.044 C 
ATOM      7  C   LIG    1       24.908 -29.813   8.163  0.00  0.00    -0.044 C 
ATOM      8  C   LIG    1       25.130 -30.478   7.008  0.00  0.00    +0.094 C 
BRANCH   8   9
ATOM      9  C   LIG    1       24.339 -31.588   6.478  0.00  0.00    +0.330 C 
ATOM     10  O   LIG    1       24.473 -32.790   6.682  0.00  0.00    -0.246 OA
BRANCH   9  11
ATOM     11  O   LIG    1       23.351 -31.116   5.704  0.00  0.00    -0.477 OA
ATOM     12  H   LIG    1       22.575 -31.076   6.297  0.00  0.00    +0.295 HD
ENDBRANCH   9  11
ENDBRANCH   8   9
ENDBRANCH   4   7
ENDBRANCH   1   5
BRANCH   2  13
ATOM     13  C   LIG    1       25.272 -25.070   6.487  0.00  0.00    +0.003 C 
ATOM     14  C   LIG    1       25.414 -23.864   5.914  0.00  0.00    +0.004 C 
BRANCH  14  15
ATOM     15  C   LIG    1       25.038 -22.595   6.531  0.00  0.00    -0.043 C 
ATOM     16  C   LIG    1       23.614 -22.079   6.185  0.00  0.00    -0.010 C 
ATOM     17  C   LIG    1       23.433 -21.980   4.651  0.00  0.00    +0.016 C 
ATOM     18  C   LIG    1       22.507 -22.996   6.755  0.00  0.00    +0.016 C 
ATOM     19  C   LIG    1       23.379 -20.646   6.740  0.00  0.00    +0.011 C 
ATOM     20  C   LIG    1       23.949 -20.484   8.137  0.00  0.00    +0.005 C 
ATOM     21  C   LIG    1       25.459 -20.657   8.076  0.00  0.00    +0.031 C 
ATOM     22  C   LIG    1       25.886 -21.909   7.341  0.00  0.00    -0.069 C 
ATOM     23  C   LIG    1       27.327 -22.271   7.623  0.00  0.00    +0.039 C 
ENDBRANCH  14  15
ENDBRANCH   2  13
TORSDOF 6
ENDMDL
