MODEL 1
REMARK VINA RESULT:       0.8      0.000      0.000
REMARK  Name = *****
REMARK                            x       y       z     vdW  Elec       q    Type
REMARK                         _______ _______ _______ _____ _____    ______ ____
ROOT
ATOM      1  C   LIG    1       23.682 -14.726   4.431  0.00  0.00    +0.067 C 
ENDROOT
BRANCH   1   2
ATOM      2  C   LIG    1       23.593 -16.310   4.341  0.00  0.00    +0.087 C 
ATOM      3  C   LIG    1       24.426 -17.277   3.878  0.00  0.00    +0.138 C 
ATOM      4  C   LIG    1       24.141 -18.697   3.949  0.00  0.00    +0.059 A 
ATOM      5  C   LIG    1       22.897 -19.090   4.376  0.00  0.00    +0.143 A 
ATOM      6  C   LIG    1       22.564 -20.437   4.376  0.00  0.00    +0.047 A 
ATOM      7  C   LIG    1       23.493 -21.380   3.910  0.00  0.00    +0.004 A 
ATOM      8  C   LIG    1       24.749 -20.988   3.464  0.00  0.00    +0.001 A 
ATOM      9  O   LIG    1       21.966 -18.145   4.794  0.00  0.00    -0.422 OA
ATOM     10  C   LIG    1       25.074 -19.649   3.498  0.00  0.00    +0.015 A 
ATOM     11  C   LIG    1       22.428 -16.867   5.137  0.00  0.00    +0.345 C 
ATOM     12  O   LIG    1       21.904 -16.242   6.010  0.00  0.00    -0.245 OA
BRANCH   3  13
ATOM     13  O   LIG    1       25.669 -17.114   3.329  0.00  0.00    -0.505 OA
ATOM     14  H   LIG    1       26.092 -18.002   3.441  0.00  0.00    +0.292 HD
ENDBRANCH   3  13
ENDBRANCH   1   2
BRANCH   1  15
ATOM     15  C   LIG    1       25.107 -14.087   4.542  0.00  0.00    -0.039 A 
ATOM     16  C   LIG    1       26.122 -14.228   3.595  0.00  0.00    +0.011 A 
ATOM     17  C   LIG    1       27.378 -13.601   3.784  0.00  0.00    +0.084 A 
ATOM     18  C   LIG    1       27.672 -12.885   4.952  0.00  0.00    +0.273 A 
ATOM     19  C   LIG    1       26.687 -12.715   5.895  0.00  0.00    +0.084 A 
ATOM     20  C   LIG    1       25.439 -13.214   5.568  0.00  0.00    +0.011 A 
BRANCH  18  21
ATOM     21  N   LIG    1       28.934 -12.197   5.170  0.00  0.00    +0.080 N 
ATOM     22  O   LIG    1       29.475 -11.682   4.183  0.00  0.00    -0.576 OA
ATOM     23  O   LIG    1       29.407 -12.159   6.311  0.00  0.00    +0.041 OA
ENDBRANCH  18  21
ENDBRANCH   1  15
BRANCH   1  24
ATOM     24  C   LIG    1       22.873 -13.956   3.325  0.00  0.00    +0.087 C 
BRANCH  24  26
ATOM     25  C   LIG    1       24.419 -12.470   1.831  0.00  0.00    +0.086 C 
ATOM     26  C   LIG    1       23.331 -12.571   2.876  0.00  0.00    +0.131 C 
ATOM     27  O   LIG    1       22.927 -11.557   3.447  0.00  0.00    -0.298 OA
ENDBRANCH  24  26
ENDBRANCH   1  24
TORSDOF 6
ENDMDL
MODEL 2
REMARK VINA RESULT:       1.6      2.715      5.001
REMARK  Name = *****
REMARK                            x       y       z     vdW  Elec       q    Type
REMARK                         _______ _______ _______ _____ _____    ______ ____
ROOT
ATOM      1  C   LIG    1       26.503 -18.901   4.570  0.00  0.00    +0.067 C 
ENDROOT
BRANCH   1   2
ATOM      2  C   LIG    1       24.966 -19.287   4.461  0.00  0.00    +0.087 C 
ATOM      3  C   LIG    1       23.847 -18.613   4.091  0.00  0.00    +0.138 C 
ATOM      4  C   LIG    1       22.526 -19.207   4.021  0.00  0.00    +0.059 A 
ATOM      5  C   LIG    1       22.362 -20.485   4.493  0.00  0.00    +0.143 A 
ATOM      6  C   LIG    1       21.095 -21.051   4.517  0.00  0.00    +0.047 A 
ATOM      7  C   LIG    1       19.992 -20.298   4.089  0.00  0.00    +0.004 A 
ATOM      8  C   LIG    1       20.149 -18.999   3.623  0.00  0.00    +0.001 A 
ATOM      9  O   LIG    1       23.455 -21.208   4.958  0.00  0.00    -0.422 OA
ATOM     10  C   LIG    1       21.417 -18.461   3.578  0.00  0.00    +0.015 A 
ATOM     11  C   LIG    1       24.737 -20.782   4.588  0.00  0.00    +0.345 C 
ATOM     12  O   LIG    1       25.614 -21.572   4.402  0.00  0.00    -0.245 OA
BRANCH   3  13
ATOM     13  O   LIG    1       23.758 -17.312   3.675  0.00  0.00    -0.505 OA
ATOM     14  H   LIG    1       23.596 -17.389   2.701  0.00  0.00    +0.292 HD
ENDBRANCH   3  13
ENDBRANCH   1   2
BRANCH   1  15
ATOM     15  C   LIG    1       26.900 -17.419   4.260  0.00  0.00    -0.039 A 
ATOM     16  C   LIG    1       28.038 -16.778   4.751  0.00  0.00    +0.011 A 
ATOM     17  C   LIG    1       28.314 -15.432   4.403  0.00  0.00    +0.084 A 
ATOM     18  C   LIG    1       27.426 -14.678   3.624  0.00  0.00    +0.273 A 
ATOM     19  C   LIG    1       26.305 -15.289   3.113  0.00  0.00    +0.084 A 
ATOM     20  C   LIG    1       26.187 -16.645   3.356  0.00  0.00    +0.011 A 
BRANCH  18  21
ATOM     21  N   LIG    1       27.688 -13.308   3.216  0.00  0.00    +0.080 N 
ATOM     22  O   LIG    1       26.846 -12.763   2.490  0.00  0.00    -0.576 OA
ATOM     23  O   LIG    1       28.723 -12.755   3.602  0.00  0.00    +0.041 OA
ENDBRANCH  18  21
ENDBRANCH   1  15
BRANCH   1  24
ATOM     24  C   LIG    1       27.198 -19.336   5.911  0.00  0.00    +0.087 C 
BRANCH  24  26
ATOM     25  C   LIG    1       28.810 -21.185   6.817  0.00  0.00    +0.086 C 
ATOM     26  C   LIG    1       28.556 -20.034   5.871  0.00  0.00    +0.131 C 
ATOM     27  O   LIG    1       29.475 -19.585   5.183  0.00  0.00    -0.298 OA
ENDBRANCH  24  26
ENDBRANCH   1  24
TORSDOF 6
ENDMDL
