MODEL 1
REMARK VINA RESULT:      -8.8      0.000      0.000
REMARK  Name = *****
REMARK                            x       y       z     vdW  Elec       q    Type
REMARK                         _______ _______ _______ _____ _____    ______ ____
ROOT
ATOM      1  C   LIG    1       28.154 -20.241   6.386  0.00  0.00    +0.134 C 
ATOM      2  N   LIG    1       28.312 -20.841   7.583  0.00  0.00    -0.276 N 
ATOM      3  C   LIG    1       27.051 -21.163   8.005  0.00  0.00    +0.347 C 
ATOM      4  O   LIG    1       26.754 -21.832   8.994  0.00  0.00    -0.245 OA
ATOM      5  N   LIG    1       26.190 -20.608   7.065  0.00  0.00    -0.213 N 
ATOM      6  N   LIG    1       26.913 -20.072   6.024  0.00  0.00    -0.154 NA
ENDROOT
BRANCH   1   8
ATOM      7  C   LIG    1       29.231 -18.255   5.381  0.00  0.00    +0.012 C 
ATOM      8  C   LIG    1       29.308 -19.759   5.559  0.00  0.00    +0.073 C 
ENDBRANCH   1   8
BRANCH   2   9
ATOM      9  C   LIG    1       29.532 -21.236   8.262  0.00  0.00    +0.169 C 
BRANCH   9  10
ATOM     10  C   LIG    1       30.532 -20.085   8.411  0.00  0.00    +0.250 C 
BRANCH  10  11
ATOM     11  O   LIG    1       29.877 -18.967   9.024  0.00  0.00    -0.490 OA
BRANCH  11  12
ATOM     12  C   LIG    1       30.684 -17.998   9.553  0.00  0.00    +0.121 A 
ATOM     13  C   LIG    1       31.751 -17.399   8.885  0.00  0.00    +0.045 A 
ATOM     14  C   LIG    1       32.553 -16.463   9.540  0.00  0.00    +0.004 A 
ATOM     15  C   LIG    1       32.270 -16.094  10.853  0.00  0.00    +0.000 A 
ATOM     16  C   LIG    1       31.175 -16.653  11.511  0.00  0.00    +0.004 A 
ATOM     17  C   LIG    1       30.382 -17.601  10.859  0.00  0.00    +0.045 A 
ENDBRANCH  11  12
ENDBRANCH  10  11
ENDBRANCH   9  10
ENDBRANCH   2   9
BRANCH   5  18
ATOM     18  C   LIG    1       24.758 -20.810   6.985  0.00  0.00    +0.150 C 
BRANCH  18  19
ATOM     19  C   LIG    1       24.381 -22.208   7.455  0.00  0.00    +0.039 C 
BRANCH  19  20
ATOM     20  C   LIG    1       23.991 -23.127   6.289  0.00  0.00    +0.086 C 
BRANCH  20  21
ATOM     21  N   LIG    1       25.173 -23.723   5.641  0.00  0.00    -0.299 NA
ATOM     22  C   LIG    1       26.097 -24.345   6.621  0.00  0.00    +0.103 C 
ATOM     23  C   LIG    1       25.593 -25.654   7.276  0.00  0.00    +0.120 C 
ATOM     24  N   LIG    1       25.220 -26.642   6.239  0.00  0.00    -0.327 N 
ATOM     25  C   LIG    1       24.275 -26.092   5.241  0.00  0.00    +0.120 C 
ATOM     26  C   LIG    1       24.817 -24.768   4.651  0.00  0.00    +0.103 C 
BRANCH  24  27
ATOM     27  C   LIG    1       25.157 -28.000   6.555  0.00  0.00    +0.031 A 
ATOM     28  C   LIG    1       25.489 -28.499   7.826  0.00  0.00    +0.043 A 
ATOM     29  C   LIG    1       25.445 -29.866   8.120  0.00  0.00    +0.043 A 
ATOM     30 CL   LIG    1       25.842 -30.407   9.707  0.00  0.00    -0.084 Cl
ATOM     31  C   LIG    1       25.071 -30.788   7.154  0.00  0.00    +0.020 A 
ATOM     32  C   LIG    1       24.762 -30.337   5.879  0.00  0.00    +0.003 A 
ATOM     33  C   LIG    1       24.818 -28.966   5.587  0.00  0.00    +0.023 A 
ENDBRANCH  24  27
ENDBRANCH  20  21
ENDBRANCH  19  20
ENDBRANCH  18  19
ENDBRANCH   5  18
TORSDOF 10
ENDMDL
MODEL 2
REMARK VINA RESULT:      -8.8      5.249     10.090
REMARK  Name = *****
REMARK                            x       y       z     vdW  Elec       q    Type
REMARK                         _______ _______ _______ _____ _____    ______ ____
ROOT
ATOM      1  C   LIG    1       25.762 -30.255   9.318  0.00  0.00    +0.134 C 
ATOM      2  N   LIG    1       24.722 -30.977   9.782  0.00  0.00    -0.276 N 
ATOM      3  C   LIG    1       23.883 -31.146   8.716  0.00  0.00    +0.347 C 
ATOM      4  O   LIG    1       22.874 -31.850   8.676  0.00  0.00    -0.245 OA
ATOM      5  N   LIG    1       24.431 -30.388   7.686  0.00  0.00    -0.213 N 
ATOM      6  N   LIG    1       25.645 -29.873   8.077  0.00  0.00    -0.154 NA
ENDROOT
BRANCH   1   8
ATOM      7  C   LIG    1       26.889 -28.395  10.495  0.00  0.00    +0.012 C 
ATOM      8  C   LIG    1       26.936 -29.876  10.171  0.00  0.00    +0.073 C 
ENDBRANCH   1   8
BRANCH   2   9
ATOM      9  C   LIG    1       24.543 -31.606  11.078  0.00  0.00    +0.169 C 
BRANCH   9  10
ATOM     10  C   LIG    1       23.583 -30.834  11.989  0.00  0.00    +0.250 C 
BRANCH  10  11
ATOM     11  O   LIG    1       24.207 -29.613  12.404  0.00  0.00    -0.490 OA
BRANCH  11  12
ATOM     12  C   LIG    1       23.373 -28.572  12.710  0.00  0.00    +0.121 A 
ATOM     13  C   LIG    1       23.783 -27.362  13.268  0.00  0.00    +0.045 A 
ATOM     14  C   LIG    1       22.841 -26.388  13.601  0.00  0.00    +0.004 A 
ATOM     15  C   LIG    1       21.488 -26.603  13.344  0.00  0.00    +0.000 A 
ATOM     16  C   LIG    1       21.078 -27.791  12.741  0.00  0.00    +0.004 A 
ATOM     17  C   LIG    1       22.020 -28.772  12.423  0.00  0.00    +0.045 A 
ENDBRANCH  11  12
ENDBRANCH  10  11
ENDBRANCH   9  10
ENDBRANCH   2   9
BRANCH   5  18
ATOM     18  C   LIG    1       23.994 -30.369   6.306  0.00  0.00    +0.150 C 
BRANCH  18  19
ATOM     19  C   LIG    1       24.973 -29.592   5.437  0.00  0.00    +0.039 C 
BRANCH  19  20
ATOM     20  C   LIG    1       24.660 -28.090   5.410  0.00  0.00    +0.086 C 
BRANCH  20  21
ATOM     21  N   LIG    1       25.844 -27.289   5.051  0.00  0.00    -0.299 NA
ATOM     22  C   LIG    1       25.500 -26.132   4.189  0.00  0.00    +0.103 C 
ATOM     23  C   LIG    1       24.733 -24.984   4.888  0.00  0.00    +0.120 C 
ATOM     24  N   LIG    1       25.472 -24.519   6.083  0.00  0.00    -0.327 N 
ATOM     25  C   LIG    1       25.824 -25.624   7.003  0.00  0.00    +0.120 C 
ATOM     26  C   LIG    1       26.555 -26.754   6.238  0.00  0.00    +0.103 C 
BRANCH  24  27
ATOM     27  C   LIG    1       25.223 -23.251   6.612  0.00  0.00    +0.031 A 
ATOM     28  C   LIG    1       24.298 -22.360   6.042  0.00  0.00    +0.043 A 
ATOM     29  C   LIG    1       24.077 -21.083   6.569  0.00  0.00    +0.043 A 
ATOM     30 CL   LIG    1       22.911 -20.050   5.834  0.00  0.00    -0.084 Cl
ATOM     31  C   LIG    1       24.776 -20.645   7.685  0.00  0.00    +0.020 A 
ATOM     32  C   LIG    1       25.717 -21.487   8.260  0.00  0.00    +0.003 A 
ATOM     33  C   LIG    1       25.941 -22.761   7.720  0.00  0.00    +0.023 A 
ENDBRANCH  24  27
ENDBRANCH  20  21
ENDBRANCH  19  20
ENDBRANCH  18  19
ENDBRANCH   5  18
TORSDOF 10
ENDMDL
MODEL 3
REMARK VINA RESULT:      -8.7      1.757      2.324
REMARK  Name = *****
REMARK                            x       y       z     vdW  Elec       q    Type
REMARK                         _______ _______ _______ _____ _____    ______ ____
ROOT
ATOM      1  C   LIG    1       26.958 -20.204   5.678  0.00  0.00    +0.134 C 
ATOM      2  N   LIG    1       28.132 -20.206   6.340  0.00  0.00    -0.276 N 
ATOM      3  C   LIG    1       27.991 -21.126   7.342  0.00  0.00    +0.347 C 
ATOM      4  O   LIG    1       28.870 -21.525   8.105  0.00  0.00    -0.245 OA
ATOM      5  N   LIG    1       26.662 -21.535   7.288  0.00  0.00    -0.213 N 
ATOM      6  N   LIG    1       26.042 -20.974   6.195  0.00  0.00    -0.154 NA
ENDROOT
BRANCH   1   8
ATOM      7  C   LIG    1       25.307 -19.599   3.939  0.00  0.00    +0.012 C 
ATOM      8  C   LIG    1       26.704 -19.349   4.472  0.00  0.00    +0.073 C 
ENDBRANCH   1   8
BRANCH   2   9
ATOM      9  C   LIG    1       29.373 -19.524   6.019  0.00  0.00    +0.169 C 
BRANCH   9  10
ATOM     10  C   LIG    1       29.640 -18.316   6.921  0.00  0.00    +0.250 C 
BRANCH  10  11
ATOM     11  O   LIG    1       30.963 -18.415   7.464  0.00  0.00    -0.490 OA
BRANCH  11  12
ATOM     12  C   LIG    1       31.170 -17.837   8.686  0.00  0.00    +0.121 A 
ATOM     13  C   LIG    1       32.328 -17.154   9.057  0.00  0.00    +0.045 A 
ATOM     14  C   LIG    1       32.463 -16.655  10.354  0.00  0.00    +0.004 A 
ATOM     15  C   LIG    1       31.427 -16.803  11.274  0.00  0.00    +0.000 A 
ATOM     16  C   LIG    1       30.247 -17.442  10.893  0.00  0.00    +0.004 A 
ATOM     17  C   LIG    1       30.120 -17.955   9.600  0.00  0.00    +0.045 A 
ENDBRANCH  11  12
ENDBRANCH  10  11
ENDBRANCH   9  10
ENDBRANCH   2   9
BRANCH   5  18
ATOM     18  C   LIG    1       26.064 -22.616   8.043  0.00  0.00    +0.150 C 
BRANCH  18  19
ATOM     19  C   LIG    1       25.135 -23.442   7.164  0.00  0.00    +0.039 C 
BRANCH  19  20
ATOM     20  C   LIG    1       25.894 -24.489   6.339  0.00  0.00    +0.086 C 
BRANCH  20  21
ATOM     21  N   LIG    1       25.024 -25.139   5.342  0.00  0.00    -0.299 NA
ATOM     22  C   LIG    1       25.773 -26.077   4.470  0.00  0.00    +0.103 C 
ATOM     23  C   LIG    1       26.247 -27.385   5.149  0.00  0.00    +0.120 C 
ATOM     24  N   LIG    1       25.105 -28.085   5.779  0.00  0.00    -0.327 N 
ATOM     25  C   LIG    1       24.329 -27.210   6.686  0.00  0.00    +0.120 C 
ATOM     26  C   LIG    1       23.917 -25.906   5.962  0.00  0.00    +0.103 C 
BRANCH  24  27
ATOM     27  C   LIG    1       25.189 -29.450   6.063  0.00  0.00    +0.031 A 
ATOM     28  C   LIG    1       25.614 -30.396   5.115  0.00  0.00    +0.043 A 
ATOM     29  C   LIG    1       25.669 -31.764   5.407  0.00  0.00    +0.043 A 
ATOM     30 CL   LIG    1       26.224 -32.867   4.204  0.00  0.00    -0.084 Cl
ATOM     31  C   LIG    1       25.297 -32.239   6.655  0.00  0.00    +0.020 A 
ATOM     32  C   LIG    1       24.845 -31.338   7.609  0.00  0.00    +0.003 A 
ATOM     33  C   LIG    1       24.782 -29.970   7.307  0.00  0.00    +0.023 A 
ENDBRANCH  24  27
ENDBRANCH  20  21
ENDBRANCH  19  20
ENDBRANCH  18  19
ENDBRANCH   5  18
TORSDOF 10
ENDMDL
MODEL 4
REMARK VINA RESULT:      -8.7      2.129      4.037
REMARK  Name = *****
REMARK                            x       y       z     vdW  Elec       q    Type
REMARK                         _______ _______ _______ _____ _____    ______ ____
ROOT
ATOM      1  C   LIG    1       23.696 -21.326   6.627  0.00  0.00    +0.134 C 
ATOM      2  N   LIG    1       24.896 -21.522   7.210  0.00  0.00    -0.276 N 
ATOM      3  C   LIG    1       25.062 -22.878   7.270  0.00  0.00    +0.347 C 
ATOM      4  O   LIG    1       26.075 -23.482   7.620  0.00  0.00    -0.245 OA
ATOM      5  N   LIG    1       23.862 -23.421   6.821  0.00  0.00    -0.213 N 
ATOM      6  N   LIG    1       23.032 -22.419   6.374  0.00  0.00    -0.154 NA
ENDROOT
BRANCH   1   8
ATOM      7  C   LIG    1       22.514 -19.933   4.960  0.00  0.00    +0.012 C 
ATOM      8  C   LIG    1       23.144 -19.962   6.340  0.00  0.00    +0.073 C 
ENDBRANCH   1   8
BRANCH   2   9
ATOM      9  C   LIG    1       25.913 -20.553   7.573  0.00  0.00    +0.169 C 
BRANCH   9  10
ATOM     10  C   LIG    1       26.946 -20.328   6.465  0.00  0.00    +0.250 C 
BRANCH  10  11
ATOM     11  O   LIG    1       28.087 -21.161   6.706  0.00  0.00    -0.490 OA
BRANCH  11  12
ATOM     12  C   LIG    1       29.167 -20.567   7.299  0.00  0.00    +0.121 A 
ATOM     13  C   LIG    1       30.044 -21.204   8.176  0.00  0.00    +0.045 A 
ATOM     14  C   LIG    1       31.080 -20.487   8.776  0.00  0.00    +0.004 A 
ATOM     15  C   LIG    1       31.267 -19.139   8.475  0.00  0.00    +0.000 A 
ATOM     16  C   LIG    1       30.423 -18.509   7.561  0.00  0.00    +0.004 A 
ATOM     17  C   LIG    1       29.377 -19.224   6.972  0.00  0.00    +0.045 A 
ENDBRANCH  11  12
ENDBRANCH  10  11
ENDBRANCH   9  10
ENDBRANCH   2   9
BRANCH   5  18
ATOM     18  C   LIG    1       23.598 -24.818   6.549  0.00  0.00    +0.150 C 
BRANCH  18  19
ATOM     19  C   LIG    1       24.486 -25.329   5.423  0.00  0.00    +0.039 C 
BRANCH  19  20
ATOM     20  C   LIG    1       24.207 -26.800   5.086  0.00  0.00    +0.086 C 
BRANCH  20  21
ATOM     21  N   LIG    1       25.437 -27.612   5.113  0.00  0.00    -0.299 NA
ATOM     22  C   LIG    1       26.424 -27.103   6.097  0.00  0.00    +0.103 C 
ATOM     23  C   LIG    1       26.054 -27.319   7.584  0.00  0.00    +0.120 C 
ATOM     24  N   LIG    1       25.773 -28.748   7.847  0.00  0.00    -0.327 N 
ATOM     25  C   LIG    1       24.771 -29.313   6.914  0.00  0.00    +0.120 C 
ATOM     26  C   LIG    1       25.178 -29.033   5.447  0.00  0.00    +0.103 C 
BRANCH  24  27
ATOM     27  C   LIG    1       25.844 -29.250   9.148  0.00  0.00    +0.031 A 
ATOM     28  C   LIG    1       26.983 -29.098   9.956  0.00  0.00    +0.043 A 
ATOM     29  C   LIG    1       27.050 -29.628  11.250  0.00  0.00    +0.043 A 
ATOM     30 CL   LIG    1       28.468 -29.383  12.196  0.00  0.00    -0.084 Cl
ATOM     31  C   LIG    1       25.982 -30.335  11.782  0.00  0.00    +0.020 A 
ATOM     32  C   LIG    1       24.850 -30.530  11.003  0.00  0.00    +0.003 A 
ATOM     33  C   LIG    1       24.794 -30.005   9.705  0.00  0.00    +0.023 A 
ENDBRANCH  24  27
ENDBRANCH  20  21
ENDBRANCH  19  20
ENDBRANCH  18  19
ENDBRANCH   5  18
TORSDOF 10
ENDMDL
MODEL 5
REMARK VINA RESULT:      -8.7      1.446      2.315
REMARK  Name = *****
REMARK                            x       y       z     vdW  Elec       q    Type
REMARK                         _______ _______ _______ _____ _____    ______ ____
ROOT
ATOM      1  C   LIG    1       29.433 -21.113   7.882  0.00  0.00    +0.134 C 
ATOM      2  N   LIG    1       29.151 -20.332   6.820  0.00  0.00    -0.276 N 
ATOM      3  C   LIG    1       27.824 -20.532   6.557  0.00  0.00    +0.347 C 
ATOM      4  O   LIG    1       27.133 -19.920   5.742  0.00  0.00    -0.245 OA
ATOM      5  N   LIG    1       27.419 -21.541   7.425  0.00  0.00    -0.213 N 
ATOM      6  N   LIG    1       28.443 -21.858   8.287  0.00  0.00    -0.154 NA
ENDROOT
BRANCH   1   8
ATOM      7  C   LIG    1       30.817 -22.210   9.613  0.00  0.00    +0.012 C 
ATOM      8  C   LIG    1       30.791 -21.162   8.518  0.00  0.00    +0.073 C 
ENDBRANCH   1   8
BRANCH   2   9
ATOM      9  C   LIG    1       29.982 -19.349   6.151  0.00  0.00    +0.169 C 
BRANCH   9  10
ATOM     10  C   LIG    1       30.082 -18.029   6.921  0.00  0.00    +0.250 C 
BRANCH  10  11
ATOM     11  O   LIG    1       31.342 -17.974   7.604  0.00  0.00    -0.490 OA
BRANCH  11  12
ATOM     12  C   LIG    1       31.321 -17.521   8.894  0.00  0.00    +0.121 A 
ATOM     13  C   LIG    1       30.327 -17.818   9.826  0.00  0.00    +0.045 A 
ATOM     14  C   LIG    1       30.368 -17.251  11.101  0.00  0.00    +0.004 A 
ATOM     15  C   LIG    1       31.422 -16.414  11.463  0.00  0.00    +0.000 A 
ATOM     16  C   LIG    1       32.444 -16.152  10.551  0.00  0.00    +0.004 A 
ATOM     17  C   LIG    1       32.394 -16.708   9.271  0.00  0.00    +0.045 A 
ENDBRANCH  11  12
ENDBRANCH  10  11
ENDBRANCH   9  10
ENDBRANCH   2   9
BRANCH   5  18
ATOM     18  C   LIG    1       26.061 -21.997   7.640  0.00  0.00    +0.150 C 
BRANCH  18  19
ATOM     19  C   LIG    1       25.588 -22.861   6.480  0.00  0.00    +0.039 C 
BRANCH  19  20
ATOM     20  C   LIG    1       25.496 -24.345   6.860  0.00  0.00    +0.086 C 
BRANCH  20  21
ATOM     21  N   LIG    1       25.904 -25.223   5.749  0.00  0.00    -0.299 NA
ATOM     22  C   LIG    1       26.853 -26.276   6.185  0.00  0.00    +0.103 C 
ATOM     23  C   LIG    1       26.249 -27.397   7.064  0.00  0.00    +0.120 C 
ATOM     24  N   LIG    1       25.087 -28.016   6.389  0.00  0.00    -0.327 N 
ATOM     25  C   LIG    1       24.083 -27.019   5.951  0.00  0.00    +0.120 C 
ATOM     26  C   LIG    1       24.755 -25.908   5.109  0.00  0.00    +0.103 C 
BRANCH  24  27
ATOM     27  C   LIG    1       24.656 -29.291   6.761  0.00  0.00    +0.031 A 
ATOM     28  C   LIG    1       24.318 -29.620   8.084  0.00  0.00    +0.043 A 
ATOM     29  C   LIG    1       23.911 -30.909   8.447  0.00  0.00    +0.043 A 
ATOM     30 CL   LIG    1       23.488 -31.237  10.084  0.00  0.00    -0.084 Cl
ATOM     31  C   LIG    1       23.831 -31.920   7.501  0.00  0.00    +0.020 A 
ATOM     32  C   LIG    1       24.184 -31.640   6.188  0.00  0.00    +0.003 A 
ATOM     33  C   LIG    1       24.600 -30.349   5.834  0.00  0.00    +0.023 A 
ENDBRANCH  24  27
ENDBRANCH  20  21
ENDBRANCH  19  20
ENDBRANCH  18  19
ENDBRANCH   5  18
TORSDOF 10
ENDMDL
MODEL 6
REMARK VINA RESULT:      -8.5      4.098     10.582
REMARK  Name = *****
REMARK                            x       y       z     vdW  Elec       q    Type
REMARK                         _______ _______ _______ _____ _____    ______ ____
ROOT
ATOM      1  C   LIG    1       25.824 -28.986   8.315  0.00  0.00    +0.134 C 
ATOM      2  N   LIG    1       24.907 -29.790   7.743  0.00  0.00    -0.276 N 
ATOM      3  C   LIG    1       24.361 -29.062   6.722  0.00  0.00    +0.347 C 
ATOM      4  O   LIG    1       23.570 -29.465   5.869  0.00  0.00    -0.245 OA
ATOM      5  N   LIG    1       24.915 -27.791   6.833  0.00  0.00    -0.213 N 
ATOM      6  N   LIG    1       25.875 -27.781   7.819  0.00  0.00    -0.154 NA
ENDROOT
BRANCH   1   8
ATOM      7  C   LIG    1       26.806 -28.298  10.479  0.00  0.00    +0.012 C 
ATOM      8  C   LIG    1       26.684 -29.420   9.465  0.00  0.00    +0.073 C 
ENDBRANCH   1   8
BRANCH   2   9
ATOM      9  C   LIG    1       24.621 -31.190   7.999  0.00  0.00    +0.169 C 
BRANCH   9  10
ATOM     10  C   LIG    1       23.410 -31.394   8.914  0.00  0.00    +0.250 C 
BRANCH  10  11
ATOM     11  O   LIG    1       23.815 -31.223  10.279  0.00  0.00    -0.490 OA
BRANCH  11  12
ATOM     12  C   LIG    1       23.048 -30.392  11.047  0.00  0.00    +0.121 A 
ATOM     13  C   LIG    1       23.540 -29.336  11.813  0.00  0.00    +0.045 A 
ATOM     14  C   LIG    1       22.675 -28.587  12.613  0.00  0.00    +0.004 A 
ATOM     15  C   LIG    1       21.310 -28.866  12.624  0.00  0.00    +0.000 A 
ATOM     16  C   LIG    1       20.805 -29.890  11.823  0.00  0.00    +0.004 A 
ATOM     17  C   LIG    1       21.673 -30.649  11.034  0.00  0.00    +0.045 A 
ENDBRANCH  11  12
ENDBRANCH  10  11
ENDBRANCH   9  10
ENDBRANCH   2   9
BRANCH   5  18
ATOM     18  C   LIG    1       24.773 -26.705   5.886  0.00  0.00    +0.150 C 
BRANCH  18  19
ATOM     19  C   LIG    1       25.288 -25.399   6.476  0.00  0.00    +0.039 C 
BRANCH  19  20
ATOM     20  C   LIG    1       24.788 -24.174   5.698  0.00  0.00    +0.086 C 
BRANCH  20  21
ATOM     21  N   LIG    1       24.420 -23.066   6.598  0.00  0.00    -0.299 NA
ATOM     22  C   LIG    1       25.357 -22.936   7.741  0.00  0.00    +0.103 C 
ATOM     23  C   LIG    1       26.767 -22.401   7.391  0.00  0.00    +0.120 C 
ATOM     24  N   LIG    1       26.668 -21.111   6.673  0.00  0.00    -0.327 N 
ATOM     25  C   LIG    1       25.766 -21.178   5.501  0.00  0.00    +0.120 C 
ATOM     26  C   LIG    1       24.389 -21.754   5.907  0.00  0.00    +0.103 C 
BRANCH  24  27
ATOM     27  C   LIG    1       27.760 -20.242   6.638  0.00  0.00    +0.031 A 
ATOM     28  C   LIG    1       28.572 -20.000   7.759  0.00  0.00    +0.043 A 
ATOM     29  C   LIG    1       29.648 -19.107   7.716  0.00  0.00    +0.043 A 
ATOM     30 CL   LIG    1       30.618 -18.877   9.122  0.00  0.00    -0.084 Cl
ATOM     31  C   LIG    1       29.952 -18.418   6.552  0.00  0.00    +0.020 A 
ATOM     32  C   LIG    1       29.156 -18.609   5.432  0.00  0.00    +0.003 A 
ATOM     33  C   LIG    1       28.072 -19.498   5.484  0.00  0.00    +0.023 A 
ENDBRANCH  24  27
ENDBRANCH  20  21
ENDBRANCH  19  20
ENDBRANCH  18  19
ENDBRANCH   5  18
TORSDOF 10
ENDMDL
MODEL 7
REMARK VINA RESULT:      -8.5      3.202     10.258
REMARK  Name = *****
REMARK                            x       y       z     vdW  Elec       q    Type
REMARK                         _______ _______ _______ _____ _____    ______ ____
ROOT
ATOM      1  C   LIG    1       23.672 -21.747   6.308  0.00  0.00    +0.134 C 
ATOM      2  N   LIG    1       24.275 -22.940   6.487  0.00  0.00    -0.276 N 
ATOM      3  C   LIG    1       25.277 -22.715   7.391  0.00  0.00    +0.347 C 
ATOM      4  O   LIG    1       25.994 -23.563   7.922  0.00  0.00    -0.245 OA
ATOM      5  N   LIG    1       25.286 -21.341   7.604  0.00  0.00    -0.213 N 
ATOM      6  N   LIG    1       24.229 -20.756   6.945  0.00  0.00    -0.154 NA
ENDROOT
BRANCH   1   8
ATOM      7  C   LIG    1       22.375 -20.111   4.982  0.00  0.00    +0.012 C 
ATOM      8  C   LIG    1       22.485 -21.562   5.409  0.00  0.00    +0.073 C 
ENDBRANCH   1   8
BRANCH   2   9
ATOM      9  C   LIG    1       23.897 -24.248   5.987  0.00  0.00    +0.169 C 
BRANCH   9  10
ATOM     10  C   LIG    1       25.039 -24.961   5.257  0.00  0.00    +0.250 C 
BRANCH  10  11
ATOM     11  O   LIG    1       24.690 -26.337   5.062  0.00  0.00    -0.490 OA
BRANCH  11  12
ATOM     12  C   LIG    1       24.960 -27.191   6.096  0.00  0.00    +0.121 A 
ATOM     13  C   LIG    1       25.916 -26.965   7.085  0.00  0.00    +0.045 A 
ATOM     14  C   LIG    1       26.157 -27.933   8.062  0.00  0.00    +0.004 A 
ATOM     15  C   LIG    1       25.418 -29.114   8.077  0.00  0.00    +0.000 A 
ATOM     16  C   LIG    1       24.427 -29.324   7.119  0.00  0.00    +0.004 A 
ATOM     17  C   LIG    1       24.197 -28.362   6.133  0.00  0.00    +0.045 A 
ENDBRANCH  11  12
ENDBRANCH  10  11
ENDBRANCH   9  10
ENDBRANCH   2   9
BRANCH   5  18
ATOM     18  C   LIG    1       26.063 -20.630   8.598  0.00  0.00    +0.150 C 
BRANCH  18  19
ATOM     19  C   LIG    1       27.554 -20.789   8.336  0.00  0.00    +0.039 C 
BRANCH  19  20
ATOM     20  C   LIG    1       27.986 -20.129   7.019  0.00  0.00    +0.086 C 
BRANCH  20  21
ATOM     21  N   LIG    1       29.424 -20.320   6.756  0.00  0.00    -0.299 NA
ATOM     22  C   LIG    1       30.082 -19.070   6.303  0.00  0.00    +0.103 C 
ATOM     23  C   LIG    1       30.259 -17.978   7.386  0.00  0.00    +0.120 C 
ATOM     24  N   LIG    1       30.972 -18.526   8.562  0.00  0.00    -0.327 N 
ATOM     25  C   LIG    1       30.349 -19.763   9.083  0.00  0.00    +0.120 C 
ATOM     26  C   LIG    1       30.166 -20.798   7.947  0.00  0.00    +0.103 C 
BRANCH  24  27
ATOM     27  C   LIG    1       31.619 -17.667   9.453  0.00  0.00    +0.031 A 
ATOM     28  C   LIG    1       31.502 -17.793  10.847  0.00  0.00    +0.043 A 
ATOM     29  C   LIG    1       32.136 -16.910  11.728  0.00  0.00    +0.043 A 
ATOM     30 CL   LIG    1       31.969 -17.138  13.427  0.00  0.00    -0.084 Cl
ATOM     31  C   LIG    1       32.907 -15.862  11.248  0.00  0.00    +0.020 A 
ATOM     32  C   LIG    1       33.025 -15.688   9.876  0.00  0.00    +0.003 A 
ATOM     33  C   LIG    1       32.378 -16.571   8.999  0.00  0.00    +0.023 A 
ENDBRANCH  24  27
ENDBRANCH  20  21
ENDBRANCH  19  20
ENDBRANCH  18  19
ENDBRANCH   5  18
TORSDOF 10
ENDMDL
MODEL 8
REMARK VINA RESULT:      -8.5      1.902      3.191
REMARK  Name = *****
REMARK                            x       y       z     vdW  Elec       q    Type
REMARK                         _______ _______ _______ _____ _____    ______ ____
ROOT
ATOM      1  C   LIG    1       25.446 -20.771   5.076  0.00  0.00    +0.134 C 
ATOM      2  N   LIG    1       26.261 -20.843   6.147  0.00  0.00    -0.276 N 
ATOM      3  C   LIG    1       25.976 -22.037   6.749  0.00  0.00    +0.347 C 
ATOM      4  O   LIG    1       26.578 -22.550   7.692  0.00  0.00    -0.245 OA
ATOM      5  N   LIG    1       24.891 -22.558   6.051  0.00  0.00    -0.213 N 
ATOM      6  N   LIG    1       24.605 -21.761   4.966  0.00  0.00    -0.154 NA
ENDROOT
BRANCH   1   8
ATOM      7  C   LIG    1       24.052 -19.267   3.693  0.00  0.00    +0.012 C 
ATOM      8  C   LIG    1       25.465 -19.619   4.115  0.00  0.00    +0.073 C 
ENDBRANCH   1   8
BRANCH   2   9
ATOM      9  C   LIG    1       27.342 -19.960   6.544  0.00  0.00    +0.169 C 
BRANCH   9  10
ATOM     10  C   LIG    1       28.726 -20.594   6.368  0.00  0.00    +0.250 C 
BRANCH  10  11
ATOM     11  O   LIG    1       29.367 -20.690   7.647  0.00  0.00    -0.490 OA
BRANCH  11  12
ATOM     12  C   LIG    1       30.091 -19.603   8.053  0.00  0.00    +0.121 A 
ATOM     13  C   LIG    1       31.347 -19.253   7.557  0.00  0.00    +0.045 A 
ATOM     14  C   LIG    1       32.029 -18.157   8.087  0.00  0.00    +0.004 A 
ATOM     15  C   LIG    1       31.445 -17.383   9.088  0.00  0.00    +0.000 A 
ATOM     16  C   LIG    1       30.169 -17.700   9.553  0.00  0.00    +0.004 A 
ATOM     17  C   LIG    1       29.494 -18.806   9.033  0.00  0.00    +0.045 A 
ENDBRANCH  11  12
ENDBRANCH  10  11
ENDBRANCH   9  10
ENDBRANCH   2   9
BRANCH   5  18
ATOM     18  C   LIG    1       24.321 -23.879   6.208  0.00  0.00    +0.150 C 
BRANCH  18  19
ATOM     19  C   LIG    1       24.902 -24.846   5.186  0.00  0.00    +0.039 C 
BRANCH  19  20
ATOM     20  C   LIG    1       24.263 -26.238   5.274  0.00  0.00    +0.086 C 
BRANCH  20  21
ATOM     21  N   LIG    1       25.259 -27.311   5.105  0.00  0.00    -0.299 NA
ATOM     22  C   LIG    1       26.427 -27.139   6.002  0.00  0.00    +0.103 C 
ATOM     23  C   LIG    1       26.160 -27.401   7.504  0.00  0.00    +0.120 C 
ATOM     24  N   LIG    1       25.570 -28.744   7.699  0.00  0.00    -0.327 N 
ATOM     25  C   LIG    1       24.378 -28.972   6.850  0.00  0.00    +0.120 C 
ATOM     26  C   LIG    1       24.699 -28.659   5.369  0.00  0.00    +0.103 C 
BRANCH  24  27
ATOM     27  C   LIG    1       25.642 -29.368   8.946  0.00  0.00    +0.031 A 
ATOM     28  C   LIG    1       24.550 -30.039   9.522  0.00  0.00    +0.043 A 
ATOM     29  C   LIG    1       24.630 -30.638  10.784  0.00  0.00    +0.043 A 
ATOM     30 CL   LIG    1       23.259 -31.466  11.419  0.00  0.00    -0.084 Cl
ATOM     31  C   LIG    1       25.804 -30.586  11.521  0.00  0.00    +0.020 A 
ATOM     32  C   LIG    1       26.896 -29.909  10.997  0.00  0.00    +0.003 A 
ATOM     33  C   LIG    1       26.806 -29.301   9.737  0.00  0.00    +0.023 A 
ENDBRANCH  24  27
ENDBRANCH  20  21
ENDBRANCH  19  20
ENDBRANCH  18  19
ENDBRANCH   5  18
TORSDOF 10
ENDMDL
MODEL 9
REMARK VINA RESULT:      -8.4      5.196     10.318
REMARK  Name = *****
REMARK                            x       y       z     vdW  Elec       q    Type
REMARK                         _______ _______ _______ _____ _____    ______ ____
ROOT
ATOM      1  C   LIG    1       23.393 -31.814   9.342  0.00  0.00    +0.134 C 
ATOM      2  N   LIG    1       24.611 -31.676   9.902  0.00  0.00    -0.276 N 
ATOM      3  C   LIG    1       25.449 -31.317   8.882  0.00  0.00    +0.347 C 
ATOM      4  O   LIG    1       26.627 -30.975   8.981  0.00  0.00    -0.245 OA
ATOM      5  N   LIG    1       24.680 -31.387   7.725  0.00  0.00    -0.213 N 
ATOM      6  N   LIG    1       23.370 -31.656   8.048  0.00  0.00    -0.154 NA
ENDROOT
BRANCH   1   8
ATOM      7  C   LIG    1       21.387 -30.918  10.477  0.00  0.00    +0.012 C 
ATOM      8  C   LIG    1       22.169 -32.170  10.132  0.00  0.00    +0.073 C 
ENDBRANCH   1   8
BRANCH   2   9
ATOM      9  C   LIG    1       24.994 -31.725  11.301  0.00  0.00    +0.169 C 
BRANCH   9  10
ATOM     10  C   LIG    1       25.096 -30.338  11.941  0.00  0.00    +0.250 C 
BRANCH  10  11
ATOM     11  O   LIG    1       23.885 -30.056  12.654  0.00  0.00    -0.490 OA
BRANCH  11  12
ATOM     12  C   LIG    1       23.617 -28.740  12.913  0.00  0.00    +0.121 A 
ATOM     13  C   LIG    1       24.578 -27.781  13.231  0.00  0.00    +0.045 A 
ATOM     14  C   LIG    1       24.190 -26.476  13.541  0.00  0.00    +0.004 A 
ATOM     15  C   LIG    1       22.845 -26.114  13.498  0.00  0.00    +0.000 A 
ATOM     16  C   LIG    1       21.885 -27.057  13.133  0.00  0.00    +0.004 A 
ATOM     17  C   LIG    1       22.272 -28.367  12.838  0.00  0.00    +0.045 A 
ENDBRANCH  11  12
ENDBRANCH  10  11
ENDBRANCH   9  10
ENDBRANCH   2   9
BRANCH   5  18
ATOM     18  C   LIG    1       25.073 -30.947   6.403  0.00  0.00    +0.150 C 
BRANCH  18  19
ATOM     19  C   LIG    1       24.299 -29.701   5.993  0.00  0.00    +0.039 C 
BRANCH  19  20
ATOM     20  C   LIG    1       24.938 -28.416   6.536  0.00  0.00    +0.086 C 
BRANCH  20  21
ATOM     21  N   LIG    1       25.436 -27.551   5.451  0.00  0.00    -0.299 NA
ATOM     22  C   LIG    1       24.372 -26.679   4.896  0.00  0.00    +0.103 C 
ATOM     23  C   LIG    1       23.902 -25.529   5.819  0.00  0.00    +0.120 C 
ATOM     24  N   LIG    1       25.054 -24.705   6.248  0.00  0.00    -0.327 N 
ATOM     25  C   LIG    1       26.145 -25.514   6.839  0.00  0.00    +0.120 C 
ATOM     26  C   LIG    1       26.543 -26.666   5.887  0.00  0.00    +0.103 C 
BRANCH  24  27
ATOM     27  C   LIG    1       24.853 -23.402   6.707  0.00  0.00    +0.031 A 
ATOM     28  C   LIG    1       25.907 -22.582   7.144  0.00  0.00    +0.043 A 
ATOM     29  C   LIG    1       25.688 -21.286   7.625  0.00  0.00    +0.043 A 
ATOM     30 CL   LIG    1       27.029 -20.326   8.122  0.00  0.00    -0.084 Cl
ATOM     31  C   LIG    1       24.405 -20.762   7.691  0.00  0.00    +0.020 A 
ATOM     32  C   LIG    1       23.336 -21.551   7.293  0.00  0.00    +0.003 A 
ATOM     33  C   LIG    1       23.562 -22.853   6.823  0.00  0.00    +0.023 A 
ENDBRANCH  24  27
ENDBRANCH  20  21
ENDBRANCH  19  20
ENDBRANCH  18  19
ENDBRANCH   5  18
TORSDOF 10
ENDMDL
