MODEL 1
REMARK VINA RESULT:       8.2      0.000      0.000
REMARK  Name = *****
REMARK                            x       y       z     vdW  Elec       q    Type
REMARK                         _______ _______ _______ _____ _____    ______ ____
ROOT
ATOM      1  C   LIG    1       27.414 -14.901   3.527  0.00  0.00    +0.121 A 
ATOM      2  C   LIG    1       26.540 -15.815   2.956  0.00  0.00    +0.047 A 
ATOM      3  C   LIG    1       26.537 -17.163   3.380  0.00  0.00    +0.027 A 
ATOM      4  C   LIG    1       27.400 -17.650   4.378  0.00  0.00    +0.030 A 
ATOM      5  C   LIG    1       28.308 -16.707   4.888  0.00  0.00    +0.027 A 
ATOM      6  C   LIG    1       28.304 -15.360   4.490  0.00  0.00    +0.047 A 
ENDROOT
BRANCH   4   7
ATOM      7  N   LIG    1       27.371 -18.966   4.816  0.00  0.00    -0.330 N 
ATOM      8  C   LIG    1       27.192 -20.094   3.911  0.00  0.00    +0.108 C 
ATOM      9  C   LIG    1       25.940 -20.846   4.338  0.00  0.00    +0.063 C 
ATOM     10  C   LIG    1       25.880 -21.129   5.855  0.00  0.00    +0.176 C 
ATOM     11  C   LIG    1       27.193 -20.748   6.550  0.00  0.00    +0.063 C 
ATOM     12  C   LIG    1       27.722 -19.351   6.189  0.00  0.00    +0.108 C 
BRANCH  10  13
ATOM     13  O   LIG    1       24.786 -20.460   6.509  0.00  0.00    -0.489 OA
BRANCH  13  14
ATOM     14  C   LIG    1       23.661 -20.219   5.760  0.00  0.00    +0.121 A 
ATOM     15  C   LIG    1       23.298 -18.992   5.202  0.00  0.00    +0.049 A 
ATOM     16  C   LIG    1       22.077 -18.840   4.538  0.00  0.00    +0.049 A 
ATOM     17  C   LIG    1       21.203 -19.916   4.408  0.00  0.00    +0.130 A 
ATOM     18  C   LIG    1       21.579 -21.158   4.925  0.00  0.00    +0.049 A 
ATOM     19  C   LIG    1       22.797 -21.304   5.606  0.00  0.00    +0.049 A 
BRANCH  17  20
ATOM     20  O   LIG    1       20.034 -19.614   3.773  0.00  0.00    -0.406 OA
BRANCH  20  21
ATOM     21  C   LIG    1       20.006 -18.406   3.034  0.00  0.00    +0.575 C 
ATOM     22  F   LIG    1       19.350 -17.442   3.716  0.00  0.00    -0.133 F 
ATOM     23  F   LIG    1       19.350 -18.619   1.870  0.00  0.00    -0.133 F 
ATOM     24  F   LIG    1       21.254 -17.985   2.741  0.00  0.00    -0.133 F 
ENDBRANCH  20  21
ENDBRANCH  17  20
ENDBRANCH  13  14
ENDBRANCH  10  13
ENDBRANCH   4   7
BRANCH   1  25
ATOM     25  O   LIG    1       27.495 -13.562   3.266  0.00  0.00    -0.488 OA
BRANCH  25  26
ATOM     26  C   LIG    1       26.653 -13.036   2.240  0.00  0.00    +0.278 C 
BRANCH  26  28
ATOM     27  C   LIG    1       24.595 -11.553   2.352  0.00  0.00    +0.061 C 
ATOM     28  C   LIG    1       25.218 -12.892   2.777  0.00  0.00    +0.162 C 
ATOM     29  O   LIG    1       25.250 -12.902   4.251  0.00  0.00    -0.452 OA
ATOM     30  C   LIG    1       24.270 -13.701   4.627  0.00  0.00    +0.305 A 
ATOM     31  N   LIG    1       23.680 -14.388   3.617  0.00  0.00    -0.290 N 
ATOM     32  C   LIG    1       22.664 -15.116   4.087  0.00  0.00    +0.197 A 
ATOM     33  C   LIG    1       22.682 -14.802   5.441  0.00  0.00    +0.388 A 
ATOM     34  N   LIG    1       23.696 -13.906   5.781  0.00  0.00    -0.128 NA
ATOM     35  C   LIG    1       24.310 -14.081   2.351  0.00  0.00    +0.177 C 
BRANCH  33  36
ATOM     36  N   LIG    1       21.776 -15.269   6.455  0.00  0.00    +0.102 N 
ATOM     37  O   LIG    1       21.809 -16.456   6.762  0.00  0.00    -0.575 OA
ATOM     38  O   LIG    1       21.051 -14.377   6.984  0.00  0.00    +0.043 OA
ENDBRANCH  33  36
ENDBRANCH  26  28
ENDBRANCH  25  26
ENDBRANCH   1  25
TORSDOF 9
ENDMDL
MODEL 2
REMARK VINA RESULT:       9.3      1.147      1.588
REMARK  Name = *****
REMARK                            x       y       z     vdW  Elec       q    Type
REMARK                         _______ _______ _______ _____ _____    ______ ____
ROOT
ATOM      1  C   LIG    1       27.660 -13.970   4.123  0.00  0.00    +0.121 A 
ATOM      2  C   LIG    1       27.663 -15.000   3.192  0.00  0.00    +0.047 A 
ATOM      3  C   LIG    1       27.985 -16.318   3.585  0.00  0.00    +0.027 A 
ATOM      4  C   LIG    1       28.318 -16.659   4.909  0.00  0.00    +0.030 A 
ATOM      5  C   LIG    1       28.360 -15.580   5.806  0.00  0.00    +0.027 A 
ATOM      6  C   LIG    1       28.021 -14.269   5.431  0.00  0.00    +0.047 A 
ENDROOT
BRANCH   4   7
ATOM      7  N   LIG    1       28.601 -17.960   5.297  0.00  0.00    -0.330 N 
ATOM      8  C   LIG    1       28.620 -19.077   4.361  0.00  0.00    +0.108 C 
ATOM      9  C   LIG    1       27.588 -20.095   4.821  0.00  0.00    +0.063 C 
ATOM     10  C   LIG    1       27.676 -20.424   6.327  0.00  0.00    +0.176 C 
ATOM     11  C   LIG    1       28.912 -19.783   6.970  0.00  0.00    +0.063 C 
ATOM     12  C   LIG    1       29.104 -18.295   6.636  0.00  0.00    +0.108 C 
BRANCH  10  13
ATOM     13  O   LIG    1       26.503 -20.028   7.059  0.00  0.00    -0.489 OA
BRANCH  13  14
ATOM     14  C   LIG    1       25.297 -20.121   6.409  0.00  0.00    +0.121 A 
ATOM     15  C   LIG    1       24.956 -19.471   5.221  0.00  0.00    +0.049 A 
ATOM     16  C   LIG    1       23.663 -19.563   4.699  0.00  0.00    +0.049 A 
ATOM     17  C   LIG    1       22.691 -20.319   5.347  0.00  0.00    +0.130 A 
ATOM     18  C   LIG    1       23.036 -21.010   6.511  0.00  0.00    +0.049 A 
ATOM     19  C   LIG    1       24.330 -20.902   7.042  0.00  0.00    +0.049 A 
BRANCH  17  20
ATOM     20  O   LIG    1       21.465 -20.288   4.747  0.00  0.00    -0.406 OA
BRANCH  20  21
ATOM     21  C   LIG    1       21.210 -19.198   3.880  0.00  0.00    +0.575 C 
ATOM     22  F   LIG    1       20.029 -19.358   3.244  0.00  0.00    -0.133 F 
ATOM     23  F   LIG    1       22.187 -19.144   2.945  0.00  0.00    -0.133 F 
ATOM     24  F   LIG    1       21.209 -18.029   4.553  0.00  0.00    -0.133 F 
ENDBRANCH  20  21
ENDBRANCH  17  20
ENDBRANCH  13  14
ENDBRANCH  10  13
ENDBRANCH   4   7
BRANCH   1  25
ATOM     25  O   LIG    1       27.316 -12.665   3.910  0.00  0.00    -0.488 OA
BRANCH  25  26
ATOM     26  C   LIG    1       26.555 -12.364   2.740  0.00  0.00    +0.278 C 
BRANCH  26  28
ATOM     27  C   LIG    1       24.184 -11.535   2.366  0.00  0.00    +0.061 C 
ATOM     28  C   LIG    1       25.062 -12.613   3.022  0.00  0.00    +0.162 C 
ATOM     29  O   LIG    1       24.824 -12.535   4.474  0.00  0.00    -0.452 OA
ATOM     30  C   LIG    1       24.050 -13.561   4.768  0.00  0.00    +0.305 A 
ATOM     31  N   LIG    1       23.867 -14.441   3.753  0.00  0.00    -0.290 N 
ATOM     32  C   LIG    1       23.022 -15.406   4.126  0.00  0.00    +0.197 A 
ATOM     33  C   LIG    1       22.704 -15.028   5.426  0.00  0.00    +0.388 A 
ATOM     34  N   LIG    1       23.353 -13.861   5.830  0.00  0.00    -0.128 NA
ATOM     35  C   LIG    1       24.610 -14.034   2.580  0.00  0.00    +0.177 C 
BRANCH  33  36
ATOM     36  N   LIG    1       21.791 -15.683   6.323  0.00  0.00    +0.102 N 
ATOM     37  O   LIG    1       20.959 -14.998   6.908  0.00  0.00    -0.575 OA
ATOM     38  O   LIG    1       21.902 -16.942   6.383  0.00  0.00    +0.043 OA
ENDBRANCH  33  36
ENDBRANCH  26  28
ENDBRANCH  25  26
ENDBRANCH   1  25
TORSDOF 9
ENDMDL
