MODEL 1
REMARK VINA RESULT:      -6.9      0.000      0.000
REMARK  Name = *****
REMARK                            x       y       z     vdW  Elec       q    Type
REMARK                         _______ _______ _______ _____ _____    ______ ____
ROOT
ATOM      1  C   LIG    1       25.278 -21.016   4.725  0.00  0.00    +0.025 C 
ATOM      2  C   LIG    1       24.199 -21.431   5.745  0.00  0.00    +0.042 C 
ATOM      3  CA  LIG    1       24.428 -22.880   6.252  0.00  0.00    +0.201 C 
ATOM      4  N   LIG    1       25.319 -22.799   7.420  0.00  0.00    -0.271 N 
ATOM      5  C   LIG    1       25.210 -21.597   8.266  0.00  0.00    +0.165 C 
ATOM      6  CA  LIG    1       26.756 -21.572   8.348  0.00  0.00    +0.190 C 
ATOM      7  C   LIG    1       26.672 -22.658   7.247  0.00  0.00    +0.240 C 
ATOM      8  O   LIG    1       27.399 -23.111   6.382  0.00  0.00    -0.273 OA
ATOM      9  S   LIG    1       24.400 -20.325   7.227  0.00  0.00    -0.127 S 
ATOM     10  C   LIG    1       22.832 -21.162   5.103  0.00  0.00    +0.025 C 
ENDROOT
BRANCH   6  11
ATOM     11  N   LIG    1       27.420 -20.293   7.972  0.00  0.00    -0.301 N 
ATOM     12  H   LIG    1       26.866 -19.531   7.590  0.00  0.00    +0.150 HD
ATOM     13  C   LIG    1       28.780 -20.128   8.110  0.00  0.00    +0.232 C 
ATOM     14  O   LIG    1       29.494 -21.033   8.548  0.00  0.00    -0.275 OA
BRANCH  13  15
ATOM     15  C   LIG    1       29.344 -18.775   7.682  0.00  0.00    +0.213 C 
BRANCH  15  16
ATOM     16  C   LIG    1       30.189 -18.191   8.802  0.00  0.00    -0.018 A 
ATOM     17  C   LIG    1       31.546 -17.926   8.710  0.00  0.00    +0.050 A 
ATOM     18  S   LIG    1       32.201 -17.286  10.153  0.00  0.00    -0.105 S 
ATOM     19  C   LIG    1       30.682 -17.336  10.929  0.00  0.00    +0.045 A 
ATOM     20  C   LIG    1       29.697 -17.837  10.106  0.00  0.00    +0.012 A 
ENDBRANCH  15  16
BRANCH  15  21
ATOM     21  C   LIG    1       30.123 -18.781   6.367  0.00  0.00    +0.321 C 
ATOM     22  O   LIG    1       31.128 -19.466   6.197  0.00  0.00    -0.250 OA
BRANCH  21  23
ATOM     23  O   LIG    1       29.667 -17.988   5.371  0.00  0.00    -0.480 OA
ATOM     24  H   LIG    1       30.191 -17.161   5.223  0.00  0.00    +0.295 HD
ENDBRANCH  21  23
ENDBRANCH  15  21
ENDBRANCH  13  15
ENDBRANCH   6  11
BRANCH   3  25
ATOM     25  C   LIG    1       23.150 -23.633   6.661  0.00  0.00    +0.327 C 
ATOM     26  O   LIG    1       22.180 -23.108   7.188  0.00  0.00    -0.249 OA
BRANCH  25  27
ATOM     27  OXT LIG    1       23.166 -24.960   6.383  0.00  0.00    -0.479 OA
ATOM     28  HXT LIG    1       22.261 -25.310   6.278  0.00  0.00    +0.295 HD
ENDBRANCH  25  27
ENDBRANCH   3  25
TORSDOF 7
ENDMDL
MODEL 2
REMARK VINA RESULT:      -5.6      1.895      2.586
REMARK  Name = *****
REMARK                            x       y       z     vdW  Elec       q    Type
REMARK                         _______ _______ _______ _____ _____    ______ ____
ROOT
ATOM      1  C   LIG    1       26.336 -24.077   6.869  0.00  0.00    +0.025 C 
ATOM      2  C   LIG    1       25.258 -23.267   6.123  0.00  0.00    +0.042 C 
ATOM      3  CA  LIG    1       24.149 -22.777   7.092  0.00  0.00    +0.201 C 
ATOM      4  N   LIG    1       24.578 -21.474   7.624  0.00  0.00    -0.271 N 
ATOM      5  C   LIG    1       25.386 -20.618   6.737  0.00  0.00    +0.165 C 
ATOM      6  CA  LIG    1       26.278 -20.278   7.956  0.00  0.00    +0.190 C 
ATOM      7  C   LIG    1       25.485 -21.412   8.650  0.00  0.00    +0.240 C 
ATOM      8  O   LIG    1       25.640 -22.157   9.600  0.00  0.00    -0.273 OA
ATOM      9  S   LIG    1       26.086 -21.736   5.466  0.00  0.00    -0.127 S 
ATOM     10  C   LIG    1       24.776 -24.120   4.943  0.00  0.00    +0.025 C 
ENDROOT
BRANCH   6  11
ATOM     11  N   LIG    1       27.741 -20.494   7.788  0.00  0.00    -0.301 N 
ATOM     12  H   LIG    1       28.074 -21.255   7.202  0.00  0.00    +0.150 HD
ATOM     13  C   LIG    1       28.659 -19.696   8.434  0.00  0.00    +0.232 C 
ATOM     14  O   LIG    1       28.301 -18.776   9.172  0.00  0.00    -0.275 OA
BRANCH  13  15
ATOM     15  C   LIG    1       30.130 -20.024   8.190  0.00  0.00    +0.213 C 
BRANCH  15  16
ATOM     16  C   LIG    1       31.006 -18.919   8.758  0.00  0.00    -0.018 A 
ATOM     17  C   LIG    1       31.097 -18.596  10.103  0.00  0.00    +0.050 A 
ATOM     18  S   LIG    1       32.159 -17.293  10.407  0.00  0.00    -0.105 S 
ATOM     19  C   LIG    1       32.532 -17.139   8.749  0.00  0.00    +0.045 A 
ATOM     20  C   LIG    1       31.855 -18.058   7.978  0.00  0.00    +0.012 A 
ENDBRANCH  15  16
BRANCH  15  21
ATOM     21  C   LIG    1       30.587 -21.389   8.704  0.00  0.00    +0.321 C 
ATOM     22  O   LIG    1       29.885 -22.093   9.423  0.00  0.00    -0.250 OA
BRANCH  21  23
ATOM     23  O   LIG    1       31.819 -21.809   8.338  0.00  0.00    -0.480 OA
ATOM     24  H   LIG    1       32.569 -21.356   8.800  0.00  0.00    +0.295 HD
ENDBRANCH  21  23
ENDBRANCH  15  21
ENDBRANCH  13  15
ENDBRANCH   6  11
BRANCH   3  25
ATOM     25  C   LIG    1       22.758 -22.613   6.455  0.00  0.00    +0.327 C 
ATOM     26  O   LIG    1       22.406 -21.636   5.810  0.00  0.00    -0.249 OA
BRANCH  25  27
ATOM     27  OXT LIG    1       21.921 -23.661   6.655  0.00  0.00    -0.479 OA
ATOM     28  HXT LIG    1       22.178 -24.173   7.446  0.00  0.00    +0.295 HD
ENDBRANCH  25  27
ENDBRANCH   3  25
TORSDOF 7
ENDMDL
MODEL 3
REMARK VINA RESULT:      -5.6      9.373     10.926
REMARK  Name = *****
REMARK                            x       y       z     vdW  Elec       q    Type
REMARK                         _______ _______ _______ _____ _____    ______ ____
ROOT
ATOM      1  C   LIG    1       25.418 -28.564   7.888  0.00  0.00    +0.025 C 
ATOM      2  C   LIG    1       25.082 -30.067   7.886  0.00  0.00    +0.042 C 
ATOM      3  CA  LIG    1       26.324 -30.925   8.246  0.00  0.00    +0.201 C 
ATOM      4  N   LIG    1       26.349 -31.063   9.711  0.00  0.00    -0.271 N 
ATOM      5  C   LIG    1       25.050 -31.094  10.406  0.00  0.00    +0.165 C 
ATOM      6  CA  LIG    1       25.660 -30.171  11.489  0.00  0.00    +0.190 C 
ATOM      7  C   LIG    1       26.838 -30.048  10.492  0.00  0.00    +0.240 C 
ATOM      8  O   LIG    1       27.747 -29.268  10.278  0.00  0.00    -0.273 OA
ATOM      9  S   LIG    1       23.844 -30.348   9.246  0.00  0.00    -0.127 S 
ATOM     10  C   LIG    1       24.424 -30.390   6.537  0.00  0.00    +0.025 C 
ENDROOT
BRANCH   6  11
ATOM     11  N   LIG    1       24.912 -28.921  11.795  0.00  0.00    -0.301 N 
ATOM     12  H   LIG    1       24.326 -28.497  11.081  0.00  0.00    +0.150 HD
ATOM     13  C   LIG    1       25.015 -28.311  13.025  0.00  0.00    +0.232 C 
ATOM     14  O   LIG    1       25.730 -28.778  13.914  0.00  0.00    -0.275 OA
BRANCH  13  15
ATOM     15  C   LIG    1       24.207 -27.029  13.214  0.00  0.00    +0.213 C 
BRANCH  15  16
ATOM     16  C   LIG    1       22.767 -27.374  13.561  0.00  0.00    -0.018 A 
ATOM     17  C   LIG    1       22.377 -28.478  14.301  0.00  0.00    +0.050 A 
ATOM     18  S   LIG    1       20.683 -28.585  14.499  0.00  0.00    -0.105 S 
ATOM     19  C   LIG    1       20.434 -27.149  13.610  0.00  0.00    +0.045 A 
ATOM     20  C   LIG    1       21.618 -26.603  13.166  0.00  0.00    +0.012 A 
ENDBRANCH  15  16
BRANCH  15  21
ATOM     21  C   LIG    1       24.782 -26.040  14.227  0.00  0.00    +0.321 C 
ATOM     22  O   LIG    1       25.017 -24.868  13.947  0.00  0.00    -0.250 OA
BRANCH  21  23
ATOM     23  O   LIG    1       25.036 -26.503  15.472  0.00  0.00    -0.480 OA
ATOM     24  H   LIG    1       25.715 -25.990  15.978  0.00  0.00    +0.295 HD
ENDBRANCH  21  23
ENDBRANCH  15  21
ENDBRANCH  13  15
ENDBRANCH   6  11
BRANCH   3  25
ATOM     25  C   LIG    1       26.345 -32.331   7.621  0.00  0.00    +0.327 C 
ATOM     26  O   LIG    1       25.621 -33.251   7.969  0.00  0.00    -0.249 OA
BRANCH  25  27
ATOM     27  OXT LIG    1       27.246 -32.486   6.619  0.00  0.00    -0.479 OA
ATOM     28  HXT LIG    1       28.144 -32.637   6.970  0.00  0.00    +0.295 HD
ENDBRANCH  25  27
ENDBRANCH   3  25
TORSDOF 7
ENDMDL
MODEL 4
REMARK VINA RESULT:      -5.5      8.764     10.662
REMARK  Name = *****
REMARK                            x       y       z     vdW  Elec       q    Type
REMARK                         _______ _______ _______ _____ _____    ______ ____
ROOT
ATOM      1  C   LIG    1       23.064 -30.417   9.990  0.00  0.00    +0.025 C 
ATOM      2  C   LIG    1       23.569 -31.611   9.157  0.00  0.00    +0.042 C 
ATOM      3  CA  LIG    1       24.205 -31.140   7.822  0.00  0.00    +0.201 C 
ATOM      4  N   LIG    1       25.631 -30.883   8.084  0.00  0.00    -0.271 N 
ATOM      5  C   LIG    1       26.288 -31.721   9.103  0.00  0.00    +0.165 C 
ATOM      6  CA  LIG    1       26.998 -30.447   9.623  0.00  0.00    +0.190 C 
ATOM      7  C   LIG    1       26.024 -29.710   8.672  0.00  0.00    +0.240 C 
ATOM      8  O   LIG    1       25.563 -28.589   8.561  0.00  0.00    -0.273 OA
ATOM      9  S   LIG    1       24.937 -32.412  10.130  0.00  0.00    -0.127 S 
ATOM     10  C   LIG    1       22.406 -32.603   9.022  0.00  0.00    +0.025 C 
ENDROOT
BRANCH   6  11
ATOM     11  N   LIG    1       26.859 -30.156  11.076  0.00  0.00    -0.301 N 
ATOM     12  H   LIG    1       25.981 -30.356  11.548  0.00  0.00    +0.150 HD
ATOM     13  C   LIG    1       27.892 -29.596  11.794  0.00  0.00    +0.232 C 
ATOM     14  O   LIG    1       28.967 -29.317  11.258  0.00  0.00    -0.275 OA
BRANCH  13  15
ATOM     15  C   LIG    1       27.625 -29.336  13.274  0.00  0.00    +0.213 C 
BRANCH  15  16
ATOM     16  C   LIG    1       27.337 -27.860  13.495  0.00  0.00    -0.018 A 
ATOM     17  C   LIG    1       27.722 -27.140  14.615  0.00  0.00    +0.050 A 
ATOM     18  S   LIG    1       27.229 -25.505  14.561  0.00  0.00    -0.105 S 
ATOM     19  C   LIG    1       26.499 -25.720  13.032  0.00  0.00    +0.045 A 
ATOM     20  C   LIG    1       26.623 -27.014  12.576  0.00  0.00    +0.012 A 
ENDBRANCH  15  16
BRANCH  15  21
ATOM     21  C   LIG    1       26.526 -30.197  13.898  0.00  0.00    +0.321 C 
ATOM     22  O   LIG    1       25.544 -29.716  14.454  0.00  0.00    -0.250 OA
BRANCH  21  23
ATOM     23  O   LIG    1       26.672 -31.539  13.823  0.00  0.00    -0.480 OA
ATOM     24  H   LIG    1       25.830 -32.055  13.894  0.00  0.00    +0.295 HD
ENDBRANCH  21  23
ENDBRANCH  15  21
ENDBRANCH  13  15
ENDBRANCH   6  11
BRANCH   3  25
ATOM     25  C   LIG    1       24.092 -32.143   6.660  0.00  0.00    +0.327 C 
ATOM     26  O   LIG    1       24.698 -33.202   6.603  0.00  0.00    -0.249 OA
BRANCH  25  27
ATOM     27  OXT LIG    1       23.243 -31.765   5.673  0.00  0.00    -0.479 OA
ATOM     28  HXT LIG    1       23.460 -32.208   4.830  0.00  0.00    +0.295 HD
ENDBRANCH  25  27
ENDBRANCH   3  25
TORSDOF 7
ENDMDL
MODEL 5
REMARK VINA RESULT:      -5.5      8.304     11.452
REMARK  Name = *****
REMARK                            x       y       z     vdW  Elec       q    Type
REMARK                         _______ _______ _______ _____ _____    ______ ____
ROOT
ATOM      1  C   LIG    1       22.467 -32.697  11.215  0.00  0.00    +0.025 C 
ATOM      2  C   LIG    1       22.636 -31.765  12.430  0.00  0.00    +0.042 C 
ATOM      3  CA  LIG    1       23.996 -32.003  13.141  0.00  0.00    +0.201 C 
ATOM      4  N   LIG    1       24.986 -31.128  12.493  0.00  0.00    -0.271 N 
ATOM      5  C   LIG    1       24.502 -29.838  11.969  0.00  0.00    +0.165 C 
ATOM      6  CA  LIG    1       25.379 -30.072  10.714  0.00  0.00    +0.190 C 
ATOM      7  C   LIG    1       25.557 -31.494  11.302  0.00  0.00    +0.240 C 
ATOM      8  O   LIG    1       25.861 -32.598  10.890  0.00  0.00    -0.273 OA
ATOM      9  S   LIG    1       22.689 -30.024  11.777  0.00  0.00    -0.127 S 
ATOM     10  C   LIG    1       21.391 -31.930  13.312  0.00  0.00    +0.025 C 
ENDROOT
BRANCH   6  11
ATOM     11  N   LIG    1       24.692 -29.977   9.397  0.00  0.00    -0.301 N 
ATOM     12  H   LIG    1       23.891 -30.571   9.203  0.00  0.00    +0.150 HD
ATOM     13  C   LIG    1       25.138 -29.113   8.421  0.00  0.00    +0.232 C 
ATOM     14  O   LIG    1       26.119 -28.390   8.605  0.00  0.00    -0.275 OA
BRANCH  13  15
ATOM     15  C   LIG    1       24.356 -29.114   7.110  0.00  0.00    +0.213 C 
BRANCH  15  16
ATOM     16  C   LIG    1       24.806 -27.950   6.240  0.00  0.00    -0.018 A 
ATOM     17  C   LIG    1       24.322 -26.656   6.342  0.00  0.00    +0.050 A 
ATOM     18  S   LIG    1       25.023 -25.589   5.206  0.00  0.00    -0.105 S 
ATOM     19  C   LIG    1       25.999 -26.832   4.561  0.00  0.00    +0.045 A 
ATOM     20  C   LIG    1       25.790 -28.037   5.194  0.00  0.00    +0.012 A 
ENDBRANCH  15  16
BRANCH  15  21
ATOM     21  C   LIG    1       24.405 -30.423   6.323  0.00  0.00    +0.321 C 
ATOM     22  O   LIG    1       25.391 -31.155   6.317  0.00  0.00    -0.250 OA
BRANCH  21  23
ATOM     23  O   LIG    1       23.306 -30.761   5.611  0.00  0.00    -0.480 OA
ATOM     24  H   LIG    1       22.723 -30.002   5.359  0.00  0.00    +0.295 HD
ENDBRANCH  21  23
ENDBRANCH  15  21
ENDBRANCH  13  15
ENDBRANCH   6  11
BRANCH   3  25
ATOM     25  C   LIG    1       23.998 -31.713  14.651  0.00  0.00    +0.327 C 
ATOM     26  O   LIG    1       23.891 -30.597  15.139  0.00  0.00    -0.249 OA
BRANCH  25  27
ATOM     27  OXT LIG    1       24.122 -32.813  15.435  0.00  0.00    -0.479 OA
ATOM     28  HXT LIG    1       24.582 -33.533  14.963  0.00  0.00    +0.295 HD
ENDBRANCH  25  27
ENDBRANCH   3  25
TORSDOF 7
ENDMDL
MODEL 6
REMARK VINA RESULT:      -5.3      3.688      5.523
REMARK  Name = *****
REMARK                            x       y       z     vdW  Elec       q    Type
REMARK                         _______ _______ _______ _____ _____    ______ ____
ROOT
ATOM      1  C   LIG    1       25.250 -26.912   8.412  0.00  0.00    +0.025 C 
ATOM      2  C   LIG    1       25.570 -27.616   7.080  0.00  0.00    +0.042 C 
ATOM      3  CA  LIG    1       24.336 -27.636   6.140  0.00  0.00    +0.201 C 
ATOM      4  N   LIG    1       24.370 -26.397   5.346  0.00  0.00    -0.271 N 
ATOM      5  C   LIG    1       25.697 -25.849   5.014  0.00  0.00    +0.165 C 
ATOM      6  CA  LIG    1       25.142 -24.439   5.332  0.00  0.00    +0.190 C 
ATOM      7  C   LIG    1       23.925 -25.219   5.887  0.00  0.00    +0.240 C 
ATOM      8  O   LIG    1       23.015 -25.014   6.669  0.00  0.00    -0.273 OA
ATOM      9  S   LIG    1       26.861 -26.588   6.220  0.00  0.00    -0.127 S 
ATOM     10  C   LIG    1       26.168 -28.988   7.417  0.00  0.00    +0.025 C 
ENDROOT
BRANCH   6  11
ATOM     11  N   LIG    1       25.915 -23.626   6.310  0.00  0.00    -0.301 N 
ATOM     12  H   LIG    1       26.623 -24.072   6.887  0.00  0.00    +0.150 HD
ATOM     13  C   LIG    1       25.673 -22.280   6.469  0.00  0.00    +0.232 C 
ATOM     14  O   LIG    1       24.809 -21.702   5.806  0.00  0.00    -0.275 OA
BRANCH  13  15
ATOM     15  C   LIG    1       26.525 -21.558   7.510  0.00  0.00    +0.213 C 
BRANCH  15  16
ATOM     16  C   LIG    1       27.574 -20.704   6.817  0.00  0.00    -0.018 A 
ATOM     17  C   LIG    1       28.899 -20.607   7.212  0.00  0.00    +0.050 A 
ATOM     18  S   LIG    1       29.813 -19.549   6.230  0.00  0.00    -0.105 S 
ATOM     19  C   LIG    1       28.461 -19.207   5.246  0.00  0.00    +0.045 A 
ATOM     20  C   LIG    1       27.334 -19.881   5.662  0.00  0.00    +0.012 A 
ENDBRANCH  15  16
BRANCH  15  21
ATOM     21  C   LIG    1       25.743 -20.728   8.528  0.00  0.00    +0.321 C 
ATOM     22  O   LIG    1       26.258 -20.271   9.544  0.00  0.00    -0.250 OA
BRANCH  21  23
ATOM     23  O   LIG    1       24.433 -20.508   8.275  0.00  0.00    -0.480 OA
ATOM     24  H   LIG    1       24.241 -19.689   7.753  0.00  0.00    +0.295 HD
ENDBRANCH  21  23
ENDBRANCH  15  21
ENDBRANCH  13  15
ENDBRANCH   6  11
BRANCH   3  25
ATOM     25  C   LIG    1       24.274 -28.834   5.176  0.00  0.00    +0.327 C 
ATOM     26  O   LIG    1       25.062 -29.025   4.262  0.00  0.00    -0.249 OA
BRANCH  25  27
ATOM     27  OXT LIG    1       23.258 -29.699   5.420  0.00  0.00    -0.479 OA
ATOM     28  HXT LIG    1       22.874 -29.554   6.306  0.00  0.00    +0.295 HD
ENDBRANCH  25  27
ENDBRANCH   3  25
TORSDOF 7
ENDMDL
MODEL 7
REMARK VINA RESULT:      -5.3      8.393     10.853
REMARK  Name = *****
REMARK                            x       y       z     vdW  Elec       q    Type
REMARK                         _______ _______ _______ _____ _____    ______ ____
ROOT
ATOM      1  C   LIG    1       24.351 -29.153  12.804  0.00  0.00    +0.025 C 
ATOM      2  C   LIG    1       25.671 -28.522  13.287  0.00  0.00    +0.042 C 
ATOM      3  CA  LIG    1       26.785 -29.591  13.442  0.00  0.00    +0.201 C 
ATOM      4  N   LIG    1       27.465 -29.705  12.142  0.00  0.00    -0.271 N 
ATOM      5  C   LIG    1       27.549 -28.486  11.318  0.00  0.00    +0.165 C 
ATOM      6  CA  LIG    1       27.209 -29.354  10.082  0.00  0.00    +0.190 C 
ATOM      7  C   LIG    1       26.907 -30.449  11.135  0.00  0.00    +0.240 C 
ATOM      8  O   LIG    1       26.258 -31.477  11.192  0.00  0.00    -0.273 OA
ATOM      9  S   LIG    1       26.242 -27.366  11.947  0.00  0.00    -0.127 S 
ATOM     10  C   LIG    1       25.355 -27.707  14.548  0.00  0.00    +0.025 C 
ENDROOT
BRANCH   6  11
ATOM     11  N   LIG    1       26.064 -28.900   9.246  0.00  0.00    -0.301 N 
ATOM     12  H   LIG    1       25.548 -28.065   9.510  0.00  0.00    +0.150 HD
ATOM     13  C   LIG    1       25.672 -29.604   8.129  0.00  0.00    +0.232 C 
ATOM     14  O   LIG    1       26.256 -30.634   7.784  0.00  0.00    -0.275 OA
BRANCH  13  15
ATOM     15  C   LIG    1       24.479 -29.043   7.360  0.00  0.00    +0.213 C 
BRANCH  15  16
ATOM     16  C   LIG    1       24.937 -27.918   6.446  0.00  0.00    -0.018 A 
ATOM     17  C   LIG    1       24.392 -26.644   6.428  0.00  0.00    +0.050 A 
ATOM     18  S   LIG    1       25.122 -25.620   5.271  0.00  0.00    -0.105 S 
ATOM     19  C   LIG    1       26.194 -26.854   4.777  0.00  0.00    +0.045 A 
ATOM     20  C   LIG    1       25.993 -28.024   5.475  0.00  0.00    +0.012 A 
ENDBRANCH  15  16
BRANCH  15  21
ATOM     21  C   LIG    1       23.665 -30.073   6.578  0.00  0.00    +0.321 C 
ATOM     22  O   LIG    1       23.523 -31.231   6.960  0.00  0.00    -0.250 OA
BRANCH  21  23
ATOM     23  O   LIG    1       23.095 -29.666   5.422  0.00  0.00    -0.480 OA
ATOM     24  H   LIG    1       23.378 -28.770   5.110  0.00  0.00    +0.295 HD
ENDBRANCH  21  23
ENDBRANCH  15  21
ENDBRANCH  13  15
ENDBRANCH   6  11
BRANCH   3  25
ATOM     25  C   LIG    1       27.838 -29.278  14.520  0.00  0.00    +0.327 C 
ATOM     26  O   LIG    1       28.541 -28.279  14.528  0.00  0.00    -0.249 OA
BRANCH  25  27
ATOM     27  OXT LIG    1       27.933 -30.211  15.499  0.00  0.00    -0.479 OA
ATOM     28  HXT LIG    1       28.569 -29.938  16.188  0.00  0.00    +0.295 HD
ENDBRANCH  25  27
ENDBRANCH   3  25
TORSDOF 7
ENDMDL
MODEL 8
REMARK VINA RESULT:      -5.3      9.360     12.025
REMARK  Name = *****
REMARK                            x       y       z     vdW  Elec       q    Type
REMARK                         _______ _______ _______ _____ _____    ______ ____
ROOT
ATOM      1  C   LIG    1       26.390 -30.863  13.581  0.00  0.00    +0.025 C 
ATOM      2  C   LIG    1       26.056 -29.371  13.776  0.00  0.00    +0.042 C 
ATOM      3  CA  LIG    1       27.319 -28.483  13.616  0.00  0.00    +0.201 C 
ATOM      4  N   LIG    1       27.433 -28.140  12.189  0.00  0.00    -0.271 N 
ATOM      5  C   LIG    1       26.178 -27.998  11.430  0.00  0.00    +0.165 C 
ATOM      6  CA  LIG    1       26.851 -28.764  10.265  0.00  0.00    +0.190 C 
ATOM      7  C   LIG    1       27.967 -29.040  11.303  0.00  0.00    +0.240 C 
ATOM      8  O   LIG    1       28.860 -29.851  11.459  0.00  0.00    -0.273 OA
ATOM      9  S   LIG    1       24.903 -28.888  12.398  0.00  0.00    -0.127 S 
ATOM     10  C   LIG    1       25.318 -29.237  15.115  0.00  0.00    +0.025 C 
ENDROOT
BRANCH   6  11
ATOM     11  N   LIG    1       26.121 -29.951   9.740  0.00  0.00    -0.301 N 
ATOM     12  H   LIG    1       26.144 -30.825  10.258  0.00  0.00    +0.150 HD
ATOM     13  C   LIG    1       25.432 -29.896   8.550  0.00  0.00    +0.232 C 
ATOM     14  O   LIG    1       25.396 -28.863   7.877  0.00  0.00    -0.275 OA
BRANCH  13  15
ATOM     15  C   LIG    1       24.732 -31.181   8.114  0.00  0.00    +0.213 C 
BRANCH  15  16
ATOM     16  C   LIG    1       23.487 -31.402   8.958  0.00  0.00    -0.018 A 
ATOM     17  C   LIG    1       22.767 -32.585   9.007  0.00  0.00    +0.050 A 
ATOM     18  S   LIG    1       21.410 -32.499  10.041  0.00  0.00    -0.105 S 
ATOM     19  C   LIG    1       21.761 -30.881  10.456  0.00  0.00    +0.045 A 
ATOM     20  C   LIG    1       22.887 -30.414   9.814  0.00  0.00    +0.012 A 
ENDBRANCH  15  16
BRANCH  15  21
ATOM     21  C   LIG    1       24.395 -31.266   6.625  0.00  0.00    +0.321 C 
ATOM     22  O   LIG    1       24.885 -32.111   5.883  0.00  0.00    -0.250 OA
BRANCH  21  23
ATOM     23  O   LIG    1       23.521 -30.357   6.134  0.00  0.00    -0.480 OA
ATOM     24  H   LIG    1       22.901 -29.972   6.802  0.00  0.00    +0.295 HD
ENDBRANCH  21  23
ENDBRANCH  15  21
ENDBRANCH  13  15
ENDBRANCH   6  11
BRANCH   3  25
ATOM     25  C   LIG    1       27.305 -27.181  14.435  0.00  0.00    +0.327 C 
ATOM     26  O   LIG    1       26.603 -26.214  14.178  0.00  0.00    -0.249 OA
BRANCH  25  27
ATOM     27  OXT LIG    1       28.144 -27.177  15.499  0.00  0.00    -0.479 OA
ATOM     28  HXT LIG    1       28.685 -26.365  15.521  0.00  0.00    +0.295 HD
ENDBRANCH  25  27
ENDBRANCH   3  25
TORSDOF 7
ENDMDL
MODEL 9
REMARK VINA RESULT:      -5.2      9.091     12.069
REMARK  Name = *****
REMARK                            x       y       z     vdW  Elec       q    Type
REMARK                         _______ _______ _______ _____ _____    ______ ____
ROOT
ATOM      1  C   LIG    1       26.114 -30.838  13.478  0.00  0.00    +0.025 C 
ATOM      2  C   LIG    1       26.176 -29.349  13.869  0.00  0.00    +0.042 C 
ATOM      3  CA  LIG    1       27.593 -28.760  13.631  0.00  0.00    +0.201 C 
ATOM      4  N   LIG    1       27.633 -28.267  12.245  0.00  0.00    -0.271 N 
ATOM      5  C   LIG    1       26.376 -27.742  11.682  0.00  0.00    +0.165 C 
ATOM      6  CA  LIG    1       26.714 -28.481  10.364  0.00  0.00    +0.190 C 
ATOM      7  C   LIG    1       27.834 -29.139  11.208  0.00  0.00    +0.240 C 
ATOM      8  O   LIG    1       28.514 -30.147  11.156  0.00  0.00    -0.273 OA
ATOM      9  S   LIG    1       25.035 -28.437  12.718  0.00  0.00    -0.127 S 
ATOM     10  C   LIG    1       25.641 -29.227  15.302  0.00  0.00    +0.025 C 
ENDROOT
BRANCH   6  11
ATOM     11  N   LIG    1       25.665 -29.389   9.824  0.00  0.00    -0.301 N 
ATOM     12  H   LIG    1       25.295 -30.134  10.408  0.00  0.00    +0.150 HD
ATOM     13  C   LIG    1       25.201 -29.255   8.534  0.00  0.00    +0.232 C 
ATOM     14  O   LIG    1       25.637 -28.380   7.784  0.00  0.00    -0.275 OA
BRANCH  13  15
ATOM     15  C   LIG    1       24.132 -30.253   8.094  0.00  0.00    +0.213 C 
BRANCH  15  16
ATOM     16  C   LIG    1       24.722 -31.235   7.096  0.00  0.00    -0.018 A 
ATOM     17  C   LIG    1       23.998 -31.896   6.117  0.00  0.00    +0.050 A 
ATOM     18  S   LIG    1       24.958 -32.945   5.169  0.00  0.00    -0.105 S 
ATOM     19  C   LIG    1       26.367 -32.529   6.039  0.00  0.00    +0.045 A 
ATOM     20  C   LIG    1       26.109 -31.614   7.036  0.00  0.00    +0.012 A 
ENDBRANCH  15  16
BRANCH  15  21
ATOM     21  C   LIG    1       23.429 -30.997   9.230  0.00  0.00    +0.321 C 
ATOM     22  O   LIG    1       22.246 -30.819   9.504  0.00  0.00    -0.250 OA
BRANCH  21  23
ATOM     23  O   LIG    1       24.165 -31.876   9.945  0.00  0.00    -0.480 OA
ATOM     24  H   LIG    1       24.491 -32.660   9.435  0.00  0.00    +0.295 HD
ENDBRANCH  21  23
ENDBRANCH  15  21
ENDBRANCH  13  15
ENDBRANCH   6  11
BRANCH   3  25
ATOM     25  C   LIG    1       27.983 -27.609  14.574  0.00  0.00    +0.327 C 
ATOM     26  O   LIG    1       27.505 -26.486  14.526  0.00  0.00    -0.249 OA
BRANCH  25  27
ATOM     27  OXT LIG    1       28.920 -27.934  15.499  0.00  0.00    -0.479 OA
ATOM     28  HXT LIG    1       28.514 -28.357  16.281  0.00  0.00    +0.295 HD
ENDBRANCH  25  27
ENDBRANCH   3  25
TORSDOF 7
ENDMDL
