MODEL 1
REMARK VINA RESULT:      -5.3      0.000      0.000
REMARK  Name = *****
REMARK                            x       y       z     vdW  Elec       q    Type
REMARK                         _______ _______ _______ _____ _____    ______ ____
ROOT
ATOM      1  C   LIG    1       25.044 -28.756  13.697  0.00  0.00    +0.132 C 
ATOM      2  C   LIG    1       24.843 -28.977  12.154  0.00  0.00    +0.090 C 
ATOM      3  C   LIG    1       26.138 -28.720  11.372  0.00  0.00    +0.192 C 
ATOM      4  C   LIG    1       26.046 -29.141   9.923  0.00  0.00    +0.141 C 
ATOM      5  C   LIG    1       25.134 -30.025   9.468  0.00  0.00    +0.049 C 
ATOM      6  C   LIG    1       24.096 -30.695  10.343  0.00  0.00    +0.091 C 
ATOM      7  C   LIG    1       24.012 -32.224  10.007  0.00  0.00    +0.098 C 
ATOM      8  C   LIG    1       23.024 -32.969  10.922  0.00  0.00    +0.047 C 
ATOM      9  C   LIG    1       23.705 -32.398   8.517  0.00  0.00    -0.001 A 
ATOM     10  C   LIG    1       24.270 -31.510   7.577  0.00  0.00    +0.069 A 
ATOM     11  C   LIG    1       24.038 -31.689   6.201  0.00  0.00    +0.128 A 
ATOM     12  C   LIG    1       23.237 -32.728   5.744  0.00  0.00    +0.046 A 
ATOM     13  C   LIG    1       22.671 -33.609   6.657  0.00  0.00    +0.004 A 
ATOM     14  C   LIG    1       22.908 -33.452   8.026  0.00  0.00    +0.007 A 
ATOM     15  C   LIG    1       25.119 -30.381   8.022  0.00  0.00    +0.197 C 
ATOM     16  O   LIG    1       25.772 -29.738   7.199  0.00  0.00    -0.287 OA
ATOM     17  C   LIG    1       27.271 -29.486  12.085  0.00  0.00    +0.211 C 
ATOM     18  O   LIG    1       27.804 -30.498  11.636  0.00  0.00    -0.288 OA
ATOM     19  C   LIG    1       27.579 -29.012  13.456  0.00  0.00    +0.121 C 
ATOM     20  C   LIG    1       24.303 -30.399  11.857  0.00  0.00    +0.134 C 
ATOM     21  C   LIG    1       26.497 -28.683  14.188  0.00  0.00    +0.127 C 
ENDROOT
BRANCH  19  22
ATOM     22  C   LIG    1       28.994 -28.884  13.886  0.00  0.00    +0.248 C 
ATOM     23  O   LIG    1       29.314 -28.406  14.967  0.00  0.00    -0.270 OA
ATOM     24  N   LIG    1       29.940 -29.354  13.028  0.00  0.00    -0.325 N 
ATOM     25  H   LIG    1       29.666 -29.906  12.221  0.00  0.00    +0.145 HD
ATOM     26  H   LIG    1       30.901 -29.365  13.338  0.00  0.00    +0.145 HD
ENDBRANCH  19  22
BRANCH   1  28
ATOM     27  C   LIG    1       23.342 -28.058  15.325  0.00  0.00    +0.105 C 
ATOM     28  N   LIG    1       24.310 -27.610  14.322  0.00  0.00    -0.298 NA
ATOM     29  C   LIG    1       23.664 -26.714  13.357  0.00  0.00    +0.105 C 
ENDBRANCH   1  28
BRANCH   3  30
ATOM     30  O   LIG    1       26.397 -27.312  11.373  0.00  0.00    -0.373 OA
ATOM     31  H   LIG    1       27.128 -27.194  12.017  0.00  0.00    +0.211 HD
ENDBRANCH   3  30
BRANCH   4  32
ATOM     32  O   LIG    1       26.952 -28.480   9.101  0.00  0.00    -0.507 OA
ATOM     33  H   LIG    1       27.254 -29.104   8.401  0.00  0.00    +0.292 HD
ENDBRANCH   4  32
BRANCH   7  34
ATOM     34  O   LIG    1       25.294 -32.810  10.253  0.00  0.00    -0.384 OA
ATOM     35  H   LIG    1       25.940 -32.427   9.634  0.00  0.00    +0.211 HD
ENDBRANCH   7  34
BRANCH  11  36
ATOM     36  O   LIG    1       24.566 -30.877   5.232  0.00  0.00    -0.506 OA
ATOM     37  H   LIG    1       24.861 -30.042   5.658  0.00  0.00    +0.292 HD
ENDBRANCH  11  36
BRANCH  20  38
ATOM     38  O   LIG    1       23.036 -30.524  12.525  0.00  0.00    -0.391 OA
ATOM     39  H   LIG    1       22.442 -31.068  11.979  0.00  0.00    +0.210 HD
ENDBRANCH  20  38
BRANCH  21  40
ATOM     40  O   LIG    1       26.615 -28.186  15.486  0.00  0.00    -0.509 OA
ATOM     41  H   LIG    1       26.571 -28.991  16.055  0.00  0.00    +0.292 HD
ENDBRANCH  21  40
TORSDOF 8
ENDMDL
MODEL 2
REMARK VINA RESULT:      -4.9      3.385      6.868
REMARK  Name = *****
REMARK                            x       y       z     vdW  Elec       q    Type
REMARK                         _______ _______ _______ _____ _____    ______ ____
ROOT
ATOM      1  C   LIG    1       24.429 -31.834   6.450  0.00  0.00    +0.132 C 
ATOM      2  C   LIG    1       24.697 -32.206   7.953  0.00  0.00    +0.090 C 
ATOM      3  C   LIG    1       25.606 -31.177   8.638  0.00  0.00    +0.192 C 
ATOM      4  C   LIG    1       25.700 -31.375  10.134  0.00  0.00    +0.141 C 
ATOM      5  C   LIG    1       24.782 -32.060  10.845  0.00  0.00    +0.049 C 
ATOM      6  C   LIG    1       23.559 -32.715  10.240  0.00  0.00    +0.091 C 
ATOM      7  C   LIG    1       22.296 -32.416  11.120  0.00  0.00    +0.098 C 
ATOM      8  C   LIG    1       21.009 -32.995  10.508  0.00  0.00    +0.047 C 
ATOM      9  C   LIG    1       22.552 -32.893  12.552  0.00  0.00    -0.001 A 
ATOM     10  C   LIG    1       23.840 -32.758  13.115  0.00  0.00    +0.069 A 
ATOM     11  C   LIG    1       24.077 -33.145  14.447  0.00  0.00    +0.128 A 
ATOM     12  C   LIG    1       23.058 -33.682  15.224  0.00  0.00    +0.046 A 
ATOM     13  C   LIG    1       21.786 -33.824  14.683  0.00  0.00    +0.004 A 
ATOM     14  C   LIG    1       21.534 -33.428  13.367  0.00  0.00    +0.007 A 
ATOM     15  C   LIG    1       24.957 -32.203  12.318  0.00  0.00    +0.197 C 
ATOM     16  O   LIG    1       26.016 -31.897  12.868  0.00  0.00    -0.287 OA
ATOM     17  C   LIG    1       25.050 -29.776   8.313  0.00  0.00    +0.211 C 
ATOM     18  O   LIG    1       24.480 -29.057   9.130  0.00  0.00    -0.288 OA
ATOM     19  C   LIG    1       25.099 -29.401   6.878  0.00  0.00    +0.121 C 
ATOM     20  C   LIG    1       23.369 -32.362   8.737  0.00  0.00    +0.134 C 
ATOM     21  C   LIG    1       24.792 -30.401   6.030  0.00  0.00    +0.127 C 
ENDROOT
BRANCH  19  22
ATOM     22  C   LIG    1       25.519 -28.030   6.494  0.00  0.00    +0.248 C 
ATOM     23  O   LIG    1       25.212 -27.523   5.422  0.00  0.00    -0.270 OA
ATOM     24  N   LIG    1       26.247 -27.333   7.408  0.00  0.00    -0.325 N 
ATOM     25  H   LIG    1       26.346 -27.685   8.356  0.00  0.00    +0.145 HD
ATOM     26  H   LIG    1       26.463 -26.367   7.210  0.00  0.00    +0.145 HD
ENDBRANCH  19  22
BRANCH   1  28
ATOM     27  C   LIG    1       23.948 -33.516   4.725  0.00  0.00    +0.105 C 
ATOM     28  N   LIG    1       24.993 -32.752   5.410  0.00  0.00    -0.298 NA
ATOM     29  C   LIG    1       26.036 -33.655   5.909  0.00  0.00    +0.105 C 
ENDBRANCH   1  28
BRANCH   3  30
ATOM     30  O   LIG    1       26.933 -31.329   8.121  0.00  0.00    -0.373 OA
ATOM     31  H   LIG    1       27.381 -30.481   8.331  0.00  0.00    +0.211 HD
ENDBRANCH   3  30
BRANCH   4  32
ATOM     32  O   LIG    1       26.855 -30.835  10.687  0.00  0.00    -0.507 OA
ATOM     33  H   LIG    1       27.090 -30.018  10.190  0.00  0.00    +0.292 HD
ENDBRANCH   4  32
BRANCH   7  34
ATOM     34  O   LIG    1       22.105 -30.999  11.167  0.00  0.00    -0.384 OA
ATOM     35  H   LIG    1       22.842 -30.597  11.661  0.00  0.00    +0.211 HD
ENDBRANCH   7  34
BRANCH  11  36
ATOM     36  O   LIG    1       25.295 -33.028  15.064  0.00  0.00    -0.506 OA
ATOM     37  H   LIG    1       25.995 -33.114  14.380  0.00  0.00    +0.292 HD
ENDBRANCH  11  36
BRANCH  20  38
ATOM     38  O   LIG    1       22.624 -33.420   8.109  0.00  0.00    -0.391 OA
ATOM     39  H   LIG    1       21.679 -33.308   8.315  0.00  0.00    +0.210 HD
ENDBRANCH  20  38
BRANCH  21  40
ATOM     40  O   LIG    1       24.826 -30.225   4.647  0.00  0.00    -0.509 OA
ATOM     41  H   LIG    1       24.273 -29.422   4.495  0.00  0.00    +0.292 HD
ENDBRANCH  21  40
TORSDOF 8
ENDMDL
MODEL 3
REMARK VINA RESULT:      -4.9      2.844      7.621
REMARK  Name = *****
REMARK                            x       y       z     vdW  Elec       q    Type
REMARK                         _______ _______ _______ _____ _____    ______ ____
ROOT
ATOM      1  C   LIG    1       24.910 -31.621  11.249  0.00  0.00    +0.132 C 
ATOM      2  C   LIG    1       25.027 -30.103  11.637  0.00  0.00    +0.090 C 
ATOM      3  C   LIG    1       23.723 -29.572  12.248  0.00  0.00    +0.192 C 
ATOM      4  C   LIG    1       23.868 -28.189  12.840  0.00  0.00    +0.141 C 
ATOM      5  C   LIG    1       25.057 -27.660  13.195  0.00  0.00    +0.049 C 
ATOM      6  C   LIG    1       26.381 -28.377  13.041  0.00  0.00    +0.091 C 
ATOM      7  C   LIG    1       27.245 -28.199  14.338  0.00  0.00    +0.098 C 
ATOM      8  C   LIG    1       28.573 -28.974  14.264  0.00  0.00    +0.047 C 
ATOM      9  C   LIG    1       27.431 -26.706  14.622  0.00  0.00    -0.001 A 
ATOM     10  C   LIG    1       26.374 -25.807  14.361  0.00  0.00    +0.069 A 
ATOM     11  C   LIG    1       26.513 -24.441  14.665  0.00  0.00    +0.128 A 
ATOM     12  C   LIG    1       27.694 -23.949  15.207  0.00  0.00    +0.046 A 
ATOM     13  C   LIG    1       28.744 -24.820  15.466  0.00  0.00    +0.004 A 
ATOM     14  C   LIG    1       28.613 -26.183  15.184  0.00  0.00    +0.007 A 
ATOM     15  C   LIG    1       25.103 -26.288  13.772  0.00  0.00    +0.197 C 
ATOM     16  O   LIG    1       24.120 -25.547  13.738  0.00  0.00    -0.287 OA
ATOM     17  C   LIG    1       23.274 -30.577  13.329  0.00  0.00    +0.211 C 
ATOM     18  O   LIG    1       23.331 -30.357  14.537  0.00  0.00    -0.288 OA
ATOM     19  C   LIG    1       22.912 -31.923  12.820  0.00  0.00    +0.121 C 
ATOM     20  C   LIG    1       26.215 -29.860  12.600  0.00  0.00    +0.134 C 
ATOM     21  C   LIG    1       23.714 -32.383  11.842  0.00  0.00    +0.127 C 
ENDROOT
BRANCH  19  22
ATOM     22  C   LIG    1       21.713 -32.610  13.360  0.00  0.00    +0.248 C 
ATOM     23  O   LIG    1       21.659 -33.825  13.506  0.00  0.00    -0.270 OA
ATOM     24  N   LIG    1       20.664 -31.821  13.722  0.00  0.00    -0.325 N 
ATOM     25  H   LIG    1       20.778 -30.813  13.767  0.00  0.00    +0.145 HD
ATOM     26  H   LIG    1       19.876 -32.256  14.179  0.00  0.00    +0.145 HD
ENDBRANCH  19  22
BRANCH   1  28
ATOM     27  C   LIG    1       26.281 -32.468   9.395  0.00  0.00    +0.105 C 
ATOM     28  N   LIG    1       24.966 -31.958   9.791  0.00  0.00    -0.298 NA
ATOM     29  C   LIG    1       24.559 -30.861   8.906  0.00  0.00    +0.105 C 
ENDBRANCH   1  28
BRANCH   3  30
ATOM     30  O   LIG    1       22.742 -29.472  11.210  0.00  0.00    -0.373 OA
ATOM     31  H   LIG    1       23.101 -28.800  10.592  0.00  0.00    +0.211 HD
ENDBRANCH   3  30
BRANCH   4  32
ATOM     32  O   LIG    1       22.665 -27.498  12.922  0.00  0.00    -0.507 OA
ATOM     33  H   LIG    1       22.748 -26.661  12.411  0.00  0.00    +0.292 HD
ENDBRANCH   4  32
BRANCH   7  34
ATOM     34  O   LIG    1       26.524 -28.760  15.440  0.00  0.00    -0.384 OA
ATOM     35  H   LIG    1       26.516 -29.729  15.350  0.00  0.00    +0.211 HD
ENDBRANCH   7  34
BRANCH  11  36
ATOM     36  O   LIG    1       25.525 -23.515  14.455  0.00  0.00    -0.506 OA
ATOM     37  H   LIG    1       25.432 -23.379  13.487  0.00  0.00    +0.292 HD
ENDBRANCH  11  36
BRANCH  20  38
ATOM     38  O   LIG    1       27.412 -30.271  11.916  0.00  0.00    -0.391 OA
ATOM     39  H   LIG    1       27.448 -29.831  11.049  0.00  0.00    +0.210 HD
ENDBRANCH  20  38
BRANCH  21  40
ATOM     40  O   LIG    1       23.490 -33.616  11.229  0.00  0.00    -0.509 OA
ATOM     41  H   LIG    1       24.219 -33.690  10.568  0.00  0.00    +0.292 HD
ENDBRANCH  21  40
TORSDOF 8
ENDMDL
MODEL 4
REMARK VINA RESULT:      -4.7      4.223      6.971
REMARK  Name = *****
REMARK                            x       y       z     vdW  Elec       q    Type
REMARK                         _______ _______ _______ _____ _____    ______ ____
ROOT
ATOM      1  C   LIG    1       24.070 -32.031  13.177  0.00  0.00    +0.132 C 
ATOM      2  C   LIG    1       23.066 -30.917  13.642  0.00  0.00    +0.090 C 
ATOM      3  C   LIG    1       23.273 -29.608  12.868  0.00  0.00    +0.192 C 
ATOM      4  C   LIG    1       22.184 -28.591  13.124  0.00  0.00    +0.141 C 
ATOM      5  C   LIG    1       20.966 -28.920  13.601  0.00  0.00    +0.049 C 
ATOM      6  C   LIG    1       20.544 -30.333  13.942  0.00  0.00    +0.091 C 
ATOM      7  C   LIG    1       19.105 -30.615  13.389  0.00  0.00    +0.098 C 
ATOM      8  C   LIG    1       18.657 -32.065  13.642  0.00  0.00    +0.047 C 
ATOM      9  C   LIG    1       18.133 -29.575  13.951  0.00  0.00    -0.001 A 
ATOM     10  C   LIG    1       18.560 -28.242  14.130  0.00  0.00    +0.069 A 
ATOM     11  C   LIG    1       17.663 -27.265  14.598  0.00  0.00    +0.128 A 
ATOM     12  C   LIG    1       16.350 -27.595  14.910  0.00  0.00    +0.046 A 
ATOM     13  C   LIG    1       15.915 -28.904  14.744  0.00  0.00    +0.004 A 
ATOM     14  C   LIG    1       16.792 -29.880  14.263  0.00  0.00    +0.007 A 
ATOM     15  C   LIG    1       19.955 -27.849  13.822  0.00  0.00    +0.197 C 
ATOM     16  O   LIG    1       20.265 -26.658  13.781  0.00  0.00    -0.287 OA
ATOM     17  C   LIG    1       23.339 -29.962  11.368  0.00  0.00    +0.211 C 
ATOM     18  O   LIG    1       22.449 -29.701  10.561  0.00  0.00    -0.288 OA
ATOM     19  C   LIG    1       24.497 -30.801  10.974  0.00  0.00    +0.121 C 
ATOM     20  C   LIG    1       21.597 -31.395  13.514  0.00  0.00    +0.134 C 
ATOM     21  C   LIG    1       24.806 -31.773  11.853  0.00  0.00    +0.127 C 
ENDROOT
BRANCH  19  22
ATOM     22  C   LIG    1       25.235 -30.489   9.725  0.00  0.00    +0.248 C 
ATOM     23  O   LIG    1       26.459 -30.482   9.667  0.00  0.00    -0.270 OA
ATOM     24  N   LIG    1       24.487 -30.235   8.617  0.00  0.00    -0.325 N 
ATOM     25  H   LIG    1       23.488 -30.416   8.625  0.00  0.00    +0.145 HD
ATOM     26  H   LIG    1       24.965 -30.114   7.736  0.00  0.00    +0.145 HD
ENDBRANCH  19  22
BRANCH   1  28
ATOM     27  C   LIG    1       24.815 -33.823  14.684  0.00  0.00    +0.105 C 
ATOM     28  N   LIG    1       25.097 -32.481  14.170  0.00  0.00    -0.298 NA
ATOM     29  C   LIG    1       25.306 -31.545  15.281  0.00  0.00    +0.105 C 
ENDBRANCH   1  28
BRANCH   3  30
ATOM     30  O   LIG    1       24.499 -29.012  13.303  0.00  0.00    -0.373 OA
ATOM     31  H   LIG    1       24.231 -28.165  13.721  0.00  0.00    +0.211 HD
ENDBRANCH   3  30
BRANCH   4  32
ATOM     32  O   LIG    1       22.585 -27.283  12.877  0.00  0.00    -0.507 OA
ATOM     33  H   LIG    1       22.834 -26.864  13.733  0.00  0.00    +0.292 HD
ENDBRANCH   4  32
BRANCH   7  34
ATOM     34  O   LIG    1       19.130 -30.455  11.967  0.00  0.00    -0.384 OA
ATOM     35  H   LIG    1       19.265 -31.326  11.554  0.00  0.00    +0.211 HD
ENDBRANCH   7  34
BRANCH  11  36
ATOM     36  O   LIG    1       18.002 -25.950  14.779  0.00  0.00    -0.506 OA
ATOM     37  H   LIG    1       17.367 -25.396  14.275  0.00  0.00    +0.292 HD
ENDBRANCH  11  36
BRANCH  20  38
ATOM     38  O   LIG    1       21.449 -32.552  14.356  0.00  0.00    -0.391 OA
ATOM     39  H   LIG    1       21.810 -33.329  13.894  0.00  0.00    +0.210 HD
ENDBRANCH  20  38
BRANCH  21  40
ATOM     40  O   LIG    1       25.890 -32.626  11.651  0.00  0.00    -0.509 OA
ATOM     41  H   LIG    1       26.400 -32.196  10.923  0.00  0.00    +0.292 HD
ENDBRANCH  21  40
TORSDOF 8
ENDMDL
MODEL 5
REMARK VINA RESULT:      -4.7      2.928      4.115
REMARK  Name = *****
REMARK                            x       y       z     vdW  Elec       q    Type
REMARK                         _______ _______ _______ _____ _____    ______ ____
ROOT
ATOM      1  C   LIG    1       27.288 -26.957  14.570  0.00  0.00    +0.132 C 
ATOM      2  C   LIG    1       26.210 -27.537  13.586  0.00  0.00    +0.090 C 
ATOM      3  C   LIG    1       26.803 -28.612  12.666  0.00  0.00    +0.192 C 
ATOM      4  C   LIG    1       25.753 -29.351  11.867  0.00  0.00    +0.141 C 
ATOM      5  C   LIG    1       24.453 -29.392  12.220  0.00  0.00    +0.049 C 
ATOM      6  C   LIG    1       23.886 -28.706  13.445  0.00  0.00    +0.091 C 
ATOM      7  C   LIG    1       22.905 -29.670  14.198  0.00  0.00    +0.098 C 
ATOM      8  C   LIG    1       22.359 -29.048  15.496  0.00  0.00    +0.047 C 
ATOM      9  C   LIG    1       21.806 -30.127  13.237  0.00  0.00    -0.001 A 
ATOM     10  C   LIG    1       22.117 -30.372  11.882  0.00  0.00    +0.069 A 
ATOM     11  C   LIG    1       21.128 -30.841  10.999  0.00  0.00    +0.128 A 
ATOM     12  C   LIG    1       19.826 -31.053  11.437  0.00  0.00    +0.046 A 
ATOM     13  C   LIG    1       19.502 -30.813  12.766  0.00  0.00    +0.004 A 
ATOM     14  C   LIG    1       20.481 -30.363  13.658  0.00  0.00    +0.007 A 
ATOM     15  C   LIG    1       23.489 -30.147  11.371  0.00  0.00    +0.197 C 
ATOM     16  O   LIG    1       23.805 -30.554  10.252  0.00  0.00    -0.287 OA
ATOM     17  C   LIG    1       27.597 -29.594  13.551  0.00  0.00    +0.211 C 
ATOM     18  O   LIG    1       27.232 -30.739  13.805  0.00  0.00    -0.288 OA
ATOM     19  C   LIG    1       28.779 -29.008  14.229  0.00  0.00    +0.121 C 
ATOM     20  C   LIG    1       24.989 -28.098  14.358  0.00  0.00    +0.134 C 
ATOM     21  C   LIG    1       28.590 -27.762  14.703  0.00  0.00    +0.127 C 
ENDROOT
BRANCH  19  22
ATOM     22  C   LIG    1       30.047 -29.778  14.284  0.00  0.00    +0.248 C 
ATOM     23  O   LIG    1       30.202 -30.740  15.027  0.00  0.00    -0.270 OA
ATOM     24  N   LIG    1       31.040 -29.386  13.441  0.00  0.00    -0.325 N 
ATOM     25  H   LIG    1       30.848 -28.709  12.708  0.00  0.00    +0.145 HD
ATOM     26  H   LIG    1       31.875 -29.951  13.392  0.00  0.00    +0.145 HD
ENDBRANCH  19  22
BRANCH   1  28
ATOM     27  C   LIG    1       27.220 -24.683  15.498  0.00  0.00    +0.105 C 
ATOM     28  N   LIG    1       27.676 -25.522  14.387  0.00  0.00    -0.298 NA
ATOM     29  C   LIG    1       27.252 -24.945  13.107  0.00  0.00    +0.105 C 
ENDBRANCH   1  28
BRANCH   3  30
ATOM     30  O   LIG    1       27.664 -27.974  11.717  0.00  0.00    -0.373 OA
ATOM     31  H   LIG    1       28.321 -27.490  12.262  0.00  0.00    +0.211 HD
ENDBRANCH   3  30
BRANCH   4  32
ATOM     32  O   LIG    1       26.253 -29.927  10.705  0.00  0.00    -0.507 OA
ATOM     33  H   LIG    1       26.713 -30.765  10.942  0.00  0.00    +0.292 HD
ENDBRANCH   4  32
BRANCH   7  34
ATOM     34  O   LIG    1       23.637 -30.833  14.599  0.00  0.00    -0.384 OA
ATOM     35  H   LIG    1       23.048 -31.607  14.552  0.00  0.00    +0.211 HD
ENDBRANCH   7  34
BRANCH  11  36
ATOM     36  O   LIG    1       21.361 -31.117   9.678  0.00  0.00    -0.506 OA
ATOM     37  H   LIG    1       21.748 -30.316   9.260  0.00  0.00    +0.292 HD
ENDBRANCH  11  36
BRANCH  20  38
ATOM     38  O   LIG    1       24.417 -27.009  15.104  0.00  0.00    -0.391 OA
ATOM     39  H   LIG    1       24.324 -27.277  16.035  0.00  0.00    +0.210 HD
ENDBRANCH  20  38
BRANCH  21  40
ATOM     40  O   LIG    1       29.612 -27.055  15.335  0.00  0.00    -0.509 OA
ATOM     41  H   LIG    1       29.666 -26.210  14.828  0.00  0.00    +0.292 HD
ENDBRANCH  21  40
TORSDOF 8
ENDMDL
MODEL 6
REMARK VINA RESULT:      -4.5      2.970      7.392
REMARK  Name = *****
REMARK                            x       y       z     vdW  Elec       q    Type
REMARK                         _______ _______ _______ _____ _____    ______ ____
ROOT
ATOM      1  C   LIG    1       25.775 -29.500   6.373  0.00  0.00    +0.132 C 
ATOM      2  C   LIG    1       25.115 -29.352   7.791  0.00  0.00    +0.090 C 
ATOM      3  C   LIG    1       24.070 -30.447   8.046  0.00  0.00    +0.192 C 
ATOM      4  C   LIG    1       23.582 -30.476   9.477  0.00  0.00    +0.141 C 
ATOM      5  C   LIG    1       24.269 -29.932  10.501  0.00  0.00    +0.049 C 
ATOM      6  C   LIG    1       25.601 -29.227  10.348  0.00  0.00    +0.091 C 
ATOM      7  C   LIG    1       26.590 -29.690  11.473  0.00  0.00    +0.098 C 
ATOM      8  C   LIG    1       27.985 -29.061  11.317  0.00  0.00    +0.047 C 
ATOM      9  C   LIG    1       25.957 -29.429  12.842  0.00  0.00    -0.001 A 
ATOM     10  C   LIG    1       24.569 -29.612  13.019  0.00  0.00    +0.069 A 
ATOM     11  C   LIG    1       23.983 -29.424  14.284  0.00  0.00    +0.128 A 
ATOM     12  C   LIG    1       24.753 -29.040  15.375  0.00  0.00    +0.046 A 
ATOM     13  C   LIG    1       26.120 -28.853  15.217  0.00  0.00    +0.004 A 
ATOM     14  C   LIG    1       26.717 -29.052  13.968  0.00  0.00    +0.007 A 
ATOM     15  C   LIG    1       23.709 -30.009  11.880  0.00  0.00    +0.197 C 
ATOM     16  O   LIG    1       22.547 -30.365  12.078  0.00  0.00    -0.287 OA
ATOM     17  C   LIG    1       24.712 -31.798   7.669  0.00  0.00    +0.211 C 
ATOM     18  O   LIG    1       25.055 -32.648   8.487  0.00  0.00    -0.288 OA
ATOM     19  C   LIG    1       25.049 -31.950   6.232  0.00  0.00    +0.121 C 
ATOM     20  C   LIG    1       26.186 -29.353   8.911  0.00  0.00    +0.134 C 
ATOM     21  C   LIG    1       25.556 -30.842   5.658  0.00  0.00    +0.127 C 
ENDROOT
BRANCH  19  22
ATOM     22  C   LIG    1       24.764 -33.234   5.545  0.00  0.00    +0.248 C 
ATOM     23  O   LIG    1       25.564 -33.768   4.788  0.00  0.00    -0.270 OA
ATOM     24  N   LIG    1       23.568 -33.824   5.819  0.00  0.00    -0.325 N 
ATOM     25  H   LIG    1       22.989 -33.473   6.576  0.00  0.00    +0.145 HD
ATOM     26  H   LIG    1       23.391 -34.742   5.439  0.00  0.00    +0.145 HD
ENDBRANCH  19  22
BRANCH   1  28
ATOM     27  C   LIG    1       26.681 -27.608   5.094  0.00  0.00    +0.105 C 
ATOM     28  N   LIG    1       25.494 -28.419   5.375  0.00  0.00    -0.298 NA
ATOM     29  C   LIG    1       24.362 -27.556   5.729  0.00  0.00    +0.105 C 
ENDBRANCH   1  28
BRANCH   3  30
ATOM     30  O   LIG    1       22.926 -30.182   7.229  0.00  0.00    -0.373 OA
ATOM     31  H   LIG    1       22.318 -29.672   7.807  0.00  0.00    +0.211 HD
ENDBRANCH   3  30
BRANCH   4  32
ATOM     32  O   LIG    1       22.329 -31.061   9.617  0.00  0.00    -0.507 OA
ATOM     33  H   LIG    1       21.705 -30.387   9.972  0.00  0.00    +0.292 HD
ENDBRANCH   4  32
BRANCH   7  34
ATOM     34  O   LIG    1       26.781 -31.104  11.350  0.00  0.00    -0.384 OA
ATOM     35  H   LIG    1       27.471 -31.272  10.684  0.00  0.00    +0.211 HD
ENDBRANCH   7  34
BRANCH  11  36
ATOM     36  O   LIG    1       22.647 -29.600  14.533  0.00  0.00    -0.506 OA
ATOM     37  H   LIG    1       22.149 -29.360  13.720  0.00  0.00    +0.292 HD
ENDBRANCH  11  36
BRANCH  20  38
ATOM     38  O   LIG    1       27.057 -28.233   8.672  0.00  0.00    -0.391 OA
ATOM     39  H   LIG    1       27.981 -28.526   8.762  0.00  0.00    +0.210 HD
ENDBRANCH  20  38
BRANCH  21  40
ATOM     40  O   LIG    1       25.891 -30.805   4.305  0.00  0.00    -0.509 OA
ATOM     41  H   LIG    1       25.852 -31.751   4.024  0.00  0.00    +0.292 HD
ENDBRANCH  21  40
TORSDOF 8
ENDMDL
MODEL 7
REMARK VINA RESULT:      -4.4      1.534      1.695
REMARK  Name = *****
REMARK                            x       y       z     vdW  Elec       q    Type
REMARK                         _______ _______ _______ _____ _____    ______ ____
ROOT
ATOM      1  C   LIG    1       25.472 -30.424  13.526  0.00  0.00    +0.132 C 
ATOM      2  C   LIG    1       25.227 -30.154  11.998  0.00  0.00    +0.090 C 
ATOM      3  C   LIG    1       26.196 -29.100  11.447  0.00  0.00    +0.192 C 
ATOM      4  C   LIG    1       26.145 -28.981   9.940  0.00  0.00    +0.141 C 
ATOM      5  C   LIG    1       25.662 -29.953   9.140  0.00  0.00    +0.049 C 
ATOM      6  C   LIG    1       25.111 -31.269   9.647  0.00  0.00    +0.091 C 
ATOM      7  C   LIG    1       25.659 -32.454   8.778  0.00  0.00    +0.098 C 
ATOM      8  C   LIG    1       25.190 -33.824   9.298  0.00  0.00    +0.047 C 
ATOM      9  C   LIG    1       25.306 -32.211   7.309  0.00  0.00    -0.001 A 
ATOM     10  C   LIG    1       25.331 -30.899   6.790  0.00  0.00    +0.069 A 
ATOM     11  C   LIG    1       25.058 -30.668   5.429  0.00  0.00    +0.128 A 
ATOM     12  C   LIG    1       24.741 -31.719   4.578  0.00  0.00    +0.046 A 
ATOM     13  C   LIG    1       24.708 -33.016   5.074  0.00  0.00    +0.004 A 
ATOM     14  C   LIG    1       24.994 -33.261   6.421  0.00  0.00    +0.007 A 
ATOM     15  C   LIG    1       25.652 -29.748   7.665  0.00  0.00    +0.197 C 
ATOM     16  O   LIG    1       25.875 -28.641   7.172  0.00  0.00    -0.287 OA
ATOM     17  C   LIG    1       27.616 -29.486  11.909  0.00  0.00    +0.211 C 
ATOM     18  O   LIG    1       28.483 -29.934  11.163  0.00  0.00    -0.288 OA
ATOM     19  C   LIG    1       27.829 -29.440  13.377  0.00  0.00    +0.121 C 
ATOM     20  C   LIG    1       25.326 -31.464  11.175  0.00  0.00    +0.134 C 
ATOM     21  C   LIG    1       26.794 -29.898  14.106  0.00  0.00    +0.127 C 
ENDROOT
BRANCH  19  22
ATOM     22  C   LIG    1       29.087 -28.864  13.915  0.00  0.00    +0.248 C 
ATOM     23  O   LIG    1       29.103 -28.071  14.848  0.00  0.00    -0.270 OA
ATOM     24  N   LIG    1       30.248 -29.281  13.340  0.00  0.00    -0.325 N 
ATOM     25  H   LIG    1       30.243 -30.064  12.693  0.00  0.00    +0.145 HD
ATOM     26  H   LIG    1       31.119 -28.977  13.749  0.00  0.00    +0.145 HD
ENDBRANCH  19  22
BRANCH   1  28
ATOM     27  C   LIG    1       23.725 -31.171  15.084  0.00  0.00    +0.105 C 
ATOM     28  N   LIG    1       24.385 -30.015  14.473  0.00  0.00    -0.298 NA
ATOM     29  C   LIG    1       23.388 -29.113  13.886  0.00  0.00    +0.105 C 
ENDBRANCH   1  28
BRANCH   3  30
ATOM     30  O   LIG    1       25.822 -27.821  11.970  0.00  0.00    -0.373 OA
ATOM     31  H   LIG    1       26.025 -27.187  11.249  0.00  0.00    +0.211 HD
ENDBRANCH   3  30
BRANCH   4  32
ATOM     32  O   LIG    1       26.587 -27.749   9.472  0.00  0.00    -0.507 OA
ATOM     33  H   LIG    1       27.321 -27.901   8.833  0.00  0.00    +0.292 HD
ENDBRANCH   4  32
BRANCH   7  34
ATOM     34  O   LIG    1       27.087 -32.464   8.881  0.00  0.00    -0.384 OA
ATOM     35  H   LIG    1       27.361 -31.784   9.521  0.00  0.00    +0.211 HD
ENDBRANCH   7  34
BRANCH  11  36
ATOM     36  O   LIG    1       25.082 -29.425   4.854  0.00  0.00    -0.506 OA
ATOM     37  H   LIG    1       24.531 -29.452   4.040  0.00  0.00    +0.292 HD
ENDBRANCH  11  36
BRANCH  20  38
ATOM     38  O   LIG    1       24.313 -32.357  11.670  0.00  0.00    -0.391 OA
ATOM     39  H   LIG    1       24.603 -33.276  11.529  0.00  0.00    +0.210 HD
ENDBRANCH  20  38
BRANCH  21  40
ATOM     40  O   LIG    1       26.819 -29.889  15.500  0.00  0.00    -0.509 OA
ATOM     41  H   LIG    1       27.442 -29.156  15.722  0.00  0.00    +0.292 HD
ENDBRANCH  21  40
TORSDOF 8
ENDMDL
MODEL 8
REMARK VINA RESULT:      -4.3      2.090      4.180
REMARK  Name = *****
REMARK                            x       y       z     vdW  Elec       q    Type
REMARK                         _______ _______ _______ _____ _____    ______ ____
ROOT
ATOM      1  C   LIG    1       25.927 -28.962  13.054  0.00  0.00    +0.132 C 
ATOM      2  C   LIG    1       26.129 -29.879  11.794  0.00  0.00    +0.090 C 
ATOM      3  C   LIG    1       25.325 -31.181  11.906  0.00  0.00    +0.192 C 
ATOM      4  C   LIG    1       25.312 -31.979  10.623  0.00  0.00    +0.141 C 
ATOM      5  C   LIG    1       25.579 -31.440   9.416  0.00  0.00    +0.049 C 
ATOM      6  C   LIG    1       25.925 -29.982   9.199  0.00  0.00    +0.091 C 
ATOM      7  C   LIG    1       25.136 -29.417   7.968  0.00  0.00    +0.098 C 
ATOM      8  C   LIG    1       25.394 -27.915   7.750  0.00  0.00    +0.047 C 
ATOM      9  C   LIG    1       25.445 -30.269   6.734  0.00  0.00    -0.001 A 
ATOM     10  C   LIG    1       25.614 -31.663   6.871  0.00  0.00    +0.069 A 
ATOM     11  C   LIG    1       25.847 -32.465   5.739  0.00  0.00    +0.128 A 
ATOM     12  C   LIG    1       25.934 -31.900   4.472  0.00  0.00    +0.046 A 
ATOM     13  C   LIG    1       25.773 -30.529   4.321  0.00  0.00    +0.004 A 
ATOM     14  C   LIG    1       25.524 -29.723   5.437  0.00  0.00    +0.007 A 
ATOM     15  C   LIG    1       25.542 -32.305   8.204  0.00  0.00    +0.197 C 
ATOM     16  O   LIG    1       25.484 -33.532   8.296  0.00  0.00    -0.287 OA
ATOM     17  C   LIG    1       23.888 -30.805  12.321  0.00  0.00    +0.211 C 
ATOM     18  O   LIG    1       22.917 -30.869  11.571  0.00  0.00    -0.288 OA
ATOM     19  C   LIG    1       23.766 -30.190  13.666  0.00  0.00    +0.121 C 
ATOM     20  C   LIG    1       25.765 -29.127  10.490  0.00  0.00    +0.134 C 
ATOM     21  C   LIG    1       24.747 -29.319  13.971  0.00  0.00    +0.127 C 
ENDROOT
BRANCH  19  22
ATOM     22  C   LIG    1       22.656 -30.602  14.561  0.00  0.00    +0.248 C 
ATOM     23  O   LIG    1       22.028 -29.802  15.243  0.00  0.00    -0.270 OA
ATOM     24  N   LIG    1       22.336 -31.925  14.572  0.00  0.00    -0.325 N 
ATOM     25  H   LIG    1       22.735 -32.551  13.880  0.00  0.00    +0.145 HD
ATOM     26  H   LIG    1       21.526 -32.214  15.099  0.00  0.00    +0.145 HD
ENDBRANCH  19  22
BRANCH   1  28
ATOM     27  C   LIG    1       27.480 -27.327  14.030  0.00  0.00    +0.105 C 
ATOM     28  N   LIG    1       27.118 -28.743  13.936  0.00  0.00    -0.298 NA
ATOM     29  C   LIG    1       28.291 -29.544  13.568  0.00  0.00    +0.105 C 
ENDBRANCH   1  28
BRANCH   3  30
ATOM     30  O   LIG    1       25.939 -32.011  12.898  0.00  0.00    -0.373 OA
ATOM     31  H   LIG    1       26.901 -31.958  12.707  0.00  0.00    +0.211 HD
ENDBRANCH   3  30
BRANCH   4  32
ATOM     32  O   LIG    1       25.061 -33.333  10.820  0.00  0.00    -0.507 OA
ATOM     33  H   LIG    1       24.589 -33.683  10.031  0.00  0.00    +0.292 HD
ENDBRANCH   4  32
BRANCH   7  34
ATOM     34  O   LIG    1       23.736 -29.539   8.236  0.00  0.00    -0.384 OA
ATOM     35  H   LIG    1       23.250 -29.519   7.391  0.00  0.00    +0.211 HD
ENDBRANCH   7  34
BRANCH  11  36
ATOM     36  O   LIG    1       26.004 -33.825   5.794  0.00  0.00    -0.506 OA
ATOM     37  H   LIG    1       25.619 -34.212   4.977  0.00  0.00    +0.292 HD
ENDBRANCH  11  36
BRANCH  20  38
ATOM     38  O   LIG    1       26.637 -27.987  10.395  0.00  0.00    -0.391 OA
ATOM     39  H   LIG    1       27.472 -28.187  10.852  0.00  0.00    +0.210 HD
ENDBRANCH  20  38
BRANCH  21  40
ATOM     40  O   LIG    1       24.801 -28.681  15.210  0.00  0.00    -0.509 OA
ATOM     41  H   LIG    1       24.165 -27.931  15.120  0.00  0.00    +0.292 HD
ENDBRANCH  21  40
TORSDOF 8
ENDMDL
MODEL 9
REMARK VINA RESULT:      -4.3      1.697      2.102
REMARK  Name = *****
REMARK                            x       y       z     vdW  Elec       q    Type
REMARK                         _______ _______ _______ _____ _____    ______ ____
ROOT
ATOM      1  C   LIG    1       25.897 -27.355  13.876  0.00  0.00    +0.132 C 
ATOM      2  C   LIG    1       25.589 -28.185  12.578  0.00  0.00    +0.090 C 
ATOM      3  C   LIG    1       26.851 -28.861  12.025  0.00  0.00    +0.192 C 
ATOM      4  C   LIG    1       26.556 -29.847  10.918  0.00  0.00    +0.141 C 
ATOM      5  C   LIG    1       25.342 -30.403  10.730  0.00  0.00    +0.049 C 
ATOM      6  C   LIG    1       24.134 -30.108  11.594  0.00  0.00    +0.091 C 
ATOM      7  C   LIG    1       23.387 -31.440  11.949  0.00  0.00    +0.098 C 
ATOM      8  C   LIG    1       22.193 -31.205  12.891  0.00  0.00    +0.047 C 
ATOM      9  C   LIG    1       23.005 -32.167  10.657  0.00  0.00    -0.001 A 
ATOM     10  C   LIG    1       23.880 -32.135   9.551  0.00  0.00    +0.069 A 
ATOM     11  C   LIG    1       23.566 -32.841   8.376  0.00  0.00    +0.128 A 
ATOM     12  C   LIG    1       22.383 -33.564   8.275  0.00  0.00    +0.046 A 
ATOM     13  C   LIG    1       21.510 -33.603   9.353  0.00  0.00    +0.004 A 
ATOM     14  C   LIG    1       21.819 -32.920  10.533  0.00  0.00    +0.007 A 
ATOM     15  C   LIG    1       25.145 -31.366   9.611  0.00  0.00    +0.197 C 
ATOM     16  O   LIG    1       25.995 -31.507   8.731  0.00  0.00    -0.287 OA
ATOM     17  C   LIG    1       27.553 -29.567  13.203  0.00  0.00    +0.211 C 
ATOM     18  O   LIG    1       27.584 -30.786  13.352  0.00  0.00    -0.288 OA
ATOM     19  C   LIG    1       28.064 -28.661  14.261  0.00  0.00    +0.121 C 
ATOM     20  C   LIG    1       24.480 -29.236  12.834  0.00  0.00    +0.134 C 
ATOM     21  C   LIG    1       27.248 -27.631  14.554  0.00  0.00    +0.127 C 
ENDROOT
BRANCH  19  22
ATOM     22  C   LIG    1       29.403 -28.909  14.852  0.00  0.00    +0.248 C 
ATOM     23  O   LIG    1       29.688 -29.956  15.421  0.00  0.00    -0.270 OA
ATOM     24  N   LIG    1       30.329 -27.922  14.710  0.00  0.00    -0.325 N 
ATOM     25  H   LIG    1       30.147 -27.139  14.090  0.00  0.00    +0.145 HD
ATOM     26  H   LIG    1       31.272 -28.105  15.020  0.00  0.00    +0.145 HD
ENDBRANCH  19  22
BRANCH   1  28
ATOM     27  C   LIG    1       24.342 -25.458  13.741  0.00  0.00    +0.105 C 
ATOM     28  N   LIG    1       25.748 -25.868  13.785  0.00  0.00    -0.298 NA
ATOM     29  C   LIG    1       26.489 -25.257  12.676  0.00  0.00    +0.105 C 
ENDBRANCH   1  28
BRANCH   3  30
ATOM     30  O   LIG    1       27.696 -27.853  11.461  0.00  0.00    -0.373 OA
ATOM     31  H   LIG    1       27.089 -27.274  10.951  0.00  0.00    +0.211 HD
ENDBRANCH   3  30
BRANCH   4  32
ATOM     32  O   LIG    1       27.642 -30.072  10.079  0.00  0.00    -0.507 OA
ATOM     33  H   LIG    1       28.128 -30.865  10.401  0.00  0.00    +0.292 HD
ENDBRANCH   4  32
BRANCH   7  34
ATOM     34  O   LIG    1       24.291 -32.286  12.667  0.00  0.00    -0.384 OA
ATOM     35  H   LIG    1       23.851 -32.604  13.476  0.00  0.00    +0.211 HD
ENDBRANCH   7  34
BRANCH  11  36
ATOM     36  O   LIG    1       24.375 -32.870   7.270  0.00  0.00    -0.506 OA
ATOM     37  H   LIG    1       24.566 -31.943   7.005  0.00  0.00    +0.292 HD
ENDBRANCH  11  36
BRANCH  20  38
ATOM     38  O   LIG    1       23.297 -28.521  13.235  0.00  0.00    -0.391 OA
ATOM     39  H   LIG    1       22.513 -29.032  12.971  0.00  0.00    +0.210 HD
ENDBRANCH  20  38
BRANCH  21  40
ATOM     40  O   LIG    1       27.596 -26.667  15.500  0.00  0.00    -0.509 OA
ATOM     41  H   LIG    1       26.757 -26.170  15.654  0.00  0.00    +0.292 HD
ENDBRANCH  21  40
TORSDOF 8
ENDMDL
