MODEL 1
REMARK VINA RESULT:      -8.4      0.000      0.000
REMARK  Name = *****
REMARK                            x       y       z     vdW  Elec       q    Type
REMARK                         _______ _______ _______ _____ _____    ______ ____
ROOT
ATOM      1  C   LIG    1       29.038 -20.172   6.022  0.00  0.00    +0.138 C 
ATOM      2  N   LIG    1       27.819 -20.699   6.620  0.00  0.00    -0.270 N 
ATOM      3  C   LIG    1       27.881 -21.043   7.976  0.00  0.00    +0.271 C 
ATOM      4  O   LIG    1       28.943 -21.026   8.608  0.00  0.00    -0.270 OA
ATOM      5  C   LIG    1       26.550 -21.407   8.693  0.00  0.00    +0.320 C 
ATOM      6  N   LIG    1       26.103 -22.709   8.209  0.00  0.00    -0.243 NA
ATOM      7  C   LIG    1       25.716 -22.806   6.982  0.00  0.00    +0.079 C 
ATOM      8  C   LIG    1       25.590 -21.661   6.033  0.00  0.00    +0.023 A 
ATOM      9  C   LIG    1       24.414 -21.602   5.261  0.00  0.00    +0.032 A 
ATOM     10  C   LIG    1       24.268 -20.627   4.281  0.00  0.00    +0.042 A 
ATOM     11 CL   LIG    1       22.832 -20.569   3.338  0.00  0.00    -0.084 Cl
ATOM     12  C   LIG    1       25.283 -19.708   4.055  0.00  0.00    +0.022 A 
ATOM     13  C   LIG    1       26.446 -19.753   4.829  0.00  0.00    +0.025 A 
ATOM     14  C   LIG    1       26.617 -20.712   5.848  0.00  0.00    +0.045 A 
ENDROOT
BRANCH   7  15
ATOM     15  C   LIG    1       25.311 -24.166   6.513  0.00  0.00    +0.019 A 
ATOM     16  C   LIG    1       23.979 -24.597   6.462  0.00  0.00    +0.050 A 
ATOM     17 CL   LIG    1       22.641 -23.580   6.860  0.00  0.00    -0.083 Cl
ATOM     18  C   LIG    1       23.688 -25.896   6.028  0.00  0.00    +0.021 A 
ATOM     19  C   LIG    1       24.715 -26.756   5.637  0.00  0.00    +0.002 A 
ATOM     20  C   LIG    1       26.039 -26.321   5.664  0.00  0.00    +0.001 A 
ATOM     21  C   LIG    1       26.337 -25.028   6.096  0.00  0.00    +0.011 A 
ENDBRANCH   7  15
BRANCH   5  22
ATOM     22  O   LIG    1       25.554 -20.404   8.690  0.00  0.00    -0.364 OA
ATOM     23  H   LIG    1       24.724 -20.908   8.659  0.00  0.00    +0.212 HD
ENDBRANCH   5  22
TORSDOF 2
ENDMDL
MODEL 2
REMARK VINA RESULT:      -6.7      2.616      4.887
REMARK  Name = *****
REMARK                            x       y       z     vdW  Elec       q    Type
REMARK                         _______ _______ _______ _____ _____    ______ ____
ROOT
ATOM      1  C   LIG    1       21.850 -22.522   6.913  0.00  0.00    +0.138 C 
ATOM      2  N   LIG    1       23.177 -22.621   6.319  0.00  0.00    -0.270 N 
ATOM      3  C   LIG    1       23.810 -23.868   6.397  0.00  0.00    +0.271 C 
ATOM      4  O   LIG    1       23.331 -24.806   7.046  0.00  0.00    -0.270 OA
ATOM      5  C   LIG    1       25.126 -24.064   5.594  0.00  0.00    +0.320 C 
ATOM      6  N   LIG    1       26.185 -23.298   6.245  0.00  0.00    -0.243 NA
ATOM      7  C   LIG    1       26.111 -22.010   6.219  0.00  0.00    +0.079 C 
ATOM      8  C   LIG    1       25.074 -21.228   5.484  0.00  0.00    +0.023 A 
ATOM      9  C   LIG    1       25.525 -20.132   4.723  0.00  0.00    +0.032 A 
ATOM     10  C   LIG    1       24.613 -19.292   4.095  0.00  0.00    +0.042 A 
ATOM     11 CL   LIG    1       25.173 -17.953   3.176  0.00  0.00    -0.084 Cl
ATOM     12  C   LIG    1       23.250 -19.527   4.218  0.00  0.00    +0.022 A 
ATOM     13  C   LIG    1       22.798 -20.622   4.960  0.00  0.00    +0.025 A 
ATOM     14  C   LIG    1       23.696 -21.508   5.589  0.00  0.00    +0.045 A 
ENDROOT
BRANCH   7  15
ATOM     15  C   LIG    1       27.189 -21.264   6.936  0.00  0.00    +0.019 A 
ATOM     16  C   LIG    1       26.980 -20.571   8.136  0.00  0.00    +0.050 A 
ATOM     17 CL   LIG    1       25.466 -20.562   8.967  0.00  0.00    -0.083 Cl
ATOM     18  C   LIG    1       28.041 -19.881   8.732  0.00  0.00    +0.021 A 
ATOM     19  C   LIG    1       29.308 -19.891   8.145  0.00  0.00    +0.002 A 
ATOM     20  C   LIG    1       29.525 -20.599   6.965  0.00  0.00    +0.001 A 
ATOM     21  C   LIG    1       28.471 -21.289   6.364  0.00  0.00    +0.011 A 
ENDBRANCH   7  15
BRANCH   5  22
ATOM     22  O   LIG    1       25.032 -23.870   4.197  0.00  0.00    -0.364 OA
ATOM     23  H   LIG    1       25.771 -23.271   4.001  0.00  0.00    +0.212 HD
ENDBRANCH   5  22
TORSDOF 2
ENDMDL
MODEL 3
REMARK VINA RESULT:      -6.5      6.915      9.261
REMARK  Name = *****
REMARK                            x       y       z     vdW  Elec       q    Type
REMARK                         _______ _______ _______ _____ _____    ______ ____
ROOT
ATOM      1  C   LIG    1       23.365 -32.059   5.927  0.00  0.00    +0.138 C 
ATOM      2  N   LIG    1       24.411 -31.630   6.846  0.00  0.00    -0.270 N 
ATOM      3  C   LIG    1       25.095 -32.639   7.536  0.00  0.00    +0.271 C 
ATOM      4  O   LIG    1       24.751 -33.825   7.471  0.00  0.00    -0.270 OA
ATOM      5  C   LIG    1       26.349 -32.232   8.359  0.00  0.00    +0.320 C 
ATOM      6  N   LIG    1       25.910 -31.491   9.537  0.00  0.00    -0.243 NA
ATOM      7  C   LIG    1       25.383 -30.326   9.366  0.00  0.00    +0.079 C 
ATOM      8  C   LIG    1       25.273 -29.622   8.054  0.00  0.00    +0.023 A 
ATOM      9  C   LIG    1       25.636 -28.262   8.032  0.00  0.00    +0.032 A 
ATOM     10  C   LIG    1       25.463 -27.510   6.875  0.00  0.00    +0.042 A 
ATOM     11 CL   LIG    1       25.900 -25.848   6.861  0.00  0.00    -0.084 Cl
ATOM     12  C   LIG    1       24.929 -28.096   5.737  0.00  0.00    +0.022 A 
ATOM     13  C   LIG    1       24.581 -29.450   5.750  0.00  0.00    +0.025 A 
ATOM     14  C   LIG    1       24.766 -30.247   6.897  0.00  0.00    +0.045 A 
ENDROOT
BRANCH   7  15
ATOM     15  C   LIG    1       24.904 -29.621  10.594  0.00  0.00    +0.019 A 
ATOM     16  C   LIG    1       25.740 -28.856  11.417  0.00  0.00    +0.050 A 
ATOM     17 CL   LIG    1       27.408 -28.573  11.067  0.00  0.00    -0.083 Cl
ATOM     18  C   LIG    1       25.215 -28.245  12.561  0.00  0.00    +0.021 A 
ATOM     19  C   LIG    1       23.862 -28.383  12.877  0.00  0.00    +0.002 A 
ATOM     20  C   LIG    1       23.023 -29.124  12.047  0.00  0.00    +0.001 A 
ATOM     21  C   LIG    1       23.540 -29.737  10.905  0.00  0.00    +0.011 A 
ENDBRANCH   7  15
BRANCH   5  22
ATOM     22  O   LIG    1       27.392 -31.615   7.630  0.00  0.00    -0.364 OA
ATOM     23  H   LIG    1       27.756 -32.341   7.096  0.00  0.00    +0.212 HD
ENDBRANCH   5  22
TORSDOF 2
ENDMDL
MODEL 4
REMARK VINA RESULT:      -6.4      6.916      9.023
REMARK  Name = *****
REMARK                            x       y       z     vdW  Elec       q    Type
REMARK                         _______ _______ _______ _____ _____    ______ ____
ROOT
ATOM      1  C   LIG    1       26.724 -28.177  12.671  0.00  0.00    +0.138 C 
ATOM      2  N   LIG    1       26.415 -29.154  11.635  0.00  0.00    -0.270 N 
ATOM      3  C   LIG    1       27.498 -29.845  11.078  0.00  0.00    +0.271 C 
ATOM      4  O   LIG    1       28.669 -29.558  11.352  0.00  0.00    -0.270 OA
ATOM      5  C   LIG    1       27.186 -31.036  10.128  0.00  0.00    +0.320 C 
ATOM      6  N   LIG    1       26.664 -30.504   8.873  0.00  0.00    -0.243 NA
ATOM      7  C   LIG    1       25.506 -29.934   8.886  0.00  0.00    +0.079 C 
ATOM      8  C   LIG    1       24.602 -29.863  10.071  0.00  0.00    +0.023 A 
ATOM      9  C   LIG    1       23.244 -30.165   9.852  0.00  0.00    +0.032 A 
ATOM     10  C   LIG    1       22.320 -30.020  10.881  0.00  0.00    +0.042 A 
ATOM     11 CL   LIG    1       20.664 -30.383  10.602  0.00  0.00    -0.084 Cl
ATOM     12  C   LIG    1       22.731 -29.572  12.129  0.00  0.00    +0.022 A 
ATOM     13  C   LIG    1       24.080 -29.285  12.354  0.00  0.00    +0.025 A 
ATOM     14  C   LIG    1       25.047 -29.445  11.341  0.00  0.00    +0.045 A 
ENDROOT
BRANCH   7  15
ATOM     15  C   LIG    1       25.028 -29.362   7.590  0.00  0.00    +0.019 A 
ATOM     16  C   LIG    1       24.369 -30.117   6.612  0.00  0.00    +0.050 A 
ATOM     17 CL   LIG    1       23.961 -31.782   6.820  0.00  0.00    -0.083 Cl
ATOM     18  C   LIG    1       23.972 -29.506   5.417  0.00  0.00    +0.021 A 
ATOM     19  C   LIG    1       24.218 -28.149   5.202  0.00  0.00    +0.002 A 
ATOM     20  C   LIG    1       24.852 -27.391   6.184  0.00  0.00    +0.001 A 
ATOM     21  C   LIG    1       25.251 -27.992   7.378  0.00  0.00    +0.011 A 
ENDBRANCH   7  15
BRANCH   5  22
ATOM     22  O   LIG    1       26.423 -32.087  10.686  0.00  0.00    -0.364 OA
ATOM     23  H   LIG    1       25.925 -31.653  11.399  0.00  0.00    +0.212 HD
ENDBRANCH   5  22
TORSDOF 2
ENDMDL
MODEL 5
REMARK VINA RESULT:      -6.3      6.753      9.109
REMARK  Name = *****
REMARK                            x       y       z     vdW  Elec       q    Type
REMARK                         _______ _______ _______ _____ _____    ______ ____
ROOT
ATOM      1  C   LIG    1       27.568 -29.919  10.606  0.00  0.00    +0.138 C 
ATOM      2  N   LIG    1       26.264 -30.234  10.039  0.00  0.00    -0.270 N 
ATOM      3  C   LIG    1       25.463 -31.128  10.760  0.00  0.00    +0.271 C 
ATOM      4  O   LIG    1       25.883 -31.724  11.759  0.00  0.00    -0.270 OA
ATOM      5  C   LIG    1       23.992 -31.321  10.296  0.00  0.00    +0.320 C 
ATOM      6  N   LIG    1       23.995 -32.071   9.044  0.00  0.00    -0.243 NA
ATOM      7  C   LIG    1       24.477 -31.500   7.991  0.00  0.00    +0.079 C 
ATOM      8  C   LIG    1       24.944 -30.085   7.924  0.00  0.00    +0.023 A 
ATOM      9  C   LIG    1       24.522 -29.329   6.813  0.00  0.00    +0.032 A 
ATOM     10  C   LIG    1       24.999 -28.036   6.624  0.00  0.00    +0.042 A 
ATOM     11 CL   LIG    1       24.486 -27.125   5.261  0.00  0.00    -0.084 Cl
ATOM     12  C   LIG    1       25.897 -27.486   7.528  0.00  0.00    +0.022 A 
ATOM     13  C   LIG    1       26.307 -28.228   8.640  0.00  0.00    +0.025 A 
ATOM     14  C   LIG    1       25.824 -29.530   8.875  0.00  0.00    +0.045 A 
ENDROOT
BRANCH   7  15
ATOM     15  C   LIG    1       24.504 -32.319   6.740  0.00  0.00    +0.019 A 
ATOM     16  C   LIG    1       25.688 -32.747   6.126  0.00  0.00    +0.050 A 
ATOM     17 CL   LIG    1       27.256 -32.443   6.784  0.00  0.00    -0.083 Cl
ATOM     18  C   LIG    1       25.624 -33.494   4.945  0.00  0.00    +0.021 A 
ATOM     19  C   LIG    1       24.389 -33.825   4.384  0.00  0.00    +0.002 A 
ATOM     20  C   LIG    1       23.210 -33.422   5.007  0.00  0.00    +0.001 A 
ATOM     21  C   LIG    1       23.265 -32.675   6.185  0.00  0.00    +0.011 A 
ENDBRANCH   7  15
BRANCH   5  22
ATOM     22  O   LIG    1       23.192 -30.156  10.283  0.00  0.00    -0.364 OA
ATOM     23  H   LIG    1       23.585 -29.602  10.978  0.00  0.00    +0.212 HD
ENDBRANCH   5  22
TORSDOF 2
ENDMDL
MODEL 6
REMARK VINA RESULT:      -6.1      6.631      9.766
REMARK  Name = *****
REMARK                            x       y       z     vdW  Elec       q    Type
REMARK                         _______ _______ _______ _____ _____    ______ ____
ROOT
ATOM      1  C   LIG    1       27.402 -33.210   8.370  0.00  0.00    +0.138 C 
ATOM      2  N   LIG    1       26.312 -32.528   7.685  0.00  0.00    -0.270 N 
ATOM      3  C   LIG    1       26.233 -32.703   6.298  0.00  0.00    +0.271 C 
ATOM      4  O   LIG    1       27.111 -33.298   5.662  0.00  0.00    -0.270 OA
ATOM      5  C   LIG    1       24.968 -32.166   5.570  0.00  0.00    +0.320 C 
ATOM      6  N   LIG    1       25.028 -30.708   5.552  0.00  0.00    -0.243 NA
ATOM      7  C   LIG    1       24.912 -30.077   6.672  0.00  0.00    +0.079 C 
ATOM      8  C   LIG    1       24.618 -30.719   7.987  0.00  0.00    +0.023 A 
ATOM      9  C   LIG    1       23.635 -30.104   8.787  0.00  0.00    +0.032 A 
ATOM     10  C   LIG    1       23.378 -30.579  10.069  0.00  0.00    +0.042 A 
ATOM     11 CL   LIG    1       22.183 -29.818  11.041  0.00  0.00    -0.084 Cl
ATOM     12  C   LIG    1       24.092 -31.660  10.568  0.00  0.00    +0.022 A 
ATOM     13  C   LIG    1       25.058 -32.281   9.771  0.00  0.00    +0.025 A 
ATOM     14  C   LIG    1       25.326 -31.842   8.459  0.00  0.00    +0.045 A 
ENDROOT
BRANCH   7  15
ATOM     15  C   LIG    1       25.025 -28.588   6.616  0.00  0.00    +0.019 A 
ATOM     16  C   LIG    1       25.799 -27.840   7.513  0.00  0.00    +0.050 A 
ATOM     17 CL   LIG    1       26.775 -28.559   8.744  0.00  0.00    -0.083 Cl
ATOM     18  C   LIG    1       25.834 -26.446   7.402  0.00  0.00    +0.021 A 
ATOM     19  C   LIG    1       25.113 -25.799   6.396  0.00  0.00    +0.002 A 
ATOM     20  C   LIG    1       24.363 -26.542   5.488  0.00  0.00    +0.001 A 
ATOM     21  C   LIG    1       24.322 -27.933   5.592  0.00  0.00    +0.011 A 
ENDBRANCH   7  15
BRANCH   5  22
ATOM     22  O   LIG    1       23.733 -32.700   6.004  0.00  0.00    -0.364 OA
ATOM     23  H   LIG    1       23.211 -31.912   6.228  0.00  0.00    +0.212 HD
ENDBRANCH   5  22
TORSDOF 2
ENDMDL
MODEL 7
REMARK VINA RESULT:      -6.0      8.322      9.267
REMARK  Name = *****
REMARK                            x       y       z     vdW  Elec       q    Type
REMARK                         _______ _______ _______ _____ _____    ______ ____
ROOT
ATOM      1  C   LIG    1       27.282 -26.093  13.909  0.00  0.00    +0.138 C 
ATOM      2  N   LIG    1       26.542 -27.344  13.817  0.00  0.00    -0.270 N 
ATOM      3  C   LIG    1       27.245 -28.516  14.125  0.00  0.00    +0.271 C 
ATOM      4  O   LIG    1       28.462 -28.511  14.341  0.00  0.00    -0.270 OA
ATOM      5  C   LIG    1       26.435 -29.838  14.242  0.00  0.00    +0.320 C 
ATOM      6  N   LIG    1       26.014 -30.242  12.904  0.00  0.00    -0.243 NA
ATOM      7  C   LIG    1       25.143 -29.514  12.291  0.00  0.00    +0.079 C 
ATOM      8  C   LIG    1       24.448 -28.333  12.882  0.00  0.00    +0.023 A 
ATOM      9  C   LIG    1       23.057 -28.249  12.679  0.00  0.00    +0.032 A 
ATOM     10  C   LIG    1       22.354 -27.128  13.108  0.00  0.00    +0.042 A 
ATOM     11 CL   LIG    1       20.659 -27.030  12.848  0.00  0.00    -0.084 Cl
ATOM     12  C   LIG    1       23.021 -26.085  13.735  0.00  0.00    +0.022 A 
ATOM     13  C   LIG    1       24.399 -26.172  13.951  0.00  0.00    +0.025 A 
ATOM     14  C   LIG    1       25.138 -27.303  13.552  0.00  0.00    +0.045 A 
ENDROOT
BRANCH   7  15
ATOM     15  C   LIG    1       24.774 -29.937  10.906  0.00  0.00    +0.019 A 
ATOM     16  C   LIG    1       25.380 -29.418   9.755  0.00  0.00    +0.050 A 
ATOM     17 CL   LIG    1       26.680 -28.282   9.803  0.00  0.00    -0.083 Cl
ATOM     18  C   LIG    1       24.960 -29.856   8.493  0.00  0.00    +0.021 A 
ATOM     19  C   LIG    1       23.952 -30.814   8.378  0.00  0.00    +0.002 A 
ATOM     20  C   LIG    1       23.365 -31.350   9.522  0.00  0.00    +0.001 A 
ATOM     21  C   LIG    1       23.777 -30.919  10.783  0.00  0.00    +0.011 A 
ENDBRANCH   7  15
BRANCH   5  22
ATOM     22  O   LIG    1       25.407 -29.848  15.212  0.00  0.00    -0.364 OA
ATOM     23  H   LIG    1       24.984 -28.980  15.104  0.00  0.00    +0.212 HD
ENDBRANCH   5  22
TORSDOF 2
ENDMDL
MODEL 8
REMARK VINA RESULT:      -6.0      8.167      9.756
REMARK  Name = *****
REMARK                            x       y       z     vdW  Elec       q    Type
REMARK                         _______ _______ _______ _____ _____    ______ ____
ROOT
ATOM      1  C   LIG    1       28.302 -28.121  14.925  0.00  0.00    +0.138 C 
ATOM      2  N   LIG    1       27.257 -28.940  14.327  0.00  0.00    -0.270 N 
ATOM      3  C   LIG    1       27.517 -30.311  14.214  0.00  0.00    +0.271 C 
ATOM      4  O   LIG    1       28.623 -30.792  14.488  0.00  0.00    -0.270 OA
ATOM      5  C   LIG    1       26.348 -31.238  13.778  0.00  0.00    +0.320 C 
ATOM      6  N   LIG    1       26.073 -31.003  12.364  0.00  0.00    -0.243 NA
ATOM      7  C   LIG    1       25.579 -29.863  12.018  0.00  0.00    +0.079 C 
ATOM      8  C   LIG    1       25.167 -28.787  12.967  0.00  0.00    +0.023 A 
ATOM      9  C   LIG    1       23.923 -28.174  12.729  0.00  0.00    +0.032 A 
ATOM     10  C   LIG    1       23.515 -27.093  13.504  0.00  0.00    +0.042 A 
ATOM     11 CL   LIG    1       21.998 -26.346  13.200  0.00  0.00    -0.084 Cl
ATOM     12  C   LIG    1       24.335 -26.612  14.515  0.00  0.00    +0.022 A 
ATOM     13  C   LIG    1       25.565 -27.228  14.764  0.00  0.00    +0.025 A 
ATOM     14  C   LIG    1       25.998 -28.340  14.014  0.00  0.00    +0.045 A 
ENDROOT
BRANCH   7  15
ATOM     15  C   LIG    1       25.356 -29.646  10.556  0.00  0.00    +0.019 A 
ATOM     16  C   LIG    1       24.288 -30.211   9.848  0.00  0.00    +0.050 A 
ATOM     17 CL   LIG    1       23.058 -31.165  10.598  0.00  0.00    -0.083 Cl
ATOM     18  C   LIG    1       24.164 -29.973   8.475  0.00  0.00    +0.021 A 
ATOM     19  C   LIG    1       25.091 -29.166   7.812  0.00  0.00    +0.002 A 
ATOM     20  C   LIG    1       26.140 -28.583   8.519  0.00  0.00    +0.001 A 
ATOM     21  C   LIG    1       26.271 -28.816   9.888  0.00  0.00    +0.011 A 
ENDBRANCH   7  15
BRANCH   5  22
ATOM     22  O   LIG    1       25.206 -31.224  14.611  0.00  0.00    -0.364 OA
ATOM     23  H   LIG    1       24.878 -30.313  14.531  0.00  0.00    +0.212 HD
ENDBRANCH   5  22
TORSDOF 2
ENDMDL
MODEL 9
REMARK VINA RESULT:      -5.9      8.039      9.230
REMARK  Name = *****
REMARK                            x       y       z     vdW  Elec       q    Type
REMARK                         _______ _______ _______ _____ _____    ______ ____
ROOT
ATOM      1  C   LIG    1       25.361 -24.684  13.736  0.00  0.00    +0.138 C 
ATOM      2  N   LIG    1       25.449 -26.137  13.797  0.00  0.00    -0.270 N 
ATOM      3  C   LIG    1       26.607 -26.673  14.373  0.00  0.00    +0.271 C 
ATOM      4  O   LIG    1       27.566 -25.963  14.699  0.00  0.00    -0.270 OA
ATOM      5  C   LIG    1       26.640 -28.204  14.644  0.00  0.00    +0.320 C 
ATOM      6  N   LIG    1       26.751 -28.899  13.366  0.00  0.00    -0.243 NA
ATOM      7  C   LIG    1       25.750 -28.849  12.554  0.00  0.00    +0.079 C 
ATOM      8  C   LIG    1       24.433 -28.216  12.858  0.00  0.00    +0.023 A 
ATOM      9  C   LIG    1       23.282 -28.949  12.513  0.00  0.00    +0.032 A 
ATOM     10  C   LIG    1       22.020 -28.385  12.668  0.00  0.00    +0.042 A 
ATOM     11 CL   LIG    1       20.621 -29.284  12.236  0.00  0.00    -0.084 Cl
ATOM     12  C   LIG    1       21.890 -27.094  13.161  0.00  0.00    +0.022 A 
ATOM     13  C   LIG    1       23.030 -26.369  13.519  0.00  0.00    +0.025 A 
ATOM     14  C   LIG    1       24.322 -26.919  13.398  0.00  0.00    +0.045 A 
ENDROOT
BRANCH   7  15
ATOM     15  C   LIG    1       25.922 -29.535  11.237  0.00  0.00    +0.019 A 
ATOM     16  C   LIG    1       25.802 -30.920  11.068  0.00  0.00    +0.050 A 
ATOM     17 CL   LIG    1       25.363 -31.992  12.350  0.00  0.00    -0.083 Cl
ATOM     18  C   LIG    1       25.998 -31.484   9.803  0.00  0.00    +0.021 A 
ATOM     19  C   LIG    1       26.301 -30.672   8.708  0.00  0.00    +0.002 A 
ATOM     20  C   LIG    1       26.397 -29.291   8.868  0.00  0.00    +0.001 A 
ATOM     21  C   LIG    1       26.203 -28.722  10.127  0.00  0.00    +0.011 A 
ENDBRANCH   7  15
BRANCH   5  22
ATOM     22  O   LIG    1       25.630 -28.700  15.499  0.00  0.00    -0.364 OA
ATOM     23  H   LIG    1       25.219 -27.896  15.857  0.00  0.00    +0.212 HD
ENDBRANCH   5  22
TORSDOF 2
ENDMDL
